# generated using pymatgen
data_TcS2
_symmetry_space_group_name_H-M   'P 1'
_cell_length_a   7.65963439
_cell_length_b   6.39199830
_cell_length_c   6.50188825
_cell_angle_alpha   61.17950402
_cell_angle_beta   68.03351733
_cell_angle_gamma   77.99055274
_symmetry_Int_Tables_number   1
_chemical_formula_structural   TcS2
_chemical_formula_sum   'Tc4 S8'
_cell_volume   258.50555512
_cell_formula_units_Z   4
loop_
 _symmetry_equiv_pos_site_id
 _symmetry_equiv_pos_as_xyz
  1  'x, y, z'
loop_
 _atom_site_type_symbol
 _atom_site_label
 _atom_site_symmetry_multiplicity
 _atom_site_fract_x
 _atom_site_fract_y
 _atom_site_fract_z
 _atom_site_occupancy
  Tc  Tc0  1  0.99798825  0.98866637  0.71412846  1.0
  Tc  Tc1  1  0.00201175  0.01133363  0.28587154  1.0
  Tc  Tc2  1  0.99250691  0.56218431  0.69019404  1.0
  Tc  Tc3  1  0.00749309  0.43781569  0.30980596  1.0
  S  S4  1  0.75715443  0.86514924  0.66157658  1.0
  S  S5  1  0.24284557  0.13485076  0.33842342  1.0
  S  S6  1  0.83383383  0.82436328  0.16468305  1.0
  S  S7  1  0.16616617  0.17563672  0.83531695  1.0
  S  S8  1  0.18843663  0.63894732  0.85427152  1.0
  S  S9  1  0.81156337  0.36105268  0.14572848  1.0
  S  S10  1  0.78067552  0.32729754  0.69374734  1.0
  S  S11  1  0.21932448  0.67270246  0.30625266  1.0
