# generated using pymatgen
data_CrPO4
_symmetry_space_group_name_H-M   'P 1'
_cell_length_a   4.72684511
_cell_length_b   4.72684511
_cell_length_c   6.23563050
_cell_angle_alpha   90.00000000
_cell_angle_beta   90.00000000
_cell_angle_gamma   113.16560945
_symmetry_Int_Tables_number   1
_chemical_formula_structural   CrPO4
_chemical_formula_sum   'Cr2 P2 O8'
_cell_volume   128.08970135
_cell_formula_units_Z   2
loop_
 _symmetry_equiv_pos_site_id
 _symmetry_equiv_pos_as_xyz
  1  'x, y, z'
loop_
 _atom_site_type_symbol
 _atom_site_label
 _atom_site_symmetry_multiplicity
 _atom_site_fract_x
 _atom_site_fract_y
 _atom_site_fract_z
 _atom_site_occupancy
  Cr  Cr0  1  0.00000000  0.00000000  0.50000000  1.0
  Cr  Cr1  1  0.00000000  0.00000000  0.00000000  1.0
  P  P2  1  0.34705149  0.65294851  0.25000000  1.0
  P  P3  1  -0.34705149  1.34705149  0.75000000  1.0
  O  O4  1  0.22085792  0.28505928  0.25000000  1.0
  O  O5  1  -0.71494072  1.22085792  0.75000000  1.0
  O  O6  1  0.71494072  0.77914208  0.25000000  1.0
  O  O7  1  -0.22085792  1.71494072  0.75000000  1.0
  O  O8  1  0.24353322  0.75646678  0.45614799  1.0
  O  O9  1  0.24353322  0.75646678  0.04385201  1.0
  O  O10  1  -0.24353322  1.24353322  0.95614799  1.0
  O  O11  1  -0.24353322  1.24353322  0.54385201  1.0
