# generated using pymatgen
data_CaAl4O7
_symmetry_space_group_name_H-M   'P 1'
_cell_length_a   7.89106501
_cell_length_b   7.89106501
_cell_length_c   5.49852835
_cell_angle_alpha   76.69256751
_cell_angle_beta   103.30743249
_cell_angle_gamma   110.68884188
_symmetry_Int_Tables_number   1
_chemical_formula_structural   CaAl4O7
_chemical_formula_sum   'Ca2 Al8 O14'
_cell_volume   307.51224358
_cell_formula_units_Z   2
loop_
 _symmetry_equiv_pos_site_id
 _symmetry_equiv_pos_as_xyz
  1  'x, y, z'
loop_
 _atom_site_type_symbol
 _atom_site_label
 _atom_site_symmetry_multiplicity
 _atom_site_fract_x
 _atom_site_fract_y
 _atom_site_fract_z
 _atom_site_occupancy
  Ca  Ca0  1  0.69610059  -0.30389941  0.75000000  1.0
  Ca  Ca1  1  1.30389941  0.30389941  0.25000000  1.0
  Al  Al2  1  1.57746342  0.25149504  0.80695378  1.0
  Al  Al3  1  0.74850496  -0.57746342  0.30695378  1.0
  Al  Al4  1  1.25149504  0.57746342  0.69304622  1.0
  Al  Al5  1  0.42253658  -0.25149504  0.19304622  1.0
  Al  Al6  1  0.18083785  -0.05995195  0.74276917  1.0
  Al  Al7  1  1.05995195  0.81916215  0.24276917  1.0
  Al  Al8  1  0.94004805  -0.81916215  0.75723083  1.0
  Al  Al9  1  1.81916215  0.05995195  0.25723083  1.0
  O  O10  1  0.43987993  -0.32899425  0.92507659  1.0
  O  O11  1  1.32899425  0.56012007  0.42507659  1.0
  O  O12  1  0.67100575  -0.56012007  0.57492341  1.0
  O  O13  1  1.56012007  0.32899425  0.07492341  1.0
  O  O14  1  1.75141547  0.13746237  0.92131942  1.0
  O  O15  1  0.86253763  -0.75141547  0.42131942  1.0
  O  O16  1  1.13746237  0.75141547  0.57868058  1.0
  O  O17  1  0.24858453  -0.13746237  0.07868058  1.0
  O  O18  1  1.36441196  0.12859448  0.64907898  1.0
  O  O19  1  0.87140552  -0.36441196  0.14907898  1.0
  O  O20  1  1.12859448  0.36441196  0.85092102  1.0
  O  O21  1  0.63558804  -0.12859448  0.35092102  1.0
  O  O22  1  0.96843907  -0.03156093  0.75000000  1.0
  O  O23  1  1.03156093  0.03156093  0.25000000  1.0
