# generated using pymatgen
data_ZrP2S7
_symmetry_space_group_name_H-M   'P 1'
_cell_length_a   16.93232877
_cell_length_b   15.87999910
_cell_length_c   8.85539645
_cell_angle_alpha   81.02230062
_cell_angle_beta   67.87454499
_cell_angle_gamma   31.10315439
_symmetry_Int_Tables_number   1
_chemical_formula_structural   ZrP2S7
_chemical_formula_sum   'Zr4 P8 S28'
_cell_volume   1068.30519099
_cell_formula_units_Z   4
loop_
 _symmetry_equiv_pos_site_id
 _symmetry_equiv_pos_as_xyz
  1  'x, y, z'
loop_
 _atom_site_type_symbol
 _atom_site_label
 _atom_site_symmetry_multiplicity
 _atom_site_fract_x
 _atom_site_fract_y
 _atom_site_fract_z
 _atom_site_occupancy
  Zr  Zr0  1  0.11244801  0.11244801  0.88755199  1.0
  Zr  Zr1  1  1.13755199  0.13755199  0.36244801  1.0
  Zr  Zr2  1  0.88755199  0.88755199  0.11244801  1.0
  Zr  Zr3  1  1.36244801  0.36244801  0.13755199  1.0
  P  P4  1  0.87177232  -0.75607431  0.74441788  1.0
  P  P5  1  0.24392569  -0.12822768  1.13988411  1.0
  P  P6  1  0.37822768  1.00607431  0.50558212  1.0
  P  P7  1  1.00607431  0.37822768  0.11011589  1.0
  P  P8  1  0.74441788  1.13988411  0.87177232  1.0
  P  P9  1  1.13988411  0.74441788  0.24392569  1.0
  P  P10  1  0.50558212  1.11011589  0.37822768  1.0
  P  P11  1  1.11011589  0.50558212  0.00607431  1.0
  S  S12  1  0.72748165  -0.72748165  0.72748165  1.0
  S  S13  1  0.27251835  -0.27251835  1.27251835  1.0
  S  S14  1  0.52251835  0.97748165  0.52251835  1.0
  S  S15  1  0.97748165  0.52251835  -0.02251835  1.0
  S  S16  1  0.13991291  0.00585609  1.60769390  1.0
  S  S17  1  0.00585609  0.13991291  1.24653710  1.0
  S  S18  1  0.11008709  1.24414391  0.64230610  1.0
  S  S19  1  1.24414391  0.11008709  0.00346290  1.0
  S  S20  1  -0.18348816  0.29242333  0.99416451  1.0
  S  S21  1  0.29242333  -0.18348816  0.89690031  1.0
  S  S22  1  1.43348816  -0.04242333  0.25583549  1.0
  S  S23  1  0.95757667  0.43348816  0.35309969  1.0
  S  S24  1  0.80742358  -0.59709584  0.61918783  1.0
  S  S25  1  0.40290416  -0.19257642  1.17048444  1.0
  S  S26  1  0.44257642  0.84709584  0.63081217  1.0
  S  S27  1  0.84709584  0.44257642  0.07951556  1.0
  S  S28  1  0.61918783  1.17048444  0.80742358  1.0
  S  S29  1  1.17048444  0.61918783  0.40290416  1.0
  S  S30  1  0.63081217  1.07951556  0.44257642  1.0
  S  S31  1  1.07951556  0.63081217  -0.15290416  1.0
  S  S32  1  0.99416451  0.89690031  0.81651184  1.0
  S  S33  1  0.89690031  0.99416451  0.29242333  1.0
  S  S34  1  0.25583549  1.35309969  0.43348816  1.0
  S  S35  1  1.35309969  0.25583549  -0.04242333  1.0
  S  S36  1  0.60769390  1.24653710  0.13991291  1.0
  S  S37  1  1.24653710  0.60769390  0.00585609  1.0
  S  S38  1  1.64230610  0.00346290  0.11008709  1.0
  S  S39  1  1.00346290  0.64230610  0.24414391  1.0
