# generated using pymatgen
data_Sc2MnS4
_symmetry_space_group_name_H-M   'P 1'
_cell_length_a   7.50324000
_cell_length_b   7.50324000
_cell_length_c   7.50324000
_cell_angle_alpha   60.00000000
_cell_angle_beta   60.00000000
_cell_angle_gamma   60.00000000
_symmetry_Int_Tables_number   1
_chemical_formula_structural   Sc2MnS4
_chemical_formula_sum   'Sc4 Mn2 S8'
_cell_volume   298.69745101
_cell_formula_units_Z   2
loop_
 _symmetry_equiv_pos_site_id
 _symmetry_equiv_pos_as_xyz
  1  'x, y, z'
loop_
 _atom_site_type_symbol
 _atom_site_label
 _atom_site_symmetry_multiplicity
 _atom_site_fract_x
 _atom_site_fract_y
 _atom_site_fract_z
 _atom_site_occupancy
  Sc  Sc0  1  0.62500000  1.12500000  0.12500000  1.0
  Sc  Sc1  1  0.12500000  1.62500000  0.12500000  1.0
  Sc  Sc2  1  0.12500000  0.12500000  1.62500000  1.0
  Sc  Sc3  1  0.12500000  0.12500000  0.12500000  1.0
  Mn  Mn4  1  0.50000000  -0.50000000  0.50000000  1.0
  Mn  Mn5  1  0.75000000  0.75000000  0.75000000  1.0
  S  S6  1  -0.10720160  1.36906720  0.36906720  1.0
  S  S7  1  0.36906720  0.89279840  0.36906720  1.0
  S  S8  1  0.36906720  1.36906720  -0.10720160  1.0
  S  S9  1  0.36906720  1.36906720  0.36906720  1.0
  S  S10  1  -0.64279840  0.88093280  0.88093280  1.0
  S  S11  1  0.88093280  -0.64279840  0.88093280  1.0
  S  S12  1  0.88093280  0.88093280  -0.64279840  1.0
  S  S13  1  0.88093280  0.88093280  0.88093280  1.0
