# generated using pymatgen
data_NaPO3
_symmetry_space_group_name_H-M   'P 1'
_cell_length_a   9.94023814
_cell_length_b   9.94023814
_cell_length_c   9.94023814
_cell_angle_alpha   95.28072118
_cell_angle_beta   95.28072118
_cell_angle_gamma   144.67931483
_symmetry_Int_Tables_number   1
_chemical_formula_structural   NaPO3
_chemical_formula_sum   'Na8 P8 O24'
_cell_volume   541.08687247
_cell_formula_units_Z   8
loop_
 _symmetry_equiv_pos_site_id
 _symmetry_equiv_pos_as_xyz
  1  'x, y, z'
loop_
 _atom_site_type_symbol
 _atom_site_label
 _atom_site_symmetry_multiplicity
 _atom_site_fract_x
 _atom_site_fract_y
 _atom_site_fract_z
 _atom_site_occupancy
  Na  Na0  1  1.36124682  0.84831444  1.30546045  1.0
  Na  Na1  1  0.54285399  1.05578636  0.69453955  1.0
  Na  Na2  1  1.59831444  0.79285399  0.98706763  1.0
  Na  Na3  1  0.80578636  1.61124682  1.01293237  1.0
  Na  Na4  1  0.38875318  0.40168556  0.19453955  1.0
  Na  Na5  1  1.20714601  1.19421364  1.80546045  1.0
  Na  Na6  1  0.15168556  0.45714601  0.51293237  1.0
  Na  Na7  1  0.94421364  0.63875318  1.48706763  1.0
  P  P8  1  0.81794725  1.27843466  1.18833374  1.0
  P  P9  1  0.09010092  0.62961351  0.81166626  1.0
  P  P10  1  1.02843466  1.34010092  0.96048741  1.0
  P  P11  1  0.37961351  1.06794725  1.03951259  1.0
  P  P12  1  0.93205275  0.97156534  1.31166626  1.0
  P  P13  1  1.65989908  1.62038649  1.68833374  1.0
  P  P14  1  1.72156534  1.90989908  1.53951259  1.0
  P  P15  1  1.37038649  1.18205275  1.46048741  1.0
  O  O16  1  0.67027520  1.28084586  1.10365496  1.0
  O  O17  1  0.17719090  0.56662025  0.89634504  1.0
  O  O18  1  1.03084586  1.42719090  1.11057066  1.0
  O  O19  1  0.31662025  0.92027520  0.88942934  1.0
  O  O20  1  1.07972480  0.96915414  1.39634504  1.0
  O  O21  1  1.57280910  1.68337975  1.60365496  1.0
  O  O22  1  1.71915414  1.82280910  1.38942934  1.0
  O  O23  1  1.43337975  1.32972480  1.61057066  1.0
  O  O24  1  0.95704809  0.45209802  1.33479630  1.0
  O  O25  1  0.11730172  0.62225179  0.66520370  1.0
  O  O26  1  1.20209802  0.36730172  0.99504993  1.0
  O  O27  1  0.37225179  1.20704809  1.00495007  1.0
  O  O28  1  0.79295191  0.79790198  0.16520370  1.0
  O  O29  1  1.63269828  1.62774821  1.83479630  1.0
  O  O30  1  0.54790198  0.88269828  0.50495007  1.0
  O  O31  1  1.37774821  1.04295191  1.49504993  1.0
  O  O32  1  0.64801773  1.02020957  1.16884254  1.0
  O  O33  1  0.85136703  1.47917519  0.83115746  1.0
  O  O34  1  0.77020957  1.10136703  0.87219184  1.0
  O  O35  1  0.22917519  0.89801773  1.12780816  1.0
  O  O36  1  1.10198227  1.22979043  1.33115746  1.0
  O  O37  1  1.89863297  1.77082481  1.66884254  1.0
  O  O38  1  0.97979043  1.14863297  1.62780816  1.0
  O  O39  1  1.52082481  1.35198227  1.37219184  1.0
