# generated using pymatgen
data_IrS2
_symmetry_space_group_name_H-M   'P 1'
_cell_length_a   20.01363692
_cell_length_b   3.60670778
_cell_length_c   5.67611724
_cell_angle_alpha   90.00000000
_cell_angle_beta   90.00000000
_cell_angle_gamma   90.00000000
_symmetry_Int_Tables_number   1
_chemical_formula_structural   IrS2
_chemical_formula_sum   'Ir8 S16'
_cell_volume   409.72109969
_cell_formula_units_Z   8
loop_
 _symmetry_equiv_pos_site_id
 _symmetry_equiv_pos_as_xyz
  1  'x, y, z'
loop_
 _atom_site_type_symbol
 _atom_site_label
 _atom_site_symmetry_multiplicity
 _atom_site_fract_x
 _atom_site_fract_y
 _atom_site_fract_z
 _atom_site_occupancy
  Ir  Ir0  1  0.42257321  0.75000000  0.57383423  1.0
  Ir  Ir1  1  0.92257321  0.75000000  0.92616577  1.0
  Ir  Ir2  1  0.57742679  0.25000000  0.42616577  1.0
  Ir  Ir3  1  0.07742679  0.25000000  0.07383423  1.0
  Ir  Ir4  1  0.19597100  0.75000000  0.56093197  1.0
  Ir  Ir5  1  0.69597100  0.75000000  0.93906803  1.0
  Ir  Ir6  1  0.80402900  0.25000000  0.43906803  1.0
  Ir  Ir7  1  0.30402900  0.25000000  0.06093197  1.0
  S  S8  1  0.37656918  0.75000000  0.95496019  1.0
  S  S9  1  0.87656918  0.75000000  0.54503981  1.0
  S  S10  1  0.62343082  0.25000000  0.04503981  1.0
  S  S11  1  0.12343082  0.25000000  0.45496019  1.0
  S  S12  1  0.23713980  0.75000000  0.18145639  1.0
  S  S13  1  0.73713980  0.75000000  0.31854361  1.0
  S  S14  1  0.76286020  0.25000000  0.81854361  1.0
  S  S15  1  0.26286020  0.25000000  0.68145639  1.0
  S  S16  1  0.14062369  0.75000000  0.93764386  1.0
  S  S17  1  0.64062369  0.75000000  0.56235614  1.0
  S  S18  1  0.85937631  0.25000000  0.06235614  1.0
  S  S19  1  0.35937631  0.25000000  0.43764386  1.0
  S  S20  1  0.00877009  0.75000000  0.22212417  1.0
  S  S21  1  0.50877009  0.75000000  0.27787583  1.0
  S  S22  1  0.99122991  0.25000000  0.77787583  1.0
  S  S23  1  0.49122991  0.25000000  0.72212417  1.0
