# generated using pymatgen
data_Ti16Ni15Pt
_symmetry_space_group_name_H-M   'P 1'
_cell_length_a   7.07270596
_cell_length_b   4.14866995
_cell_length_c   15.44768045
_cell_angle_alpha   90.00000000
_cell_angle_beta   101.75264774
_cell_angle_gamma   90.00000000
_symmetry_Int_Tables_number   1
_chemical_formula_structural   Ti16Ni15Pt
_chemical_formula_sum   'Ti16 Ni15 Pt1'
_cell_volume   443.76848266
_cell_formula_units_Z   1
loop_
 _symmetry_equiv_pos_site_id
 _symmetry_equiv_pos_as_xyz
  1  'x, y, z'
loop_
 _atom_site_type_symbol
 _atom_site_label
 _atom_site_symmetry_multiplicity
 _atom_site_fract_x
 _atom_site_fract_y
 _atom_site_fract_z
 _atom_site_occupancy
  Ti  Ti0  1  0.60432806  0.50000000  0.19331348  1.0
  Ti  Ti1  1  0.39567194  0.50000000  0.80668652  1.0
  Ti  Ti2  1  0.67141268  0.50000000  0.56123088  1.0
  Ti  Ti3  1  0.32858732  0.50000000  0.43876912  1.0
  Ti  Ti4  1  0.40372642  0.00000000  0.31186945  1.0
  Ti  Ti5  1  0.59627358  0.00000000  0.68813055  1.0
  Ti  Ti6  1  0.02696177  -0.00000000  0.18642351  1.0
  Ti  Ti7  1  0.97303823  -0.00000000  0.81357649  1.0
  Ti  Ti8  1  0.97483899  0.50000000  0.31768261  1.0
  Ti  Ti9  1  0.02516101  0.50000000  0.68231739  1.0
  Ti  Ti10  1  0.20590485  0.00000000  0.56451265  1.0
  Ti  Ti11  1  0.79409515  0.00000000  0.43548735  1.0
  Ti  Ti12  1  0.66485731  0.00000000  0.06540021  1.0
  Ti  Ti13  1  0.33514269  0.00000000  0.93459979  1.0
  Ti  Ti14  1  0.22055210  0.50000000  0.06923048  1.0
  Ti  Ti15  1  0.77944790  0.50000000  0.93076952  1.0
  Ni  Ni16  1  0.88400775  0.50000000  0.09957416  1.0
  Ni  Ni17  1  0.11599225  0.50000000  0.90042584  1.0
  Ni  Ni18  1  -0.00000000  0.50000000  0.50000000  1.0
  Ni  Ni19  1  0.74852155  -0.00000000  0.27371809  1.0
  Ni  Ni20  1  0.25147845  -0.00000000  0.72628191  1.0
  Ni  Ni21  1  0.62724489  0.50000000  0.35739081  1.0
  Ni  Ni22  1  0.37275511  0.50000000  0.64260919  1.0
  Ni  Ni23  1  0.38148446  0.00000000  0.15205276  1.0
  Ni  Ni24  1  0.61851554  0.00000000  0.84794724  1.0
  Ni  Ni25  1  0.25450538  0.50000000  0.23093912  1.0
  Ni  Ni26  1  0.74549462  0.50000000  0.76906088  1.0
  Ni  Ni27  1  0.88403348  0.00000000  0.60020757  1.0
  Ni  Ni28  1  0.11596652  0.00000000  0.39979243  1.0
  Ni  Ni29  1  0.50000000  0.00000000  0.50000000  1.0
  Ni  Ni30  1  0.50000000  0.50000000  -0.00000000  1.0
  Pt  Pt31  1  0.00000000  0.00000000  0.00000000  1.0
