# generated using pymatgen
data_Y4Cd3Au10
_symmetry_space_group_name_H-M   'P 1'
_cell_length_a   8.57516945
_cell_length_b   8.57516945
_cell_length_c   10.15419059
_cell_angle_alpha   90.00000000
_cell_angle_beta   90.00000000
_cell_angle_gamma   72.05626783
_symmetry_Int_Tables_number   1
_chemical_formula_structural   Y4Cd3Au10
_chemical_formula_sum   'Y8 Cd6 Au20'
_cell_volume   710.35494102
_cell_formula_units_Z   2
loop_
 _symmetry_equiv_pos_site_id
 _symmetry_equiv_pos_as_xyz
  1  'x, y, z'
loop_
 _atom_site_type_symbol
 _atom_site_label
 _atom_site_symmetry_multiplicity
 _atom_site_fract_x
 _atom_site_fract_y
 _atom_site_fract_z
 _atom_site_occupancy
  Y  Y0  1  -0.19678130  1.19678130  0.29663472  1.0
  Y  Y1  1  0.30321870  0.69678130  0.20336528  1.0
  Y  Y2  1  0.19678130  0.80321870  0.70336528  1.0
  Y  Y3  1  -0.30321870  1.30321870  0.79663472  1.0
  Y  Y4  1  0.19896384  1.19896384  0.50000000  1.0
  Y  Y5  1  -0.30103616  0.69896384  0.00000000  1.0
  Y  Y6  1  -0.19896384  0.80103616  0.50000000  1.0
  Y  Y7  1  0.30103616  1.30103616  0.00000000  1.0
  Cd  Cd8  1  -0.48000559  0.98000559  0.25000000  1.0
  Cd  Cd9  1  0.01999441  1.48000559  0.25000000  1.0
  Cd  Cd10  1  -0.01999441  0.51999441  0.75000000  1.0
  Cd  Cd11  1  0.48000559  1.01999441  0.75000000  1.0
  Cd  Cd12  1  -0.50000000  0.50000000  0.50000000  1.0
  Cd  Cd13  1  0.00000000  1.00000000  0.00000000  1.0
  Au  Au14  1  0.38231497  1.33677987  0.29026571  1.0
  Au  Au15  1  -0.11768503  0.83677987  0.20973429  1.0
  Au  Au16  1  0.33677987  1.38231497  0.70973429  1.0
  Au  Au17  1  -0.16322013  0.88231497  0.79026571  1.0
  Au  Au18  1  -0.33677987  0.61768503  0.29026571  1.0
  Au  Au19  1  0.16322013  1.11768503  0.20973429  1.0
  Au  Au20  1  -0.38231497  0.66322013  0.70973429  1.0
  Au  Au21  1  0.11768503  1.16322013  0.79026571  1.0
  Au  Au22  1  0.43024540  0.85108916  0.48868609  1.0
  Au  Au23  1  -0.06975460  1.35108916  0.01131391  1.0
  Au  Au24  1  -0.14891084  1.43024540  0.51131391  1.0
  Au  Au25  1  0.35108916  0.93024540  0.98868609  1.0
  Au  Au26  1  0.14891084  0.56975460  0.48868609  1.0
  Au  Au27  1  -0.35108916  1.06975460  0.01131391  1.0
  Au  Au28  1  -0.43024540  1.14891084  0.51131391  1.0
  Au  Au29  1  0.06975460  0.64891084  0.98868609  1.0
  Au  Au30  1  -0.40208762  1.40208762  0.09558378  1.0
  Au  Au31  1  0.09791238  0.90208762  0.40441622  1.0
  Au  Au32  1  0.40208762  0.59791238  0.90441622  1.0
  Au  Au33  1  -0.09791238  1.09791238  0.59558378  1.0
