# generated using pymatgen
data_BaCu(SeO3)2
_symmetry_space_group_name_H-M   'P 1'
_cell_length_a   13.54036258
_cell_length_b   5.42729854
_cell_length_c   9.05047170
_cell_angle_alpha   90.00000000
_cell_angle_beta   90.00000000
_cell_angle_gamma   90.00000000
_symmetry_Int_Tables_number   1
_chemical_formula_structural   BaCu(SeO3)2
_chemical_formula_sum   'Ba4 Cu4 Se8 O24'
_cell_volume   665.09735449
_cell_formula_units_Z   4
loop_
 _symmetry_equiv_pos_site_id
 _symmetry_equiv_pos_as_xyz
  1  'x, y, z'
loop_
 _atom_site_type_symbol
 _atom_site_label
 _atom_site_symmetry_multiplicity
 _atom_site_fract_x
 _atom_site_fract_y
 _atom_site_fract_z
 _atom_site_occupancy
  Cu  Cu0  1  0.13042354  0.95625663  0.68425018  1.0
  Cu  Cu1  1  0.63042354  0.04374337  0.18425018  1.0
  Cu  Cu2  1  0.86957646  0.95625663  0.68425018  1.0
  Cu  Cu3  1  0.36957646  0.04374337  0.18425018  1.0
  Ba  Ba4  1  0.20235298  0.50366905  0.98022862  1.0
  Ba  Ba5  1  0.70235298  0.49633095  0.48022862  1.0
  Ba  Ba6  1  0.79764702  0.50366905  0.98022862  1.0
  Ba  Ba7  1  0.29764702  0.49633095  0.48022862  1.0
  O  O8  1  0.32271527  0.28781596  0.76741810  1.0
  O  O9  1  0.82271527  0.71218404  0.26741810  1.0
  O  O10  1  0.67728473  0.28781596  0.76741810  1.0
  O  O11  1  0.17728473  0.71218404  0.26741810  1.0
  O  O12  1  0.31234865  0.96194474  0.99112267  1.0
  O  O13  1  0.81234865  0.03805526  0.49112267  1.0
  O  O14  1  0.68765135  0.96194474  0.99112267  1.0
  O  O15  1  0.18765135  0.03805526  0.49112267  1.0
  O  O16  1  0.26701773  0.81331382  0.72710990  1.0
  O  O17  1  0.76701773  0.18668618  0.22710990  1.0
  O  O18  1  0.73298227  0.81331382  0.72710990  1.0
  O  O19  1  0.23298227  0.18668618  0.22710990  1.0
  O  O20  1  0.10365656  0.94332269  0.89697448  1.0
  O  O21  1  0.60365656  0.05667731  0.39697448  1.0
  O  O22  1  0.89634344  0.94332269  0.89697448  1.0
  O  O23  1  0.39634344  0.05667731  0.39697448  1.0
  O  O24  1  0.10198847  0.52547432  0.65445167  1.0
  O  O25  1  0.60198847  0.47452568  0.15445167  1.0
  O  O26  1  0.89801153  0.52547432  0.65445167  1.0
  O  O27  1  0.39801153  0.47452568  0.15445167  1.0
  O  O28  1  0.50000000  0.66241328  0.49848206  1.0
  O  O29  1  0.00000000  0.33758672  -0.00151794  1.0
  O  O30  1  0.50000000  0.90433555  0.13140425  1.0
  O  O31  1  0.00000000  0.09566445  0.63140425  1.0
  Se  Se32  1  0.35629437  0.99635662  0.81165696  1.0
  Se  Se33  1  0.85629437  0.00364338  0.31165696  1.0
  Se  Se34  1  0.64370563  0.99635662  0.81165696  1.0
  Se  Se35  1  0.14370563  0.00364338  0.31165696  1.0
  Se  Se36  1  0.50000000  0.97490838  0.49888007  1.0
  Se  Se37  1  0.00000000  0.02509162  -0.00111993  1.0
  Se  Se38  1  0.50000000  0.58501896  0.06750847  1.0
  Se  Se39  1  0.00000000  0.41498104  0.56750847  1.0
