# generated using pymatgen
data_LiH3CO3
_symmetry_space_group_name_H-M   'P 1'
_cell_length_a   9.96577980
_cell_length_b   6.67280385
_cell_length_c   4.84424269
_cell_angle_alpha   90.00000000
_cell_angle_beta   90.00000000
_cell_angle_gamma   90.00000000
_symmetry_Int_Tables_number   1
_chemical_formula_structural   LiH3CO3
_chemical_formula_sum   'Li4 H12 C4 O12'
_cell_volume   322.14065574
_cell_formula_units_Z   4
loop_
 _symmetry_equiv_pos_site_id
 _symmetry_equiv_pos_as_xyz
  1  'x, y, z'
loop_
 _atom_site_type_symbol
 _atom_site_label
 _atom_site_symmetry_multiplicity
 _atom_site_fract_x
 _atom_site_fract_y
 _atom_site_fract_z
 _atom_site_occupancy
  Li  Li0  1  0.54794438  0.61924070  0.23236354  1.0
  Li  Li1  1  0.45205562  0.38075930  0.73236354  1.0
  Li  Li2  1  0.95205562  0.11924070  0.73236354  1.0
  Li  Li3  1  0.04794438  0.88075930  0.23236354  1.0
  H  H4  1  0.87154739  0.60640760  0.12435041  1.0
  H  H5  1  0.12845261  0.39359240  0.62435041  1.0
  H  H6  1  0.62845261  0.10640760  0.62435041  1.0
  H  H7  1  0.37154739  0.89359240  0.12435041  1.0
  H  H8  1  0.97965860  0.52591872  0.34156783  1.0
  H  H9  1  0.02034140  0.47408128  0.84156783  1.0
  H  H10  1  0.52034140  0.02591872  0.84156783  1.0
  H  H11  1  0.47965860  0.97408128  0.34156783  1.0
  H  H12  1  0.78264584  0.67467440  0.63080395  1.0
  H  H13  1  0.21735416  0.32532560  0.13080395  1.0
  H  H14  1  0.71735416  0.17467440  0.13080395  1.0
  H  H15  1  0.28264584  0.82532560  0.63080395  1.0
  C  C16  1  0.69588497  0.61470597  0.74900299  1.0
  C  C17  1  0.30411503  0.38529403  0.24900299  1.0
  C  C18  1  0.80411503  0.11470597  0.24900299  1.0
  C  C19  1  0.19588497  0.88529403  0.74900299  1.0
  O  O20  1  0.71102394  0.59503798  0.00726459  1.0
  O  O21  1  0.28897606  0.40496202  0.50726459  1.0
  O  O22  1  0.78897606  0.09503798  0.50726459  1.0
  O  O23  1  0.21102394  0.90496202  0.00726459  1.0
  O  O24  1  0.59062596  0.57364031  0.61464992  1.0
  O  O25  1  0.40937404  0.42635969  0.11464992  1.0
  O  O26  1  0.90937404  0.07364031  0.11464992  1.0
  O  O27  1  0.09062596  0.92635969  0.61464992  1.0
  O  O28  1  0.96945042  0.60769154  0.17249677  1.0
  O  O29  1  0.03054958  0.39230846  0.67249677  1.0
  O  O30  1  0.53054958  0.10769154  0.67249677  1.0
  O  O31  1  0.46945042  0.89230846  0.17249677  1.0
