# generated using pymatgen
data_Nb3(Fe10B3)2
_symmetry_space_group_name_H-M   'P 1'
_cell_length_a   7.56646118
_cell_length_b   7.56646118
_cell_length_c   7.56646118
_cell_angle_alpha   60.00000000
_cell_angle_beta   60.00000000
_cell_angle_gamma   60.00000000
_symmetry_Int_Tables_number   1
_chemical_formula_structural   Nb3(Fe10B3)2
_chemical_formula_sum   'Nb3 Fe20 B6'
_cell_volume   306.31158759
_cell_formula_units_Z   1
loop_
 _symmetry_equiv_pos_site_id
 _symmetry_equiv_pos_as_xyz
  1  'x, y, z'
loop_
 _atom_site_type_symbol
 _atom_site_label
 _atom_site_symmetry_multiplicity
 _atom_site_fract_x
 _atom_site_fract_y
 _atom_site_fract_z
 _atom_site_occupancy
  Nb  Nb0  1  0.00000000  0.00000000  0.00000000  1.0
  Nb  Nb1  1  0.75000000  0.75000000  -0.25000000  1.0
  Nb  Nb2  1  1.25000000  0.25000000  0.25000000  1.0
  Fe  Fe3  1  0.61561600  0.61561600  1.15315199  1.0
  Fe  Fe4  1  0.61561600  1.15315199  -0.38438400  1.0
  Fe  Fe5  1  1.15315199  0.61561600  0.61561600  1.0
  Fe  Fe6  1  0.61561600  0.61561600  -0.38438400  1.0
  Fe  Fe7  1  0.38438400  1.38438400  -0.15315199  1.0
  Fe  Fe8  1  1.38438400  -0.15315199  0.38438400  1.0
  Fe  Fe9  1  -0.15315199  1.38438400  0.38438400  1.0
  Fe  Fe10  1  1.38438400  0.38438400  0.38438400  1.0
  Fe  Fe11  1  0.00000000  0.00000000  0.34633083  1.0
  Fe  Fe12  1  0.65366917  1.00000000  -0.65366917  1.0
  Fe  Fe13  1  1.00000000  0.65366917  -0.65366917  1.0
  Fe  Fe14  1  0.65366917  -0.65366917  1.00000000  1.0
  Fe  Fe15  1  0.00000000  1.34633083  -0.00000000  1.0
  Fe  Fe16  1  1.00000000  0.34633083  -0.34633083  1.0
  Fe  Fe17  1  0.34633083  -0.34633083  1.00000000  1.0
  Fe  Fe18  1  0.34633083  1.00000000  -0.34633083  1.0
  Fe  Fe19  1  1.34633083  0.00000000  -0.00000000  1.0
  Fe  Fe20  1  -0.00000000  0.00000000  0.65366917  1.0
  Fe  Fe21  1  0.00000000  1.65366917  -0.00000000  1.0
  Fe  Fe22  1  1.65366917  0.00000000  -0.00000000  1.0
  B  B23  1  0.72909608  0.72909608  -0.72909608  1.0
  B  B24  1  0.27090392  -0.27090392  1.27090392  1.0
  B  B25  1  -0.27090392  0.27090392  0.27090392  1.0
  B  B26  1  0.27090392  1.27090392  -0.27090392  1.0
  B  B27  1  -0.27090392  0.27090392  0.72909608  1.0
  B  B28  1  -0.72909608  0.72909608  0.72909608  1.0
