# generated using pymatgen
data_NdSi2Ni
_symmetry_space_group_name_H-M   'P 1'
_cell_length_a   8.46422730
_cell_length_b   8.46422730
_cell_length_c   4.04231523
_cell_angle_alpha   90.00000000
_cell_angle_beta   90.00000000
_cell_angle_gamma   151.52621433
_symmetry_Int_Tables_number   1
_chemical_formula_structural   NdSi2Ni
_chemical_formula_sum   'Nd2 Si4 Ni2'
_cell_volume   138.07070823
_cell_formula_units_Z   2
loop_
 _symmetry_equiv_pos_site_id
 _symmetry_equiv_pos_as_xyz
  1  'x, y, z'
loop_
 _atom_site_type_symbol
 _atom_site_label
 _atom_site_symmetry_multiplicity
 _atom_site_fract_x
 _atom_site_fract_y
 _atom_site_fract_z
 _atom_site_occupancy
  Nd  Nd0  1  0.39399589  0.60600411  0.75000000  1.0
  Nd  Nd1  1  -0.39399589  0.39399589  0.25000000  1.0
  Si  Si2  1  -0.25125517  0.25125517  0.75000000  1.0
  Si  Si3  1  0.25125517  0.74874483  0.25000000  1.0
  Si  Si4  1  0.04093615  0.95906385  0.75000000  1.0
  Si  Si5  1  -0.04093615  0.04093615  0.25000000  1.0
  Ni  Ni6  1  0.18100882  0.81899118  0.75000000  1.0
  Ni  Ni7  1  -0.18100882  0.18100882  0.25000000  1.0
