# generated using pymatgen
data_Ca3Si2SnO9
_symmetry_space_group_name_H-M   'P 1'
_cell_length_a   7.40731586
_cell_length_b   10.19475148
_cell_length_c   10.51349705
_cell_angle_alpha   90.00000000
_cell_angle_beta   91.20144658
_cell_angle_gamma   90.00000000
_symmetry_Int_Tables_number   1
_chemical_formula_structural   Ca3Si2SnO9
_chemical_formula_sum   'Ca12 Si8 Sn4 O36'
_cell_volume   793.76001212
_cell_formula_units_Z   4
loop_
 _symmetry_equiv_pos_site_id
 _symmetry_equiv_pos_as_xyz
  1  'x, y, z'
loop_
 _atom_site_type_symbol
 _atom_site_label
 _atom_site_symmetry_multiplicity
 _atom_site_fract_x
 _atom_site_fract_y
 _atom_site_fract_z
 _atom_site_occupancy
  Ca  Ca0  1  0.88076441  0.16733143  0.91611769  1.0
  Ca  Ca1  1  0.88076441  0.33266857  0.41611769  1.0
  Ca  Ca2  1  0.11923559  0.66733143  0.58388231  1.0
  Ca  Ca3  1  0.11923559  0.83266857  0.08388231  1.0
  Ca  Ca4  1  0.62802039  0.69622913  0.59585326  1.0
  Ca  Ca5  1  0.62802039  0.80377087  0.09585326  1.0
  Ca  Ca6  1  0.37197961  0.19622913  0.90414674  1.0
  Ca  Ca7  1  0.37197961  0.30377087  0.40414674  1.0
  Ca  Ca8  1  0.36356918  0.57922985  0.88859518  1.0
  Ca  Ca9  1  0.36356918  0.92077015  0.38859518  1.0
  Ca  Ca10  1  0.63643082  0.07922985  0.61140482  1.0
  Ca  Ca11  1  0.63643082  0.42077015  0.11140482  1.0
  Si  Si12  1  0.83307534  0.87464558  0.81614703  1.0
  Si  Si13  1  0.83307534  0.62535442  0.31614703  1.0
  Si  Si14  1  0.16692466  0.37464558  0.68385297  1.0
  Si  Si15  1  0.16692466  0.12535442  0.18385297  1.0
  Si  Si16  1  0.40088939  0.86335709  0.80584851  1.0
  Si  Si17  1  0.40088939  0.63664291  0.30584851  1.0
  Si  Si18  1  0.59911061  0.36335709  0.69415149  1.0
  Si  Si19  1  0.59911061  0.13664291  0.19415149  1.0
  Sn  Sn20  1  0.87957605  0.55871158  0.88204419  1.0
  Sn  Sn21  1  0.87957605  0.94128842  0.38204419  1.0
  Sn  Sn22  1  0.12042395  0.05871158  0.61795581  1.0
  Sn  Sn23  1  0.12042395  0.44128842  0.11795581  1.0
  O  O24  1  0.91557730  1.00291628  0.74286861  1.0
  O  O25  1  0.91557730  0.49708372  0.24286861  1.0
  O  O26  1  0.08442270  0.50291628  0.75713139  1.0
  O  O27  1  0.08442270  -0.00291628  0.25713139  1.0
  O  O28  1  0.89655622  0.73150210  0.76063234  1.0
  O  O29  1  0.89655622  0.76849790  0.26063234  1.0
  O  O30  1  0.10344378  0.23150210  0.73936766  1.0
  O  O31  1  0.10344378  0.26849790  0.23936766  1.0
  O  O32  1  0.85589149  0.89011344  0.96814740  1.0
  O  O33  1  0.85589149  0.60988656  0.46814740  1.0
  O  O34  1  0.14410851  0.39011344  0.53185260  1.0
  O  O35  1  0.14410851  0.10988656  0.03185260  1.0
  O  O36  1  0.90886400  0.38336750  0.99163952  1.0
  O  O37  1  0.90886400  0.11663250  0.49163952  1.0
  O  O38  1  0.09113600  0.88336750  0.50836048  1.0
  O  O39  1  0.09113600  0.61663250  0.00836048  1.0
  O  O40  1  0.69578683  0.50141728  0.73607191  1.0
  O  O41  1  0.69578683  0.99858272  0.23607191  1.0
  O  O42  1  0.30421317  0.00141728  0.76392809  1.0
  O  O43  1  0.30421317  0.49858272  0.26392809  1.0
  O  O44  1  0.65856624  0.60835174  0.98279754  1.0
  O  O45  1  0.65856624  0.89164826  0.48279754  1.0
  O  O46  1  0.34143376  0.10835174  0.51720246  1.0
  O  O47  1  0.34143376  0.39164826  0.01720246  1.0
  O  O48  1  0.61706814  0.89292924  0.76953733  1.0
  O  O49  1  0.61706814  0.60707076  0.26953733  1.0
  O  O50  1  0.38293186  0.39292924  0.73046267  1.0
  O  O51  1  0.38293186  0.10707076  0.23046267  1.0
  O  O52  1  0.38055016  0.83091943  0.95576126  1.0
  O  O53  1  0.38055016  0.66908057  0.45576126  1.0
  O  O54  1  0.61944984  0.33091943  0.54423874  1.0
  O  O55  1  0.61944984  0.16908057  0.04423874  1.0
  O  O56  1  0.35424843  0.73325152  0.72089064  1.0
  O  O57  1  0.35424843  0.76674848  0.22089064  1.0
  O  O58  1  0.64575157  0.23325152  0.77910936  1.0
  O  O59  1  0.64575157  0.26674848  0.27910936  1.0
