# generated using pymatgen
data_V2NiP2(H4O7)2
_symmetry_space_group_name_H-M   'P 1'
_cell_length_a   8.05727885
_cell_length_b   8.05727885
_cell_length_c   8.05727885
_cell_angle_alpha   133.96314482
_cell_angle_beta   133.96314482
_cell_angle_gamma   67.14557835
_symmetry_Int_Tables_number   1
_chemical_formula_structural   V2NiP2(H4O7)2
_chemical_formula_sum   'V2 Ni1 P2 H8 O14'
_cell_volume   266.55076325
_cell_formula_units_Z   1
loop_
 _symmetry_equiv_pos_site_id
 _symmetry_equiv_pos_as_xyz
  1  'x, y, z'
loop_
 _atom_site_type_symbol
 _atom_site_label
 _atom_site_symmetry_multiplicity
 _atom_site_fract_x
 _atom_site_fract_y
 _atom_site_fract_z
 _atom_site_occupancy
  V  V0  1  0.72207823  0.72207823  1.00000000  1.0
  V  V1  1  0.27792177  0.27792177  0.00000000  1.0
  Ni  Ni2  1  0.00000000  0.00000000  0.00000000  1.0
  P  P3  1  0.25000000  0.75000000  0.50000000  1.0
  P  P4  1  0.75000000  0.25000000  0.50000000  1.0
  H  H5  1  0.76048064  0.58975840  0.46883652  1.0
  H  H6  1  0.87907812  0.70835588  1.46883652  1.0
  H  H7  1  1.29164412  0.76048064  1.17072224  1.0
  H  H8  1  0.41024160  0.87907812  1.17072224  1.0
  H  H9  1  1.12092188  1.29164412  1.53116348  1.0
  H  H10  1  0.23951936  0.41024160  0.53116348  1.0
  H  H11  1  0.58975840  1.12092188  0.82927776  1.0
  H  H12  1  0.70835588  0.23951936  0.82927776  1.0
  O  O13  1  0.84172177  0.84172177  1.00000000  1.0
  O  O14  1  0.15827823  0.15827823  0.00000000  1.0
  O  O15  1  0.37968661  0.66045903  0.67741523  1.0
  O  O16  1  1.01695620  1.29772861  1.67741523  1.0
  O  O17  1  0.70227139  0.37968661  0.71922759  1.0
  O  O18  1  0.33954097  1.01695620  0.71922759  1.0
  O  O19  1  0.98304380  0.70227139  1.32258477  1.0
  O  O20  1  0.62031339  0.33954097  0.32258477  1.0
  O  O21  1  0.66045903  0.98304380  1.28077241  1.0
  O  O22  1  1.29772861  0.62031339  1.28077241  1.0
  O  O23  1  0.79993211  0.73928021  1.53921232  1.0
  O  O24  1  0.26071979  0.79993211  1.06065190  1.0
  O  O25  1  0.20006789  0.26071979  0.46078768  1.0
  O  O26  1  0.73928021  0.20006789  0.93934810  1.0
