# generated using pymatgen
data_Ba4Mg(SiN3)2
_symmetry_space_group_name_H-M   'P 1'
_cell_length_a   11.75429941
_cell_length_b   11.01000225
_cell_length_c   6.97058466
_cell_angle_alpha   78.10194947
_cell_angle_beta   66.42754986
_cell_angle_gamma   35.47050067
_symmetry_Int_Tables_number   1
_chemical_formula_structural   Ba4Mg(SiN3)2
_chemical_formula_sum   'Ba8 Mg2 Si4 N12'
_cell_volume   467.51978852
_cell_formula_units_Z   2
loop_
 _symmetry_equiv_pos_site_id
 _symmetry_equiv_pos_as_xyz
  1  'x, y, z'
loop_
 _atom_site_type_symbol
 _atom_site_label
 _atom_site_symmetry_multiplicity
 _atom_site_fract_x
 _atom_site_fract_y
 _atom_site_fract_z
 _atom_site_occupancy
  Ba  Ba0  1  0.35014477  0.35014477  -0.35014477  1.0
  Ba  Ba1  1  -0.35014477  0.64985523  0.35014477  1.0
  Ba  Ba2  1  -0.10014477  0.89985523  0.60014477  1.0
  Ba  Ba3  1  0.60014477  0.60014477  -0.10014477  1.0
  Ba  Ba4  1  0.16838203  0.16838203  -0.16838203  1.0
  Ba  Ba5  1  -0.16838203  0.83161797  0.16838203  1.0
  Ba  Ba6  1  0.08161797  1.08161797  0.41838203  1.0
  Ba  Ba7  1  0.41838203  0.41838203  0.08161797  1.0
  Mg  Mg8  1  -0.00000000  1.00000000  0.00000000  1.0
  Mg  Mg9  1  0.25000000  0.25000000  0.25000000  1.0
  Si  Si10  1  0.34207961  0.65792039  -0.34207961  1.0
  Si  Si11  1  -0.34207961  1.34207961  0.34207961  1.0
  Si  Si12  1  -0.09207961  0.59207961  0.59207961  1.0
  Si  Si13  1  -0.40792039  0.90792039  0.90792039  1.0
  N  N14  1  0.28328872  0.85347062  -0.27477964  1.0
  N  N15  1  1.13802030  -0.27477964  0.85347062  1.0
  N  N16  1  -0.27477964  1.13802030  0.28328872  1.0
  N  N17  1  0.85347062  0.28328872  1.13802030  1.0
  N  N18  1  -0.03328872  0.39652938  0.52477964  1.0
  N  N19  1  0.11197970  0.52477964  0.39652938  1.0
  N  N20  1  0.52477964  0.11197970  -0.03328872  1.0
  N  N21  1  0.39652938  -0.03328872  0.11197970  1.0
  N  N22  1  0.38467059  0.61532941  0.38467059  1.0
  N  N23  1  0.61532941  0.38467059  0.61532941  1.0
  N  N24  1  0.86532941  -0.36532941  0.86532941  1.0
  N  N25  1  0.63467059  -0.13467059  0.63467059  1.0
