# generated using pymatgen
data_Mg3P2
_symmetry_space_group_name_H-M   'P 1'
_cell_length_a   10.44060514
_cell_length_b   10.44060514
_cell_length_c   10.44060514
_cell_angle_alpha   109.47122063
_cell_angle_beta   109.47122063
_cell_angle_gamma   109.47122063
_symmetry_Int_Tables_number   1
_chemical_formula_structural   Mg3P2
_chemical_formula_sum   'Mg24 P16'
_cell_volume   876.10291087
_cell_formula_units_Z   8
loop_
 _symmetry_equiv_pos_site_id
 _symmetry_equiv_pos_as_xyz
  1  'x, y, z'
loop_
 _atom_site_type_symbol
 _atom_site_label
 _atom_site_symmetry_multiplicity
 _atom_site_fract_x
 _atom_site_fract_y
 _atom_site_fract_z
 _atom_site_occupancy
  Mg  Mg0  1  0.53272433  0.52597521  0.76620264  1.0
  Mg  Mg1  1  1.03272433  1.26652169  1.00674912  1.0
  Mg  Mg2  1  0.25977257  0.76652169  0.73379736  1.0
  Mg  Mg3  1  0.75977257  1.02597521  0.49325088  1.0
  Mg  Mg4  1  0.50674912  1.24022743  0.97402479  1.0
  Mg  Mg5  1  1.00674912  1.03272433  1.26652169  1.0
  Mg  Mg6  1  0.76620264  0.53272433  0.52597521  1.0
  Mg  Mg7  1  1.26620264  0.74022743  1.23347831  1.0
  Mg  Mg8  1  0.76652169  0.73379736  0.25977257  1.0
  Mg  Mg9  1  1.26652169  1.00674912  1.03272433  1.0
  Mg  Mg10  1  0.97402479  1.50674912  1.24022743  1.0
  Mg  Mg11  1  1.47402479  1.23379736  1.46727567  1.0
  Mg  Mg12  1  1.74022743  1.23347831  1.26620264  1.0
  Mg  Mg13  1  1.24022743  0.97402479  1.50674912  1.0
  Mg  Mg14  1  1.46727567  1.47402479  1.23379736  1.0
  Mg  Mg15  1  0.96727567  0.73347831  0.99325088  1.0
  Mg  Mg16  1  1.23379736  1.46727567  1.47402479  1.0
  Mg  Mg17  1  0.73379736  1.25977257  0.76652169  1.0
  Mg  Mg18  1  1.49325088  0.75977257  1.02597521  1.0
  Mg  Mg19  1  0.99325088  0.96727567  0.73347831  1.0
  Mg  Mg20  1  1.02597521  0.49325088  0.75977257  1.0
  Mg  Mg21  1  0.52597521  0.76620264  0.53272433  1.0
  Mg  Mg22  1  1.23347831  1.26620264  1.74022743  1.0
  Mg  Mg23  1  0.73347831  0.99325088  0.96727567  1.0
  P  P24  1  1.72621632  1.47621632  1.25000000  1.0
  P  P25  1  1.22621632  0.97621632  1.25000000  1.0
  P  P26  1  0.75000000  0.77378368  0.02378368  1.0
  P  P27  1  0.25000000  1.22621632  0.97621632  1.0
  P  P28  1  0.25000000  0.72621632  0.47621632  1.0
  P  P29  1  0.75000000  1.27378368  0.52378368  1.0
  P  P30  1  1.47621632  1.25000000  1.72621632  1.0
  P  P31  1  0.97621632  0.25000000  1.22621632  1.0
  P  P32  1  0.02378368  0.75000000  0.77378368  1.0
  P  P33  1  0.52378368  0.75000000  0.27378368  1.0
  P  P34  1  0.27378368  0.52378368  0.75000000  1.0
  P  P35  1  0.77378368  1.02378368  0.75000000  1.0
  P  P36  1  1.00000000  0.50000000  1.00000000  1.0
  P  P37  1  0.50000000  0.50000000  0.50000000  1.0
  P  P38  1  1.00000000  1.00000000  1.50000000  1.0
  P  P39  1  1.50000000  1.00000000  1.00000000  1.0
