# generated using pymatgen
data_BaMgP2O7
_symmetry_space_group_name_H-M   'P 1'
_cell_length_a   5.52729725
_cell_length_b   8.63445904
_cell_length_c   14.06050255
_cell_angle_alpha   90.00000000
_cell_angle_beta   111.87805193
_cell_angle_gamma   90.00000000
_symmetry_Int_Tables_number   1
_chemical_formula_structural   BaMgP2O7
_chemical_formula_sum   'Ba4 Mg4 P8 O28'
_cell_volume   622.71163040
_cell_formula_units_Z   4
loop_
 _symmetry_equiv_pos_site_id
 _symmetry_equiv_pos_as_xyz
  1  'x, y, z'
loop_
 _atom_site_type_symbol
 _atom_site_label
 _atom_site_symmetry_multiplicity
 _atom_site_fract_x
 _atom_site_fract_y
 _atom_site_fract_z
 _atom_site_occupancy
  Ba  Ba0  1  0.93937024  0.62468455  0.20060279  1.0
  Ba  Ba1  1  0.93937024  0.87531545  0.70060279  1.0
  Ba  Ba2  1  0.06062976  0.12468455  0.29939721  1.0
  Ba  Ba3  1  0.06062976  0.37531545  0.79939721  1.0
  Mg  Mg4  1  0.66511405  0.83128185  0.37891132  1.0
  Mg  Mg5  1  0.66511405  0.66871815  0.87891132  1.0
  Mg  Mg6  1  0.33488595  0.33128185  0.12108868  1.0
  Mg  Mg7  1  0.33488595  0.16871815  0.62108868  1.0
  P  P8  1  0.69611095  0.18536270  0.48039063  1.0
  P  P9  1  0.69611095  0.31463730  0.98039063  1.0
  P  P10  1  0.30388905  0.68536270  0.01960937  1.0
  P  P11  1  0.30388905  0.81463730  0.51960937  1.0
  P  P12  1  0.59959948  0.43694229  0.32921106  1.0
  P  P13  1  0.59959948  0.06305771  0.82921106  1.0
  P  P14  1  0.40040052  0.93694229  0.17078894  1.0
  P  P15  1  0.40040052  0.56305771  0.67078894  1.0
  O  O16  1  0.93441054  0.34321994  0.07858030  1.0
  O  O17  1  0.93441054  0.15678006  0.57858030  1.0
  O  O18  1  0.06558946  0.84321994  0.42141970  1.0
  O  O19  1  0.06558946  0.65678006  0.92141970  1.0
  O  O20  1  0.74955893  0.35615937  0.44055735  1.0
  O  O21  1  0.74955893  0.14384063  0.94055735  1.0
  O  O22  1  0.25044107  0.85615937  0.05944265  1.0
  O  O23  1  0.25044107  0.64384063  0.55944265  1.0
  O  O24  1  0.69870539  0.36074718  0.24991652  1.0
  O  O25  1  0.69870539  0.13925282  0.74991652  1.0
  O  O26  1  0.30129461  0.86074718  0.25008348  1.0
  O  O27  1  0.30129461  0.63925282  0.75008348  1.0
  O  O28  1  0.67199707  0.07360409  0.39181807  1.0
  O  O29  1  0.67199707  0.42639591  0.89181807  1.0
  O  O30  1  0.32800293  0.57360409  0.10818193  1.0
  O  O31  1  0.32800293  0.92639591  0.60818193  1.0
  O  O32  1  0.43836935  0.19350769  0.49845340  1.0
  O  O33  1  0.43836935  0.30649231  0.99845340  1.0
  O  O34  1  0.56163065  0.69350769  0.00154660  1.0
  O  O35  1  0.56163065  0.80649231  0.50154660  1.0
  O  O36  1  0.31876190  0.10652079  0.15604488  1.0
  O  O37  1  0.31876190  0.39347921  0.65604488  1.0
  O  O38  1  0.68123810  0.60652079  0.34395512  1.0
  O  O39  1  0.68123810  0.89347921  0.84395512  1.0
  O  O40  1  0.30525719  0.40466378  0.29347475  1.0
  O  O41  1  0.30525719  0.09533622  0.79347475  1.0
  O  O42  1  0.69474281  0.90466378  0.20652525  1.0
  O  O43  1  0.69474281  0.59533622  0.70652525  1.0
