# generated using pymatgen
data_Rb3GaO3
_symmetry_space_group_name_H-M   'P 1'
_cell_length_a   6.93339986
_cell_length_b   6.93339986
_cell_length_c   6.91862912
_cell_angle_alpha   82.79068082
_cell_angle_beta   97.20931918
_cell_angle_gamma   65.13754751
_symmetry_Int_Tables_number   1
_chemical_formula_structural   Rb3GaO3
_chemical_formula_sum   'Rb6 Ga2 O6'
_cell_volume   293.45303293
_cell_formula_units_Z   2
loop_
 _symmetry_equiv_pos_site_id
 _symmetry_equiv_pos_as_xyz
  1  'x, y, z'
loop_
 _atom_site_type_symbol
 _atom_site_label
 _atom_site_symmetry_multiplicity
 _atom_site_fract_x
 _atom_site_fract_y
 _atom_site_fract_z
 _atom_site_occupancy
  Rb  Rb0  1  0.62766990  -0.62766990  0.84508830  1.0
  Rb  Rb1  1  0.37233010  -0.37233010  0.15491170  1.0
  Rb  Rb2  1  0.73985284  -0.26014716  0.50000000  1.0
  Rb  Rb3  1  1.26014716  0.26014716  0.50000000  1.0
  Rb  Rb4  1  0.80359793  -0.19640207  -0.00000000  1.0
  Rb  Rb5  1  1.19640207  0.19640207  -0.00000000  1.0
  Ga  Ga6  1  0.83598033  -0.83598033  0.35070672  1.0
  Ga  Ga7  1  0.16401967  -0.16401967  0.64929328  1.0
  O  O8  1  0.41496338  -0.15173828  0.76620142  1.0
  O  O9  1  1.15173828  0.58503662  0.76620142  1.0
  O  O10  1  0.84826172  -0.58503662  0.23379858  1.0
  O  O11  1  1.58503662  0.15173828  0.23379858  1.0
  O  O12  1  0.90044574  -0.90044574  0.64221253  1.0
  O  O13  1  0.09955426  -0.09955426  0.35778747  1.0
