# generated using pymatgen
data_SbCl3F2
_symmetry_space_group_name_H-M   'P 1'
_cell_length_a   10.69386724
_cell_length_b   10.69386724
_cell_length_c   10.69386724
_cell_angle_alpha   96.74909576
_cell_angle_beta   96.74909576
_cell_angle_gamma   139.90312668
_symmetry_Int_Tables_number   1
_chemical_formula_structural   SbCl3F2
_chemical_formula_sum   'Sb4 Cl12 F8'
_cell_volume   739.94162919
_cell_formula_units_Z   4
loop_
 _symmetry_equiv_pos_site_id
 _symmetry_equiv_pos_as_xyz
  1  'x, y, z'
loop_
 _atom_site_type_symbol
 _atom_site_label
 _atom_site_symmetry_multiplicity
 _atom_site_fract_x
 _atom_site_fract_y
 _atom_site_fract_z
 _atom_site_occupancy
  Sb  Sb0  1  1.75700592  1.92064943  1.75143302  1.0
  Sb  Sb1  1  0.92064943  1.16921641  1.16364351  1.0
  Sb  Sb2  1  1.16921641  1.00557290  0.24856698  1.0
  Sb  Sb3  1  1.00557290  0.75700592  0.83635649  1.0
  Cl  Cl4  1  0.86202761  0.58869136  0.60813768  1.0
  Cl  Cl5  1  0.58869136  -0.01944632  0.72666374  1.0
  Cl  Cl6  1  0.98055368  1.25388994  1.39186232  1.0
  Cl  Cl7  1  0.25388994  0.86202761  1.27333626  1.0
  Cl  Cl8  1  1.64073756  1.73696465  1.53209978  1.0
  Cl  Cl9  1  0.73696465  1.20486487  1.09622710  1.0
  Cl  Cl10  1  1.20486487  1.10863778  0.46790022  1.0
  Cl  Cl11  1  1.10863778  0.64073756  0.90377290  1.0
  Cl  Cl12  1  0.48436927  0.32244757  0.24440762  1.0
  Cl  Cl13  1  1.32244757  1.07803995  0.83807830  1.0
  Cl  Cl14  1  1.07803995  1.23996165  1.75559238  1.0
  Cl  Cl15  1  1.23996165  1.48436927  1.16192170  1.0
  F  F16  1  0.91639605  0.87766469  0.81184353  1.0
  F  F17  1  1.87766469  1.06582116  0.96126864  1.0
  F  F18  1  1.06582116  1.10455252  1.18815647  1.0
  F  F19  1  1.10455252  1.91639605  1.03873136  1.0
  F  F20  1  1.54949737  1.68100563  1.79993549  1.0
  F  F21  1  0.68100563  0.88107014  1.13150826  1.0
  F  F22  1  0.88107014  0.74956188  0.20006451  1.0
  F  F23  1  0.74956188  0.54949737  0.86849174  1.0
