# generated using pymatgen
data_LuSiIr
_symmetry_space_group_name_H-M   'P 1'
_cell_length_a   6.69405390
_cell_length_b   4.16238247
_cell_length_c   7.43344937
_cell_angle_alpha   90.00000000
_cell_angle_beta   90.00000000
_cell_angle_gamma   90.00000000
_symmetry_Int_Tables_number   1
_chemical_formula_structural   LuSiIr
_chemical_formula_sum   'Lu4 Si4 Ir4'
_cell_volume   207.11977997
_cell_formula_units_Z   4
loop_
 _symmetry_equiv_pos_site_id
 _symmetry_equiv_pos_as_xyz
  1  'x, y, z'
loop_
 _atom_site_type_symbol
 _atom_site_label
 _atom_site_symmetry_multiplicity
 _atom_site_fract_x
 _atom_site_fract_y
 _atom_site_fract_z
 _atom_site_occupancy
  Lu  Lu0  1  0.99274005  0.75000000  0.68629360  1.0
  Lu  Lu1  1  0.49274005  0.75000000  0.81370640  1.0
  Lu  Lu2  1  0.00725995  0.25000000  0.31370640  1.0
  Lu  Lu3  1  0.50725995  0.25000000  0.18629360  1.0
  Si  Si4  1  0.70622828  0.75000000  0.38568502  1.0
  Si  Si5  1  0.20622828  0.75000000  0.11431498  1.0
  Si  Si6  1  0.29377172  0.25000000  0.61431498  1.0
  Si  Si7  1  0.79377172  0.25000000  0.88568502  1.0
  Ir  Ir8  1  0.84126772  0.75000000  0.06450591  1.0
  Ir  Ir9  1  0.34126772  0.75000000  0.43549409  1.0
  Ir  Ir10  1  0.15873228  0.25000000  0.93549409  1.0
  Ir  Ir11  1  0.65873228  0.25000000  0.56450591  1.0
