# generated using pymatgen
data_NaTbO2
_symmetry_space_group_name_H-M   'P 1'
_cell_length_a   6.18476763
_cell_length_b   6.18476763
_cell_length_c   6.18476763
_cell_angle_alpha   135.66883530
_cell_angle_beta   135.66883530
_cell_angle_gamma   64.49273863
_symmetry_Int_Tables_number   1
_chemical_formula_structural   NaTbO2
_chemical_formula_sum   'Na2 Tb2 O4'
_cell_volume   113.92424762
_cell_formula_units_Z   2
loop_
 _symmetry_equiv_pos_site_id
 _symmetry_equiv_pos_as_xyz
  1  'x, y, z'
loop_
 _atom_site_type_symbol
 _atom_site_label
 _atom_site_symmetry_multiplicity
 _atom_site_fract_x
 _atom_site_fract_y
 _atom_site_fract_z
 _atom_site_occupancy
  Na  Na0  1  0.25000000  0.75000000  0.50000000  1.0
  Na  Na1  1  0.50000000  0.50000000  1.00000000  1.0
  Tb  Tb2  1  0.75000000  0.25000000  0.50000000  1.0
  Tb  Tb3  1  0.00000000  0.00000000  0.00000000  1.0
  O  O4  1  0.97114482  0.47114482  0.50000000  1.0
  O  O5  1  0.77885518  0.77885518  1.00000000  1.0
  O  O6  1  0.52885518  0.02885518  0.50000000  1.0
  O  O7  1  0.22114482  0.22114482  -0.00000000  1.0
