# generated using pymatgen
data_Sr7Os4O19
_symmetry_space_group_name_H-M   'P 1'
_cell_length_a   7.45719858
_cell_length_b   7.45719858
_cell_length_c   10.48158288
_cell_angle_alpha   81.92306580
_cell_angle_beta   98.07693420
_cell_angle_gamma   136.08598135
_symmetry_Int_Tables_number   1
_chemical_formula_structural   Sr7Os4O19
_chemical_formula_sum   'Sr7 Os4 O19'
_cell_volume   399.60614393
_cell_formula_units_Z   1
loop_
 _symmetry_equiv_pos_site_id
 _symmetry_equiv_pos_as_xyz
  1  'x, y, z'
loop_
 _atom_site_type_symbol
 _atom_site_label
 _atom_site_symmetry_multiplicity
 _atom_site_fract_x
 _atom_site_fract_y
 _atom_site_fract_z
 _atom_site_occupancy
  O  O0  1  1.12179475  0.36912245  0.62636410  1.0
  O  O1  1  0.63087755  -0.12179475  0.62636410  1.0
  O  O2  1  0.87820525  0.63087755  0.37363590  1.0
  O  O3  1  0.36912245  0.12179475  0.37363590  1.0
  O  O4  1  0.51476792  0.00644559  0.84360706  1.0
  O  O5  1  0.99355441  0.48523208  0.84360706  1.0
  O  O6  1  0.48523208  -0.00644559  0.15639294  1.0
  O  O7  1  1.00644559  0.51476792  0.15639294  1.0
  O  O8  1  0.82122172  0.68094008  0.71513565  1.0
  O  O9  1  0.31905992  0.17877828  0.71513565  1.0
  O  O10  1  1.17877828  0.31905992  0.28486435  1.0
  O  O11  1  0.68094008  -0.17877828  0.28486435  1.0
  O  O12  1  0.60418662  0.39581338  0.93508093  1.0
  O  O13  1  0.39581338  -0.39581338  0.06491907  1.0
  O  O14  1  0.30159686  -0.30159686  0.38833789  1.0
  O  O15  1  0.69840314  0.30159686  0.61166211  1.0
  O  O16  1  -0.00000000  0.00000000  0.50000000  1.0
  O  O17  1  0.95501895  0.04498105  0.85190056  1.0
  O  O18  1  0.04498105  -0.04498105  0.14809944  1.0
  Sr  Sr19  1  0.21381716  -0.21381716  0.58857697  1.0
  Sr  Sr20  1  0.78618284  0.21381716  0.41142303  1.0
  Sr  Sr21  1  0.41716428  -0.41716428  0.83586374  1.0
  Sr  Sr22  1  0.58283572  0.41716428  0.16413626  1.0
  Sr  Sr23  1  0.14290977  -0.14290977  0.96131188  1.0
  Sr  Sr24  1  0.85709023  0.14290977  0.03868812  1.0
  Sr  Sr25  1  0.50000000  0.50000000  0.50000000  1.0
  Os  Os26  1  0.96884235  0.03115765  0.67443045  1.0
  Os  Os27  1  0.03115765  -0.03115765  0.32556955  1.0
  Os  Os28  1  0.66553489  0.33446511  0.77765501  1.0
  Os  Os29  1  0.33446511  -0.33446511  0.22234499  1.0
