# generated using pymatgen
data_Fe5As5Rh7
_symmetry_space_group_name_H-M   'P 1'
_cell_length_a   6.98153427
_cell_length_b   6.98153427
_cell_length_c   6.98153427
_cell_angle_alpha   59.68215034
_cell_angle_beta   59.68215034
_cell_angle_gamma   59.68215034
_symmetry_Int_Tables_number   1
_chemical_formula_structural   Fe5As5Rh7
_chemical_formula_sum   'Fe5 As5 Rh7'
_cell_volume   238.88579780
_cell_formula_units_Z   1
loop_
 _symmetry_equiv_pos_site_id
 _symmetry_equiv_pos_as_xyz
  1  'x, y, z'
loop_
 _atom_site_type_symbol
 _atom_site_label
 _atom_site_symmetry_multiplicity
 _atom_site_fract_x
 _atom_site_fract_y
 _atom_site_fract_z
 _atom_site_occupancy
  Fe  Fe0  1  0.53386168  0.53386168  -0.46613832  1.0
  Fe  Fe1  1  0.75798841  0.75798841  -0.24201159  1.0
  Fe  Fe2  1  0.64596825  0.86680709  -0.57500195  1.0
  Fe  Fe3  1  0.86680709  0.42499805  -0.35403175  1.0
  Fe  Fe4  1  0.42499805  0.64596825  -0.13319291  1.0
  As  As5  1  1.29088061  1.29088061  0.29088061  1.0
  As  As6  1  0.00092245  0.00092245  0.00092245  1.0
  As  As7  1  0.77533312  0.14594288  -0.48353099  1.0
  As  As8  1  1.14594288  -0.48353099  -0.22466688  1.0
  As  As9  1  0.51646901  -0.22466688  0.14594288  1.0
  Rh  Rh10  1  0.15729571  0.66974709  -0.64972534  1.0
  Rh  Rh11  1  0.66974709  0.35027466  -0.84270429  1.0
  Rh  Rh12  1  0.35027466  0.15729571  -0.33025291  1.0
  Rh  Rh13  1  1.14589724  1.14589724  0.14589724  1.0
  Rh  Rh14  1  1.13451625  -0.05843954  -0.37796298  1.0
  Rh  Rh15  1  0.94156046  -0.37796298  0.13451625  1.0
  Rh  Rh16  1  0.62203702  0.13451625  -0.05843954  1.0
