# generated using pymatgen
data_Ce3ZrO8
_symmetry_space_group_name_H-M   'P 1'
_cell_length_a   7.66674355
_cell_length_b   7.66674355
_cell_length_c   5.44695690
_cell_angle_alpha   88.81264556
_cell_angle_beta   91.18735444
_cell_angle_gamma   89.08714769
_symmetry_Int_Tables_number   1
_chemical_formula_structural   Ce3ZrO8
_chemical_formula_sum   'Ce6 Zr2 O16'
_cell_volume   319.98609415
_cell_formula_units_Z   2
loop_
 _symmetry_equiv_pos_site_id
 _symmetry_equiv_pos_as_xyz
  1  'x, y, z'
loop_
 _atom_site_type_symbol
 _atom_site_label
 _atom_site_symmetry_multiplicity
 _atom_site_fract_x
 _atom_site_fract_y
 _atom_site_fract_z
 _atom_site_occupancy
  Ce  Ce0  1  0.87834889  -0.63571351  0.76402584  1.0
  Ce  Ce1  1  0.37513282  0.37513282  0.75000000  1.0
  Ce  Ce2  1  0.63571351  0.12165111  0.26402584  1.0
  Ce  Ce3  1  1.12165111  0.63571351  0.23597416  1.0
  Ce  Ce4  1  0.36428649  -0.12165111  0.73597416  1.0
  Ce  Ce5  1  0.62486718  -0.37513282  0.25000000  1.0
  Zr  Zr6  1  0.14317511  0.14317511  0.25000000  1.0
  Zr  Zr7  1  0.85682489  -0.14317511  0.75000000  1.0
  O  O8  1  0.89957504  -0.85688938  0.07800535  1.0
  O  O9  1  1.13686021  0.38398248  0.99196205  1.0
  O  O10  1  1.11306951  -0.64470595  0.48208031  1.0
  O  O11  1  0.85688938  0.10042496  0.57800535  1.0
  O  O12  1  0.35529405  0.11306951  0.01791969  1.0
  O  O13  1  0.61847366  0.36272946  0.99957176  1.0
  O  O14  1  0.63727054  -0.61847366  0.49957176  1.0
  O  O15  1  0.38398248  0.13686021  0.50803795  1.0
  O  O16  1  0.86313979  -0.38398248  0.00803795  1.0
  O  O17  1  1.10042496  0.85688938  0.92199465  1.0
  O  O18  1  0.14311062  -0.10042496  0.42199465  1.0
  O  O19  1  0.88693049  0.64470595  0.51791969  1.0
  O  O20  1  0.38152634  -0.36272946  0.00042824  1.0
  O  O21  1  0.64470595  -0.11306951  0.98208031  1.0
  O  O22  1  0.61601752  -0.13686021  0.49196205  1.0
  O  O23  1  1.36272946  0.61847366  0.50042824  1.0
