# generated using pymatgen
data_Ru2C
_symmetry_space_group_name_H-M   'P 1'
_cell_length_a   5.28336780
_cell_length_b   5.28336780
_cell_length_c   5.28336780
_cell_angle_alpha   30.45335735
_cell_angle_beta   30.45335735
_cell_angle_gamma   30.45335735
_symmetry_Int_Tables_number   1
_chemical_formula_structural   Ru2C
_chemical_formula_sum   'Ru2 C1'
_cell_volume   33.58068392
_cell_formula_units_Z   1
loop_
 _symmetry_equiv_pos_site_id
 _symmetry_equiv_pos_as_xyz
  1  'x, y, z'
loop_
 _atom_site_type_symbol
 _atom_site_label
 _atom_site_symmetry_multiplicity
 _atom_site_fract_x
 _atom_site_fract_y
 _atom_site_fract_z
 _atom_site_occupancy
  Ru  Ru0  1  0.86660875  -0.13339125  -0.13339125  1.0
  Ru  Ru1  1  0.68364483  -0.31635517  -0.31635517  1.0
  C  C2  1  0.10634643  0.10634643  0.10634643  1.0
