# generated using pymatgen
data_AlPH9(CCl)3
_symmetry_space_group_name_H-M   'P 1'
_cell_length_a   7.01087935
_cell_length_b   11.16669071
_cell_length_c   7.85663875
_cell_angle_alpha   90.00000000
_cell_angle_beta   114.27319018
_cell_angle_gamma   90.00000000
_symmetry_Int_Tables_number   1
_chemical_formula_structural   AlPH9(CCl)3
_chemical_formula_sum   'Al2 P2 H18 C6 Cl6'
_cell_volume   560.70709205
_cell_formula_units_Z   2
loop_
 _symmetry_equiv_pos_site_id
 _symmetry_equiv_pos_as_xyz
  1  'x, y, z'
loop_
 _atom_site_type_symbol
 _atom_site_label
 _atom_site_symmetry_multiplicity
 _atom_site_fract_x
 _atom_site_fract_y
 _atom_site_fract_z
 _atom_site_occupancy
  Al  Al0  1  0.61244958  0.75000000  0.11968396  1.0
  Al  Al1  1  0.38755042  0.25000000  0.88031604  1.0
  P  P2  1  0.59673434  0.75000000  0.80515811  1.0
  P  P3  1  0.40326566  0.25000000  0.19484189  1.0
  H  H4  1  0.64914693  0.96231585  0.78050353  1.0
  H  H5  1  0.35085307  0.46231585  0.21949647  1.0
  H  H6  1  0.35085307  0.03768415  0.21949647  1.0
  H  H7  1  0.64914693  0.53768415  0.78050353  1.0
  H  H8  1  0.88994864  0.88176265  0.85932382  1.0
  H  H9  1  0.11005136  0.38176265  0.14067618  1.0
  H  H10  1  0.11005136  0.11823735  0.14067618  1.0
  H  H11  1  0.88994864  0.61823735  0.85932382  1.0
  H  H12  1  0.71442824  0.87798861  0.61731467  1.0
  H  H13  1  0.28557176  0.37798861  0.38268533  1.0
  H  H14  1  0.28557176  0.12201139  0.38268533  1.0
  H  H15  1  0.71442824  0.62201139  0.61731467  1.0
  H  H16  1  0.32990584  0.75000000  0.48714851  1.0
  H  H17  1  0.67009416  0.25000000  0.51285149  1.0
  H  H18  1  0.24757390  0.67002765  0.64288044  1.0
  H  H19  1  0.75242610  0.17002765  0.35711956  1.0
  H  H20  1  0.75242610  0.32997235  0.35711956  1.0
  H  H21  1  0.24757390  0.82997235  0.64288044  1.0
  C  C22  1  0.72480001  0.88071463  0.76064634  1.0
  C  C23  1  0.27519999  0.38071463  0.23935366  1.0
  C  C24  1  0.27519999  0.11928537  0.23935366  1.0
  C  C25  1  0.72480001  0.61928537  0.76064634  1.0
  C  C26  1  0.32952988  0.75000000  0.62683890  1.0
  C  C27  1  0.67047012  0.25000000  0.37316110  1.0
  Cl  Cl28  1  0.77656054  0.90951445  0.25533865  1.0
  Cl  Cl29  1  0.22343946  0.40951445  0.74466135  1.0
  Cl  Cl30  1  0.22343946  0.09048555  0.74466135  1.0
  Cl  Cl31  1  0.77656054  0.59048555  0.25533865  1.0
  Cl  Cl32  1  0.29598054  0.75000000  0.09781920  1.0
  Cl  Cl33  1  0.70401946  0.25000000  0.90218080  1.0
