# generated using pymatgen
data_Cd2Hg2S2O11
_symmetry_space_group_name_H-M   'P 1'
_cell_length_a   7.81123031
_cell_length_b   6.34702240
_cell_length_c   11.85250928
_cell_angle_alpha   90.00000000
_cell_angle_beta   116.78295966
_cell_angle_gamma   90.00000000
_symmetry_Int_Tables_number   1
_chemical_formula_structural   Cd2Hg2S2O11
_chemical_formula_sum   'Cd4 Hg4 S4 O22'
_cell_volume   524.58392857
_cell_formula_units_Z   2
loop_
 _symmetry_equiv_pos_site_id
 _symmetry_equiv_pos_as_xyz
  1  'x, y, z'
loop_
 _atom_site_type_symbol
 _atom_site_label
 _atom_site_symmetry_multiplicity
 _atom_site_fract_x
 _atom_site_fract_y
 _atom_site_fract_z
 _atom_site_occupancy
  O  O0  1  0.99145460  0.29376515  0.07159209  1.0
  O  O1  1  0.99145460  0.70623485  0.57159209  1.0
  O  O2  1  0.00854540  0.29376515  0.42840791  1.0
  O  O3  1  0.00854540  0.70623485  0.92840791  1.0
  O  O4  1  0.72882471  0.57609793  0.23308406  1.0
  O  O5  1  0.72882471  0.42390207  0.73308406  1.0
  O  O6  1  0.27117529  0.57609793  0.26691594  1.0
  O  O7  1  0.27117529  0.42390207  0.76691594  1.0
  O  O8  1  0.76718394  0.75544727  0.06640878  1.0
  O  O9  1  0.76718394  0.24455273  0.56640878  1.0
  O  O10  1  0.23281606  0.75544727  0.43359122  1.0
  O  O11  1  0.23281606  0.24455273  0.93359122  1.0
  O  O12  1  0.54479416  0.76505011  0.42938555  1.0
  O  O13  1  0.54479416  0.23494989  0.92938555  1.0
  O  O14  1  0.45520584  0.76505011  0.07061445  1.0
  O  O15  1  0.45520584  0.23494989  0.57061445  1.0
  O  O16  1  0.50000000  0.35696013  0.25000000  1.0
  O  O17  1  0.50000000  0.64303987  0.75000000  1.0
  O  O18  1  0.73165815  0.96434998  0.22720855  1.0
  O  O19  1  0.73165815  0.03565002  0.72720855  1.0
  O  O20  1  0.26834185  0.96434998  0.27279145  1.0
  O  O21  1  0.26834185  0.03565002  0.77279145  1.0
  S  S22  1  0.66630391  0.77410309  0.14860652  1.0
  S  S23  1  0.66630391  0.22589691  0.64860652  1.0
  S  S24  1  0.33369609  0.77410309  0.35139348  1.0
  S  S25  1  0.33369609  0.22589691  0.85139348  1.0
  Cd  Cd26  1  0.74455547  0.49978722  0.42859646  1.0
  Cd  Cd27  1  0.74455547  0.50021278  0.92859646  1.0
  Cd  Cd28  1  0.25544453  0.49978722  0.07140354  1.0
  Cd  Cd29  1  0.25544453  0.50021278  0.57140354  1.0
  Hg  Hg30  1  -0.00000000  0.27463815  0.25000000  1.0
  Hg  Hg31  1  0.00000000  0.72536185  0.75000000  1.0
  Hg  Hg32  1  -0.00000000  0.00000000  0.50000000  1.0
  Hg  Hg33  1  0.00000000  0.00000000  0.00000000  1.0
