# generated using pymatgen
data_PbWO4
_symmetry_space_group_name_H-M   'P 1'
_cell_length_a   7.27174071
_cell_length_b   7.27174071
_cell_length_c   5.54114660
_cell_angle_alpha   67.60247683
_cell_angle_beta   112.39752317
_cell_angle_gamma   65.20864265
_symmetry_Int_Tables_number   1
_chemical_formula_structural   PbWO4
_chemical_formula_sum   'Pb2 W2 O8'
_cell_volume   188.08393190
_cell_formula_units_Z   2
loop_
 _symmetry_equiv_pos_site_id
 _symmetry_equiv_pos_as_xyz
  1  'x, y, z'
loop_
 _atom_site_type_symbol
 _atom_site_label
 _atom_site_symmetry_multiplicity
 _atom_site_fract_x
 _atom_site_fract_y
 _atom_site_fract_z
 _atom_site_occupancy
  Pb  Pb0  1  1.37500621  0.37500621  0.75000000  1.0
  Pb  Pb1  1  0.62499379  0.62499379  0.25000000  1.0
  W  W2  1  0.87511903  0.87511903  0.75000000  1.0
  W  W3  1  1.12488097  0.12488097  0.25000000  1.0
  O  O4  1  1.65474844  -0.06740143  0.84427165  1.0
  O  O5  1  1.06740143  0.34525156  0.34427165  1.0
  O  O6  1  0.93259857  0.65474844  0.65572835  1.0
  O  O7  1  1.34525156  0.06740143  0.15572835  1.0
  O  O8  1  1.27679100  -0.18981498  0.62237729  1.0
  O  O9  1  1.18981498  0.72320900  0.12237729  1.0
  O  O10  1  0.81018502  0.27679100  0.87762271  1.0
  O  O11  1  1.72320900  0.18981498  0.37762271  1.0
