# generated using pymatgen
data_Re(RhO3)2
_symmetry_space_group_name_H-M   'P 1'
_cell_length_a   4.59712110
_cell_length_b   4.59712110
_cell_length_c   9.30552489
_cell_angle_alpha   90.00000000
_cell_angle_beta   90.00000000
_cell_angle_gamma   90.00000000
_symmetry_Int_Tables_number   1
_chemical_formula_structural   Re(RhO3)2
_chemical_formula_sum   'Re2 Rh4 O12'
_cell_volume   196.65851896
_cell_formula_units_Z   2
loop_
 _symmetry_equiv_pos_site_id
 _symmetry_equiv_pos_as_xyz
  1  'x, y, z'
loop_
 _atom_site_type_symbol
 _atom_site_label
 _atom_site_symmetry_multiplicity
 _atom_site_fract_x
 _atom_site_fract_y
 _atom_site_fract_z
 _atom_site_occupancy
  Re  Re0  1  0.50000000  0.50000000  0.50000000  1.0
  Re  Re1  1  0.00000000  0.00000000  0.00000000  1.0
  Rh  Rh2  1  0.50000000  0.50000000  0.16697663  1.0
  Rh  Rh3  1  0.50000000  0.50000000  0.83302337  1.0
  Rh  Rh4  1  0.00000000  0.00000000  0.66697663  1.0
  Rh  Rh5  1  0.00000000  0.00000000  0.33302337  1.0
  O  O6  1  0.19037062  0.80962938  0.15850138  1.0
  O  O7  1  0.19037062  0.80962938  0.84149862  1.0
  O  O8  1  0.69037062  0.69037062  0.65850138  1.0
  O  O9  1  0.69037062  0.69037062  0.34149862  1.0
  O  O10  1  0.80962938  0.19037062  0.15850138  1.0
  O  O11  1  0.80962938  0.19037062  0.84149862  1.0
  O  O12  1  0.30962938  0.30962938  0.65850138  1.0
  O  O13  1  0.30962938  0.30962938  0.34149862  1.0
  O  O14  1  0.20196611  0.79803389  0.50000000  1.0
  O  O15  1  0.70196611  0.70196611  0.00000000  1.0
  O  O16  1  0.79803389  0.20196611  0.50000000  1.0
  O  O17  1  0.29803389  0.29803389  0.00000000  1.0
