# generated using pymatgen
data_Gd3AlCoS7
_symmetry_space_group_name_H-M   'P 1'
_cell_length_a   9.62827722
_cell_length_b   9.62827722
_cell_length_c   6.17792955
_cell_angle_alpha   90.00000000
_cell_angle_beta   90.00000000
_cell_angle_gamma   120.00000000
_symmetry_Int_Tables_number   1
_chemical_formula_structural   Gd3AlCoS7
_chemical_formula_sum   'Gd6 Al2 Co2 S14'
_cell_volume   495.98752673
_cell_formula_units_Z   2
loop_
 _symmetry_equiv_pos_site_id
 _symmetry_equiv_pos_as_xyz
  1  'x, y, z'
loop_
 _atom_site_type_symbol
 _atom_site_label
 _atom_site_symmetry_multiplicity
 _atom_site_fract_x
 _atom_site_fract_y
 _atom_site_fract_z
 _atom_site_occupancy
  Gd  Gd0  1  0.78053862  0.15506714  0.72514819  1.0
  Gd  Gd1  1  0.37452852  0.21946138  0.72514819  1.0
  Gd  Gd2  1  0.84493286  0.62547148  0.72514819  1.0
  Gd  Gd3  1  0.21946138  0.84493286  0.22514819  1.0
  Gd  Gd4  1  0.62547148  0.78053862  0.22514819  1.0
  Gd  Gd5  1  0.15506714  0.37452852  0.22514819  1.0
  Al  Al6  1  0.66666667  0.33333333  0.14965180  1.0
  Al  Al7  1  0.33333333  0.66666667  0.64965180  1.0
  Co  Co8  1  0.00000000  0.00000000  0.56896369  1.0
  Co  Co9  1  0.00000000  0.00000000  0.06896369  1.0
  S  S10  1  0.87411830  0.09419376  0.32159220  1.0
  S  S11  1  0.22007546  0.12588170  0.32159220  1.0
  S  S12  1  0.90580624  0.77992454  0.32159220  1.0
  S  S13  1  0.12588170  0.90580624  0.82159220  1.0
  S  S14  1  0.77992454  0.87411830  0.82159220  1.0
  S  S15  1  0.09419376  0.22007546  0.82159220  1.0
  S  S16  1  0.52096927  0.08896082  -0.00019129  1.0
  S  S17  1  0.56799155  0.47903073  -0.00019129  1.0
  S  S18  1  0.91103918  0.43200845  -0.00019129  1.0
  S  S19  1  0.47903073  0.91103918  0.49980871  1.0
  S  S20  1  0.43200845  0.52096927  0.49980871  1.0
  S  S21  1  0.08896082  0.56799155  0.49980871  1.0
  S  S22  1  0.66666667  0.33333333  0.51173719  1.0
  S  S23  1  0.33333333  0.66666667  0.01173719  1.0
