# generated using pymatgen
data_BaAu2(SO4)4
_symmetry_space_group_name_H-M   'P 1'
_cell_length_a   6.95260453
_cell_length_b   6.95260453
_cell_length_c   10.02113499
_cell_angle_alpha   69.91679794
_cell_angle_beta   110.08320206
_cell_angle_gamma   96.56486272
_symmetry_Int_Tables_number   1
_chemical_formula_structural   BaAu2(SO4)4
_chemical_formula_sum   'Ba1 Au2 S4 O16'
_cell_volume   427.28720883
_cell_formula_units_Z   1
loop_
 _symmetry_equiv_pos_site_id
 _symmetry_equiv_pos_as_xyz
  1  'x, y, z'
loop_
 _atom_site_type_symbol
 _atom_site_label
 _atom_site_symmetry_multiplicity
 _atom_site_fract_x
 _atom_site_fract_y
 _atom_site_fract_z
 _atom_site_occupancy
  Ba  Ba0  1  0.00000000  -0.00000000  0.00000000  1.0
  Au  Au1  1  -0.00000000  0.00000000  0.50000000  1.0
  Au  Au2  1  0.50000000  0.50000000  0.50000000  1.0
  S  S3  1  0.88463300  0.61599127  0.73352014  1.0
  S  S4  1  0.38400873  0.11536700  0.73352014  1.0
  S  S5  1  1.11536700  -0.61599127  0.26647986  1.0
  S  S6  1  1.61599127  -0.11536700  0.26647986  1.0
  O  O7  1  0.65178461  0.64925743  0.64691047  1.0
  O  O8  1  0.35074257  0.34821539  0.64691047  1.0
  O  O9  1  1.34821539  -0.64925743  0.35308953  1.0
  O  O10  1  1.64925743  -0.34821539  0.35308953  1.0
  O  O11  1  0.92985603  0.73709191  0.83356686  1.0
  O  O12  1  0.26290809  0.07014397  0.83356686  1.0
  O  O13  1  1.07014397  -0.73709191  0.16643314  1.0
  O  O14  1  1.73709191  -0.07014397  0.16643314  1.0
  O  O15  1  1.00081314  -0.30186724  0.61750025  1.0
  O  O16  1  1.30186724  -0.00081314  0.61750025  1.0
  O  O17  1  0.99918686  0.30186724  0.38249975  1.0
  O  O18  1  0.69813276  0.00081314  0.38249975  1.0
  O  O19  1  0.93656642  0.39923771  0.80144771  1.0
  O  O20  1  0.60076229  0.06343358  0.80144771  1.0
  O  O21  1  1.06343358  -0.39923771  0.19855229  1.0
  O  O22  1  1.39923771  -0.06343358  0.19855229  1.0
