# generated using pymatgen
data_Ni2SbTe2
_symmetry_space_group_name_H-M   'P 1'
_cell_length_a   3.95257931
_cell_length_b   3.95257931
_cell_length_c   15.93047483
_cell_angle_alpha   90.00000000
_cell_angle_beta   90.00000000
_cell_angle_gamma   120.00000000
_symmetry_Int_Tables_number   1
_chemical_formula_structural   Ni2SbTe2
_chemical_formula_sum   'Ni4 Sb2 Te4'
_cell_volume   215.53635691
_cell_formula_units_Z   2
loop_
 _symmetry_equiv_pos_site_id
 _symmetry_equiv_pos_as_xyz
  1  'x, y, z'
loop_
 _atom_site_type_symbol
 _atom_site_label
 _atom_site_symmetry_multiplicity
 _atom_site_fract_x
 _atom_site_fract_y
 _atom_site_fract_z
 _atom_site_occupancy
  Ni  Ni0  1  -0.00000000  -0.00000000  0.33293033  1.0
  Ni  Ni1  1  -0.00000000  0.00000000  0.16706967  1.0
  Ni  Ni2  1  0.00000000  0.00000000  0.83293033  1.0
  Ni  Ni3  1  -0.00000000  -0.00000000  0.66706967  1.0
  Sb  Sb4  1  0.33333333  0.66666667  0.25000000  1.0
  Sb  Sb5  1  0.66666667  0.33333333  0.75000000  1.0
  Te  Te6  1  0.33333333  0.66666667  0.91015205  1.0
  Te  Te7  1  0.33333333  0.66666667  0.58984795  1.0
  Te  Te8  1  0.66666667  0.33333333  0.41015205  1.0
  Te  Te9  1  0.66666667  0.33333333  0.08984795  1.0
