# generated using pymatgen
data_NdNiC2
_symmetry_space_group_name_H-M   'P 1'
_cell_length_a   3.80055461
_cell_length_b   3.80055461
_cell_length_c   3.84245681
_cell_angle_alpha   90.00000000
_cell_angle_beta   90.00000000
_cell_angle_gamma   106.28906380
_symmetry_Int_Tables_number   1
_chemical_formula_structural   NdNiC2
_chemical_formula_sum   'Nd1 Ni1 C2'
_cell_volume   53.27338849
_cell_formula_units_Z   1
loop_
 _symmetry_equiv_pos_site_id
 _symmetry_equiv_pos_as_xyz
  1  'x, y, z'
loop_
 _atom_site_type_symbol
 _atom_site_label
 _atom_site_symmetry_multiplicity
 _atom_site_fract_x
 _atom_site_fract_y
 _atom_site_fract_z
 _atom_site_occupancy
  Nd  Nd0  1  0.38364507  0.61635493  0.50000000  1.0
  Ni  Ni1  1  -0.00318516  0.00318516  0.00000000  1.0
  C  C2  1  -0.46360274  1.16485717  0.00000000  1.0
  C  C3  1  -0.16485717  1.46360274  0.00000000  1.0
