# generated using pymatgen
data_CsPb2Cl5
_symmetry_space_group_name_H-M   'P 1'
_cell_length_a   9.63159808
_cell_length_b   9.63159808
_cell_length_c   9.63159808
_cell_angle_alpha   129.49146209
_cell_angle_beta   129.49146209
_cell_angle_gamma   74.22106536
_symmetry_Int_Tables_number   1
_chemical_formula_structural   CsPb2Cl5
_chemical_formula_sum   'Cs2 Pb4 Cl10'
_cell_volume   518.78368053
_cell_formula_units_Z   2
loop_
 _symmetry_equiv_pos_site_id
 _symmetry_equiv_pos_as_xyz
  1  'x, y, z'
loop_
 _atom_site_type_symbol
 _atom_site_label
 _atom_site_symmetry_multiplicity
 _atom_site_fract_x
 _atom_site_fract_y
 _atom_site_fract_z
 _atom_site_occupancy
  Cs  Cs0  1  0.75000000  0.75000000  1.00000000  1.0
  Cs  Cs1  1  0.25000000  0.25000000  -0.00000000  1.0
  Pb  Pb2  1  0.33163644  0.83163644  1.16327288  1.0
  Pb  Pb3  1  0.16836356  0.33163644  0.50000000  1.0
  Pb  Pb4  1  0.83163644  0.66836356  1.50000000  1.0
  Pb  Pb5  1  0.66836356  0.16836356  0.83672712  1.0
  Cl  Cl6  1  0.72438866  1.22438866  1.19210244  1.0
  Cl  Cl7  1  0.96771378  0.46771378  1.19210244  1.0
  Cl  Cl8  1  0.53228622  0.72438866  0.50000000  1.0
  Cl  Cl9  1  0.77561134  0.96771378  1.50000000  1.0
  Cl  Cl10  1  1.22438866  1.03228622  1.50000000  1.0
  Cl  Cl11  1  0.46771378  0.27561134  0.50000000  1.0
  Cl  Cl12  1  1.03228622  0.53228622  0.80789756  1.0
  Cl  Cl13  1  0.27561134  0.77561134  0.80789756  1.0
  Cl  Cl14  1  0.00000000  0.00000000  0.00000000  1.0
  Cl  Cl15  1  0.50000000  0.50000000  1.00000000  1.0
