# generated using pymatgen
data_K2Zn(GeO3)2
_symmetry_space_group_name_H-M   'P 1'
_cell_length_a   5.94837779
_cell_length_b   5.94837779
_cell_length_c   10.94621805
_cell_angle_alpha   90.00000000
_cell_angle_beta   90.00000000
_cell_angle_gamma   113.64041108
_symmetry_Int_Tables_number   1
_chemical_formula_structural   K2Zn(GeO3)2
_chemical_formula_sum   'K4 Zn2 Ge4 O12'
_cell_volume   354.80901572
_cell_formula_units_Z   2
loop_
 _symmetry_equiv_pos_site_id
 _symmetry_equiv_pos_as_xyz
  1  'x, y, z'
loop_
 _atom_site_type_symbol
 _atom_site_label
 _atom_site_symmetry_multiplicity
 _atom_site_fract_x
 _atom_site_fract_y
 _atom_site_fract_z
 _atom_site_occupancy
  K  K0  1  0.56826700  1.22189120  1.07793111  1.0
  K  K1  1  -0.22189120  0.43173300  0.42206889  1.0
  K  K2  1  -0.56826700  0.77810880  0.57793111  1.0
  K  K3  1  0.22189120  1.56826700  -0.07793111  1.0
  Zn  Zn4  1  -0.70421221  0.70421221  0.25000000  1.0
  Zn  Zn5  1  -0.29578779  0.29578779  0.75000000  1.0
  Ge  Ge6  1  -0.16706905  0.84715920  0.85965580  1.0
  Ge  Ge7  1  0.15284080  1.16706905  0.64034420  1.0
  Ge  Ge8  1  0.16706905  1.15284080  0.35965580  1.0
  Ge  Ge9  1  -0.15284080  0.83293095  0.14034420  1.0
  O  O10  1  0.47250565  1.28374085  0.61844314  1.0
  O  O11  1  -0.28374085  0.52749435  0.88155686  1.0
  O  O12  1  -0.47250565  0.71625915  0.11844314  1.0
  O  O13  1  0.28374085  1.47250565  0.38155686  1.0
  O  O14  1  -0.38716842  0.95972651  0.81968051  1.0
  O  O15  1  0.04027349  1.38716842  0.68031949  1.0
  O  O16  1  0.38716842  1.04027349  0.31968051  1.0
  O  O17  1  -0.04027349  0.61283158  0.18031949  1.0
  O  O18  1  -1.07694964  1.07694964  0.25000000  1.0
  O  O19  1  0.07694964  -0.07694964  0.75000000  1.0
  O  O20  1  0.00807898  1.00807898  0.50000000  1.0
  O  O21  1  -0.00807898  0.99192102  0.00000000  1.0
