# generated using pymatgen
data_K5NaS4(ClO6)2
_symmetry_space_group_name_H-M   'P 1'
_cell_length_a   8.72709886
_cell_length_b   8.72709886
_cell_length_c   11.76597563
_cell_angle_alpha   90.00000000
_cell_angle_beta   90.00000000
_cell_angle_gamma   90.00000000
_symmetry_Int_Tables_number   1
_chemical_formula_structural   K5NaS4(ClO6)2
_chemical_formula_sum   'K10 Na2 S8 Cl4 O24'
_cell_volume   896.12323012
_cell_formula_units_Z   2
loop_
 _symmetry_equiv_pos_site_id
 _symmetry_equiv_pos_as_xyz
  1  'x, y, z'
loop_
 _atom_site_type_symbol
 _atom_site_label
 _atom_site_symmetry_multiplicity
 _atom_site_fract_x
 _atom_site_fract_y
 _atom_site_fract_z
 _atom_site_occupancy
  K  K0  1  0.30806979  0.19193021  0.25000000  1.0
  K  K1  1  0.30806979  0.19193021  0.75000000  1.0
  K  K2  1  0.80806979  0.30806979  0.75000000  1.0
  K  K3  1  0.80806979  0.30806979  0.25000000  1.0
  K  K4  1  0.69193021  0.80806979  0.25000000  1.0
  K  K5  1  0.69193021  0.80806979  0.75000000  1.0
  K  K6  1  0.19193021  0.69193021  0.75000000  1.0
  K  K7  1  0.19193021  0.69193021  0.25000000  1.0
  K  K8  1  0.50000000  0.50000000  0.00000000  1.0
  K  K9  1  0.00000000  0.00000000  0.50000000  1.0
  Na  Na10  1  0.50000000  0.50000000  0.50000000  1.0
  Na  Na11  1  0.00000000  0.00000000  -0.00000000  1.0
  S  S12  1  0.42457727  0.90026871  0.50000000  1.0
  S  S13  1  0.92457727  0.59973129  0.00000000  1.0
  S  S14  1  0.09973129  0.42457727  0.50000000  1.0
  S  S15  1  0.59973129  0.07542273  -0.00000000  1.0
  S  S16  1  0.57542273  0.09973129  0.50000000  1.0
  S  S17  1  0.07542273  0.40026871  0.00000000  1.0
  S  S18  1  0.90026871  0.57542273  0.50000000  1.0
  S  S19  1  0.40026871  0.92457727  0.00000000  1.0
  Cl  Cl20  1  0.50000000  0.50000000  0.26322574  1.0
  Cl  Cl21  1  0.50000000  0.50000000  0.73677426  1.0
  Cl  Cl22  1  0.00000000  0.00000000  0.76322574  1.0
  Cl  Cl23  1  0.00000000  0.00000000  0.23677426  1.0
  O  O24  1  0.33267513  0.91540884  0.39506302  1.0
  O  O25  1  0.33267513  0.91540884  0.60493698  1.0
  O  O26  1  0.83267513  0.58459116  0.89506302  1.0
  O  O27  1  0.83267513  0.58459116  0.10493698  1.0
  O  O28  1  0.08459116  0.33267513  0.39506302  1.0
  O  O29  1  0.08459116  0.33267513  0.60493698  1.0
  O  O30  1  0.58459116  0.16732487  0.89506302  1.0
  O  O31  1  0.58459116  0.16732487  0.10493698  1.0
  O  O32  1  0.66732487  0.08459116  0.39506302  1.0
  O  O33  1  0.66732487  0.08459116  0.60493698  1.0
  O  O34  1  0.16732487  0.41540884  0.89506302  1.0
  O  O35  1  0.16732487  0.41540884  0.10493698  1.0
  O  O36  1  0.91540884  0.66732487  0.39506302  1.0
  O  O37  1  0.91540884  0.66732487  0.60493698  1.0
  O  O38  1  0.41540884  0.83267513  0.89506302  1.0
  O  O39  1  0.41540884  0.83267513  0.10493698  1.0
  O  O40  1  0.22935162  0.53285791  0.50000000  1.0
  O  O41  1  0.72935162  0.96714209  0.00000000  1.0
  O  O42  1  0.46714209  0.22935162  0.50000000  1.0
  O  O43  1  0.96714209  0.27064838  -0.00000000  1.0
  O  O44  1  0.77064838  0.46714209  0.50000000  1.0
  O  O45  1  0.27064838  0.03285791  0.00000000  1.0
  O  O46  1  0.53285791  0.77064838  0.50000000  1.0
  O  O47  1  0.03285791  0.72935162  0.00000000  1.0
