# generated using pymatgen
data_RbVO3
_symmetry_space_group_name_H-M   'P 1'
_cell_length_a   5.48458543
_cell_length_b   11.65307281
_cell_length_c   5.77563715
_cell_angle_alpha   90.00000000
_cell_angle_beta   90.00000000
_cell_angle_gamma   90.00000000
_symmetry_Int_Tables_number   1
_chemical_formula_structural   RbVO3
_chemical_formula_sum   'Rb4 V4 O12'
_cell_volume   369.13410025
_cell_formula_units_Z   4
loop_
 _symmetry_equiv_pos_site_id
 _symmetry_equiv_pos_as_xyz
  1  'x, y, z'
loop_
 _atom_site_type_symbol
 _atom_site_label
 _atom_site_symmetry_multiplicity
 _atom_site_fract_x
 _atom_site_fract_y
 _atom_site_fract_z
 _atom_site_occupancy
  Rb  Rb0  1  0.56521302  0.10223590  0.25000000  1.0
  Rb  Rb1  1  0.56521302  0.39776410  0.75000000  1.0
  Rb  Rb2  1  0.43478698  0.60223590  0.25000000  1.0
  Rb  Rb3  1  0.43478698  0.89776410  0.75000000  1.0
  V  V4  1  0.97532237  0.83319306  0.25000000  1.0
  V  V5  1  0.97532237  0.66680694  0.75000000  1.0
  V  V6  1  0.02467763  0.33319306  0.25000000  1.0
  V  V7  1  0.02467763  0.16680694  0.75000000  1.0
  O  O8  1  0.88229311  0.45740498  0.25000000  1.0
  O  O9  1  0.88229311  0.04259502  0.75000000  1.0
  O  O10  1  0.11770689  0.95740498  0.25000000  1.0
  O  O11  1  0.11770689  0.54259502  0.75000000  1.0
  O  O12  1  0.32427075  0.35256915  0.25000000  1.0
  O  O13  1  0.32427075  0.14743085  0.75000000  1.0
  O  O14  1  0.67572925  0.85256915  0.25000000  1.0
  O  O15  1  0.67572925  0.64743085  0.75000000  1.0
  O  O16  1  0.92907135  0.25000000  0.50000000  1.0
  O  O17  1  0.92907135  0.25000000  0.00000000  1.0
  O  O18  1  0.07092865  0.75000000  0.50000000  1.0
  O  O19  1  0.07092865  0.75000000  0.00000000  1.0
