# generated using pymatgen
data_K3W2Cl9
_symmetry_space_group_name_H-M   'P 1'
_cell_length_a   7.45142607
_cell_length_b   7.45142607
_cell_length_c   16.27109197
_cell_angle_alpha   90.00000000
_cell_angle_beta   90.00000000
_cell_angle_gamma   120.00000000
_symmetry_Int_Tables_number   1
_chemical_formula_structural   K3W2Cl9
_chemical_formula_sum   'K6 W4 Cl18'
_cell_volume   782.39510659
_cell_formula_units_Z   2
loop_
 _symmetry_equiv_pos_site_id
 _symmetry_equiv_pos_as_xyz
  1  'x, y, z'
loop_
 _atom_site_type_symbol
 _atom_site_label
 _atom_site_symmetry_multiplicity
 _atom_site_fract_x
 _atom_site_fract_y
 _atom_site_fract_z
 _atom_site_occupancy
  K  K0  1  0.33333333  0.66666667  0.92879225  1.0
  K  K1  1  0.33333333  0.66666667  0.57120775  1.0
  K  K2  1  0.66666667  0.33333333  0.42879225  1.0
  K  K3  1  0.66666667  0.33333333  0.07120775  1.0
  K  K4  1  0.00000000  0.00000000  0.25000000  1.0
  K  K5  1  0.00000000  0.00000000  0.75000000  1.0
  W  W6  1  0.33333333  0.66666667  0.32279198  1.0
  W  W7  1  0.33333333  0.66666667  0.17720802  1.0
  W  W8  1  0.66666667  0.33333333  0.82279198  1.0
  W  W9  1  0.66666667  0.33333333  0.67720802  1.0
  Cl  Cl10  1  0.57178599  0.56660267  0.25000000  1.0
  Cl  Cl11  1  0.56660267  0.99481669  0.75000000  1.0
  Cl  Cl12  1  0.99481669  0.42821401  0.25000000  1.0
  Cl  Cl13  1  0.43339733  0.00518331  0.25000000  1.0
  Cl  Cl14  1  0.42821401  0.43339733  0.75000000  1.0
  Cl  Cl15  1  0.00518331  0.57178599  0.75000000  1.0
  Cl  Cl16  1  0.11760504  0.75632310  0.40355461  1.0
  Cl  Cl17  1  0.11760504  0.75632310  0.09644539  1.0
  Cl  Cl18  1  0.75632310  0.63871806  0.90355461  1.0
  Cl  Cl19  1  0.75632310  0.63871806  0.59644539  1.0
  Cl  Cl20  1  0.63871806  0.88239496  0.40355461  1.0
  Cl  Cl21  1  0.63871806  0.88239496  0.09644539  1.0
  Cl  Cl22  1  0.24367690  0.36128194  0.40355461  1.0
  Cl  Cl23  1  0.24367690  0.36128194  0.09644539  1.0
  Cl  Cl24  1  0.88239496  0.24367690  0.90355461  1.0
  Cl  Cl25  1  0.88239496  0.24367690  0.59644539  1.0
  Cl  Cl26  1  0.36128194  0.11760504  0.90355461  1.0
  Cl  Cl27  1  0.36128194  0.11760504  0.59644539  1.0
