# generated using pymatgen
data_Hg3Cl4O
_symmetry_space_group_name_H-M   'P 1'
_cell_length_a   9.55701929
_cell_length_b   9.55701929
_cell_length_c   9.55701929
_cell_angle_alpha   90.00000000
_cell_angle_beta   90.00000000
_cell_angle_gamma   90.00000000
_symmetry_Int_Tables_number   1
_chemical_formula_structural   Hg3Cl4O
_chemical_formula_sum   'Hg12 Cl16 O4'
_cell_volume   872.90581867
_cell_formula_units_Z   4
loop_
 _symmetry_equiv_pos_site_id
 _symmetry_equiv_pos_as_xyz
  1  'x, y, z'
loop_
 _atom_site_type_symbol
 _atom_site_label
 _atom_site_symmetry_multiplicity
 _atom_site_fract_x
 _atom_site_fract_y
 _atom_site_fract_z
 _atom_site_occupancy
  Hg  Hg0  1  0.48302431  0.77076746  0.81473802  1.0
  Hg  Hg1  1  0.98302431  0.72923254  0.18526198  1.0
  Hg  Hg2  1  0.27076746  0.68526198  0.51697569  1.0
  Hg  Hg3  1  0.77076746  0.81473802  0.48302431  1.0
  Hg  Hg4  1  0.18526198  0.98302431  0.72923254  1.0
  Hg  Hg5  1  0.68526198  0.51697569  0.27076746  1.0
  Hg  Hg6  1  0.51697569  0.27076746  0.68526198  1.0
  Hg  Hg7  1  0.01697569  0.22923254  0.31473802  1.0
  Hg  Hg8  1  0.72923254  0.18526198  0.98302431  1.0
  Hg  Hg9  1  0.22923254  0.31473802  0.01697569  1.0
  Hg  Hg10  1  0.81473802  0.48302431  0.77076746  1.0
  Hg  Hg11  1  0.31473802  0.01697569  0.22923254  1.0
  Cl  Cl12  1  0.30434029  0.46791741  0.84446522  1.0
  Cl  Cl13  1  0.80434029  0.03208259  0.15553479  1.0
  Cl  Cl14  1  0.96791741  0.65553479  0.69565971  1.0
  Cl  Cl15  1  0.46791741  0.84446522  0.30434029  1.0
  Cl  Cl16  1  0.15553479  0.80434029  0.03208259  1.0
  Cl  Cl17  1  0.65553479  0.69565971  0.96791741  1.0
  Cl  Cl18  1  0.69565971  0.96791741  0.65553479  1.0
  Cl  Cl19  1  0.19565971  0.53208259  0.34446521  1.0
  Cl  Cl20  1  0.03208259  0.15553479  0.80434029  1.0
  Cl  Cl21  1  0.53208259  0.34446521  0.19565971  1.0
  Cl  Cl22  1  0.84446522  0.30434029  0.46791741  1.0
  Cl  Cl23  1  0.34446521  0.19565971  0.53208259  1.0
  Cl  Cl24  1  0.92876901  0.42876901  0.07123099  1.0
  Cl  Cl25  1  0.42876901  0.07123099  0.92876901  1.0
  Cl  Cl26  1  0.07123099  0.92876901  0.42876901  1.0
  Cl  Cl27  1  0.57123099  0.57123099  0.57123099  1.0
  O  O28  1  0.32395360  0.82395360  0.67604640  1.0
  O  O29  1  0.82395360  0.67604640  0.32395360  1.0
  O  O30  1  0.67604640  0.32395360  0.82395360  1.0
  O  O31  1  0.17604640  0.17604640  0.17604640  1.0
