# generated using pymatgen
data_LiGe
_symmetry_space_group_name_H-M   'P 1'
_cell_length_a   7.54313856
_cell_length_b   7.54313856
_cell_length_c   7.54313856
_cell_angle_alpha   98.36476902
_cell_angle_beta   98.36476902
_cell_angle_gamma   135.15772181
_symmetry_Int_Tables_number   1
_chemical_formula_structural   LiGe
_chemical_formula_sum   'Li8 Ge8'
_cell_volume   279.77242871
_cell_formula_units_Z   8
loop_
 _symmetry_equiv_pos_site_id
 _symmetry_equiv_pos_as_xyz
  1  'x, y, z'
loop_
 _atom_site_type_symbol
 _atom_site_label
 _atom_site_symmetry_multiplicity
 _atom_site_fract_x
 _atom_site_fract_y
 _atom_site_fract_z
 _atom_site_occupancy
  Li  Li0  1  1.03163281  1.31620815  1.44359922  1.0
  Li  Li1  1  0.87260893  0.58803360  0.55640078  1.0
  Li  Li2  1  0.87739107  0.66196640  0.94359922  1.0
  Li  Li3  1  0.71836719  0.93379185  1.05640078  1.0
  Li  Li4  1  0.41196640  0.96836719  1.28457533  1.0
  Li  Li5  1  0.68379185  0.12739107  0.71542467  1.0
  Li  Li6  1  1.06620815  1.12260893  1.78457533  1.0
  Li  Li7  1  0.33803360  0.28163281  0.21542467  1.0
  Ge  Ge8  1  1.59287288  1.78891637  1.40893836  1.0
  Ge  Ge9  1  1.37997802  1.18393452  0.59106164  1.0
  Ge  Ge10  1  1.37002198  1.06606548  0.90893836  1.0
  Ge  Ge11  1  1.15712712  1.46108363  1.09106164  1.0
  Ge  Ge12  1  0.81606548  1.40712712  1.19604350  1.0
  Ge  Ge13  1  1.21108363  0.62002198  0.80395650  1.0
  Ge  Ge14  1  1.53891637  1.62997802  1.69604350  1.0
  Ge  Ge15  1  0.93393452  0.84287288  0.30395650  1.0
