# generated using pymatgen
data_PBr2N
_symmetry_space_group_name_H-M   'P 1'
_cell_length_a   7.12575014
_cell_length_b   14.43697888
_cell_length_c   16.66223458
_cell_angle_alpha   90.00000000
_cell_angle_beta   90.00000000
_cell_angle_gamma   90.00000000
_symmetry_Int_Tables_number   1
_chemical_formula_structural   PBr2N
_chemical_formula_sum   'P12 Br24 N12'
_cell_volume   1714.11578891
_cell_formula_units_Z   12
loop_
 _symmetry_equiv_pos_site_id
 _symmetry_equiv_pos_as_xyz
  1  'x, y, z'
loop_
 _atom_site_type_symbol
 _atom_site_label
 _atom_site_symmetry_multiplicity
 _atom_site_fract_x
 _atom_site_fract_y
 _atom_site_fract_z
 _atom_site_occupancy
  P  P0  1  0.45632535  0.25000000  0.95092931  1.0
  P  P1  1  0.95632535  0.25000000  0.54907069  1.0
  P  P2  1  0.54367465  0.75000000  0.04907069  1.0
  P  P3  1  0.04367465  0.75000000  0.45092931  1.0
  P  P4  1  0.58709815  0.15333643  0.08431513  1.0
  P  P5  1  0.08709815  0.34666357  0.41568487  1.0
  P  P6  1  0.41290185  0.65333643  0.91568487  1.0
  P  P7  1  0.91290185  0.84666357  0.58431513  1.0
  P  P8  1  0.41290185  0.84666357  0.91568487  1.0
  P  P9  1  0.91290185  0.65333643  0.58431513  1.0
  P  P10  1  0.58709815  0.34666357  0.08431513  1.0
  P  P11  1  0.08709815  0.15333643  0.41568487  1.0
  Br  Br12  1  0.61643316  0.25000000  0.83643628  1.0
  Br  Br13  1  0.11643316  0.25000000  0.66356372  1.0
  Br  Br14  1  0.38356684  0.75000000  0.16356372  1.0
  Br  Br15  1  0.88356684  0.75000000  0.33643628  1.0
  Br  Br16  1  0.16328856  0.25000000  0.90790834  1.0
  Br  Br17  1  0.66328856  0.25000000  0.59209166  1.0
  Br  Br18  1  0.83671144  0.75000000  0.09209166  1.0
  Br  Br19  1  0.33671144  0.75000000  0.40790834  1.0
  Br  Br20  1  0.84873269  0.07155482  0.07980029  1.0
  Br  Br21  1  0.34873269  0.42844518  0.42019971  1.0
  Br  Br22  1  0.15126731  0.57155482  0.92019971  1.0
  Br  Br23  1  0.65126731  0.92844518  0.57980029  1.0
  Br  Br24  1  0.15126731  0.92844518  0.92019971  1.0
  Br  Br25  1  0.65126731  0.57155482  0.57980029  1.0
  Br  Br26  1  0.84873269  0.42844518  0.07980029  1.0
  Br  Br27  1  0.34873269  0.07155482  0.42019971  1.0
  Br  Br28  1  0.40689689  0.07024288  0.16417573  1.0
  Br  Br29  1  0.90689689  0.42975712  0.33582427  1.0
  Br  Br30  1  0.59310311  0.57024288  0.83582427  1.0
  Br  Br31  1  0.09310311  0.92975712  0.66417573  1.0
  Br  Br32  1  0.59310311  0.92975712  0.83582427  1.0
  Br  Br33  1  0.09310311  0.57024288  0.66417573  1.0
  Br  Br34  1  0.40689689  0.42975712  0.16417573  1.0
  Br  Br35  1  0.90689689  0.07024288  0.33582427  1.0
  N  N36  1  0.63129704  0.25000000  0.12754764  1.0
  N  N37  1  0.13129704  0.25000000  0.37245236  1.0
  N  N38  1  0.36870296  0.75000000  0.87245236  1.0
  N  N39  1  0.86870296  0.75000000  0.62754764  1.0
  N  N40  1  0.49506142  0.15416982  0.99635534  1.0
  N  N41  1  0.99506142  0.34583018  0.50364466  1.0
  N  N42  1  0.50493858  0.65416982  0.00364466  1.0
  N  N43  1  0.00493858  0.84583018  0.49635534  1.0
  N  N44  1  0.50493858  0.84583018  0.00364466  1.0
  N  N45  1  0.00493858  0.65416982  0.49635534  1.0
  N  N46  1  0.49506142  0.34583018  0.99635534  1.0
  N  N47  1  0.99506142  0.15416982  0.50364466  1.0
