# generated using pymatgen
data_Y2MgPd2
_symmetry_space_group_name_H-M   'P 1'
_cell_length_a   7.65500529
_cell_length_b   7.65500529
_cell_length_c   3.83282895
_cell_angle_alpha   90.00000000
_cell_angle_beta   90.00000000
_cell_angle_gamma   90.00000000
_symmetry_Int_Tables_number   1
_chemical_formula_structural   Y2MgPd2
_chemical_formula_sum   'Y4 Mg2 Pd4'
_cell_volume   224.60035005
_cell_formula_units_Z   2
loop_
 _symmetry_equiv_pos_site_id
 _symmetry_equiv_pos_as_xyz
  1  'x, y, z'
loop_
 _atom_site_type_symbol
 _atom_site_label
 _atom_site_symmetry_multiplicity
 _atom_site_fract_x
 _atom_site_fract_y
 _atom_site_fract_z
 _atom_site_occupancy
  Y  Y0  1  0.33119528  0.16880472  0.50000000  1.0
  Y  Y1  1  0.83119528  0.33119528  0.50000000  1.0
  Y  Y2  1  0.66880472  0.83119528  0.50000000  1.0
  Y  Y3  1  0.16880472  0.66880472  0.50000000  1.0
  Mg  Mg4  1  0.50000000  0.50000000  0.00000000  1.0
  Mg  Mg5  1  0.00000000  0.00000000  0.00000000  1.0
  Pd  Pd6  1  0.86803628  0.63196372  0.00000000  1.0
  Pd  Pd7  1  0.36803628  0.86803628  0.00000000  1.0
  Pd  Pd8  1  0.13196372  0.36803628  0.00000000  1.0
  Pd  Pd9  1  0.63196372  0.13196372  0.00000000  1.0
