# generated using pymatgen
data_Sr(AsO3)2
_symmetry_space_group_name_H-M   'P 1'
_cell_length_a   4.98405096
_cell_length_b   4.98405096
_cell_length_c   11.00246730
_cell_angle_alpha   90.00000000
_cell_angle_beta   90.00000000
_cell_angle_gamma   120.00000000
_symmetry_Int_Tables_number   1
_chemical_formula_structural   Sr(AsO3)2
_chemical_formula_sum   'Sr2 As4 O12'
_cell_volume   236.69313801
_cell_formula_units_Z   2
loop_
 _symmetry_equiv_pos_site_id
 _symmetry_equiv_pos_as_xyz
  1  'x, y, z'
loop_
 _atom_site_type_symbol
 _atom_site_label
 _atom_site_symmetry_multiplicity
 _atom_site_fract_x
 _atom_site_fract_y
 _atom_site_fract_z
 _atom_site_occupancy
  Sr  Sr0  1  0.00000000  0.00000000  0.25000000  1.0
  Sr  Sr1  1  0.00000000  0.00000000  0.75000000  1.0
  As  As2  1  0.33333333  0.66666667  0.50000000  1.0
  As  As3  1  0.33333333  0.66666667  0.00000000  1.0
  As  As4  1  0.66666667  0.33333333  0.50000000  1.0
  As  As5  1  0.66666667  0.33333333  0.00000000  1.0
  O  O6  1  0.61722751  0.61722751  0.40268949  1.0
  O  O7  1  0.61722751  0.61722751  0.09731051  1.0
  O  O8  1  0.61722751  0.00000000  0.90268949  1.0
  O  O9  1  0.61722751  0.00000000  0.59731051  1.0
  O  O10  1  0.00000000  0.61722751  0.90268949  1.0
  O  O11  1  0.00000000  0.61722751  0.59731051  1.0
  O  O12  1  -0.00000000  0.38277249  0.40268949  1.0
  O  O13  1  -0.00000000  0.38277249  0.09731051  1.0
  O  O14  1  0.38277249  0.38277249  0.90268949  1.0
  O  O15  1  0.38277249  0.38277249  0.59731051  1.0
  O  O16  1  0.38277249  0.00000000  0.40268949  1.0
  O  O17  1  0.38277249  0.00000000  0.09731051  1.0
