# generated using pymatgen
data_Sb10Te3
_symmetry_space_group_name_H-M   'P 1'
_cell_length_a   25.62125852
_cell_length_b   25.62125852
_cell_length_c   25.62125852
_cell_angle_alpha   9.78058085
_cell_angle_beta   9.78058085
_cell_angle_gamma   9.78058085
_symmetry_Int_Tables_number   1
_chemical_formula_structural   Sb10Te3
_chemical_formula_sum   'Sb10 Te3'
_cell_volume   421.35372989
_cell_formula_units_Z   1
loop_
 _symmetry_equiv_pos_site_id
 _symmetry_equiv_pos_as_xyz
  1  'x, y, z'
loop_
 _atom_site_type_symbol
 _atom_site_label
 _atom_site_symmetry_multiplicity
 _atom_site_fract_x
 _atom_site_fract_y
 _atom_site_fract_z
 _atom_site_occupancy
  Sb  Sb0  1  0.91929491  0.91929491  0.91929491  1.0
  Sb  Sb1  1  1.08070509  1.08070509  0.08070509  1.0
  Sb  Sb2  1  0.84854681  0.84854681  0.84854681  1.0
  Sb  Sb3  1  1.15145319  1.15145319  0.15145319  1.0
  Sb  Sb4  1  0.76745801  0.76745801  0.76745801  1.0
  Sb  Sb5  1  1.23254199  1.23254199  0.23254199  1.0
  Sb  Sb6  1  0.69237060  0.69237060  0.69237060  1.0
  Sb  Sb7  1  1.30762940  1.30762940  0.30762940  1.0
  Sb  Sb8  1  1.53520646  0.53520646  0.53520646  1.0
  Sb  Sb9  1  1.46479354  0.46479354  0.46479354  1.0
  Te  Te10  1  1.61872307  0.61872307  0.61872307  1.0
  Te  Te11  1  1.38127693  0.38127693  0.38127693  1.0
  Te  Te12  1  0.00000000  -0.00000000  0.00000000  1.0
