# generated using pymatgen
data_CaBeAsO5
_symmetry_space_group_name_H-M   'P 1'
_cell_length_a   5.00652557
_cell_length_b   7.95096051
_cell_length_c   10.23352498
_cell_angle_alpha   90.00000000
_cell_angle_beta   89.94359951
_cell_angle_gamma   90.00000000
_symmetry_Int_Tables_number   1
_chemical_formula_structural   CaBeAsO5
_chemical_formula_sum   'Ca4 Be4 As4 O20'
_cell_volume   407.36252921
_cell_formula_units_Z   4
loop_
 _symmetry_equiv_pos_site_id
 _symmetry_equiv_pos_as_xyz
  1  'x, y, z'
loop_
 _atom_site_type_symbol
 _atom_site_label
 _atom_site_symmetry_multiplicity
 _atom_site_fract_x
 _atom_site_fract_y
 _atom_site_fract_z
 _atom_site_occupancy
  O  O0  1  0.23263842  0.08611372  0.53325638  1.0
  O  O1  1  0.76736158  0.58611372  0.96674362  1.0
  O  O2  1  0.76736158  0.91388628  0.46674362  1.0
  O  O3  1  0.23263842  0.41388628  0.03325638  1.0
  O  O4  1  0.66715667  0.21290233  0.94560746  1.0
  O  O5  1  0.33284333  0.71290233  0.55439254  1.0
  O  O6  1  0.33284333  0.78709767  0.05439254  1.0
  O  O7  1  0.66715667  0.28709767  0.44560746  1.0
  O  O8  1  0.69745254  0.15297647  0.69645516  1.0
  O  O9  1  0.30254746  0.65297647  0.80354484  1.0
  O  O10  1  0.30254746  0.84702353  0.30354484  1.0
  O  O11  1  0.69745254  0.34702353  0.19645516  1.0
  O  O12  1  0.31482043  0.40047425  0.64750374  1.0
  O  O13  1  0.68517957  0.90047425  0.85249626  1.0
  O  O14  1  0.68517957  0.59952575  0.35249626  1.0
  O  O15  1  0.31482043  0.09952575  0.14750374  1.0
  O  O16  1  0.23425350  0.09571607  0.80677162  1.0
  O  O17  1  0.76574650  0.59571607  0.69322838  1.0
  O  O18  1  0.76574650  0.90428393  0.19322838  1.0
  O  O19  1  0.23425350  0.40428393  0.30677162  1.0
  As  As20  1  0.47416939  0.22749690  0.57825704  1.0
  As  As21  1  0.52583061  0.72749690  0.92174296  1.0
  As  As22  1  0.52583061  0.77250310  0.42174296  1.0
  As  As23  1  0.47416939  0.27250310  0.07825704  1.0
  Ca  Ca24  1  0.99708702  0.38532716  0.82787477  1.0
  Ca  Ca25  1  0.00291298  0.88532716  0.67212523  1.0
  Ca  Ca26  1  0.00291298  0.61467284  0.17212523  1.0
  Ca  Ca27  1  0.99708702  0.11467284  0.32787477  1.0
  Be  Be28  1  0.55250291  0.08603364  0.83313172  1.0
  Be  Be29  1  0.44749709  0.58603364  0.66686828  1.0
  Be  Be30  1  0.44749709  0.91396636  0.16686828  1.0
  Be  Be31  1  0.55250291  0.41396636  0.33313172  1.0
