# generated using pymatgen
data_Ca4Al
_symmetry_space_group_name_H-M   'P 1'
_cell_length_a   8.48086403
_cell_length_b   8.48086403
_cell_length_c   8.48086403
_cell_angle_alpha   60.00000000
_cell_angle_beta   60.00000000
_cell_angle_gamma   60.00000000
_symmetry_Int_Tables_number   1
_chemical_formula_structural   Ca4Al
_chemical_formula_sum   'Ca8 Al2'
_cell_volume   431.32566845
_cell_formula_units_Z   2
loop_
 _symmetry_equiv_pos_site_id
 _symmetry_equiv_pos_as_xyz
  1  'x, y, z'
loop_
 _atom_site_type_symbol
 _atom_site_label
 _atom_site_symmetry_multiplicity
 _atom_site_fract_x
 _atom_site_fract_y
 _atom_site_fract_z
 _atom_site_occupancy
  Ca  Ca0  1  -0.10989859  0.89010141  0.32969578  1.0
  Ca  Ca1  1  0.89010141  -0.67030422  0.89010141  1.0
  Ca  Ca2  1  0.35989859  0.35989859  0.35989859  1.0
  Ca  Ca3  1  -0.07969578  0.35989859  0.35989859  1.0
  Ca  Ca4  1  -0.67030422  0.89010141  0.89010141  1.0
  Ca  Ca5  1  0.89010141  -0.10989859  0.89010141  1.0
  Ca  Ca6  1  0.35989859  -0.07969578  0.35989859  1.0
  Ca  Ca7  1  0.35989859  0.35989859  -0.07969578  1.0
  Al  Al8  1  0.50000000  0.50000000  -0.50000000  1.0
  Al  Al9  1  0.75000000  -0.25000000  0.75000000  1.0
