# generated using pymatgen
data_Si3Mo5
_symmetry_space_group_name_H-M   'P 1'
_cell_length_a   7.27310336
_cell_length_b   7.27310336
_cell_length_c   7.27310336
_cell_angle_alpha   96.55639359
_cell_angle_beta   96.55639359
_cell_angle_gamma   140.50119311
_symmetry_Int_Tables_number   1
_chemical_formula_structural   Si3Mo5
_chemical_formula_sum   'Si6 Mo10'
_cell_volume   230.31981713
_cell_formula_units_Z   2
loop_
 _symmetry_equiv_pos_site_id
 _symmetry_equiv_pos_as_xyz
  1  'x, y, z'
loop_
 _atom_site_type_symbol
 _atom_site_label
 _atom_site_symmetry_multiplicity
 _atom_site_fract_x
 _atom_site_fract_y
 _atom_site_fract_z
 _atom_site_occupancy
  Si  Si0  1  0.83267393  0.33267393  1.16534786  1.0
  Si  Si1  1  0.66732607  0.83267393  0.50000000  1.0
  Si  Si2  1  1.33267393  1.16732607  1.50000000  1.0
  Si  Si3  1  0.16732607  0.66732607  0.83465214  1.0
  Si  Si4  1  0.25000000  0.25000000  0.00000000  1.0
  Si  Si5  1  0.75000000  0.75000000  0.00000000  1.0
  Mo  Mo6  1  0.27577972  0.42321013  0.69898985  1.0
  Mo  Mo7  1  1.22422028  0.92321013  1.14743040  1.0
  Mo  Mo8  1  0.92321013  0.77577972  1.69898985  1.0
  Mo  Mo9  1  0.57678987  1.27577972  0.85256960  1.0
  Mo  Mo10  1  0.77577972  1.07678987  0.85256960  1.0
  Mo  Mo11  1  0.72422028  0.57678987  1.30101015  1.0
  Mo  Mo12  1  1.42321013  0.72422028  1.14743040  1.0
  Mo  Mo13  1  0.07678987  0.22422028  0.30101015  1.0
  Mo  Mo14  1  0.75000000  1.25000000  0.50000000  1.0
  Mo  Mo15  1  0.25000000  0.75000000  0.50000000  1.0
