# generated using pymatgen
data_As2Se3
_symmetry_space_group_name_H-M   'P 1'
_cell_length_a   4.47745117
_cell_length_b   10.89832029
_cell_length_c   12.90474063
_cell_angle_alpha   90.00000000
_cell_angle_beta   110.04191465
_cell_angle_gamma   90.00000000
_symmetry_Int_Tables_number   1
_chemical_formula_structural   As2Se3
_chemical_formula_sum   'As8 Se12'
_cell_volume   591.57492011
_cell_formula_units_Z   4
loop_
 _symmetry_equiv_pos_site_id
 _symmetry_equiv_pos_as_xyz
  1  'x, y, z'
loop_
 _atom_site_type_symbol
 _atom_site_label
 _atom_site_symmetry_multiplicity
 _atom_site_fract_x
 _atom_site_fract_y
 _atom_site_fract_z
 _atom_site_occupancy
  As  As0  1  0.18569472  0.30822595  0.23679501  1.0
  As  As1  1  0.18569472  0.19177405  0.73679501  1.0
  As  As2  1  0.81430528  0.80822595  0.26320499  1.0
  As  As3  1  0.81430528  0.69177405  0.76320499  1.0
  As  As4  1  0.46098738  0.18116828  0.01798577  1.0
  As  As5  1  0.46098738  0.31883172  0.51798577  1.0
  As  As6  1  0.53901262  0.68116828  0.48201423  1.0
  As  As7  1  0.53901262  0.81883172  0.98201423  1.0
  Se  Se8  1  0.99377826  0.71533676  0.12030455  1.0
  Se  Se9  1  0.99377826  0.78466324  0.62030455  1.0
  Se  Se10  1  0.00622174  0.21533676  0.37969545  1.0
  Se  Se11  1  0.00622174  0.28466324  0.87969545  1.0
  Se  Se12  1  0.25087989  0.11046148  0.16078659  1.0
  Se  Se13  1  0.25087989  0.38953852  0.66078659  1.0
  Se  Se14  1  0.74912011  0.61046148  0.33921341  1.0
  Se  Se15  1  0.74912011  0.88953852  0.83921341  1.0
  Se  Se16  1  0.68767207  0.37590961  0.09570135  1.0
  Se  Se17  1  0.68767207  0.12409039  0.59570135  1.0
  Se  Se18  1  0.31232793  0.87590961  0.40429865  1.0
  Se  Se19  1  0.31232793  0.62409039  0.90429865  1.0
