# generated using pymatgen
data_P4N7
_symmetry_space_group_name_H-M   'P 1'
_cell_length_a   5.02336318
_cell_length_b   5.02336318
_cell_length_c   9.05396053
_cell_angle_alpha   75.41376870
_cell_angle_beta   104.58623130
_cell_angle_gamma   86.46898599
_symmetry_Int_Tables_number   1
_chemical_formula_structural   P4N7
_chemical_formula_sum   'P8 N14'
_cell_volume   212.06465000
_cell_formula_units_Z   2
loop_
 _symmetry_equiv_pos_site_id
 _symmetry_equiv_pos_as_xyz
  1  'x, y, z'
loop_
 _atom_site_type_symbol
 _atom_site_label
 _atom_site_symmetry_multiplicity
 _atom_site_fract_x
 _atom_site_fract_y
 _atom_site_fract_z
 _atom_site_occupancy
  P  P0  1  0.51162283  -0.02490165  0.20290920  1.0
  P  P1  1  1.02490165  0.48837717  0.70290920  1.0
  P  P2  1  0.97509835  -0.48837717  0.29709080  1.0
  P  P3  1  1.48837717  0.02490165  0.79709080  1.0
  P  P4  1  1.58345991  0.25563717  0.47577842  1.0
  P  P5  1  0.74436283  -0.58345991  0.97577842  1.0
  P  P6  1  1.25563717  0.58345991  0.02422158  1.0
  P  P7  1  0.41654009  -0.25563717  0.52422158  1.0
  N  N8  1  1.72078396  0.15397397  0.90232074  1.0
  N  N9  1  0.84602603  -0.72078396  0.40232074  1.0
  N  N10  1  1.15397397  0.72078396  0.59767926  1.0
  N  N11  1  0.27921604  -0.15397397  0.09767926  1.0
  N  N12  1  1.43266933  0.01023496  0.36932439  1.0
  N  N13  1  0.98976504  -0.43266933  0.86932439  1.0
  N  N14  1  1.01023496  0.43266933  0.13067561  1.0
  N  N15  1  0.56733067  -0.01023496  0.63067561  1.0
  N  N16  1  1.51088843  0.30783073  0.10127518  1.0
  N  N17  1  0.69216927  -0.51088843  0.60127518  1.0
  N  N18  1  1.30783073  0.51088843  0.39872482  1.0
  N  N19  1  0.48911157  -0.30783073  0.89872482  1.0
  N  N20  1  0.81971399  -0.18028601  0.25000000  1.0
  N  N21  1  1.18028601  0.18028601  0.75000000  1.0
