# generated using pymatgen
data_BaTi4O9
_symmetry_space_group_name_H-M   'P 1'
_cell_length_a   3.80887568
_cell_length_b   14.67945502
_cell_length_c   6.38899639
_cell_angle_alpha   90.00000000
_cell_angle_beta   90.00000000
_cell_angle_gamma   90.00000000
_symmetry_Int_Tables_number   1
_chemical_formula_structural   BaTi4O9
_chemical_formula_sum   'Ba2 Ti8 O18'
_cell_volume   357.22296639
_cell_formula_units_Z   2
loop_
 _symmetry_equiv_pos_site_id
 _symmetry_equiv_pos_as_xyz
  1  'x, y, z'
loop_
 _atom_site_type_symbol
 _atom_site_label
 _atom_site_symmetry_multiplicity
 _atom_site_fract_x
 _atom_site_fract_y
 _atom_site_fract_z
 _atom_site_occupancy
  Ba  Ba0  1  0.50000000  0.00000000  0.71701119  1.0
  Ba  Ba1  1  0.00000000  0.50000000  0.28298881  1.0
  Ti  Ti2  1  0.50000000  0.71155713  0.19561564  1.0
  Ti  Ti3  1  0.50000000  0.28844287  0.19561564  1.0
  Ti  Ti4  1  0.00000000  0.21155713  0.80438436  1.0
  Ti  Ti5  1  0.00000000  0.78844287  0.80438436  1.0
  Ti  Ti6  1  0.50000000  0.62181000  0.74761067  1.0
  Ti  Ti7  1  0.50000000  0.37819000  0.74761067  1.0
  Ti  Ti8  1  0.00000000  0.12181000  0.25238933  1.0
  Ti  Ti9  1  0.00000000  0.87819000  0.25238933  1.0
  O  O10  1  0.50000000  0.65331162  0.43613557  1.0
  O  O11  1  0.50000000  0.34668838  0.43613557  1.0
  O  O12  1  0.00000000  0.15331162  0.56386443  1.0
  O  O13  1  0.00000000  0.84668838  0.56386443  1.0
  O  O14  1  0.50000000  0.59913312  0.04137826  1.0
  O  O15  1  0.50000000  0.40086688  0.04137826  1.0
  O  O16  1  0.00000000  0.09913312  0.95862174  1.0
  O  O17  1  0.00000000  0.90086688  0.95862174  1.0
  O  O18  1  0.50000000  0.23907157  0.84664626  1.0
  O  O19  1  0.50000000  0.76092843  0.84664626  1.0
  O  O20  1  0.00000000  0.73907157  0.15335374  1.0
  O  O21  1  0.00000000  0.26092843  0.15335374  1.0
  O  O22  1  0.50000000  0.15107390  0.26028612  1.0
  O  O23  1  0.50000000  0.84892610  0.26028612  1.0
  O  O24  1  0.00000000  0.65107390  0.73971388  1.0
  O  O25  1  0.00000000  0.34892610  0.73971388  1.0
  O  O26  1  0.50000000  0.50000000  0.66371641  1.0
  O  O27  1  0.00000000  0.00000000  0.33628359  1.0
