# generated using pymatgen
data_Be22Mo
_symmetry_space_group_name_H-M   'P 1'
_cell_length_a   8.17530878
_cell_length_b   8.17530878
_cell_length_c   8.17530878
_cell_angle_alpha   60.00000000
_cell_angle_beta   60.00000000
_cell_angle_gamma   60.00000000
_symmetry_Int_Tables_number   1
_chemical_formula_structural   Be22Mo
_chemical_formula_sum   'Be44 Mo2'
_cell_volume   386.36474951
_cell_formula_units_Z   2
loop_
 _symmetry_equiv_pos_site_id
 _symmetry_equiv_pos_as_xyz
  1  'x, y, z'
loop_
 _atom_site_type_symbol
 _atom_site_label
 _atom_site_symmetry_multiplicity
 _atom_site_fract_x
 _atom_site_fract_y
 _atom_site_fract_z
 _atom_site_occupancy
  Be  Be0  1  0.62500000  -0.37500000  1.12500000  1.0
  Be  Be1  1  0.62500000  0.12500000  0.62500000  1.0
  Be  Be2  1  1.12500000  -0.37500000  0.62500000  1.0
  Be  Be3  1  0.62500000  -0.37500000  0.62500000  1.0
  Be  Be4  1  0.12500000  0.12500000  1.62500000  1.0
  Be  Be5  1  0.12500000  0.62500000  0.12500000  1.0
  Be  Be6  1  0.62500000  0.12500000  1.12500000  1.0
  Be  Be7  1  0.12500000  0.12500000  0.12500000  1.0
  Be  Be8  1  0.61505291  -0.38494709  0.88494709  1.0
  Be  Be9  1  0.88494709  -0.38494709  0.88494709  1.0
  Be  Be10  1  0.61505291  -0.11505291  0.88494709  1.0
  Be  Be11  1  0.88494709  -0.11505291  0.61505291  1.0
  Be  Be12  1  0.61505291  -0.11505291  0.61505291  1.0
  Be  Be13  1  0.88494709  -0.38494709  0.61505291  1.0
  Be  Be14  1  -0.36505291  0.63494709  0.36505291  1.0
  Be  Be15  1  0.36505291  0.63494709  0.36505291  1.0
  Be  Be16  1  -0.36505291  1.36505291  0.36505291  1.0
  Be  Be17  1  0.36505291  0.36505291  -0.36505291  1.0
  Be  Be18  1  0.63494709  0.36505291  0.63494709  1.0
  Be  Be19  1  0.36505291  0.63494709  -0.36505291  1.0
  Be  Be20  1  0.44921230  -0.07971766  0.18129306  1.0
  Be  Be21  1  0.44921230  0.44921230  0.18129306  1.0
  Be  Be22  1  -0.07971766  0.44921230  0.18129306  1.0
  Be  Be23  1  0.44921230  0.18129306  -0.07971766  1.0
  Be  Be24  1  -0.07971766  0.18129306  0.44921230  1.0
  Be  Be25  1  0.44921230  0.18129306  0.44921230  1.0
  Be  Be26  1  0.18129306  0.44921230  0.44921230  1.0
  Be  Be27  1  0.18129306  -0.07971766  0.44921230  1.0
  Be  Be28  1  0.18129306  0.44921230  -0.07971766  1.0
  Be  Be29  1  -0.07971766  0.44921230  0.44921230  1.0
  Be  Be30  1  0.44921230  0.44921230  -0.07971766  1.0
  Be  Be31  1  0.44921230  -0.07971766  0.44921230  1.0
  Be  Be32  1  0.80078770  -0.67028234  1.06870694  1.0
  Be  Be33  1  0.80078770  -0.19921230  1.06870694  1.0
  Be  Be34  1  -0.67028234  0.80078770  1.06870694  1.0
  Be  Be35  1  -0.19921230  1.06870694  0.32971766  1.0
  Be  Be36  1  -0.67028234  1.06870694  0.80078770  1.0
  Be  Be37  1  0.80078770  0.06870694  0.80078770  1.0
  Be  Be38  1  1.06870694  -0.19921230  0.80078770  1.0
  Be  Be39  1  1.06870694  -0.67028234  0.80078770  1.0
  Be  Be40  1  0.06870694  0.80078770  0.32971766  1.0
  Be  Be41  1  -0.67028234  0.80078770  0.80078770  1.0
  Be  Be42  1  -0.19921230  0.80078770  0.32971766  1.0
  Be  Be43  1  0.80078770  -0.67028234  0.80078770  1.0
  Mo  Mo44  1  0.25000000  0.25000000  0.25000000  1.0
  Mo  Mo45  1  -0.00000000  1.00000000  0.00000000  1.0
