# generated using pymatgen
data_CsNb(BO3)2
_symmetry_space_group_name_H-M   'P 1'
_cell_length_a   7.62495226
_cell_length_b   4.07308473
_cell_length_c   9.86535545
_cell_angle_alpha   90.00000000
_cell_angle_beta   90.00000000
_cell_angle_gamma   90.00000000
_symmetry_Int_Tables_number   1
_chemical_formula_structural   CsNb(BO3)2
_chemical_formula_sum   'Cs2 Nb2 B4 O12'
_cell_volume   306.38910019
_cell_formula_units_Z   2
loop_
 _symmetry_equiv_pos_site_id
 _symmetry_equiv_pos_as_xyz
  1  'x, y, z'
loop_
 _atom_site_type_symbol
 _atom_site_label
 _atom_site_symmetry_multiplicity
 _atom_site_fract_x
 _atom_site_fract_y
 _atom_site_fract_z
 _atom_site_occupancy
  Cs  Cs0  1  0.00000000  0.52323742  0.38777031  1.0
  Cs  Cs1  1  0.50000000  0.47676258  0.88777031  1.0
  Nb  Nb2  1  0.00000000  0.89741055  -0.00112774  1.0
  Nb  Nb3  1  0.50000000  0.10258945  0.49887226  1.0
  B  B4  1  0.66309459  0.99281504  0.21021416  1.0
  B  B5  1  0.16309459  0.00718496  0.71021416  1.0
  B  B6  1  0.33690541  0.99281504  0.21021416  1.0
  B  B7  1  0.83690541  0.00718496  0.71021416  1.0
  O  O8  1  0.00000000  0.45649006  -0.00031844  1.0
  O  O9  1  0.50000000  0.54350994  0.49968156  1.0
  O  O10  1  0.82342406  0.95412950  0.84591802  1.0
  O  O11  1  0.32342406  0.04587050  0.34591802  1.0
  O  O12  1  0.17657594  0.95412950  0.84591802  1.0
  O  O13  1  0.67657594  0.04587050  0.34591802  1.0
  O  O14  1  0.80917622  0.95096159  0.13246845  1.0
  O  O15  1  0.30917622  0.04903841  0.63246845  1.0
  O  O16  1  0.19082378  0.95096159  0.13246845  1.0
  O  O17  1  0.69082378  0.04903841  0.63246845  1.0
  O  O18  1  0.00000000  0.02411841  0.64387461  1.0
  O  O19  1  0.50000000  0.97588159  0.14387461  1.0
