# generated using pymatgen
data_CaTaNO2
_symmetry_space_group_name_H-M   'P 1'
_cell_length_a   7.84009562
_cell_length_b   5.59193386
_cell_length_c   5.70526320
_cell_angle_alpha   90.00000000
_cell_angle_beta   90.00000000
_cell_angle_gamma   90.00000000
_symmetry_Int_Tables_number   1
_chemical_formula_structural   CaTaNO2
_chemical_formula_sum   'Ca4 Ta4 N4 O8'
_cell_volume   250.12613369
_cell_formula_units_Z   4
loop_
 _symmetry_equiv_pos_site_id
 _symmetry_equiv_pos_as_xyz
  1  'x, y, z'
loop_
 _atom_site_type_symbol
 _atom_site_label
 _atom_site_symmetry_multiplicity
 _atom_site_fract_x
 _atom_site_fract_y
 _atom_site_fract_z
 _atom_site_occupancy
  Ca  Ca0  1  0.00000000  0.73413608  0.03320662  1.0
  Ca  Ca1  1  0.00000000  0.26586392  0.53320662  1.0
  Ca  Ca2  1  0.50000000  0.24183364  0.45088209  1.0
  Ca  Ca3  1  0.50000000  0.75816636  0.95088209  1.0
  Ta  Ta4  1  0.74578867  0.23519894  0.98675013  1.0
  Ta  Ta5  1  0.25421133  0.23519894  0.98675013  1.0
  Ta  Ta6  1  0.25421133  0.76480106  0.48675013  1.0
  Ta  Ta7  1  0.74578867  0.76480106  0.48675013  1.0
  N  N8  1  0.70388411  0.03455788  0.71758436  1.0
  N  N9  1  0.29611589  0.03455788  0.71758436  1.0
  N  N10  1  0.29611589  0.96544212  0.21758436  1.0
  N  N11  1  0.70388411  0.96544212  0.21758436  1.0
  O  O12  1  0.00000000  0.16839632  0.98418222  1.0
  O  O13  1  0.00000000  0.83160368  0.48418222  1.0
  O  O14  1  0.50000000  0.65232149  0.52941115  1.0
  O  O15  1  0.50000000  0.34767851  0.02941115  1.0
  O  O16  1  0.79783676  0.53708031  0.79692447  1.0
  O  O17  1  0.20216324  0.53708031  0.79692447  1.0
  O  O18  1  0.20216324  0.46291969  0.29692447  1.0
  O  O19  1  0.79783676  0.46291969  0.29692447  1.0
