# generated using pymatgen
data_CsAg2AsS3
_symmetry_space_group_name_H-M   'P 1'
_cell_length_a   10.19236612
_cell_length_b   8.58079459
_cell_length_c   9.71425410
_cell_angle_alpha   90.00000000
_cell_angle_beta   109.19602574
_cell_angle_gamma   90.00000000
_symmetry_Int_Tables_number   1
_chemical_formula_structural   CsAg2AsS3
_chemical_formula_sum   'Cs4 Ag8 As4 S12'
_cell_volume   802.35688144
_cell_formula_units_Z   4
loop_
 _symmetry_equiv_pos_site_id
 _symmetry_equiv_pos_as_xyz
  1  'x, y, z'
loop_
 _atom_site_type_symbol
 _atom_site_label
 _atom_site_symmetry_multiplicity
 _atom_site_fract_x
 _atom_site_fract_y
 _atom_site_fract_z
 _atom_site_occupancy
  Cs  Cs0  1  0.91038669  0.43415438  0.74566999  1.0
  Cs  Cs1  1  0.91038669  0.06584562  0.24566999  1.0
  Cs  Cs2  1  0.08961331  0.93415438  0.75433001  1.0
  Cs  Cs3  1  0.08961331  0.56584562  0.25433001  1.0
  Ag  Ag4  1  0.67328233  0.97261035  0.77930773  1.0
  Ag  Ag5  1  0.67328233  0.52738965  0.27930773  1.0
  Ag  Ag6  1  0.32671767  0.47261035  0.72069227  1.0
  Ag  Ag7  1  0.32671767  0.02738965  0.22069227  1.0
  Ag  Ag8  1  0.43743436  0.74566166  0.57052437  1.0
  Ag  Ag9  1  0.43743436  0.75433834  0.07052437  1.0
  Ag  Ag10  1  0.56256564  0.24566166  0.92947563  1.0
  Ag  Ag11  1  0.56256564  0.25433834  0.42947563  1.0
  As  As12  1  0.65165581  0.64679225  0.94234738  1.0
  As  As13  1  0.65165581  0.85320775  0.44234738  1.0
  As  As14  1  0.34834419  0.14679225  0.55765262  1.0
  As  As15  1  0.34834419  0.35320775  0.05765262  1.0
  S  S16  1  0.84093955  0.78032822  0.93816598  1.0
  S  S17  1  0.84093955  0.71967178  0.43816598  1.0
  S  S18  1  0.15906045  0.28032822  0.56183402  1.0
  S  S19  1  0.15906045  0.21967178  0.06183402  1.0
  S  S20  1  0.56433953  0.52974216  0.71282057  1.0
  S  S21  1  0.56433953  0.97025784  0.21282057  1.0
  S  S22  1  0.43566047  0.02974216  0.78717943  1.0
  S  S23  1  0.43566047  0.47025784  0.28717943  1.0
  S  S24  1  0.25266901  0.58030858  0.93224370  1.0
  S  S25  1  0.25266901  0.91969142  0.43224370  1.0
  S  S26  1  0.74733099  0.08030858  0.56775630  1.0
  S  S27  1  0.74733099  0.41969142  0.06775630  1.0
