# generated using pymatgen
data_K2O2
_symmetry_space_group_name_H-M   'P 1'
_cell_length_a   4.89965640
_cell_length_b   4.89965640
_cell_length_c   6.54033554
_cell_angle_alpha   90.00000000
_cell_angle_beta   90.00000000
_cell_angle_gamma   92.05961533
_symmetry_Int_Tables_number   1
_chemical_formula_structural   K2O2
_chemical_formula_sum   'K4 O4'
_cell_volume   156.91000051
_cell_formula_units_Z   2
loop_
 _symmetry_equiv_pos_site_id
 _symmetry_equiv_pos_as_xyz
  1  'x, y, z'
loop_
 _atom_site_type_symbol
 _atom_site_label
 _atom_site_symmetry_multiplicity
 _atom_site_fract_x
 _atom_site_fract_y
 _atom_site_fract_z
 _atom_site_occupancy
  K  K0  1  -0.40914344  0.90914344  0.25000000  1.0
  K  K1  1  0.09085656  1.40914344  0.25000000  1.0
  K  K2  1  -0.09085656  0.59085656  0.75000000  1.0
  K  K3  1  0.40914344  1.09085656  0.75000000  1.0
  O  O4  1  -0.41340556  1.41340556  0.43067314  1.0
  O  O5  1  0.08659444  0.91340556  0.06932686  1.0
  O  O6  1  0.41340556  0.58659444  0.56932686  1.0
  O  O7  1  -0.08659444  1.08659444  0.93067314  1.0
