# generated using pymatgen
data_CaCuGe
_symmetry_space_group_name_H-M   'P 1'
_cell_length_a   21.35838437
_cell_length_b   4.36914986
_cell_length_c   7.49204426
_cell_angle_alpha   90.00000000
_cell_angle_beta   90.00000000
_cell_angle_gamma   90.00000000
_symmetry_Int_Tables_number   1
_chemical_formula_structural   CaCuGe
_chemical_formula_sum   'Ca12 Cu12 Ge12'
_cell_volume   699.14245177
_cell_formula_units_Z   12
loop_
 _symmetry_equiv_pos_site_id
 _symmetry_equiv_pos_as_xyz
  1  'x, y, z'
loop_
 _atom_site_type_symbol
 _atom_site_label
 _atom_site_symmetry_multiplicity
 _atom_site_fract_x
 _atom_site_fract_y
 _atom_site_fract_z
 _atom_site_occupancy
  Ca  Ca0  1  0.49851769  0.75000000  0.21419405  1.0
  Ca  Ca1  1  0.99851769  0.75000000  0.28580595  1.0
  Ca  Ca2  1  0.50148231  0.25000000  0.78580595  1.0
  Ca  Ca3  1  0.00148231  0.25000000  0.71419405  1.0
  Ca  Ca4  1  0.33374607  0.75000000  0.29235750  1.0
  Ca  Ca5  1  0.83374607  0.75000000  0.20764250  1.0
  Ca  Ca6  1  0.66625393  0.25000000  0.70764250  1.0
  Ca  Ca7  1  0.16625393  0.25000000  0.79235750  1.0
  Ca  Ca8  1  0.16683850  0.75000000  0.20596362  1.0
  Ca  Ca9  1  0.66683850  0.75000000  0.29403638  1.0
  Ca  Ca10  1  0.83316150  0.25000000  0.79403638  1.0
  Ca  Ca11  1  0.33316150  0.25000000  0.70596362  1.0
  Cu  Cu12  1  0.40241810  0.75000000  0.91511912  1.0
  Cu  Cu13  1  0.90241810  0.75000000  0.58488088  1.0
  Cu  Cu14  1  0.59758190  0.25000000  0.08488088  1.0
  Cu  Cu15  1  0.09758190  0.25000000  0.41511912  1.0
  Cu  Cu16  1  0.26501966  0.75000000  0.91299486  1.0
  Cu  Cu17  1  0.76501966  0.75000000  0.58700514  1.0
  Cu  Cu18  1  0.73498034  0.25000000  0.08700514  1.0
  Cu  Cu19  1  0.23498034  0.25000000  0.41299486  1.0
  Cu  Cu20  1  0.06350107  0.75000000  0.91934653  1.0
  Cu  Cu21  1  0.56350107  0.75000000  0.58065347  1.0
  Cu  Cu22  1  0.93649893  0.25000000  0.08065347  1.0
  Cu  Cu23  1  0.43649893  0.25000000  0.41934653  1.0
  Ge  Ge24  1  0.43123557  0.75000000  0.59086662  1.0
  Ge  Ge25  1  0.93123557  0.75000000  0.90913338  1.0
  Ge  Ge26  1  0.56876443  0.25000000  0.40913338  1.0
  Ge  Ge27  1  0.06876443  0.25000000  0.09086662  1.0
  Ge  Ge28  1  0.23064864  0.75000000  0.58226703  1.0
  Ge  Ge29  1  0.73064864  0.75000000  0.91773297  1.0
  Ge  Ge30  1  0.76935136  0.25000000  0.41773297  1.0
  Ge  Ge31  1  0.26935136  0.25000000  0.08226703  1.0
  Ge  Ge32  1  0.10148625  0.75000000  0.58557195  1.0
  Ge  Ge33  1  0.60148625  0.75000000  0.91442805  1.0
  Ge  Ge34  1  0.89851375  0.25000000  0.41442805  1.0
  Ge  Ge35  1  0.39851375  0.25000000  0.08557195  1.0
