# generated using pymatgen
data_Nb2FeB2
_symmetry_space_group_name_H-M   'P 1'
_cell_length_a   5.90638006
_cell_length_b   5.90638006
_cell_length_c   3.27033652
_cell_angle_alpha   90.00000000
_cell_angle_beta   90.00000000
_cell_angle_gamma   90.00000000
_symmetry_Int_Tables_number   1
_chemical_formula_structural   Nb2FeB2
_chemical_formula_sum   'Nb4 Fe2 B4'
_cell_volume   114.08675368
_cell_formula_units_Z   2
loop_
 _symmetry_equiv_pos_site_id
 _symmetry_equiv_pos_as_xyz
  1  'x, y, z'
loop_
 _atom_site_type_symbol
 _atom_site_label
 _atom_site_symmetry_multiplicity
 _atom_site_fract_x
 _atom_site_fract_y
 _atom_site_fract_z
 _atom_site_occupancy
  Nb  Nb0  1  0.31844259  0.18155741  0.50000000  1.0
  Nb  Nb1  1  0.81844259  0.31844259  0.50000000  1.0
  Nb  Nb2  1  0.68155741  0.81844259  0.50000000  1.0
  Nb  Nb3  1  0.18155741  0.68155741  0.50000000  1.0
  Fe  Fe4  1  0.50000000  0.50000000  0.00000000  1.0
  Fe  Fe5  1  0.00000000  0.00000000  0.00000000  1.0
  B  B6  1  0.89188581  0.60811419  0.00000000  1.0
  B  B7  1  0.39188581  0.89188581  0.00000000  1.0
  B  B8  1  0.10811419  0.39188581  0.00000000  1.0
  B  B9  1  0.60811419  0.10811419  0.00000000  1.0
