# generated using pymatgen
data_Sc15C19
_symmetry_space_group_name_H-M   'P 1'
_cell_length_a   7.54419859
_cell_length_b   7.54419859
_cell_length_c   14.63937586
_cell_angle_alpha   90.00000000
_cell_angle_beta   90.00000000
_cell_angle_gamma   90.00000000
_symmetry_Int_Tables_number   1
_chemical_formula_structural   Sc15C19
_chemical_formula_sum   'Sc30 C38'
_cell_volume   833.19908706
_cell_formula_units_Z   2
loop_
 _symmetry_equiv_pos_site_id
 _symmetry_equiv_pos_as_xyz
  1  'x, y, z'
loop_
 _atom_site_type_symbol
 _atom_site_label
 _atom_site_symmetry_multiplicity
 _atom_site_fract_x
 _atom_site_fract_y
 _atom_site_fract_z
 _atom_site_occupancy
  Sc  Sc0  1  0.20348600  0.40684747  -0.00001389  1.0
  Sc  Sc1  1  0.29651400  0.90684747  0.50001389  1.0
  Sc  Sc2  1  0.59315253  0.20348600  1.00001389  1.0
  Sc  Sc3  1  0.90684747  0.70348600  0.49998611  1.0
  Sc  Sc4  1  0.79651400  0.59315253  -0.00001389  1.0
  Sc  Sc5  1  0.70348600  0.09315253  0.50001389  1.0
  Sc  Sc6  1  0.40684747  0.79651400  1.00001389  1.0
  Sc  Sc7  1  0.09315253  0.29651400  0.49998611  1.0
  Sc  Sc8  1  0.40140006  0.21615251  0.35341952  1.0
  Sc  Sc9  1  0.09859994  0.71615251  0.14658048  1.0
  Sc  Sc10  1  0.78384749  0.40140006  0.64658048  1.0
  Sc  Sc11  1  0.71615251  0.90140006  0.85341952  1.0
  Sc  Sc12  1  0.59859994  0.78384749  0.35341952  1.0
  Sc  Sc13  1  0.90140006  0.28384749  0.14658048  1.0
  Sc  Sc14  1  0.21615251  0.59859994  0.64658048  1.0
  Sc  Sc15  1  0.28384749  0.09859994  0.85341952  1.0
  Sc  Sc16  1  0.28378578  0.09861481  0.14661324  1.0
  Sc  Sc17  1  0.21621422  0.59861481  0.35338676  1.0
  Sc  Sc18  1  0.90138519  0.28378578  0.85338676  1.0
  Sc  Sc19  1  0.59861481  0.78378578  0.64661324  1.0
  Sc  Sc20  1  0.71621422  0.90138519  0.14661324  1.0
  Sc  Sc21  1  0.78378578  0.40138519  0.35338676  1.0
  Sc  Sc22  1  0.09861481  0.71621422  0.85338676  1.0
  Sc  Sc23  1  0.40138519  0.21621422  0.64661324  1.0
  Sc  Sc24  1  0.50000000  0.50000000  0.16617641  1.0
  Sc  Sc25  1  0.00000000  0.00000000  0.33382359  1.0
  Sc  Sc26  1  0.50000000  0.50000000  0.83382359  1.0
  Sc  Sc27  1  0.00000000  0.00000000  0.66617641  1.0
  Sc  Sc28  1  0.50000000  0.50000000  0.50000000  1.0
  Sc  Sc29  1  0.00000000  0.00000000  0.00000000  1.0
  C  C30  1  0.50000000  0.50000000  0.00000000  1.0
  C  C31  1  0.00000000  0.00000000  0.50000000  1.0
  C  C32  1  0.19664700  0.40543923  0.16656128  1.0
  C  C33  1  0.30335300  0.90543923  0.33343872  1.0
  C  C34  1  0.59456077  0.19664700  0.83343872  1.0
  C  C35  1  0.90543923  0.69664700  0.66656128  1.0
  C  C36  1  0.80335300  0.59456077  0.16656128  1.0
  C  C37  1  0.69664700  0.09456077  0.33343872  1.0
  C  C38  1  0.40543923  0.80335300  0.83343872  1.0
  C  C39  1  0.09456077  0.30335300  0.66656128  1.0
  C  C40  1  0.09453540  0.30329884  0.33342953  1.0
  C  C41  1  0.40546460  0.80329884  0.16657047  1.0
  C  C42  1  0.69670116  0.09453540  0.66657047  1.0
  C  C43  1  0.80329884  0.59453540  0.83342953  1.0
  C  C44  1  0.90546460  0.69670116  0.33342953  1.0
  C  C45  1  0.59453540  0.19670116  0.16657047  1.0
  C  C46  1  0.30329884  0.90546460  0.66657047  1.0
  C  C47  1  0.19670116  0.40546460  0.83342953  1.0
  C  C48  1  0.15103222  0.34892185  0.24999649  1.0
  C  C49  1  0.34896778  0.84892185  0.25000351  1.0
  C  C50  1  0.65107815  0.15103222  0.75000351  1.0
  C  C51  1  0.84892185  0.65103222  0.74999649  1.0
  C  C52  1  0.84896778  0.65107815  0.24999649  1.0
  C  C53  1  0.65103222  0.15107815  0.25000351  1.0
  C  C54  1  0.34892185  0.84896778  0.75000351  1.0
  C  C55  1  0.15107815  0.34896778  0.74999649  1.0
  C  C56  1  0.39669662  0.19794359  0.50001842  1.0
  C  C57  1  0.10330338  0.69794359  -0.00001842  1.0
  C  C58  1  0.80205641  0.39669662  0.49998158  1.0
  C  C59  1  0.69794359  0.89669662  1.00001842  1.0
  C  C60  1  0.60330338  0.80205641  0.50001842  1.0
  C  C61  1  0.89669662  0.30205641  -0.00001842  1.0
  C  C62  1  0.19794359  0.60330338  0.49998158  1.0
  C  C63  1  0.30205641  0.10330338  1.00001842  1.0
  C  C64  1  0.50000000  0.50000000  0.33907422  1.0
  C  C65  1  0.00000000  0.00000000  0.16092578  1.0
  C  C66  1  0.50000000  0.50000000  0.66092578  1.0
  C  C67  1  0.00000000  0.00000000  0.83907422  1.0
