# generated using pymatgen
data_Co2Re5As12
_symmetry_space_group_name_H-M   'P 1'
_cell_length_a   12.73931442
_cell_length_b   15.75364949
_cell_length_c   3.17468962
_cell_angle_alpha   90.00000000
_cell_angle_beta   90.00000000
_cell_angle_gamma   90.00000000
_symmetry_Int_Tables_number   1
_chemical_formula_structural   Co2Re5As12
_chemical_formula_sum   'Co4 Re10 As24'
_cell_volume   637.13066386
_cell_formula_units_Z   2
loop_
 _symmetry_equiv_pos_site_id
 _symmetry_equiv_pos_as_xyz
  1  'x, y, z'
loop_
 _atom_site_type_symbol
 _atom_site_label
 _atom_site_symmetry_multiplicity
 _atom_site_fract_x
 _atom_site_fract_y
 _atom_site_fract_z
 _atom_site_occupancy
  Co  Co0  1  0.87379545  0.65464379  0.50000000  1.0
  Co  Co1  1  0.37379545  0.84535621  -0.00000000  1.0
  Co  Co2  1  0.12620455  0.34535621  0.50000000  1.0
  Co  Co3  1  0.62620455  0.15464379  -0.00000000  1.0
  Re  Re4  1  0.50000000  0.50000000  0.50000000  1.0
  Re  Re5  1  0.00000000  0.00000000  0.00000000  1.0
  Re  Re6  1  0.31679113  0.10312174  0.50000000  1.0
  Re  Re7  1  0.81679113  0.39687826  0.00000000  1.0
  Re  Re8  1  0.68320887  0.89687826  0.50000000  1.0
  Re  Re9  1  0.18320887  0.60312174  0.00000000  1.0
  Re  Re10  1  0.08408974  0.73825476  0.50000000  1.0
  Re  Re11  1  0.58408974  0.76174524  -0.00000000  1.0
  Re  Re12  1  0.91591026  0.26174524  0.50000000  1.0
  Re  Re13  1  0.41591026  0.23825476  -0.00000000  1.0
  As  As14  1  0.43115818  0.74083168  0.50000000  1.0
  As  As15  1  0.93115818  0.75916832  -0.00000000  1.0
  As  As16  1  0.56884182  0.25916832  0.50000000  1.0
  As  As17  1  0.06884182  0.24083168  -0.00000000  1.0
  As  As18  1  0.34395912  0.59374230  0.50000000  1.0
  As  As19  1  0.84395912  0.90625770  -0.00000000  1.0
  As  As20  1  0.65604088  0.40625770  0.50000000  1.0
  As  As21  1  0.15604088  0.09374230  -0.00000000  1.0
  As  As22  1  0.29448550  0.93949379  0.50000000  1.0
  As  As23  1  0.79448550  0.56050621  0.00000000  1.0
  As  As24  1  0.70551450  0.06050621  0.50000000  1.0
  As  As25  1  0.20551450  0.43949379  0.00000000  1.0
  As  As26  1  0.27007054  0.25808510  0.50000000  1.0
  As  As27  1  0.77007054  0.24191490  0.00000000  1.0
  As  As28  1  0.72992946  0.74191490  0.50000000  1.0
  As  As29  1  0.22992946  0.75808510  0.00000000  1.0
  As  As30  1  0.09576916  0.90253505  0.50000000  1.0
  As  As31  1  0.59576916  0.59746495  0.00000000  1.0
  As  As32  1  0.90423084  0.09746495  0.50000000  1.0
  As  As33  1  0.40423084  0.40253505  0.00000000  1.0
  As  As34  1  0.03158456  0.57850674  0.50000000  1.0
  As  As35  1  0.53158456  0.92149326  -0.00000000  1.0
  As  As36  1  0.96841544  0.42149326  0.50000000  1.0
  As  As37  1  0.46841544  0.07850674  -0.00000000  1.0
