# generated using pymatgen
data_Re4Ni4Mo7
_symmetry_space_group_name_H-M   'P 1'
_cell_length_a   9.36416586
_cell_length_b   9.36416586
_cell_length_c   4.84770089
_cell_angle_alpha   90.00000000
_cell_angle_beta   90.00000000
_cell_angle_gamma   90.00000000
_symmetry_Int_Tables_number   1
_chemical_formula_structural   Re4Ni4Mo7
_chemical_formula_sum   'Re8 Ni8 Mo14'
_cell_volume   425.08326773
_cell_formula_units_Z   2
loop_
 _symmetry_equiv_pos_site_id
 _symmetry_equiv_pos_as_xyz
  1  'x, y, z'
loop_
 _atom_site_type_symbol
 _atom_site_label
 _atom_site_symmetry_multiplicity
 _atom_site_fract_x
 _atom_site_fract_y
 _atom_site_fract_z
 _atom_site_occupancy
  Re  Re0  1  0.37024550  0.96484813  0.50000000  1.0
  Re  Re1  1  0.62975450  0.03515187  0.50000000  1.0
  Re  Re2  1  0.12975450  0.46484813  0.00000000  1.0
  Re  Re3  1  0.87024550  0.53515187  0.00000000  1.0
  Re  Re4  1  0.96484813  0.37024550  0.50000000  1.0
  Re  Re5  1  0.03515187  0.62975450  0.50000000  1.0
  Re  Re6  1  0.46484813  0.12975450  0.00000000  1.0
  Re  Re7  1  0.53515187  0.87024550  0.00000000  1.0
  Ni  Ni8  1  0.43396595  0.23882766  0.50000000  1.0
  Ni  Ni9  1  0.56603405  0.76117234  0.50000000  1.0
  Ni  Ni10  1  0.06603405  0.73882766  0.00000000  1.0
  Ni  Ni11  1  0.93396595  0.26117234  0.00000000  1.0
  Ni  Ni12  1  0.23882766  0.43396595  0.50000000  1.0
  Ni  Ni13  1  0.76117234  0.56603405  0.50000000  1.0
  Ni  Ni14  1  0.73882766  0.06603405  0.00000000  1.0
  Ni  Ni15  1  0.26117234  0.93396595  0.00000000  1.0
  Mo  Mo16  1  0.50000000  0.50000000  0.50000000  1.0
  Mo  Mo17  1  0.00000000  0.00000000  0.00000000  1.0
  Mo  Mo18  1  0.10662816  0.89337184  0.50000000  1.0
  Mo  Mo19  1  0.89337184  0.10662816  0.50000000  1.0
  Mo  Mo20  1  0.39337184  0.39337184  0.00000000  1.0
  Mo  Mo21  1  0.60662816  0.60662816  0.00000000  1.0
  Mo  Mo22  1  0.31446384  0.68553616  0.25096808  1.0
  Mo  Mo23  1  0.68553616  0.31446384  0.25096808  1.0
  Mo  Mo24  1  0.18553616  0.18553616  0.75096808  1.0
  Mo  Mo25  1  0.81446384  0.81446384  0.75096808  1.0
  Mo  Mo26  1  0.68553616  0.31446384  0.74903192  1.0
  Mo  Mo27  1  0.31446384  0.68553616  0.74903192  1.0
  Mo  Mo28  1  0.81446384  0.81446384  0.24903192  1.0
  Mo  Mo29  1  0.18553616  0.18553616  0.24903192  1.0
