# generated using pymatgen
data_Li2SnO3
_symmetry_space_group_name_H-M   'P 1'
_cell_length_a   5.36788541
_cell_length_b   5.36788541
_cell_length_c   10.09709337
_cell_angle_alpha   84.81097391
_cell_angle_beta   95.18902609
_cell_angle_gamma   59.82493287
_symmetry_Int_Tables_number   1
_chemical_formula_structural   Li2SnO3
_chemical_formula_sum   'Li8 Sn4 O12'
_cell_volume   247.34431728
_cell_formula_units_Z   4
loop_
 _symmetry_equiv_pos_site_id
 _symmetry_equiv_pos_as_xyz
  1  'x, y, z'
loop_
 _atom_site_type_symbol
 _atom_site_label
 _atom_site_symmetry_multiplicity
 _atom_site_fract_x
 _atom_site_fract_y
 _atom_site_fract_z
 _atom_site_occupancy
  Li  Li0  1  0.65873745  0.18563014  0.99885932  1.0
  Li  Li1  1  0.81436986  -0.65873745  0.49885932  1.0
  Li  Li2  1  1.18563014  -0.34126255  0.50114068  1.0
  Li  Li3  1  0.34126255  -0.18563014  0.00114068  1.0
  Li  Li4  1  0.58564319  -0.41435681  0.75000000  1.0
  Li  Li5  1  0.41435681  0.41435681  0.25000000  1.0
  Li  Li6  1  0.50000000  -0.00000000  0.50000000  1.0
  Li  Li7  1  1.00000000  -0.50000000  -0.00000000  1.0
  Sn  Sn8  1  0.91755186  -0.08244814  0.75000000  1.0
  Sn  Sn9  1  0.08244814  0.08244814  0.25000000  1.0
  Sn  Sn10  1  0.25008784  0.25008784  0.75000000  1.0
  Sn  Sn11  1  0.74991216  -0.25008784  0.25000000  1.0
  O  O12  1  0.80582880  0.02729264  0.36732517  1.0
  O  O13  1  0.97270736  -0.80582880  0.86732517  1.0
  O  O14  1  1.02729264  -0.19417120  0.13267483  1.0
  O  O15  1  0.19417120  -0.02729264  0.63267483  1.0
  O  O16  1  0.62426194  -0.10444541  0.86740321  1.0
  O  O17  1  1.10444541  -0.62426194  0.36740321  1.0
  O  O18  1  0.89555459  -0.37573806  0.63259679  1.0
  O  O19  1  0.37573806  0.10444541  0.13259679  1.0
  O  O20  1  0.54181315  0.27354919  0.62956833  1.0
  O  O21  1  0.72645081  -0.54181315  0.12956833  1.0
  O  O22  1  1.27354919  -0.45818685  0.87043167  1.0
  O  O23  1  0.45818685  -0.27354919  0.37043167  1.0
