# generated using pymatgen
data_FeH8(BrO2)2
_symmetry_space_group_name_H-M   'P 1'
_cell_length_a   6.06061492
_cell_length_b   7.94672918
_cell_length_c   8.74338865
_cell_angle_alpha   90.00000000
_cell_angle_beta   110.96953796
_cell_angle_gamma   90.00000000
_symmetry_Int_Tables_number   1
_chemical_formula_structural   FeH8(BrO2)2
_chemical_formula_sum   'Fe2 H16 Br4 O8'
_cell_volume   393.21057369
_cell_formula_units_Z   2
loop_
 _symmetry_equiv_pos_site_id
 _symmetry_equiv_pos_as_xyz
  1  'x, y, z'
loop_
 _atom_site_type_symbol
 _atom_site_label
 _atom_site_symmetry_multiplicity
 _atom_site_fract_x
 _atom_site_fract_y
 _atom_site_fract_z
 _atom_site_occupancy
  Fe  Fe0  1  -0.00000000  0.50000000  0.50000000  1.0
  Fe  Fe1  1  0.00000000  0.00000000  0.00000000  1.0
  H  H2  1  0.91098806  0.92542207  0.28756816  1.0
  H  H3  1  0.91098806  0.57457793  0.78756816  1.0
  H  H4  1  0.08901194  0.42542207  0.21243184  1.0
  H  H5  1  0.08901194  0.07457793  0.71243184  1.0
  H  H6  1  0.89798307  0.92969411  0.66596188  1.0
  H  H7  1  0.89798307  0.57030589  0.16596188  1.0
  H  H8  1  0.10201693  0.42969411  0.83403812  1.0
  H  H9  1  0.10201693  0.07030589  0.33403812  1.0
  H  H10  1  0.61704852  0.30956372  0.49607780  1.0
  H  H11  1  0.61704852  0.19043628  -0.00392220  1.0
  H  H12  1  0.38295148  0.80956372  1.00392220  1.0
  H  H13  1  0.38295148  0.69043628  0.50392220  1.0
  H  H14  1  0.61366350  0.31737468  0.31646240  1.0
  H  H15  1  0.61366350  0.18262532  0.81646240  1.0
  H  H16  1  0.38633650  0.81737468  0.18353760  1.0
  H  H17  1  0.38633650  0.68262532  0.68353760  1.0
  Br  Br18  1  0.70215231  0.76751791  0.42786989  1.0
  Br  Br19  1  0.70215231  0.73248209  0.92786989  1.0
  Br  Br20  1  0.29784769  0.26751791  0.07213011  1.0
  Br  Br21  1  0.29784769  0.23248209  0.57213011  1.0
  O  O22  1  0.99418418  0.49762301  0.25679568  1.0
  O  O23  1  0.99418418  0.00237699  0.75679568  1.0
  O  O24  1  0.00581582  0.99762301  0.24320432  1.0
  O  O25  1  0.00581582  0.50237699  0.74320432  1.0
  O  O26  1  0.71958140  0.32855386  0.43184935  1.0
  O  O27  1  0.71958140  0.17144614  0.93184935  1.0
  O  O28  1  0.28041860  0.82855386  0.06815065  1.0
  O  O29  1  0.28041860  0.67144614  0.56815065  1.0
