# generated using pymatgen
data_Cs4K2Cu(SiO4)2
_symmetry_space_group_name_H-M   'P 1'
_cell_length_a   10.60428229
_cell_length_b   10.60428229
_cell_length_c   6.16853134
_cell_angle_alpha   90.00000000
_cell_angle_beta   90.00000000
_cell_angle_gamma   90.00000000
_symmetry_Int_Tables_number   1
_chemical_formula_structural   Cs4K2Cu(SiO4)2
_chemical_formula_sum   'Cs8 K4 Cu2 Si4 O16'
_cell_volume   693.65630161
_cell_formula_units_Z   2
loop_
 _symmetry_equiv_pos_site_id
 _symmetry_equiv_pos_as_xyz
  1  'x, y, z'
loop_
 _atom_site_type_symbol
 _atom_site_label
 _atom_site_symmetry_multiplicity
 _atom_site_fract_x
 _atom_site_fract_y
 _atom_site_fract_z
 _atom_site_occupancy
  Cs  Cs0  1  0.36141017  0.11403873  0.50000000  1.0
  Cs  Cs1  1  0.86141017  0.38596127  -0.00000000  1.0
  Cs  Cs2  1  0.88596127  0.63858983  0.50000000  1.0
  Cs  Cs3  1  0.38596127  0.86141017  -0.00000000  1.0
  Cs  Cs4  1  0.63858983  0.88596127  0.50000000  1.0
  Cs  Cs5  1  0.13858983  0.61403873  -0.00000000  1.0
  Cs  Cs6  1  0.11403873  0.36141017  0.50000000  1.0
  Cs  Cs7  1  0.61403873  0.13858983  0.00000000  1.0
  K  K8  1  0.10355320  0.89644680  0.50000000  1.0
  K  K9  1  0.60355320  0.60355320  -0.00000000  1.0
  K  K10  1  0.89644680  0.10355320  0.50000000  1.0
  K  K11  1  0.39644680  0.39644680  0.00000000  1.0
  Cu  Cu12  1  0.50000000  0.50000000  0.50000000  1.0
  Cu  Cu13  1  0.00000000  0.00000000  -0.00000000  1.0
  Si  Si14  1  0.32436164  0.67563836  0.50000000  1.0
  Si  Si15  1  0.82436164  0.82436164  -0.00000000  1.0
  Si  Si16  1  0.67563836  0.32436164  0.50000000  1.0
  Si  Si17  1  0.17563836  0.17563836  -0.00000000  1.0
  O  O18  1  0.39804079  0.60195921  0.29235711  1.0
  O  O19  1  0.39804079  0.60195921  0.70764289  1.0
  O  O20  1  0.89804079  0.89804079  0.79235711  1.0
  O  O21  1  0.89804079  0.89804079  0.20764289  1.0
  O  O22  1  0.60195921  0.39804079  0.29235711  1.0
  O  O23  1  0.60195921  0.39804079  0.70764289  1.0
  O  O24  1  0.10195921  0.10195921  0.79235711  1.0
  O  O25  1  0.10195921  0.10195921  0.20764289  1.0
  O  O26  1  0.35242173  0.82837642  0.50000000  1.0
  O  O27  1  0.85242173  0.67162358  -0.00000000  1.0
  O  O28  1  0.17162358  0.64757827  0.50000000  1.0
  O  O29  1  0.67162358  0.85242173  0.00000000  1.0
  O  O30  1  0.64757827  0.17162358  0.50000000  1.0
  O  O31  1  0.14757827  0.32837642  0.00000000  1.0
  O  O32  1  0.82837642  0.35242173  0.50000000  1.0
  O  O33  1  0.32837642  0.14757827  0.00000000  1.0
