# generated using pymatgen
data_Ge(SbTe2)2
_symmetry_space_group_name_H-M   'P 1'
_cell_length_a   14.13206427
_cell_length_b   14.13206427
_cell_length_c   14.13206427
_cell_angle_alpha   17.54183853
_cell_angle_beta   17.54183853
_cell_angle_gamma   17.54183853
_symmetry_Int_Tables_number   1
_chemical_formula_structural   Ge(SbTe2)2
_chemical_formula_sum   'Ge1 Sb2 Te4'
_cell_volume   223.77872402
_cell_formula_units_Z   1
loop_
 _symmetry_equiv_pos_site_id
 _symmetry_equiv_pos_as_xyz
  1  'x, y, z'
loop_
 _atom_site_type_symbol
 _atom_site_label
 _atom_site_symmetry_multiplicity
 _atom_site_fract_x
 _atom_site_fract_y
 _atom_site_fract_z
 _atom_site_occupancy
  Ge  Ge0  1  0.00000000  0.00000000  0.00000000  1.0
  Sb  Sb1  1  1.57756962  0.57756962  0.57756962  1.0
  Sb  Sb2  1  1.42243038  0.42243038  0.42243038  1.0
  Te  Te3  1  0.86986870  0.86986870  0.86986870  1.0
  Te  Te4  1  1.13013130  1.13013130  0.13013130  1.0
  Te  Te5  1  0.70729052  0.70729052  0.70729052  1.0
  Te  Te6  1  1.29270948  1.29270948  0.29270948  1.0
