# generated using pymatgen
data_Mo3H12C4NO10
_symmetry_space_group_name_H-M   'P 1'
_cell_length_a   10.24072074
_cell_length_b   10.24072074
_cell_length_c   10.24072074
_cell_angle_alpha   60.00000000
_cell_angle_beta   60.00000000
_cell_angle_gamma   60.00000000
_symmetry_Int_Tables_number   1
_chemical_formula_structural   Mo3H12C4NO10
_chemical_formula_sum   'Mo6 H24 C8 N2 O20'
_cell_volume   759.41045428
_cell_formula_units_Z   2
loop_
 _symmetry_equiv_pos_site_id
 _symmetry_equiv_pos_as_xyz
  1  'x, y, z'
loop_
 _atom_site_type_symbol
 _atom_site_label
 _atom_site_symmetry_multiplicity
 _atom_site_fract_x
 _atom_site_fract_y
 _atom_site_fract_z
 _atom_site_occupancy
  N  N0  1  0.25000000  0.25000000  1.25000000  1.0
  N  N1  1  0.75000000  -0.25000000  0.75000000  1.0
  Mo  Mo2  1  1.16153747  -0.16153747  0.16153747  1.0
  Mo  Mo3  1  -0.16153747  1.16153747  0.16153747  1.0
  Mo  Mo4  1  0.83846253  0.83846253  -0.83846253  1.0
  Mo  Mo5  1  0.83846253  -0.83846253  0.83846253  1.0
  Mo  Mo6  1  0.16153747  0.16153747  -0.16153747  1.0
  Mo  Mo7  1  0.16153747  0.83846253  -0.16153747  1.0
  O  O8  1  0.00000000  0.00000000  0.00000000  1.0
  O  O9  1  0.00000000  0.00000000  1.26036936  1.0
  O  O10  1  -0.26036936  1.00000000  0.26036936  1.0
  O  O11  1  1.00000000  -0.26036936  0.26036936  1.0
  O  O12  1  0.73963064  -0.73963064  1.00000000  1.0
  O  O13  1  0.00000000  0.26036936  0.00000000  1.0
  O  O14  1  1.00000000  -0.73963064  0.73963064  1.0
  O  O15  1  0.26036936  -0.26036936  1.00000000  1.0
  O  O16  1  -0.73963064  1.00000000  0.73963064  1.0
  O  O17  1  1.26036936  0.00000000  -0.00000000  1.0
  O  O18  1  0.00000000  0.00000000  1.73963064  1.0
  O  O19  1  0.00000000  0.73963064  -0.00000000  1.0
  O  O20  1  1.73963064  0.00000000  -0.00000000  1.0
  O  O21  1  1.27870306  -0.27870306  0.27870306  1.0
  O  O22  1  -0.27870306  1.27870306  0.27870306  1.0
  O  O23  1  0.72129694  0.72129694  -0.72129694  1.0
  O  O24  1  0.72129694  -0.72129694  0.72129694  1.0
  O  O25  1  0.27870306  0.27870306  -0.27870306  1.0
  O  O26  1  0.27870306  0.72129694  -0.27870306  1.0
  O  O27  1  0.50000000  0.50000000  -0.50000000  1.0
  H  H28  1  0.26541461  0.44071089  1.26541461  1.0
  H  H29  1  0.02845989  0.26541461  1.26541461  1.0
  H  H30  1  0.44071089  0.02845989  1.26541461  1.0
  H  H31  1  0.02845989  0.44071089  1.26541461  1.0
  H  H32  1  0.44071089  0.26541461  1.26541461  1.0
  H  H33  1  0.26541461  0.02845989  1.26541461  1.0
  H  H34  1  0.02845989  0.26541461  1.44071089  1.0
  H  H35  1  0.26541461  0.26541461  1.02845989  1.0
  H  H36  1  0.26541461  0.26541461  1.44071089  1.0
  H  H37  1  0.44071089  0.26541461  1.02845989  1.0
  H  H38  1  0.26541461  0.44071089  1.02845989  1.0
  H  H39  1  0.26541461  0.02845989  1.44071089  1.0
  H  H40  1  0.73458539  -0.44071089  0.73458539  1.0
  H  H41  1  0.97154011  -0.26541461  0.73458539  1.0
  H  H42  1  0.55928911  -0.02845989  0.73458539  1.0
  H  H43  1  0.97154011  -0.44071089  0.73458539  1.0
  H  H44  1  0.55928911  -0.26541461  0.73458539  1.0
  H  H45  1  0.73458539  -0.02845989  0.73458539  1.0
  H  H46  1  0.97154011  -0.26541461  0.55928911  1.0
  H  H47  1  0.73458539  -0.26541461  0.97154011  1.0
  H  H48  1  0.73458539  -0.26541461  0.55928911  1.0
  H  H49  1  0.55928911  -0.26541461  0.97154011  1.0
  H  H50  1  0.73458539  -0.44071089  0.97154011  1.0
  H  H51  1  0.73458539  -0.02845989  0.55928911  1.0
  C  C52  1  0.30989801  0.30989801  1.30989801  1.0
  C  C53  1  0.07030597  0.30989801  1.30989801  1.0
  C  C54  1  0.30989801  0.07030597  1.30989801  1.0
  C  C55  1  0.30989801  0.30989801  1.07030597  1.0
  C  C56  1  0.69010199  -0.30989801  0.69010199  1.0
  C  C57  1  0.92969403  -0.30989801  0.69010199  1.0
  C  C58  1  0.69010199  -0.07030597  0.69010199  1.0
  C  C59  1  0.69010199  -0.30989801  0.92969403  1.0
