# generated using pymatgen
data_Ca2Fe2O5
_symmetry_space_group_name_H-M   'P 1'
_cell_length_a   5.31815347
_cell_length_b   15.17910329
_cell_length_c   5.53564368
_cell_angle_alpha   90.00000000
_cell_angle_beta   90.00000000
_cell_angle_gamma   90.00000000
_symmetry_Int_Tables_number   1
_chemical_formula_structural   Ca2Fe2O5
_chemical_formula_sum   'Ca8 Fe8 O20'
_cell_volume   446.86373361
_cell_formula_units_Z   4
loop_
 _symmetry_equiv_pos_site_id
 _symmetry_equiv_pos_as_xyz
  1  'x, y, z'
loop_
 _atom_site_type_symbol
 _atom_site_label
 _atom_site_symmetry_multiplicity
 _atom_site_fract_x
 _atom_site_fract_y
 _atom_site_fract_z
 _atom_site_occupancy
  Ca  Ca0  1  0.48436874  0.39099471  0.02585924  1.0
  Ca  Ca1  1  0.48436874  0.10900529  0.02585924  1.0
  Ca  Ca2  1  0.98436874  0.39099471  0.47414076  1.0
  Ca  Ca3  1  0.98436874  0.10900529  0.47414076  1.0
  Ca  Ca4  1  0.51563126  0.89099471  0.97414076  1.0
  Ca  Ca5  1  0.51563126  0.60900529  0.97414076  1.0
  Ca  Ca6  1  0.01563126  0.89099471  0.52585924  1.0
  Ca  Ca7  1  0.01563126  0.60900529  0.52585924  1.0
  Fe  Fe8  1  0.44999793  0.25000000  0.56715820  1.0
  Fe  Fe9  1  0.94999793  0.25000000  0.93284180  1.0
  Fe  Fe10  1  0.55000207  0.75000000  0.43284180  1.0
  Fe  Fe11  1  0.05000207  0.75000000  0.06715820  1.0
  Fe  Fe12  1  0.50000000  0.50000000  0.50000000  1.0
  Fe  Fe13  1  0.50000000  0.00000000  0.50000000  1.0
  Fe  Fe14  1  0.00000000  0.50000000  0.00000000  1.0
  Fe  Fe15  1  0.00000000  0.00000000  0.00000000  1.0
  O  O16  1  0.47347379  0.85958556  0.56529101  1.0
  O  O17  1  0.47347379  0.64041444  0.56529101  1.0
  O  O18  1  0.97347379  0.85958556  0.93470899  1.0
  O  O19  1  0.97347379  0.64041444  0.93470899  1.0
  O  O20  1  0.52652621  0.35958556  0.43470899  1.0
  O  O21  1  0.52652621  0.14041444  0.43470899  1.0
  O  O22  1  0.02652621  0.35958556  0.06529101  1.0
  O  O23  1  0.02652621  0.14041444  0.06529101  1.0
  O  O24  1  0.24355507  0.48790962  0.74127920  1.0
  O  O25  1  0.24355507  0.01209038  0.74127920  1.0
  O  O26  1  0.74355507  0.48790962  0.75872080  1.0
  O  O27  1  0.74355507  0.01209038  0.75872080  1.0
  O  O28  1  0.75644493  0.98790962  0.25872080  1.0
  O  O29  1  0.75644493  0.51209038  0.25872080  1.0
  O  O30  1  0.25644493  0.98790962  0.24127920  1.0
  O  O31  1  0.25644493  0.51209038  0.24127920  1.0
  O  O32  1  0.08173843  0.25000000  0.60555377  1.0
  O  O33  1  0.58173843  0.25000000  0.89444623  1.0
  O  O34  1  0.91826157  0.75000000  0.39444623  1.0
  O  O35  1  0.41826157  0.75000000  0.10555377  1.0
