# generated using pymatgen
data_Cu2Te3O8
_symmetry_space_group_name_H-M   'P 1'
_cell_length_a   6.57717250
_cell_length_b   6.57717250
_cell_length_c   12.43189638
_cell_angle_alpha   80.93109010
_cell_angle_beta   99.06890990
_cell_angle_gamma   131.36334614
_symmetry_Int_Tables_number   1
_chemical_formula_structural   Cu2Te3O8
_chemical_formula_sum   'Cu4 Te6 O16'
_cell_volume   397.54868585
_cell_formula_units_Z   2
loop_
 _symmetry_equiv_pos_site_id
 _symmetry_equiv_pos_as_xyz
  1  'x, y, z'
loop_
 _atom_site_type_symbol
 _atom_site_label
 _atom_site_symmetry_multiplicity
 _atom_site_fract_x
 _atom_site_fract_y
 _atom_site_fract_z
 _atom_site_occupancy
  Cu  Cu0  1  0.45401218  -0.01415157  0.84191006  1.0
  Cu  Cu1  1  1.01415157  0.54598782  0.34191006  1.0
  Cu  Cu2  1  0.98584843  0.45401218  0.65808994  1.0
  Cu  Cu3  1  0.54598782  0.01415157  0.15808994  1.0
  Te  Te4  1  0.65817967  -0.07346547  0.44711966  1.0
  Te  Te5  1  1.07346547  0.34182033  0.94711966  1.0
  Te  Te6  1  0.92653453  0.65817967  0.05288034  1.0
  Te  Te7  1  0.34182033  0.07346547  0.55288034  1.0
  Te  Te8  1  0.85412440  0.85412440  0.75000000  1.0
  Te  Te9  1  0.14587560  0.14587560  0.25000000  1.0
  O  O10  1  0.76683646  0.00329893  0.86003979  1.0
  O  O11  1  0.99670107  0.23316354  0.36003979  1.0
  O  O12  1  1.00329893  0.76683646  0.63996021  1.0
  O  O13  1  0.23316354  -0.00329893  0.13996021  1.0
  O  O14  1  0.68494470  0.24620271  0.45331658  1.0
  O  O15  1  0.75379729  0.31505530  0.95331658  1.0
  O  O16  1  1.24620271  0.68494470  0.04668342  1.0
  O  O17  1  0.31505530  -0.24620271  0.54668342  1.0
  O  O18  1  0.58792022  0.21310936  0.68537284  1.0
  O  O19  1  0.78689064  0.41207978  0.18537284  1.0
  O  O20  1  1.21310936  0.58792022  0.81462716  1.0
  O  O21  1  0.41207978  -0.21310936  0.31462716  1.0
  O  O22  1  0.16642373  -0.01272841  0.85661913  1.0
  O  O23  1  1.01272841  0.83357627  0.35661913  1.0
  O  O24  1  0.98727159  0.16642373  0.64338087  1.0
  O  O25  1  0.83357627  0.01272841  0.14338087  1.0
