# generated using pymatgen
data_BAsH4NO4F
_symmetry_space_group_name_H-M   'P 1'
_cell_length_a   4.68816504
_cell_length_b   4.68816504
_cell_length_c   13.08464991
_cell_angle_alpha   89.85019343
_cell_angle_beta   90.14980657
_cell_angle_gamma   57.83924124
_symmetry_Int_Tables_number   1
_chemical_formula_structural   BAsH4NO4F
_chemical_formula_sum   'B2 As2 H8 N2 O8 F2'
_cell_volume   243.45473464
_cell_formula_units_Z   2
loop_
 _symmetry_equiv_pos_site_id
 _symmetry_equiv_pos_as_xyz
  1  'x, y, z'
loop_
 _atom_site_type_symbol
 _atom_site_label
 _atom_site_symmetry_multiplicity
 _atom_site_fract_x
 _atom_site_fract_y
 _atom_site_fract_z
 _atom_site_occupancy
  B  B0  1  1.25891998  -0.58074399  0.30525482  1.0
  B  B1  1  0.58074399  -0.25891998  0.80525482  1.0
  As  As2  1  0.93957135  -0.90745282  0.22445924  1.0
  As  As3  1  0.90745282  0.06042865  0.72445924  1.0
  H  H4  1  0.25277455  0.21391348  0.04090608  1.0
  H  H5  1  0.78608652  -0.25277455  0.54090608  1.0
  H  H6  1  0.61427914  0.21069538  0.02834946  1.0
  H  H7  1  0.78930462  -0.61427914  0.52834946  1.0
  H  H8  1  1.24548323  -0.41940342  0.04337946  1.0
  H  H9  1  0.41940342  -0.24548323  0.54337946  1.0
  H  H10  1  1.32408738  -0.63206128  0.93269118  1.0
  H  H11  1  0.63206128  -0.32408738  0.43269118  1.0
  N  N12  1  0.35947768  0.34209801  0.01037337  1.0
  N  N13  1  0.65790199  -0.35947768  0.51037337  1.0
  O  O14  1  0.51208625  0.22272189  0.22652444  1.0
  O  O15  1  0.77727811  -0.51208625  0.72652444  1.0
  O  O16  1  0.94492114  -0.56498469  0.27658295  1.0
  O  O17  1  0.56498469  0.05507886  0.77658295  1.0
  O  O18  1  1.17524893  -0.22884998  0.31450730  1.0
  O  O19  1  0.22884998  -0.17524893  0.81450730  1.0
  O  O20  1  0.05498596  0.00199369  0.10033541  1.0
  O  O21  1  0.99800631  -0.05498596  0.60033541  1.0
  F  F22  1  0.37407897  0.27738831  0.40390628  1.0
  F  F23  1  0.72261169  -0.37407897  0.90390628  1.0
