# generated using pymatgen
data_CaMn28
_symmetry_space_group_name_H-M   'P 1'
_cell_length_a   7.57261745
_cell_length_b   7.57261745
_cell_length_c   7.57261745
_cell_angle_alpha   109.47122063
_cell_angle_beta   109.47122063
_cell_angle_gamma   109.47122063
_symmetry_Int_Tables_number   1
_chemical_formula_structural   CaMn28
_chemical_formula_sum   'Ca1 Mn28'
_cell_volume   334.28444085
_cell_formula_units_Z   1
loop_
 _symmetry_equiv_pos_site_id
 _symmetry_equiv_pos_as_xyz
  1  'x, y, z'
loop_
 _atom_site_type_symbol
 _atom_site_label
 _atom_site_symmetry_multiplicity
 _atom_site_fract_x
 _atom_site_fract_y
 _atom_site_fract_z
 _atom_site_occupancy
  Ca  Ca0  1  0.00000000  -0.00000000  -0.00000000  1.0
  Mn  Mn1  1  0.37299512  0.37299512  0.37299512  1.0
  Mn  Mn2  1  1.00000000  1.00000000  0.62700488  1.0
  Mn  Mn3  1  1.00000000  0.62700488  1.00000000  1.0
  Mn  Mn4  1  0.62700488  1.00000000  1.00000000  1.0
  Mn  Mn5  1  0.61093202  0.61093202  0.28876610  1.0
  Mn  Mn6  1  0.28876610  0.61093202  0.61093202  1.0
  Mn  Mn7  1  0.61093202  0.28876610  0.61093202  1.0
  Mn  Mn8  1  1.32216592  1.32216592  0.71123390  1.0
  Mn  Mn9  1  1.00000000  0.67783408  1.38906798  1.0
  Mn  Mn10  1  0.67783408  1.00000000  1.38906798  1.0
  Mn  Mn11  1  0.67783408  1.38906798  1.00000000  1.0
  Mn  Mn12  1  1.00000000  1.38906798  0.67783408  1.0
  Mn  Mn13  1  1.32216592  0.71123390  1.32216592  1.0
  Mn  Mn14  1  1.38906798  0.67783408  1.00000000  1.0
  Mn  Mn15  1  0.71123390  1.32216592  1.32216592  1.0
  Mn  Mn16  1  1.38906798  1.00000000  0.67783408  1.0
  Mn  Mn17  1  0.61832855  0.61832855  0.82048022  1.0
  Mn  Mn18  1  0.82048022  0.61832855  0.61832855  1.0
  Mn  Mn19  1  0.61832855  0.82048022  0.61832855  1.0
  Mn  Mn20  1  0.79784833  0.79784833  0.17951978  1.0
  Mn  Mn21  1  1.00000000  1.20215167  0.38167145  1.0
  Mn  Mn22  1  1.20215167  1.00000000  0.38167145  1.0
  Mn  Mn23  1  1.20215167  0.38167145  1.00000000  1.0
  Mn  Mn24  1  1.00000000  0.38167145  1.20215167  1.0
  Mn  Mn25  1  0.79784833  0.17951978  0.79784833  1.0
  Mn  Mn26  1  0.38167145  1.20215167  1.00000000  1.0
  Mn  Mn27  1  0.17951978  0.79784833  0.79784833  1.0
  Mn  Mn28  1  0.38167145  1.00000000  1.20215167  1.0
