# generated using pymatgen
data_CaP2H6C4(N3O4)2
_symmetry_space_group_name_H-M   'P 1'
_cell_length_a   10.37247779
_cell_length_b   5.40072838
_cell_length_c   13.86799181
_cell_angle_alpha   90.00000000
_cell_angle_beta   121.96871595
_cell_angle_gamma   90.00000000
_symmetry_Int_Tables_number   1
_chemical_formula_structural   CaP2H6C4(N3O4)2
_chemical_formula_sum   'Ca2 P4 H12 C8 N12 O16'
_cell_volume   659.04792040
_cell_formula_units_Z   2
loop_
 _symmetry_equiv_pos_site_id
 _symmetry_equiv_pos_as_xyz
  1  'x, y, z'
loop_
 _atom_site_type_symbol
 _atom_site_label
 _atom_site_symmetry_multiplicity
 _atom_site_fract_x
 _atom_site_fract_y
 _atom_site_fract_z
 _atom_site_occupancy
  Ca  Ca0  1  0.00000000  0.00000000  0.00000000  1.0
  Ca  Ca1  1  0.00000000  0.50000000  0.50000000  1.0
  P  P2  1  0.16260581  0.50458938  0.20590702  1.0
  P  P3  1  0.16260581  -0.00458938  0.70590702  1.0
  P  P4  1  0.83739419  1.00458938  0.29409298  1.0
  P  P5  1  0.83739419  0.49541062  0.79409298  1.0
  H  H6  1  0.09213376  0.34618934  0.33282111  1.0
  H  H7  1  0.09213376  0.15381066  0.83282111  1.0
  H  H8  1  0.90786624  0.84618934  0.16717889  1.0
  H  H9  1  0.90786624  0.65381066  0.66717889  1.0
  H  H10  1  0.39629234  0.90120450  0.49228592  1.0
  H  H11  1  0.39629234  0.59879550  0.99228592  1.0
  H  H12  1  0.60370766  0.40120450  0.00771408  1.0
  H  H13  1  0.60370766  0.09879550  0.50771408  1.0
  H  H14  1  0.39287912  0.60866174  0.21769721  1.0
  H  H15  1  0.39287912  0.89133826  0.71769721  1.0
  H  H16  1  0.60712088  0.10866174  0.28230279  1.0
  H  H17  1  0.60712088  0.39133826  0.78230279  1.0
  C  C18  1  0.24058430  0.62292862  0.41961165  1.0
  C  C19  1  0.24058430  0.87707138  0.91961165  1.0
  C  C20  1  0.75941570  0.12292862  0.08038835  1.0
  C  C21  1  0.75941570  0.37707138  0.58038835  1.0
  C  C22  1  0.40691916  0.78333583  0.35369146  1.0
  C  C23  1  0.40691916  0.71666417  0.85369146  1.0
  C  C24  1  0.59308084  0.28333583  0.14630854  1.0
  C  C25  1  0.59308084  0.21666417  0.64630854  1.0
  N  N26  1  0.16936154  0.46368600  0.33031429  1.0
  N  N27  1  0.16936154  0.03631400  0.83031429  1.0
  N  N28  1  0.83063846  0.96368600  0.16968571  1.0
  N  N29  1  0.83063846  0.53631400  0.66968571  1.0
  N  N30  1  0.34031962  0.62691283  0.26248121  1.0
  N  N31  1  0.34031962  0.87308717  0.76248121  1.0
  N  N32  1  0.65968038  0.12691283  0.23751879  1.0
  N  N33  1  0.65968038  0.37308717  0.73751879  1.0
  N  N34  1  0.34616910  0.78342238  0.42230877  1.0
  N  N35  1  0.34616910  0.71657762  0.92230877  1.0
  N  N36  1  0.65383090  0.28342238  0.07769123  1.0
  N  N37  1  0.65383090  0.21657762  0.57769123  1.0
  O  O38  1  0.04328484  0.69967128  0.13664209  1.0
  O  O39  1  0.04328484  0.80032872  0.63664209  1.0
  O  O40  1  0.95671516  0.19967128  0.36335791  1.0
  O  O41  1  0.95671516  0.30032872  0.86335791  1.0
  O  O42  1  0.15137068  0.25894159  0.15192479  1.0
  O  O43  1  0.15137068  0.24105841  0.65192479  1.0
  O  O44  1  0.84862932  0.75894159  0.34807521  1.0
  O  O45  1  0.84862932  0.74105841  0.84807521  1.0
  O  O46  1  0.21563611  0.62848214  0.49812504  1.0
  O  O47  1  0.21563611  0.87151786  0.99812504  1.0
  O  O48  1  0.78436389  0.12848214  0.00187496  1.0
  O  O49  1  0.78436389  0.37151786  0.50187496  1.0
  O  O50  1  0.51782931  0.91710245  0.37865921  1.0
  O  O51  1  0.51782931  0.58289755  0.87865921  1.0
  O  O52  1  0.48217069  0.41710245  0.12134079  1.0
  O  O53  1  0.48217069  0.08289755  0.62134079  1.0
