# generated using pymatgen
data_Tl7Sb2
_symmetry_space_group_name_H-M   'P 1'
_cell_length_a   10.36032248
_cell_length_b   10.36032248
_cell_length_c   10.36032248
_cell_angle_alpha   109.47122063
_cell_angle_beta   109.47122063
_cell_angle_gamma   109.47122063
_symmetry_Int_Tables_number   1
_chemical_formula_structural   Tl7Sb2
_chemical_formula_sum   'Tl21 Sb6'
_cell_volume   856.04763294
_cell_formula_units_Z   3
loop_
 _symmetry_equiv_pos_site_id
 _symmetry_equiv_pos_as_xyz
  1  'x, y, z'
loop_
 _atom_site_type_symbol
 _atom_site_label
 _atom_site_symmetry_multiplicity
 _atom_site_fract_x
 _atom_site_fract_y
 _atom_site_fract_z
 _atom_site_occupancy
  Tl  Tl0  1  0.29776866  0.64888433  0.64888433  1.0
  Tl  Tl1  1  1.00000000  1.35111567  0.64888433  1.0
  Tl  Tl2  1  1.00000000  0.64888433  0.35111567  1.0
  Tl  Tl3  1  1.70223134  1.35111567  1.35111567  1.0
  Tl  Tl4  1  0.64888433  0.29776866  0.64888433  1.0
  Tl  Tl5  1  1.35111567  1.00000000  0.64888433  1.0
  Tl  Tl6  1  0.64888433  0.64888433  0.29776866  1.0
  Tl  Tl7  1  1.35111567  0.64888433  1.00000000  1.0
  Tl  Tl8  1  0.64888433  1.00000000  0.35111567  1.0
  Tl  Tl9  1  1.35111567  1.70223134  1.35111567  1.0
  Tl  Tl10  1  0.64888433  1.35111567  1.00000000  1.0
  Tl  Tl11  1  0.35111567  0.35111567  0.70223134  1.0
  Tl  Tl12  1  0.66180903  0.66180903  0.66180903  1.0
  Tl  Tl13  1  1.00000000  1.00000000  0.66180903  1.0
  Tl  Tl14  1  1.00000000  1.66180903  1.00000000  1.0
  Tl  Tl15  1  1.33819097  1.00000000  1.00000000  1.0
  Tl  Tl16  1  1.66180903  1.00000000  1.00000000  1.0
  Tl  Tl17  1  1.00000000  1.33819097  1.00000000  1.0
  Tl  Tl18  1  1.00000000  1.00000000  0.33819097  1.0
  Tl  Tl19  1  0.33819097  0.33819097  0.33819097  1.0
  Tl  Tl20  1  -0.00000000  0.00000000  -0.00000000  1.0
  Sb  Sb21  1  -0.00000000  0.69501303  0.69501303  1.0
  Sb  Sb22  1  0.69501303  -0.00000000  0.69501303  1.0
  Sb  Sb23  1  0.69501303  0.69501303  0.00000000  1.0
  Sb  Sb24  1  0.30498697  0.30498697  0.00000000  1.0
  Sb  Sb25  1  0.30498697  -0.00000000  0.30498697  1.0
  Sb  Sb26  1  -0.00000000  0.30498697  0.30498697  1.0
