# generated using pymatgen
data_HfBi2
_symmetry_space_group_name_H-M   'P 1'
_cell_length_a   10.29744948
_cell_length_b   15.71445010
_cell_length_c   4.04614963
_cell_angle_alpha   90.00000000
_cell_angle_beta   90.00000000
_cell_angle_gamma   90.00000000
_symmetry_Int_Tables_number   1
_chemical_formula_structural   HfBi2
_chemical_formula_sum   'Hf8 Bi16'
_cell_volume   654.74290053
_cell_formula_units_Z   8
loop_
 _symmetry_equiv_pos_site_id
 _symmetry_equiv_pos_as_xyz
  1  'x, y, z'
loop_
 _atom_site_type_symbol
 _atom_site_label
 _atom_site_symmetry_multiplicity
 _atom_site_fract_x
 _atom_site_fract_y
 _atom_site_fract_z
 _atom_site_occupancy
  Hf  Hf0  1  0.47721243  0.74615294  0.50000000  1.0
  Hf  Hf1  1  0.97721243  0.75384706  0.00000000  1.0
  Hf  Hf2  1  0.52278757  0.25384706  0.50000000  1.0
  Hf  Hf3  1  0.02278757  0.24615294  0.00000000  1.0
  Hf  Hf4  1  0.33960517  0.00541949  0.50000000  1.0
  Hf  Hf5  1  0.83960517  0.49458051  0.00000000  1.0
  Hf  Hf6  1  0.66039483  0.99458051  0.50000000  1.0
  Hf  Hf7  1  0.16039483  0.50541949  0.00000000  1.0
  Bi  Bi8  1  0.37439815  0.55609035  0.50000000  1.0
  Bi  Bi9  1  0.87439815  0.94390965  0.00000000  1.0
  Bi  Bi10  1  0.62560185  0.44390965  0.50000000  1.0
  Bi  Bi11  1  0.12560185  0.05609035  0.00000000  1.0
  Bi  Bi12  1  0.23609049  0.19942455  0.50000000  1.0
  Bi  Bi13  1  0.73609049  0.30057545  0.00000000  1.0
  Bi  Bi14  1  0.76390951  0.80057545  0.50000000  1.0
  Bi  Bi15  1  0.26390951  0.69942455  0.00000000  1.0
  Bi  Bi16  1  0.15389085  0.85048757  0.50000000  1.0
  Bi  Bi17  1  0.65389085  0.64951243  0.00000000  1.0
  Bi  Bi18  1  0.84610915  0.14951243  0.50000000  1.0
  Bi  Bi19  1  0.34610915  0.35048757  0.00000000  1.0
  Bi  Bi20  1  0.98579739  0.60756142  0.50000000  1.0
  Bi  Bi21  1  0.48579739  0.89243858  0.00000000  1.0
  Bi  Bi22  1  0.01420261  0.39243858  0.50000000  1.0
  Bi  Bi23  1  0.51420261  0.10756142  0.00000000  1.0
