# generated using pymatgen
data_H4CN3O4
_symmetry_space_group_name_H-M   'P 1'
_cell_length_a   6.01056311
_cell_length_b   8.27327099
_cell_length_c   9.14414993
_cell_angle_alpha   90.00000000
_cell_angle_beta   99.67784977
_cell_angle_gamma   90.00000000
_symmetry_Int_Tables_number   1
_chemical_formula_structural   H4CN3O4
_chemical_formula_sum   'H16 C4 N12 O16'
_cell_volume   448.24009341
_cell_formula_units_Z   4
loop_
 _symmetry_equiv_pos_site_id
 _symmetry_equiv_pos_as_xyz
  1  'x, y, z'
loop_
 _atom_site_type_symbol
 _atom_site_label
 _atom_site_symmetry_multiplicity
 _atom_site_fract_x
 _atom_site_fract_y
 _atom_site_fract_z
 _atom_site_occupancy
  H  H0  1  0.94997911  0.92069817  0.85587903  1.0
  H  H1  1  0.94997911  0.57930183  0.35587903  1.0
  H  H2  1  0.05002089  0.42069817  0.64412097  1.0
  H  H3  1  0.05002089  0.07930183  0.14412097  1.0
  H  H4  1  0.83124705  0.73505782  0.84103265  1.0
  H  H5  1  0.83124705  0.76494218  0.34103265  1.0
  H  H6  1  0.16875295  0.23505782  0.65896735  1.0
  H  H7  1  0.16875295  0.26494218  0.15896735  1.0
  H  H8  1  0.79645155  0.86630169  0.68901018  1.0
  H  H9  1  0.79645155  0.63369831  0.18901018  1.0
  H  H10  1  0.20354845  0.36630169  0.81098982  1.0
  H  H11  1  0.20354845  0.13369831  0.31098982  1.0
  H  H12  1  0.46531792  0.91265054  0.76525857  1.0
  H  H13  1  0.46531792  0.58734946  0.26525857  1.0
  H  H14  1  0.53468208  0.41265054  0.73474143  1.0
  H  H15  1  0.53468208  0.08734946  0.23474143  1.0
  C  C16  1  0.61511357  0.96766078  0.98696384  1.0
  C  C17  1  0.61511357  0.53233922  0.48696384  1.0
  C  C18  1  0.38488643  0.46766078  0.51303616  1.0
  C  C19  1  0.38488643  0.03233922  0.01303616  1.0
  N  N20  1  0.80876512  0.85475546  0.80653951  1.0
  N  N21  1  0.80876512  0.64524454  0.30653951  1.0
  N  N22  1  0.19123488  0.35475546  0.69346049  1.0
  N  N23  1  0.19123488  0.14524454  0.19346049  1.0
  N  N24  1  0.61023781  0.91969574  0.84635731  1.0
  N  N25  1  0.61023781  0.58030426  0.34635731  1.0
  N  N26  1  0.38976219  0.41969574  0.65364269  1.0
  N  N27  1  0.38976219  0.08030426  0.15364269  1.0
  N  N28  1  0.24163931  0.57619066  0.99131575  1.0
  N  N29  1  0.24163931  0.92380934  0.49131575  1.0
  N  N30  1  0.75836069  0.07619066  0.50868425  1.0
  N  N31  1  0.75836069  0.42380934  0.00868425  1.0
  O  O32  1  0.78272250  0.53852693  0.58585395  1.0
  O  O33  1  0.78272250  0.96147307  0.08585395  1.0
  O  O34  1  0.21727750  0.03852693  0.91414605  1.0
  O  O35  1  0.21727750  0.46147307  0.41414605  1.0
  O  O36  1  0.74510856  0.57905047  1.00490703  1.0
  O  O37  1  0.74510856  0.92094953  0.50490703  1.0
  O  O38  1  0.25489144  0.07905047  0.49509297  1.0
  O  O39  1  0.25489144  0.42094953  -0.00490703  1.0
  O  O40  1  0.71300668  0.34411120  0.89035910  1.0
  O  O41  1  0.71300668  0.15588880  0.39035910  1.0
  O  O42  1  0.28699332  0.84411120  0.60964090  1.0
  O  O43  1  0.28699332  0.65588880  0.10964090  1.0
  O  O44  1  0.18353412  0.64511045  0.86952484  1.0
  O  O45  1  0.18353412  0.85488955  0.36952484  1.0
  O  O46  1  0.81646588  0.14511045  0.63047516  1.0
  O  O47  1  0.81646588  0.35488955  0.13047516  1.0
