# generated using pymatgen
data_Cu3(CO4)2
_symmetry_space_group_name_H-M   'P 1'
_cell_length_a   5.09341756
_cell_length_b   5.72620479
_cell_length_c   10.55649773
_cell_angle_alpha   90.00000000
_cell_angle_beta   95.75444623
_cell_angle_gamma   90.00000000
_symmetry_Int_Tables_number   1
_chemical_formula_structural   Cu3(CO4)2
_chemical_formula_sum   'Cu6 C4 O16'
_cell_volume   306.33876778
_cell_formula_units_Z   2
loop_
 _symmetry_equiv_pos_site_id
 _symmetry_equiv_pos_as_xyz
  1  'x, y, z'
loop_
 _atom_site_type_symbol
 _atom_site_label
 _atom_site_symmetry_multiplicity
 _atom_site_fract_x
 _atom_site_fract_y
 _atom_site_fract_z
 _atom_site_occupancy
  C  C0  1  0.83289680  0.81833626  0.82175218  1.0
  C  C1  1  0.83289680  0.68166374  0.32175218  1.0
  C  C2  1  0.16710320  0.31833626  0.67824782  1.0
  C  C3  1  0.16710320  0.18166374  0.17824782  1.0
  O  O4  1  0.97080222  0.72111879  0.91717010  1.0
  O  O5  1  0.97080222  0.77888121  0.41717010  1.0
  O  O6  1  0.02919778  0.22111879  0.58282990  1.0
  O  O7  1  0.02919778  0.27888121  0.08282990  1.0
  O  O8  1  0.90940352  0.80645638  0.70935362  1.0
  O  O9  1  0.90940352  0.69354362  0.20935362  1.0
  O  O10  1  0.09059648  0.30645638  0.79064638  1.0
  O  O11  1  0.09059648  0.19354362  0.29064638  1.0
  O  O12  1  0.61827246  0.92943452  0.83867350  1.0
  O  O13  1  0.61827246  0.57056548  0.33867350  1.0
  O  O14  1  0.38172754  0.42943452  0.66132650  1.0
  O  O15  1  0.38172754  0.07056548  0.16132650  1.0
  O  O16  1  0.45058740  0.81523941  0.54088888  1.0
  O  O17  1  0.45058740  0.68476059  0.04088888  1.0
  O  O18  1  0.54941260  0.31523941  0.95911112  1.0
  O  O19  1  0.54941260  0.18476059  0.45911112  1.0
  Cu  Cu20  1  0.74035859  1.00708694  0.58366014  1.0
  Cu  Cu21  1  0.74035859  0.49291306  0.08366014  1.0
  Cu  Cu22  1  0.25964141  0.50708694  0.91633986  1.0
  Cu  Cu23  1  0.25964141  -0.00708694  0.41633986  1.0
  Cu  Cu24  1  0.50000000  0.00000000  -0.00000000  1.0
  Cu  Cu25  1  0.50000000  0.50000000  0.50000000  1.0
