# generated using pymatgen
data_AsO2
_symmetry_space_group_name_H-M   'P 1'
_cell_length_a   9.04113331
_cell_length_b   5.35426087
_cell_length_c   7.60229866
_cell_angle_alpha   90.00000000
_cell_angle_beta   90.00000000
_cell_angle_gamma   90.00000000
_symmetry_Int_Tables_number   1
_chemical_formula_structural   AsO2
_chemical_formula_sum   'As8 O16'
_cell_volume   368.01653011
_cell_formula_units_Z   8
loop_
 _symmetry_equiv_pos_site_id
 _symmetry_equiv_pos_as_xyz
  1  'x, y, z'
loop_
 _atom_site_type_symbol
 _atom_site_label
 _atom_site_symmetry_multiplicity
 _atom_site_fract_x
 _atom_site_fract_y
 _atom_site_fract_z
 _atom_site_occupancy
  As  As0  1  0.42045738  0.75000000  0.83062209  1.0
  As  As1  1  0.92045738  0.75000000  0.66937791  1.0
  As  As2  1  0.57954262  0.25000000  0.16937791  1.0
  As  As3  1  0.07954262  0.25000000  0.33062209  1.0
  As  As4  1  0.23961572  0.75000000  0.19746470  1.0
  As  As5  1  0.73961572  0.75000000  0.30253530  1.0
  As  As6  1  0.76038428  0.25000000  0.80253530  1.0
  As  As7  1  0.26038428  0.25000000  0.69746470  1.0
  O  O8  1  0.40473198  0.49527165  0.68300698  1.0
  O  O9  1  0.40473198  0.00472835  0.68300698  1.0
  O  O10  1  0.90473198  0.49527165  0.81699302  1.0
  O  O11  1  0.90473198  0.00472835  0.81699302  1.0
  O  O12  1  0.59526802  0.99527165  0.31699302  1.0
  O  O13  1  0.59526802  0.50472835  0.31699302  1.0
  O  O14  1  0.09526802  0.99527165  0.18300698  1.0
  O  O15  1  0.09526802  0.50472835  0.18300698  1.0
  O  O16  1  0.25194290  0.75000000  0.95125914  1.0
  O  O17  1  0.75194290  0.75000000  0.54874086  1.0
  O  O18  1  0.74805710  0.25000000  0.04874086  1.0
  O  O19  1  0.24805710  0.25000000  0.45125914  1.0
  O  O20  1  0.08436344  0.75000000  0.56627256  1.0
  O  O21  1  0.58436344  0.75000000  0.93372744  1.0
  O  O22  1  0.91563656  0.25000000  0.43372744  1.0
  O  O23  1  0.41563656  0.25000000  0.06627256  1.0
