# generated using pymatgen
data_B4PbO7
_symmetry_space_group_name_H-M   'P 1'
_cell_length_a   10.96298701
_cell_length_b   4.50062920
_cell_length_c   4.28967487
_cell_angle_alpha   90.00000000
_cell_angle_beta   90.00000000
_cell_angle_gamma   90.00000000
_symmetry_Int_Tables_number   1
_chemical_formula_structural   B4PbO7
_chemical_formula_sum   'B8 Pb2 O14'
_cell_volume   211.65401465
_cell_formula_units_Z   2
loop_
 _symmetry_equiv_pos_site_id
 _symmetry_equiv_pos_as_xyz
  1  'x, y, z'
loop_
 _atom_site_type_symbol
 _atom_site_label
 _atom_site_symmetry_multiplicity
 _atom_site_fract_x
 _atom_site_fract_y
 _atom_site_fract_z
 _atom_site_occupancy
  B  B0  1  0.24848716  0.32390477  1.00195054  1.0
  B  B1  1  0.74848716  0.67609523  0.50195054  1.0
  B  B2  1  0.75151284  0.32390477  1.00195054  1.0
  B  B3  1  0.25151284  0.67609523  0.50195054  1.0
  B  B4  1  0.12217971  0.17419597  0.47341789  1.0
  B  B5  1  0.62217971  0.82580403  0.97341789  1.0
  B  B6  1  0.87782029  0.17419597  0.47341789  1.0
  B  B7  1  0.37782029  0.82580403  0.97341789  1.0
  Pb  Pb8  1  0.50000000  0.30490145  0.46433322  1.0
  Pb  Pb9  1  0.00000000  0.69509855  -0.03566678  1.0
  O  O10  1  0.35465368  0.13821913  0.04451809  1.0
  O  O11  1  0.85465368  0.86178087  0.54451809  1.0
  O  O12  1  0.64534632  0.13821913  0.04451809  1.0
  O  O13  1  0.14534632  0.86178087  0.54451809  1.0
  O  O14  1  0.28171367  0.62655232  0.14806150  1.0
  O  O15  1  0.78171366  0.37344768  0.64806150  1.0
  O  O16  1  0.71828633  0.62655232  0.14806150  1.0
  O  O17  1  0.21828633  0.37344768  0.64806150  1.0
  O  O18  1  0.13696838  0.23337516  0.14332881  1.0
  O  O19  1  0.63696838  0.76662484  0.64332881  1.0
  O  O20  1  0.86303162  0.23337516  0.14332881  1.0
  O  O21  1  0.36303162  0.76662484  0.64332881  1.0
  O  O22  1  0.50000000  0.73954155  0.08011312  1.0
  O  O23  1  0.00000000  0.26045845  0.58011312  1.0
