# generated using pymatgen
data_Re3Se4Br
_symmetry_space_group_name_H-M   'P 1'
_cell_length_a   6.66984484
_cell_length_b   11.97373259
_cell_length_c   11.66317635
_cell_angle_alpha   90.00000000
_cell_angle_beta   112.01156011
_cell_angle_gamma   90.00000000
_symmetry_Int_Tables_number   1
_chemical_formula_structural   Re3Se4Br
_chemical_formula_sum   'Re12 Se16 Br4'
_cell_volume   863.56011619
_cell_formula_units_Z   4
loop_
 _symmetry_equiv_pos_site_id
 _symmetry_equiv_pos_as_xyz
  1  'x, y, z'
loop_
 _atom_site_type_symbol
 _atom_site_label
 _atom_site_symmetry_multiplicity
 _atom_site_fract_x
 _atom_site_fract_y
 _atom_site_fract_z
 _atom_site_occupancy
  Re  Re0  1  0.97107940  0.36054775  0.06497442  1.0
  Re  Re1  1  0.97107940  0.13945225  0.56497442  1.0
  Re  Re2  1  0.02892060  0.86054775  0.43502558  1.0
  Re  Re3  1  0.02892060  0.63945225  0.93502558  1.0
  Re  Re4  1  0.97587430  0.07052180  0.35219286  1.0
  Re  Re5  1  0.97587430  0.42947820  0.85219286  1.0
  Re  Re6  1  0.02412570  0.57052180  0.14780714  1.0
  Re  Re7  1  0.02412570  0.92947820  0.64780714  1.0
  Re  Re8  1  0.70192652  0.98160950  0.44145916  1.0
  Re  Re9  1  0.70192652  0.51839050  0.94145916  1.0
  Re  Re10  1  0.29807348  0.48160950  0.05854084  1.0
  Re  Re11  1  0.29807348  0.01839050  0.55854084  1.0
  Se  Se12  1  0.72204568  0.44727205  0.16091115  1.0
  Se  Se13  1  0.72204568  0.05272795  0.66091115  1.0
  Se  Se14  1  0.27795432  0.94727205  0.33908885  1.0
  Se  Se15  1  0.27795432  0.55272795  0.83908885  1.0
  Se  Se16  1  0.71751361  0.91586603  0.23869867  1.0
  Se  Se17  1  0.71751361  0.58413397  0.73869867  1.0
  Se  Se18  1  0.28248639  0.41586603  0.26130133  1.0
  Se  Se19  1  0.28248639  0.08413397  0.76130133  1.0
  Se  Se20  1  0.66144183  0.18076177  0.36243575  1.0
  Se  Se21  1  0.66144183  0.31923823  0.86243575  1.0
  Se  Se22  1  0.33855817  0.68076177  0.13756425  1.0
  Se  Se23  1  0.33855817  0.81923823  0.63756425  1.0
  Se  Se24  1  0.23773612  0.21738624  0.47932183  1.0
  Se  Se25  1  0.23773612  0.28261376  0.97932183  1.0
  Se  Se26  1  0.76226388  0.71738624  0.02067817  1.0
  Se  Se27  1  0.76226388  0.78261376  0.52067817  1.0
  Br  Br28  1  0.91835643  0.15405700  0.13185273  1.0
  Br  Br29  1  0.91835643  0.34594300  0.63185273  1.0
  Br  Br30  1  0.08164357  0.65405700  0.36814727  1.0
  Br  Br31  1  0.08164357  0.84594300  0.86814727  1.0
