# generated using pymatgen
data_SrAl(OF2)2
_symmetry_space_group_name_H-M   'P 1'
_cell_length_a   5.45930873
_cell_length_b   10.94021332
_cell_length_c   8.79653870
_cell_angle_alpha   90.00000000
_cell_angle_beta   111.53432267
_cell_angle_gamma   90.00000000
_symmetry_Int_Tables_number   1
_chemical_formula_structural   SrAl(OF2)2
_chemical_formula_sum   'Sr4 Al4 O8 F16'
_cell_volume   488.70928982
_cell_formula_units_Z   4
loop_
 _symmetry_equiv_pos_site_id
 _symmetry_equiv_pos_as_xyz
  1  'x, y, z'
loop_
 _atom_site_type_symbol
 _atom_site_label
 _atom_site_symmetry_multiplicity
 _atom_site_fract_x
 _atom_site_fract_y
 _atom_site_fract_z
 _atom_site_occupancy
  Al  Al0  1  0.83254467  0.97843708  0.80631286  1.0
  Al  Al1  1  0.83254467  0.52156292  0.30631286  1.0
  Al  Al2  1  0.16745533  0.47843708  0.69368714  1.0
  Al  Al3  1  0.16745533  0.02156292  0.19368714  1.0
  F  F4  1  1.01120349  0.17359960  0.18710907  1.0
  F  F5  1  1.01120349  0.32640040  0.68710907  1.0
  F  F6  1  -0.01120349  0.67359960  0.31289093  1.0
  F  F7  1  -0.01120349  0.82640040  0.81289093  1.0
  F  F8  1  0.92476047  0.48893022  0.13320044  1.0
  F  F9  1  0.92476047  0.01106978  0.63320044  1.0
  F  F10  1  0.07523953  0.98893022  0.36679956  1.0
  F  F11  1  0.07523953  0.51106978  0.86679956  1.0
  F  F12  1  0.48191256  0.08868329  0.29824350  1.0
  F  F13  1  0.48191256  0.41131671  0.79824350  1.0
  F  F14  1  0.51808744  0.58868329  0.20175650  1.0
  F  F15  1  0.51808744  0.91131671  0.70175650  1.0
  F  F16  1  0.68745312  0.36921264  0.29104608  1.0
  F  F17  1  0.68745312  0.13078736  0.79104608  1.0
  F  F18  1  0.31254688  0.86921264  0.20895392  1.0
  F  F19  1  0.31254688  0.63078736  0.70895392  1.0
  Sr  Sr20  1  0.89817390  0.18585747  0.44733648  1.0
  Sr  Sr21  1  0.89817390  0.31414253  0.94733648  1.0
  Sr  Sr22  1  0.10182610  0.68585747  0.05266352  1.0
  Sr  Sr23  1  0.10182610  0.81414253  0.55266352  1.0
  O  O24  1  0.44946591  0.29012948  0.02587661  1.0
  O  O25  1  0.44946591  0.20987052  0.52587661  1.0
  O  O26  1  0.55053409  0.79012948  0.47412339  1.0
  O  O27  1  0.55053409  0.70987052  0.97412339  1.0
  O  O28  1  0.85456179  0.95724560  0.02683429  1.0
  O  O29  1  0.85456179  0.54275440  0.52683429  1.0
  O  O30  1  0.14543821  0.45724560  0.47316571  1.0
  O  O31  1  0.14543821  0.04275440  0.97316571  1.0
