# generated using pymatgen
data_CdSO4
_symmetry_space_group_name_H-M   'P 1'
_cell_length_a   4.60542790
_cell_length_b   4.60542790
_cell_length_c   7.82746578
_cell_angle_alpha   90.00000000
_cell_angle_beta   90.00000000
_cell_angle_gamma   120.00000000
_symmetry_Int_Tables_number   1
_chemical_formula_structural   CdSO4
_chemical_formula_sum   'Cd2 S2 O8'
_cell_volume   143.77778384
_cell_formula_units_Z   2
loop_
 _symmetry_equiv_pos_site_id
 _symmetry_equiv_pos_as_xyz
  1  'x, y, z'
loop_
 _atom_site_type_symbol
 _atom_site_label
 _atom_site_symmetry_multiplicity
 _atom_site_fract_x
 _atom_site_fract_y
 _atom_site_fract_z
 _atom_site_occupancy
  S  S0  1  0.33333333  0.66666667  0.75039551  1.0
  S  S1  1  0.66666667  0.33333333  0.24960449  1.0
  Cd  Cd2  1  -0.00000000  0.00000000  -0.00000000  1.0
  Cd  Cd3  1  0.00000000  -0.00000000  0.50000000  1.0
  O  O4  1  0.66666667  0.33333333  0.06257920  1.0
  O  O5  1  0.33333333  0.66666667  -0.06257920  1.0
  O  O6  1  0.34268037  0.17134019  0.73259362  1.0
  O  O7  1  0.82865981  0.65731963  0.73259362  1.0
  O  O8  1  0.82865981  0.17134019  0.73259362  1.0
  O  O9  1  0.65731963  0.82865981  0.26740638  1.0
  O  O10  1  0.17134019  0.34268037  0.26740638  1.0
  O  O11  1  0.17134019  0.82865981  0.26740638  1.0
