# generated using pymatgen
data_Ba3Zr2S7
_symmetry_space_group_name_H-M   'P 1'
_cell_length_a   13.36072687
_cell_length_b   13.36072687
_cell_length_c   7.10705562
_cell_angle_alpha   90.00000000
_cell_angle_beta   90.00000000
_cell_angle_gamma   149.15584802
_symmetry_Int_Tables_number   1
_chemical_formula_structural   Ba3Zr2S7
_chemical_formula_sum   'Ba6 Zr4 S14'
_cell_volume   650.45479769
_cell_formula_units_Z   2
loop_
 _symmetry_equiv_pos_site_id
 _symmetry_equiv_pos_as_xyz
  1  'x, y, z'
loop_
 _atom_site_type_symbol
 _atom_site_label
 _atom_site_symmetry_multiplicity
 _atom_site_fract_x
 _atom_site_fract_y
 _atom_site_fract_z
 _atom_site_occupancy
  Ba  Ba0  1  0.31897121  1.18090383  0.00000000  1.0
  Ba  Ba1  1  0.18090383  0.31897121  0.50000000  1.0
  Ba  Ba2  1  -0.18090383  0.68102879  0.50000000  1.0
  Ba  Ba3  1  0.68102879  0.81909617  0.00000000  1.0
  Ba  Ba4  1  0.50000000  1.00000000  0.00000000  1.0
  Ba  Ba5  1  -0.00000000  0.50000000  0.50000000  1.0
  Zr  Zr6  1  -0.10027101  0.60029192  0.00000000  1.0
  Zr  Zr7  1  0.60029192  0.89972899  0.50000000  1.0
  Zr  Zr8  1  0.39970808  1.10027101  0.50000000  1.0
  Zr  Zr9  1  0.10027101  0.39970808  0.00000000  1.0
  S  S10  1  -0.19806837  0.69833671  0.00000000  1.0
  S  S11  1  0.69833671  0.80193163  0.50000000  1.0
  S  S12  1  0.30166329  1.19806837  0.50000000  1.0
  S  S13  1  0.19806837  0.30166329  0.00000000  1.0
  S  S14  1  0.15370561  0.84629439  0.75000000  1.0
  S  S15  1  0.15370561  0.84629439  0.25000000  1.0
  S  S16  1  -0.15370561  0.15370561  0.25000000  1.0
  S  S17  1  -0.15370561  0.15370561  0.75000000  1.0
  S  S18  1  0.34631024  0.65368976  0.75000000  1.0
  S  S19  1  0.34631024  0.65368976  0.25000000  1.0
  S  S20  1  -0.34631024  0.34631024  0.25000000  1.0
  S  S21  1  -0.34631024  0.34631024  0.75000000  1.0
  S  S22  1  -0.00000000  0.50000000  0.00000000  1.0
  S  S23  1  0.50000000  1.00000000  0.50000000  1.0
