# generated using pymatgen
data_SbAsPCl13
_symmetry_space_group_name_H-M   'P 1'
_cell_length_a   9.95843700
_cell_length_b   9.95843700
_cell_length_c   12.21955210
_cell_angle_alpha   90.00000000
_cell_angle_beta   90.00000000
_cell_angle_gamma   114.03417092
_symmetry_Int_Tables_number   1
_chemical_formula_structural   SbAsPCl13
_chemical_formula_sum   'Sb2 As2 P2 Cl26'
_cell_volume   1106.75730750
_cell_formula_units_Z   2
loop_
 _symmetry_equiv_pos_site_id
 _symmetry_equiv_pos_as_xyz
  1  'x, y, z'
loop_
 _atom_site_type_symbol
 _atom_site_label
 _atom_site_symmetry_multiplicity
 _atom_site_fract_x
 _atom_site_fract_y
 _atom_site_fract_z
 _atom_site_occupancy
  Sb  Sb0  1  0.28873852  0.71126148  0.45972955  1.0
  Sb  Sb1  1  -0.28873852  1.28873852  0.95972955  1.0
  As  As2  1  0.05981479  0.94018521  0.30857702  1.0
  As  As3  1  -0.05981479  1.05981479  0.80857702  1.0
  P  P4  1  0.35919027  0.64080973  -0.00392928  1.0
  P  P5  1  -0.35919027  1.35919027  0.49607072  1.0
  Cl  Cl6  1  0.26650715  0.43789265  0.05056502  1.0
  Cl  Cl7  1  -0.56210735  1.26650715  0.55056502  1.0
  Cl  Cl8  1  0.56210735  0.73349285  0.05056502  1.0
  Cl  Cl9  1  -0.26650715  1.56210735  0.55056502  1.0
  Cl  Cl10  1  0.07684161  0.60619985  0.33866493  1.0
  Cl  Cl11  1  -0.39380015  1.07684161  0.83866493  1.0
  Cl  Cl12  1  0.39380015  0.92315839  0.33866493  1.0
  Cl  Cl13  1  -0.07684161  1.39380015  0.83866493  1.0
  Cl  Cl14  1  -0.18431773  1.49972707  0.07853958  1.0
  Cl  Cl15  1  0.49972707  0.81568227  0.57853958  1.0
  Cl  Cl16  1  -0.49972707  1.18431773  0.07853958  1.0
  Cl  Cl17  1  0.18431773  0.50027293  0.57853958  1.0
  Cl  Cl18  1  0.13147207  0.18113862  0.33144335  1.0
  Cl  Cl19  1  -0.81886138  1.13147207  0.83144335  1.0
  Cl  Cl20  1  0.81886138  0.86852793  0.33144335  1.0
  Cl  Cl21  1  -0.13147207  1.81886138  0.83144335  1.0
  Cl  Cl22  1  0.06273095  0.93726905  0.12508943  1.0
  Cl  Cl23  1  -0.06273095  1.06273095  0.62508943  1.0
  Cl  Cl24  1  0.16403615  0.83596385  0.56058786  1.0
  Cl  Cl25  1  -0.16403615  1.16403615  0.06058786  1.0
  Cl  Cl26  1  0.24792391  0.75207609  0.04777914  1.0
  Cl  Cl27  1  -0.24792391  1.24792391  0.54777914  1.0
  Cl  Cl28  1  0.41128426  0.58871574  0.35400222  1.0
  Cl  Cl29  1  -0.41128426  1.41128426  0.85400222  1.0
  Cl  Cl30  1  -0.35978846  1.35978846  0.33503829  1.0
  Cl  Cl31  1  0.35978846  0.64021154  0.83503829  1.0
