# generated using pymatgen
data_CaIn4Ni
_symmetry_space_group_name_H-M   'P 1'
_cell_length_a   8.71040773
_cell_length_b   8.71040773
_cell_length_c   7.40633361
_cell_angle_alpha   90.00000000
_cell_angle_beta   90.00000000
_cell_angle_gamma   150.35888282
_symmetry_Int_Tables_number   1
_chemical_formula_structural   CaIn4Ni
_chemical_formula_sum   'Ca2 In8 Ni2'
_cell_volume   277.91004629
_cell_formula_units_Z   2
loop_
 _symmetry_equiv_pos_site_id
 _symmetry_equiv_pos_as_xyz
  1  'x, y, z'
loop_
 _atom_site_type_symbol
 _atom_site_label
 _atom_site_symmetry_multiplicity
 _atom_site_fract_x
 _atom_site_fract_y
 _atom_site_fract_z
 _atom_site_occupancy
  Ca  Ca0  1  -0.62535708  0.62535708  0.25000000  1.0
  Ca  Ca1  1  -0.37464292  1.37464292  0.75000000  1.0
  In  In2  1  -0.81239415  0.81239415  0.45231717  1.0
  In  In3  1  -0.81239415  0.81239415  0.04768283  1.0
  In  In4  1  -0.18760585  1.18760585  0.95231717  1.0
  In  In5  1  -0.18760585  1.18760585  0.54768283  1.0
  In  In6  1  -0.42804386  1.42804386  0.25000000  1.0
  In  In7  1  -0.57195614  0.57195614  0.75000000  1.0
  In  In8  1  0.00000000  0.00000000  0.50000000  1.0
  In  In9  1  0.00000000  0.00000000  0.00000000  1.0
  Ni  Ni10  1  -0.27365879  1.27365879  0.25000000  1.0
  Ni  Ni11  1  -0.72634121  0.72634121  0.75000000  1.0
