# generated using pymatgen
data_BiTeNO6
_symmetry_space_group_name_H-M   'P 1'
_cell_length_a   8.43505631
_cell_length_b   9.23092102
_cell_length_c   7.44854547
_cell_angle_alpha   90.00000000
_cell_angle_beta   114.05104988
_cell_angle_gamma   90.00000000
_symmetry_Int_Tables_number   1
_chemical_formula_structural   BiTeNO6
_chemical_formula_sum   'Bi4 Te4 N4 O24'
_cell_volume   529.61730753
_cell_formula_units_Z   4
loop_
 _symmetry_equiv_pos_site_id
 _symmetry_equiv_pos_as_xyz
  1  'x, y, z'
loop_
 _atom_site_type_symbol
 _atom_site_label
 _atom_site_symmetry_multiplicity
 _atom_site_fract_x
 _atom_site_fract_y
 _atom_site_fract_z
 _atom_site_occupancy
  Bi  Bi0  1  0.69782523  0.31096043  0.51893570  1.0
  Bi  Bi1  1  0.30217477  0.81096043  0.98106430  1.0
  Bi  Bi2  1  0.30217477  0.68903957  0.48106430  1.0
  Bi  Bi3  1  0.69782523  0.18903957  0.01893570  1.0
  Te  Te4  1  0.35283416  0.42301725  0.09404673  1.0
  Te  Te5  1  0.64716584  0.92301725  0.40595327  1.0
  Te  Te6  1  0.64716584  0.57698275  0.90595327  1.0
  Te  Te7  1  0.35283416  0.07698275  0.59404673  1.0
  N  N8  1  0.95126945  0.61072478  0.64199265  1.0
  N  N9  1  0.04873055  0.11072478  0.85800735  1.0
  N  N10  1  0.04873055  0.38927522  0.35800735  1.0
  N  N11  1  0.95126945  0.88927522  0.14199265  1.0
  O  O12  1  0.35303646  0.61812547  0.20087661  1.0
  O  O13  1  0.64696354  0.11812547  0.29912339  1.0
  O  O14  1  0.64696354  0.38187453  0.79912339  1.0
  O  O15  1  0.35303646  0.88187453  0.70087661  1.0
  O  O16  1  0.60373635  0.40340081  0.13978984  1.0
  O  O17  1  0.39626365  0.90340081  0.36021016  1.0
  O  O18  1  0.39626365  0.59659919  0.86021016  1.0
  O  O19  1  0.60373635  0.09659919  0.63978984  1.0
  O  O20  1  0.41502641  0.33818945  0.35674065  1.0
  O  O21  1  0.58497359  0.83818945  0.14325935  1.0
  O  O22  1  0.58497359  0.66181055  0.64325935  1.0
  O  O23  1  0.41502641  0.16181055  0.85674065  1.0
  O  O24  1  0.95237943  0.21732959  0.85913901  1.0
  O  O25  1  0.04762057  0.71732959  0.64086099  1.0
  O  O26  1  0.04762057  0.78267041  0.14086099  1.0
  O  O27  1  0.95237943  0.28267041  0.35913901  1.0
  O  O28  1  0.83250526  0.57226927  0.48062965  1.0
  O  O29  1  0.16749474  0.07226927  0.01937035  1.0
  O  O30  1  0.16749474  0.42773073  0.51937035  1.0
  O  O31  1  0.83250526  0.92773073  0.98062965  1.0
  O  O32  1  0.02566021  0.45210534  0.20058603  1.0
  O  O33  1  0.97433979  0.95210534  0.29941397  1.0
  O  O34  1  0.97433979  0.54789466  0.79941397  1.0
  O  O35  1  0.02566021  0.04789466  0.70058603  1.0
