# generated using pymatgen
data_Li2MnO3
_symmetry_space_group_name_H-M   'P 1'
_cell_length_a   4.94970432
_cell_length_b   4.94970432
_cell_length_c   5.04428761
_cell_angle_alpha   80.40966926
_cell_angle_beta   99.59033074
_cell_angle_gamma   60.08305430
_symmetry_Int_Tables_number   1
_chemical_formula_structural   Li2MnO3
_chemical_formula_sum   'Li4 Mn2 O6'
_cell_volume   101.01002155
_cell_formula_units_Z   2
loop_
 _symmetry_equiv_pos_site_id
 _symmetry_equiv_pos_as_xyz
  1  'x, y, z'
loop_
 _atom_site_type_symbol
 _atom_site_label
 _atom_site_symmetry_multiplicity
 _atom_site_fract_x
 _atom_site_fract_y
 _atom_site_fract_z
 _atom_site_occupancy
  Li  Li0  1  0.66192310  -0.33807690  0.50000000  1.0
  Li  Li1  1  0.33807690  0.33807690  0.50000000  1.0
  Li  Li2  1  -0.00000000  0.00000000  0.50000000  1.0
  Li  Li3  1  0.50000000  -0.50000000  -0.00000000  1.0
  Mn  Mn4  1  0.83282501  -0.16717499  -0.00000000  1.0
  Mn  Mn5  1  0.16717499  0.16717499  0.00000000  1.0
  O  O6  1  0.42475358  -0.06709242  0.77665357  1.0
  O  O7  1  1.06709242  -0.42475358  0.77665357  1.0
  O  O8  1  0.93290758  -0.57524642  0.22334643  1.0
  O  O9  1  0.57524642  0.06709242  0.22334643  1.0
  O  O10  1  0.78151066  -0.78151066  0.77292371  1.0
  O  O11  1  0.21848934  -0.21848934  0.22707629  1.0
