# generated using pymatgen
data_CdGeP2
_symmetry_space_group_name_H-M   'P 1'
_cell_length_a   6.84981790
_cell_length_b   6.84981790
_cell_length_c   6.84981790
_cell_angle_alpha   129.89327204
_cell_angle_beta   129.89327204
_cell_angle_gamma   73.57744453
_symmetry_Int_Tables_number   1
_chemical_formula_structural   CdGeP2
_chemical_formula_sum   'Cd2 Ge2 P4'
_cell_volume   184.61931418
_cell_formula_units_Z   2
loop_
 _symmetry_equiv_pos_site_id
 _symmetry_equiv_pos_as_xyz
  1  'x, y, z'
loop_
 _atom_site_type_symbol
 _atom_site_label
 _atom_site_symmetry_multiplicity
 _atom_site_fract_x
 _atom_site_fract_y
 _atom_site_fract_z
 _atom_site_occupancy
  Cd  Cd0  1  0.25000000  0.75000000  0.50000000  1.0
  Cd  Cd1  1  0.50000000  0.50000000  0.00000000  1.0
  Ge  Ge2  1  0.75000000  0.25000000  0.50000000  1.0
  Ge  Ge3  1  1.00000000  1.00000000  1.00000000  1.0
  P  P4  1  1.09344891  1.12500000  1.46844891  1.0
  P  P5  1  1.37500000  0.90655109  1.03155109  1.0
  P  P6  1  0.87500000  1.34344891  0.96844891  1.0
  P  P7  1  0.65655109  0.62500000  0.53155109  1.0
