# generated using pymatgen
data_K2PH4S3O2
_symmetry_space_group_name_H-M   'P 1'
_cell_length_a   7.99945766
_cell_length_b   11.49173643
_cell_length_c   11.90710192
_cell_angle_alpha   90.00000000
_cell_angle_beta   129.05338025
_cell_angle_gamma   90.00000000
_symmetry_Int_Tables_number   1
_chemical_formula_structural   K2PH4S3O2
_chemical_formula_sum   'K8 P4 H16 S12 O8'
_cell_volume   850.01561339
_cell_formula_units_Z   4
loop_
 _symmetry_equiv_pos_site_id
 _symmetry_equiv_pos_as_xyz
  1  'x, y, z'
loop_
 _atom_site_type_symbol
 _atom_site_label
 _atom_site_symmetry_multiplicity
 _atom_site_fract_x
 _atom_site_fract_y
 _atom_site_fract_z
 _atom_site_occupancy
  K  K0  1  0.98240715  0.34823407  0.02664590  1.0
  K  K1  1  0.98240715  0.15176593  0.52664590  1.0
  K  K2  1  0.01759285  0.84823407  0.47335410  1.0
  K  K3  1  0.01759285  0.65176593  0.97335410  1.0
  K  K4  1  0.51173678  0.22231767  0.10687436  1.0
  K  K5  1  0.51173678  0.27768233  0.60687436  1.0
  K  K6  1  0.48826322  0.72231767  0.39312564  1.0
  K  K7  1  0.48826322  0.77768233  0.89312564  1.0
  P  P8  1  0.86166492  0.46381029  0.38750346  1.0
  P  P9  1  0.86166492  0.03618971  0.88750346  1.0
  P  P10  1  0.13833508  0.96381029  0.11249654  1.0
  P  P11  1  0.13833508  0.53618971  0.61249654  1.0
  H  H12  1  0.82699176  -0.00033552  0.21324726  1.0
  H  H13  1  0.82699176  0.50033552  0.71324726  1.0
  H  H14  1  0.17300824  0.49966448  0.28675274  1.0
  H  H15  1  0.17300824  1.00033552  0.78675274  1.0
  H  H16  1  0.62878716  0.98018901  0.20799925  1.0
  H  H17  1  0.62878716  0.51981099  0.70799925  1.0
  H  H18  1  0.37121284  0.48018901  0.29200075  1.0
  H  H19  1  0.37121284  0.01981099  0.79200075  1.0
  H  H20  1  0.58168493  0.99336596  0.41638891  1.0
  H  H21  1  0.58168493  0.50663404  0.91638891  1.0
  H  H22  1  0.41831507  0.49336596  0.08361109  1.0
  H  H23  1  0.41831507  0.00663404  0.58361109  1.0
  H  H24  1  0.27595628  0.05539893  0.42353922  1.0
  H  H25  1  0.27595628  0.44460107  0.92353922  1.0
  H  H26  1  0.72404372  0.55539893  0.07646078  1.0
  H  H27  1  0.72404372  0.94460107  0.57646078  1.0
  S  S28  1  0.99894332  0.35703852  0.32889912  1.0
  S  S29  1  0.99894332  0.14296148  0.82889912  1.0
  S  S30  1  0.00105668  0.85703852  0.17110088  1.0
  S  S31  1  0.00105668  0.64296148  0.67110088  1.0
  S  S32  1  0.66263991  0.37154942  0.40695027  1.0
  S  S33  1  0.66263991  0.12845058  0.90695027  1.0
  S  S34  1  0.33736009  0.87154942  0.09304973  1.0
  S  S35  1  0.33736009  0.62845058  0.59304973  1.0
  S  S36  1  0.28903649  0.10633443  0.24356092  1.0
  S  S37  1  0.28903649  0.39366557  0.74356092  1.0
  S  S38  1  0.71096351  0.60633443  0.25643908  1.0
  S  S39  1  0.71096351  0.89366557  0.75643908  1.0
  O  O40  1  0.76223474  0.02743851  0.25664547  1.0
  O  O41  1  0.76223474  0.47256149  0.75664547  1.0
  O  O42  1  0.23776526  0.52743851  0.24335453  1.0
  O  O43  1  0.23776526  0.97256149  0.74335453  1.0
  O  O44  1  0.71078919  0.94593679  0.48798565  1.0
  O  O45  1  0.71078919  0.55406321  0.98798565  1.0
  O  O46  1  0.28921081  0.44593679  0.01201435  1.0
  O  O47  1  0.28921081  0.05406321  0.51201435  1.0
