# generated using pymatgen
data_CsSeO4
_symmetry_space_group_name_H-M   'P 1'
_cell_length_a   8.55101626
_cell_length_b   8.55101626
_cell_length_c   8.55101626
_cell_angle_alpha   139.58606677
_cell_angle_beta   139.58606677
_cell_angle_gamma   58.48233971
_symmetry_Int_Tables_number   1
_chemical_formula_structural   CsSeO4
_chemical_formula_sum   'Cs2 Se2 O8'
_cell_volume   260.36927345
_cell_formula_units_Z   2
loop_
 _symmetry_equiv_pos_site_id
 _symmetry_equiv_pos_as_xyz
  1  'x, y, z'
loop_
 _atom_site_type_symbol
 _atom_site_label
 _atom_site_symmetry_multiplicity
 _atom_site_fract_x
 _atom_site_fract_y
 _atom_site_fract_z
 _atom_site_occupancy
  Cs  Cs0  1  1.25000000  0.75000000  0.50000000  1.0
  Cs  Cs1  1  0.50000000  0.50000000  1.00000000  1.0
  Se  Se2  1  0.75000000  1.25000000  0.50000000  1.0
  Se  Se3  1  0.00000000  0.00000000  0.00000000  1.0
  O  O4  1  1.58106976  1.31368003  1.26738974  1.0
  O  O5  1  1.04629029  1.31368003  0.73261026  1.0
  O  O6  1  0.06368003  0.83106976  0.76738974  1.0
  O  O7  1  0.06368003  0.29629029  0.23261026  1.0
  O  O8  1  1.16893024  0.93631997  0.23261026  1.0
  O  O9  1  1.70370971  0.93631997  0.76738974  1.0
  O  O10  1  0.68631997  1.41893024  0.73261026  1.0
  O  O11  1  0.68631997  0.95370971  0.26738974  1.0
