# generated using pymatgen
data_YInCu
_symmetry_space_group_name_H-M   'P 1'
_cell_length_a   7.57953434
_cell_length_b   7.57953434
_cell_length_c   3.84848056
_cell_angle_alpha   90.00000000
_cell_angle_beta   90.00000000
_cell_angle_gamma   120.00000000
_symmetry_Int_Tables_number   1
_chemical_formula_structural   YInCu
_chemical_formula_sum   'Y3 In3 Cu3'
_cell_volume   191.47187012
_cell_formula_units_Z   3
loop_
 _symmetry_equiv_pos_site_id
 _symmetry_equiv_pos_as_xyz
  1  'x, y, z'
loop_
 _atom_site_type_symbol
 _atom_site_label
 _atom_site_symmetry_multiplicity
 _atom_site_fract_x
 _atom_site_fract_y
 _atom_site_fract_z
 _atom_site_occupancy
  Y  Y0  1  0.40779232  0.40779232  0.00000000  1.0
  Y  Y1  1  -0.00000000  0.59220768  0.00000000  1.0
  Y  Y2  1  0.59220768  0.00000000  0.00000000  1.0
  In  In3  1  0.74236393  0.74236393  0.50000000  1.0
  In  In4  1  -0.00000000  0.25763607  0.50000000  1.0
  In  In5  1  0.25763607  0.00000000  0.50000000  1.0
  Cu  Cu6  1  0.33333333  0.66666667  0.50000000  1.0
  Cu  Cu7  1  0.66666667  0.33333333  0.50000000  1.0
  Cu  Cu8  1  0.00000000  0.00000000  0.00000000  1.0
