# generated using pymatgen
data_Rb2CuP4(HO2)8
_symmetry_space_group_name_H-M   'P 1'
_cell_length_a   7.60699082
_cell_length_b   7.03370471
_cell_length_c   7.97439384
_cell_angle_alpha   73.52044541
_cell_angle_beta   85.36527792
_cell_angle_gamma   84.83837299
_symmetry_Int_Tables_number   1
_chemical_formula_structural   Rb2CuP4(HO2)8
_chemical_formula_sum   'Rb2 Cu1 P4 H8 O16'
_cell_volume   406.80289199
_cell_formula_units_Z   1
loop_
 _symmetry_equiv_pos_site_id
 _symmetry_equiv_pos_as_xyz
  1  'x, y, z'
loop_
 _atom_site_type_symbol
 _atom_site_label
 _atom_site_symmetry_multiplicity
 _atom_site_fract_x
 _atom_site_fract_y
 _atom_site_fract_z
 _atom_site_occupancy
  Rb  Rb0  1  -0.27267079  -0.37346069  -0.22999697  1.0
  Rb  Rb1  1  -0.72732921  -0.62653931  -0.77000303  1.0
  Cu  Cu2  1  -0.50000000  -0.00000000  -0.00000000  1.0
  P  P3  1  -0.81543382  -0.76468278  -0.23596479  1.0
  P  P4  1  -0.18456618  -0.23531722  -0.76403521  1.0
  P  P5  1  -0.73733461  -0.18271069  -0.22402915  1.0
  P  P6  1  -0.26266539  -0.81728931  -0.77597085  1.0
  H  H7  1  -0.73402054  -0.46334416  -0.38301638  1.0
  H  H8  1  -0.26597946  -0.53665584  -0.61698362  1.0
  H  H9  1  -0.95102544  -0.25391595  -0.01362473  1.0
  H  H10  1  -0.04897456  -0.74608405  -0.98637527  1.0
  H  H11  1  -0.31088041  -0.86059002  -0.39690820  1.0
  H  H12  1  -0.68911959  -0.13940998  -0.60309180  1.0
  H  H13  1  -0.18741877  -0.87891388  -0.24435497  1.0
  H  H14  1  -0.81258123  -0.12108612  -0.75564503  1.0
  O  O15  1  -0.68350321  -0.78528736  -0.09650642  1.0
  O  O16  1  -0.31649679  -0.21471264  -0.90349358  1.0
  O  O17  1  -0.77661956  -0.58985669  -0.40558248  1.0
  O  O18  1  -0.22338044  -0.41014331  -0.59441752  1.0
  O  O19  1  -1.00900133  -0.75362970  -0.16949715  1.0
  O  O20  1  0.00900133  -0.24637030  -0.83050285  1.0
  O  O21  1  -0.78262287  -0.94920801  -0.32324137  1.0
  O  O22  1  -0.21737713  -0.05079199  -0.67675863  1.0
  O  O23  1  -0.60899152  -0.20079288  -0.08154805  1.0
  O  O24  1  -0.39100848  -0.79920712  -0.91845195  1.0
  O  O25  1  -0.66917007  -0.27599395  -0.36887511  1.0
  O  O26  1  -0.33082993  -0.72400605  -0.63112489  1.0
  O  O27  1  -0.91753495  -0.27174069  -0.13855976  1.0
  O  O28  1  -0.08246505  -0.72825931  -0.86144024  1.0
  O  O29  1  -0.28921082  -0.93642415  -0.27523089  1.0
  O  O30  1  -0.71078918  -0.06357585  -0.72476911  1.0
