# generated using pymatgen
data_MnSb2H8(SN)4
_symmetry_space_group_name_H-M   'P 1'
_cell_length_a   10.15058611
_cell_length_b   10.15058611
_cell_length_c   12.20787175
_cell_angle_alpha   85.71043356
_cell_angle_beta   94.28956644
_cell_angle_gamma   154.73985316
_symmetry_Int_Tables_number   1
_chemical_formula_structural   MnSb2H8(SN)4
_chemical_formula_sum   'Mn2 Sb4 H16 S8 N8'
_cell_volume   535.17355672
_cell_formula_units_Z   2
loop_
 _symmetry_equiv_pos_site_id
 _symmetry_equiv_pos_as_xyz
  1  'x, y, z'
loop_
 _atom_site_type_symbol
 _atom_site_label
 _atom_site_symmetry_multiplicity
 _atom_site_fract_x
 _atom_site_fract_y
 _atom_site_fract_z
 _atom_site_occupancy
  Mn  Mn0  1  -0.00000000  0.00000000  0.50000000  1.0
  Mn  Mn1  1  0.00000000  0.00000000  0.00000000  1.0
  Sb  Sb2  1  0.93482360  0.32770346  0.35608702  1.0
  Sb  Sb3  1  0.32770346  -0.06517640  0.14391298  1.0
  Sb  Sb4  1  1.06517640  0.67229654  0.64391298  1.0
  Sb  Sb5  1  0.67229654  0.06517640  0.85608702  1.0
  H  H6  1  0.64803108  0.44789400  0.49158144  1.0
  H  H7  1  0.44789400  -0.35196892  0.00841856  1.0
  H  H8  1  1.35196892  0.55210600  0.50841856  1.0
  H  H9  1  0.55210600  0.35196892  0.99158144  1.0
  H  H10  1  0.81114208  0.61882626  0.36922929  1.0
  H  H11  1  0.61882626  -0.18885792  0.13077071  1.0
  H  H12  1  1.18885792  0.38117374  0.63077071  1.0
  H  H13  1  0.38117374  0.18885792  0.86922929  1.0
  H  H14  1  0.57992946  -0.44129921  0.65818175  1.0
  H  H15  1  0.55870079  0.57992946  0.84181825  1.0
  H  H16  1  0.42007054  0.44129921  0.34181825  1.0
  H  H17  1  1.44129921  0.42007054  0.15818175  1.0
  H  H18  1  0.67614983  -0.19747753  0.67370037  1.0
  H  H19  1  0.80252247  0.67614983  0.82629963  1.0
  H  H20  1  0.32385017  0.19747753  0.32629963  1.0
  H  H21  1  1.19747753  0.32385017  0.17370037  1.0
  S  S22  1  1.03784679  0.45258533  0.15691798  1.0
  S  S23  1  0.45258533  0.03784679  0.34308202  1.0
  S  S24  1  0.96215321  0.54741467  0.84308202  1.0
  S  S25  1  0.54741467  -0.03784679  0.65691798  1.0
  S  S26  1  0.74223212  -0.07170267  0.34828775  1.0
  S  S27  1  0.92829733  0.74223212  0.15171225  1.0
  S  S28  1  0.25776788  0.07170267  0.65171225  1.0
  S  S29  1  1.07170267  0.25776788  0.84828775  1.0
  N  N30  1  0.60733745  -0.32505823  0.61728955  1.0
  N  N31  1  0.67494177  0.60733745  0.88271045  1.0
  N  N32  1  0.39266255  0.32505823  0.38271045  1.0
  N  N33  1  1.32505823  0.39266255  0.11728955  1.0
  N  N34  1  0.69254195  0.55781598  0.42813260  1.0
  N  N35  1  0.55781598  -0.30745805  0.07186740  1.0
  N  N36  1  1.30745805  0.44218402  0.57186740  1.0
  N  N37  1  0.44218402  0.30745805  0.92813260  1.0
