# generated using pymatgen
data_Re3Se4O9
_symmetry_space_group_name_H-M   'P 1'
_cell_length_a   10.55791086
_cell_length_b   10.55791086
_cell_length_c   10.55791086
_cell_angle_alpha   108.73983002
_cell_angle_beta   108.73983002
_cell_angle_gamma   108.73983002
_symmetry_Int_Tables_number   1
_chemical_formula_structural   Re3Se4O9
_chemical_formula_sum   'Re6 Se8 O18'
_cell_volume   929.68976347
_cell_formula_units_Z   2
loop_
 _symmetry_equiv_pos_site_id
 _symmetry_equiv_pos_as_xyz
  1  'x, y, z'
loop_
 _atom_site_type_symbol
 _atom_site_label
 _atom_site_symmetry_multiplicity
 _atom_site_fract_x
 _atom_site_fract_y
 _atom_site_fract_z
 _atom_site_occupancy
  Re  Re0  1  1.56682594  0.56682594  -0.21788015  1.0
  Re  Re1  1  1.56682594  -0.21788015  0.56682594  1.0
  Re  Re2  1  1.21788015  0.43317406  -0.56682594  1.0
  Re  Re3  1  0.43317406  1.21788015  -0.56682594  1.0
  Re  Re4  1  0.43317406  0.43317406  0.21788015  1.0
  Re  Re5  1  0.78211985  0.56682594  0.56682594  1.0
  Se  Se6  1  1.32277184  0.32277184  -0.40546163  1.0
  Se  Se7  1  1.32277184  -0.40546163  0.32277184  1.0
  Se  Se8  1  1.40546163  0.67722816  -0.32277184  1.0
  Se  Se9  1  0.67722816  1.40546163  -0.32277184  1.0
  Se  Se10  1  0.67722816  0.67722816  0.40546163  1.0
  Se  Se11  1  0.59453837  0.32277184  0.32277184  1.0
  Se  Se12  1  0.76202469  0.76202469  0.76202469  1.0
  Se  Se13  1  0.23797531  0.23797531  0.23797531  1.0
  O  O14  1  0.56885906  0.97771277  0.10277851  1.0
  O  O15  1  0.56885906  1.10277851  -0.02228723  1.0
  O  O16  1  0.89722149  0.02228723  0.43114094  1.0
  O  O17  1  0.89722149  0.43114094  0.02228723  1.0
  O  O18  1  1.02228723  -0.10277851  0.43114094  1.0
  O  O19  1  1.02228723  0.43114094  -0.10277851  1.0
  O  O20  1  1.43114094  0.02228723  -0.10277851  1.0
  O  O21  1  1.43114094  -0.10277851  0.02228723  1.0
  O  O22  1  1.10277851  0.56885906  -0.02228723  1.0
  O  O23  1  1.10277851  0.97771277  -0.43114094  1.0
  O  O24  1  0.97771277  0.56885906  0.10277851  1.0
  O  O25  1  0.97771277  1.10277851  -0.43114094  1.0
  O  O26  1  0.38866031  0.38866031  0.03545397  1.0
  O  O27  1  0.38866031  1.03545397  -0.61133969  1.0
  O  O28  1  0.96454603  0.61133969  0.61133969  1.0
  O  O29  1  1.61133969  -0.03545397  0.61133969  1.0
  O  O30  1  1.61133969  0.61133969  -0.03545397  1.0
  O  O31  1  1.03545397  0.38866031  -0.61133969  1.0
