# generated using pymatgen
data_I
_symmetry_space_group_name_H-M   'P 1'
_cell_length_a   11.47121657
_cell_length_b   5.29764269
_cell_length_c   15.40671760
_cell_angle_alpha   90.00000000
_cell_angle_beta   91.28142714
_cell_angle_gamma   90.00000000
_symmetry_Int_Tables_number   1
_chemical_formula_structural   I
_chemical_formula_sum   I16
_cell_volume   936.03834111
_cell_formula_units_Z   16
loop_
 _symmetry_equiv_pos_site_id
 _symmetry_equiv_pos_as_xyz
  1  'x, y, z'
loop_
 _atom_site_type_symbol
 _atom_site_label
 _atom_site_symmetry_multiplicity
 _atom_site_fract_x
 _atom_site_fract_y
 _atom_site_fract_z
 _atom_site_occupancy
  I  I0  1  0.06103688  0.03116226  0.91154296  1.0
  I  I1  1  0.93896312  0.96883774  0.08845704  1.0
  I  I2  1  0.93896312  0.53116226  0.58845704  1.0
  I  I3  1  0.06103688  0.46883774  0.41154296  1.0
  I  I4  1  0.20414581  0.65324567  0.27345720  1.0
  I  I5  1  0.79585419  0.34675433  0.72654280  1.0
  I  I6  1  0.79585419  0.15324567  0.22654280  1.0
  I  I7  1  0.20414581  0.84675433  0.77345720  1.0
  I  I8  1  0.44210353  0.48131894  0.34471042  1.0
  I  I9  1  0.55789647  0.51868106  0.65528958  1.0
  I  I10  1  0.55789647  0.98131894  0.15528958  1.0
  I  I11  1  0.44210353  0.01868106  0.84471042  1.0
  I  I12  1  0.33097869  0.83604628  0.09971074  1.0
  I  I13  1  0.66902131  0.16395372  0.90028926  1.0
  I  I14  1  0.66902131  0.33604628  0.40028926  1.0
  I  I15  1  0.33097869  0.66395372  0.59971074  1.0
