# generated using pymatgen
data_OsN
_symmetry_space_group_name_H-M   'P 1'
_cell_length_a   2.77446752
_cell_length_b   3.72218208
_cell_length_c   4.24994835
_cell_angle_alpha   90.00000000
_cell_angle_beta   90.00000000
_cell_angle_gamma   90.00000000
_symmetry_Int_Tables_number   1
_chemical_formula_structural   OsN
_chemical_formula_sum   'Os2 N2'
_cell_volume   43.88952800
_cell_formula_units_Z   2
loop_
 _symmetry_equiv_pos_site_id
 _symmetry_equiv_pos_as_xyz
  1  'x, y, z'
loop_
 _atom_site_type_symbol
 _atom_site_label
 _atom_site_symmetry_multiplicity
 _atom_site_fract_x
 _atom_site_fract_y
 _atom_site_fract_z
 _atom_site_occupancy
  Os  Os0  1  0.50000000  0.13716487  0.39434113  1.0
  Os  Os1  1  0.00000000  0.86283513  0.89434113  1.0
  N  N2  1  0.50000000  0.65067857  0.19565887  1.0
  N  N3  1  0.00000000  0.34932143  0.69565887  1.0
