# generated using pymatgen
data_Pb3Se2(ClO2)3
_symmetry_space_group_name_H-M   'P 1'
_cell_length_a   8.07102111
_cell_length_b   5.67494625
_cell_length_c   12.37205839
_cell_angle_alpha   90.00000000
_cell_angle_beta   100.05128743
_cell_angle_gamma   90.00000000
_symmetry_Int_Tables_number   1
_chemical_formula_structural   Pb3Se2(ClO2)3
_chemical_formula_sum   'Pb6 Se4 Cl6 O12'
_cell_volume   557.97524187
_cell_formula_units_Z   2
loop_
 _symmetry_equiv_pos_site_id
 _symmetry_equiv_pos_as_xyz
  1  'x, y, z'
loop_
 _atom_site_type_symbol
 _atom_site_label
 _atom_site_symmetry_multiplicity
 _atom_site_fract_x
 _atom_site_fract_y
 _atom_site_fract_z
 _atom_site_occupancy
  O  O0  1  0.97094826  0.48148406  0.88058521  1.0
  O  O1  1  0.97094826  0.01851594  0.88058521  1.0
  O  O2  1  0.02905174  0.98148406  0.11941479  1.0
  O  O3  1  0.02905174  0.51851594  0.11941479  1.0
  O  O4  1  0.52879795  0.48160390  0.61949877  1.0
  O  O5  1  0.52879795  0.01839610  0.61949877  1.0
  O  O6  1  0.47120205  0.98160390  0.38050123  1.0
  O  O7  1  0.47120205  0.51839610  0.38050123  1.0
  O  O8  1  0.62552152  0.25000000  0.80747725  1.0
  O  O9  1  0.37447848  0.75000000  0.19252275  1.0
  O  O10  1  0.87410610  0.25000000  0.69260470  1.0
  O  O11  1  0.12589390  0.75000000  0.30739530  1.0
  Se  Se12  1  0.46892545  0.25000000  0.69532033  1.0
  Se  Se13  1  0.53107455  0.75000000  0.30467967  1.0
  Se  Se14  1  0.03088592  0.25000000  0.80465661  1.0
  Se  Se15  1  0.96911408  0.75000000  0.19534339  1.0
  Cl  Cl16  1  0.75105369  0.25000000  0.25037708  1.0
  Cl  Cl17  1  0.24894631  0.75000000  0.74962292  1.0
  Cl  Cl18  1  0.35029591  0.25000000  0.02302803  1.0
  Cl  Cl19  1  0.64970409  0.75000000  0.97697197  1.0
  Cl  Cl20  1  0.15001424  0.25000000  0.47753531  1.0
  Cl  Cl21  1  0.84998576  0.75000000  0.52246469  1.0
  Pb  Pb22  1  0.78733246  0.25000000  1.01512090  1.0
  Pb  Pb23  1  0.21266754  0.75000000  -0.01512090  1.0
  Pb  Pb24  1  0.71290914  0.25000000  0.48483855  1.0
  Pb  Pb25  1  0.28709086  0.75000000  0.51516145  1.0
  Pb  Pb26  1  0.24985720  0.25000000  0.24989780  1.0
  Pb  Pb27  1  0.75014280  0.75000000  0.75010220  1.0
