# generated using pymatgen
data_KPH5C2S2(NO)3
_symmetry_space_group_name_H-M   'P 1'
_cell_length_a   10.72653463
_cell_length_b   7.17522215
_cell_length_c   6.68441121
_cell_angle_alpha   95.80786690
_cell_angle_beta   99.52151590
_cell_angle_gamma   88.24134459
_symmetry_Int_Tables_number   1
_chemical_formula_structural   KPH5C2S2(NO)3
_chemical_formula_sum   'K2 P2 H10 C4 S4 N6 O6'
_cell_volume   504.72447577
_cell_formula_units_Z   2
loop_
 _symmetry_equiv_pos_site_id
 _symmetry_equiv_pos_as_xyz
  1  'x, y, z'
loop_
 _atom_site_type_symbol
 _atom_site_label
 _atom_site_symmetry_multiplicity
 _atom_site_fract_x
 _atom_site_fract_y
 _atom_site_fract_z
 _atom_site_occupancy
  K  K0  1  -0.20407306  -0.83426164  -0.81693680  1.0
  K  K1  1  -0.79592694  -0.16573836  -0.18306320  1.0
  P  P2  1  -0.76797792  -0.71860524  -0.60444616  1.0
  P  P3  1  -0.23202208  -0.28139476  -0.39555384  1.0
  H  H4  1  -0.48717848  -0.64282554  -0.92119883  1.0
  H  H5  1  -0.51282152  -0.35717446  -0.07880117  1.0
  H  H6  1  -0.78750658  -0.40124320  -0.67572872  1.0
  H  H7  1  -0.21249342  -0.59875680  -0.32427128  1.0
  H  H8  1  -0.89146907  -0.10909442  -0.66411331  1.0
  H  H9  1  -0.10853093  -0.89090558  -0.33588669  1.0
  H  H10  1  -0.97941932  -0.26175327  -0.61081129  1.0
  H  H11  1  -0.02058068  -0.73824673  -0.38918871  1.0
  H  H12  1  -0.59994661  -0.92402353  -0.48062710  1.0
  H  H13  1  -0.40005339  -0.07597647  -0.51937290  1.0
  C  C14  1  -0.63884471  -0.50553869  -0.81541986  1.0
  C  C15  1  -0.36115529  -0.49446131  -0.18458014  1.0
  C  C16  1  -0.53119180  -0.79610196  -0.69834132  1.0
  C  C17  1  -0.46880820  -0.20389804  -0.30165868  1.0
  S  S18  1  -0.88850971  -0.85776008  -0.82532637  1.0
  S  S19  1  -0.11149029  -0.14223992  -0.17467363  1.0
  S  S20  1  -0.81512641  -0.67090080  -0.33016978  1.0
  S  S21  1  -0.18487359  -0.32909920  -0.66983022  1.0
  N  N22  1  -0.55276254  -0.65313599  -0.82497085  1.0
  N  N23  1  -0.44723746  -0.34686401  -0.17502915  1.0
  N  N24  1  -0.72606626  -0.51608833  -0.69086072  1.0
  N  N25  1  -0.27393374  -0.48391167  -0.30913928  1.0
  N  N26  1  -0.62017269  -0.82152624  -0.58108552  1.0
  N  N27  1  -0.37982731  -0.17847376  -0.41891448  1.0
  O  O28  1  -0.63221693  -0.36922275  -0.91493635  1.0
  O  O29  1  -0.36778307  -0.63077725  -0.08506365  1.0
  O  O30  1  -0.43242892  -0.89336187  -0.69407053  1.0
  O  O31  1  -0.56757108  -0.10663813  -0.30592947  1.0
  O  O32  1  -0.88962129  -0.22479025  -0.59371974  1.0
  O  O33  1  -0.11037871  -0.77520975  -0.40628026  1.0
