# generated using pymatgen
data_Sb(OF3)2
_symmetry_space_group_name_H-M   'P 1'
_cell_length_a   9.02579430
_cell_length_b   9.02579430
_cell_length_c   9.02579430
_cell_angle_alpha   109.47122063
_cell_angle_beta   109.47122063
_cell_angle_gamma   109.47122063
_symmetry_Int_Tables_number   1
_chemical_formula_structural   Sb(OF3)2
_chemical_formula_sum   'Sb4 O8 F24'
_cell_volume   566.02342411
_cell_formula_units_Z   4
loop_
 _symmetry_equiv_pos_site_id
 _symmetry_equiv_pos_as_xyz
  1  'x, y, z'
loop_
 _atom_site_type_symbol
 _atom_site_label
 _atom_site_symmetry_multiplicity
 _atom_site_fract_x
 _atom_site_fract_y
 _atom_site_fract_z
 _atom_site_occupancy
  Sb  Sb0  1  1.00000000  0.50000000  1.00000000  1.0
  Sb  Sb1  1  0.50000000  0.50000000  0.50000000  1.0
  Sb  Sb2  1  1.00000000  1.00000000  1.50000000  1.0
  Sb  Sb3  1  1.50000000  1.00000000  1.00000000  1.0
  O  O4  1  0.56363858  1.50000000  1.00000000  1.0
  O  O5  1  1.06363858  1.06363858  1.06363858  1.0
  O  O6  1  1.00000000  0.56363858  1.50000000  1.0
  O  O7  1  1.50000000  1.00000000  1.43636142  1.0
  O  O8  1  1.00000000  1.43636142  1.50000000  1.0
  O  O9  1  0.50000000  1.00000000  0.56363858  1.0
  O  O10  1  1.43636142  0.50000000  1.00000000  1.0
  O  O11  1  0.93636142  0.93636142  0.93636142  1.0
  F  F12  1  0.54950006  0.57821728  0.74643236  1.0
  F  F13  1  1.04950006  0.30306770  0.97128278  1.0
  F  F14  1  0.33178492  0.80306770  0.75356764  1.0
  F  F15  1  0.83178492  1.07821728  0.52871722  1.0
  F  F16  1  0.47128278  1.16821508  0.92178272  1.0
  F  F17  1  0.97128278  1.04950006  0.30306770  1.0
  F  F18  1  0.74643236  0.54950006  0.57821728  1.0
  F  F19  1  1.24643236  0.66821508  1.19693230  1.0
  F  F20  1  0.80306770  0.75356764  0.33178492  1.0
  F  F21  1  1.30306770  0.97128278  1.04950006  1.0
  F  F22  1  0.92178272  0.47128278  1.16821508  1.0
  F  F23  1  1.42178272  1.25356764  1.45049994  1.0
  F  F24  1  1.66821508  1.19693230  1.24643236  1.0
  F  F25  1  1.16821508  0.92178272  1.47128278  1.0
  F  F26  1  1.45049994  1.42178272  1.25356764  1.0
  F  F27  1  0.95049994  1.69693230  1.02871722  1.0
  F  F28  1  1.25356764  1.45049994  1.42178272  1.0
  F  F29  1  0.75356764  1.33178492  0.80306770  1.0
  F  F30  1  1.52871722  0.83178492  1.07821728  1.0
  F  F31  1  1.02871722  0.95049994  1.69693230  1.0
  F  F32  1  1.07821728  1.52871722  0.83178492  1.0
  F  F33  1  0.57821728  0.74643236  0.54950006  1.0
  F  F34  1  1.19693230  1.24643236  1.66821508  1.0
  F  F35  1  0.69693230  1.02871722  0.95049994  1.0
