# generated using pymatgen
data_CdCu2SiTe4
_symmetry_space_group_name_H-M   'P 1'
_cell_length_a   7.43290936
_cell_length_b   7.43290936
_cell_length_c   7.43290936
_cell_angle_alpha   130.59000535
_cell_angle_beta   130.59000535
_cell_angle_gamma   72.46528932
_symmetry_Int_Tables_number   1
_chemical_formula_structural   CdCu2SiTe4
_chemical_formula_sum   'Cd1 Cu2 Si1 Te4'
_cell_volume   231.44535213
_cell_formula_units_Z   1
loop_
 _symmetry_equiv_pos_site_id
 _symmetry_equiv_pos_as_xyz
  1  'x, y, z'
loop_
 _atom_site_type_symbol
 _atom_site_label
 _atom_site_symmetry_multiplicity
 _atom_site_fract_x
 _atom_site_fract_y
 _atom_site_fract_z
 _atom_site_occupancy
  Cd  Cd0  1  0.00000000  0.00000000  0.00000000  1.0
  Cu  Cu1  1  0.25000000  0.75000000  0.50000000  1.0
  Cu  Cu2  1  0.75000000  0.25000000  0.50000000  1.0
  Si  Si3  1  0.50000000  0.50000000  1.00000000  1.0
  Te  Te4  1  0.40504389  0.86434222  1.00000000  1.0
  Te  Te5  1  1.13565778  1.13565778  1.54070167  1.0
  Te  Te6  1  0.59495611  0.59495611  0.45929833  1.0
  Te  Te7  1  0.86434222  0.40504389  1.00000000  1.0
