# generated using pymatgen
data_V2Se2O11
_symmetry_space_group_name_H-M   'P 1'
_cell_length_a   8.25659409
_cell_length_b   8.25659409
_cell_length_c   10.28845142
_cell_angle_alpha   71.39454711
_cell_angle_beta   108.60545289
_cell_angle_gamma   139.32887032
_symmetry_Int_Tables_number   1
_chemical_formula_structural   V2Se2O11
_chemical_formula_sum   'V4 Se4 O22'
_cell_volume   429.82530970
_cell_formula_units_Z   2
loop_
 _symmetry_equiv_pos_site_id
 _symmetry_equiv_pos_as_xyz
  1  'x, y, z'
loop_
 _atom_site_type_symbol
 _atom_site_label
 _atom_site_symmetry_multiplicity
 _atom_site_fract_x
 _atom_site_fract_y
 _atom_site_fract_z
 _atom_site_occupancy
  V  V0  1  0.46541373  -0.29204170  0.19876787  1.0
  V  V1  1  1.29204170  0.53458627  0.69876787  1.0
  V  V2  1  0.70795830  0.46541373  0.30123213  1.0
  V  V3  1  0.53458627  0.29204170  0.80123213  1.0
  Se  Se4  1  0.69446123  -0.01103483  0.89632539  1.0
  Se  Se5  1  1.01103483  0.30553877  0.39632539  1.0
  Se  Se6  1  0.98896517  0.69446123  0.60367461  1.0
  Se  Se7  1  0.30553877  0.01103483  0.10367461  1.0
  O  O8  1  0.84740017  0.02940999  0.36561459  1.0
  O  O9  1  0.97059001  0.15259983  0.86561459  1.0
  O  O10  1  1.02940999  0.84740017  0.13438541  1.0
  O  O11  1  0.15259983  -0.02940999  0.63438541  1.0
  O  O12  1  0.69873023  -0.01145226  0.06192039  1.0
  O  O13  1  1.01145226  0.30126977  0.56192039  1.0
  O  O14  1  0.98854774  0.69873023  0.43807961  1.0
  O  O15  1  0.30126977  0.01145226  0.93807961  1.0
  O  O16  1  0.42215987  -0.09324114  0.21078995  1.0
  O  O17  1  1.09324114  0.57784013  0.71078995  1.0
  O  O18  1  0.90675886  0.42215987  0.28921005  1.0
  O  O19  1  0.57784013  0.09324114  0.78921005  1.0
  O  O20  1  0.51825797  0.23220234  0.40399745  1.0
  O  O21  1  0.76779766  0.48174203  0.90399745  1.0
  O  O22  1  1.23220234  0.51825797  0.09600255  1.0
  O  O23  1  0.48174203  -0.23220234  0.59600255  1.0
  O  O24  1  0.51911618  0.31523063  0.12656494  1.0
  O  O25  1  0.68476937  0.48088382  0.62656494  1.0
  O  O26  1  1.31523063  0.51911618  0.37343506  1.0
  O  O27  1  0.48088382  -0.31523063  0.87343506  1.0
  O  O28  1  0.62208316  0.62208316  0.25000000  1.0
  O  O29  1  0.37791684  0.37791684  0.75000000  1.0
