# generated using pymatgen
data_SrMgIn3
_symmetry_space_group_name_H-M   'P 1'
_cell_length_a   7.23744916
_cell_length_b   7.23744916
_cell_length_c   7.23744916
_cell_angle_alpha   141.82576727
_cell_angle_beta   141.82576727
_cell_angle_gamma   55.09133832
_symmetry_Int_Tables_number   1
_chemical_formula_structural   SrMgIn3
_chemical_formula_sum   'Sr1 Mg1 In3'
_cell_volume   143.77222208
_cell_formula_units_Z   1
loop_
 _symmetry_equiv_pos_site_id
 _symmetry_equiv_pos_as_xyz
  1  'x, y, z'
loop_
 _atom_site_type_symbol
 _atom_site_label
 _atom_site_symmetry_multiplicity
 _atom_site_fract_x
 _atom_site_fract_y
 _atom_site_fract_z
 _atom_site_occupancy
  Sr  Sr0  1  0.00000000  0.00000000  0.00000000  1.0
  Mg  Mg1  1  0.75000000  0.25000000  0.50000000  1.0
  In  In2  1  0.38915812  0.38915812  0.00000000  1.0
  In  In3  1  0.61084188  0.61084188  1.00000000  1.0
  In  In4  1  0.25000000  0.75000000  0.50000000  1.0
