# generated using pymatgen
data_Ca(LuS2)2
_symmetry_space_group_name_H-M   'P 1'
_cell_length_a   6.62374748
_cell_length_b   6.62374748
_cell_length_c   13.12411762
_cell_angle_alpha   90.00000000
_cell_angle_beta   90.00000000
_cell_angle_gamma   146.30724146
_symmetry_Int_Tables_number   1
_chemical_formula_structural   Ca(LuS2)2
_chemical_formula_sum   'Ca2 Lu4 S8'
_cell_volume   319.42327819
_cell_formula_units_Z   2
loop_
 _symmetry_equiv_pos_site_id
 _symmetry_equiv_pos_as_xyz
  1  'x, y, z'
loop_
 _atom_site_type_symbol
 _atom_site_label
 _atom_site_symmetry_multiplicity
 _atom_site_fract_x
 _atom_site_fract_y
 _atom_site_fract_z
 _atom_site_occupancy
  Ca  Ca0  1  0.11274963  0.88725037  0.50760338  1.0
  Ca  Ca1  1  -0.11274963  0.11274963  0.00760338  1.0
  Lu  Lu2  1  0.36895875  0.63104125  0.68191699  1.0
  Lu  Lu3  1  -0.36895875  0.36895875  0.18191699  1.0
  Lu  Lu4  1  -0.36288848  0.36288848  0.82302861  1.0
  Lu  Lu5  1  0.36288848  0.63711152  0.32302861  1.0
  S  S6  1  0.00489072  0.99510928  0.74805354  1.0
  S  S7  1  -0.00489072  0.00489072  0.24805354  1.0
  S  S8  1  0.26898141  0.73101859  0.13637004  1.0
  S  S9  1  -0.26898141  0.26898141  0.63637004  1.0
  S  S10  1  0.27497679  0.72502321  0.86929473  1.0
  S  S11  1  -0.27497679  0.27497679  0.36929473  1.0
  S  S12  1  0.45624749  0.54375251  0.50103272  1.0
  S  S13  1  -0.45624749  0.45624749  0.00103272  1.0
