# generated using pymatgen
data_Ba(NiB)2
_symmetry_space_group_name_H-M   'P 1'
_cell_length_a   8.12294385
_cell_length_b   11.42048472
_cell_length_c   3.24046488
_cell_angle_alpha   90.00000000
_cell_angle_beta   90.00000000
_cell_angle_gamma   90.00000000
_symmetry_Int_Tables_number   1
_chemical_formula_structural   Ba(NiB)2
_chemical_formula_sum   'Ba4 Ni8 B8'
_cell_volume   300.61130406
_cell_formula_units_Z   4
loop_
 _symmetry_equiv_pos_site_id
 _symmetry_equiv_pos_as_xyz
  1  'x, y, z'
loop_
 _atom_site_type_symbol
 _atom_site_label
 _atom_site_symmetry_multiplicity
 _atom_site_fract_x
 _atom_site_fract_y
 _atom_site_fract_z
 _atom_site_occupancy
  Ba  Ba0  1  0.67840967  0.43071771  0.50000000  1.0
  Ba  Ba1  1  0.32159033  0.56928229  0.50000000  1.0
  Ba  Ba2  1  0.82159033  0.93071771  -0.00000000  1.0
  Ba  Ba3  1  0.17840967  0.06928229  -0.00000000  1.0
  Ni  Ni4  1  0.83943905  0.20535698  0.50000000  1.0
  Ni  Ni5  1  0.16056095  0.79464302  0.50000000  1.0
  Ni  Ni6  1  0.66056095  0.70535698  0.00000000  1.0
  Ni  Ni7  1  0.33943905  0.29464302  0.00000000  1.0
  Ni  Ni8  1  0.46476846  0.82476331  0.50000000  1.0
  Ni  Ni9  1  0.53523154  0.17523669  0.50000000  1.0
  Ni  Ni10  1  1.03523154  0.32476331  0.00000000  1.0
  Ni  Ni11  1  -0.03523154  0.67523669  -0.00000000  1.0
  B  B12  1  0.02869659  0.43084998  0.50000000  1.0
  B  B13  1  0.97130341  0.56915002  0.50000000  1.0
  B  B14  1  0.47130341  0.93084998  -0.00000000  1.0
  B  B15  1  0.52869659  0.06915002  -0.00000000  1.0
  B  B16  1  0.18816231  0.32286996  0.50000000  1.0
  B  B17  1  0.81183769  0.67713004  0.50000000  1.0
  B  B18  1  0.31183769  0.82286996  0.00000000  1.0
  B  B19  1  0.68816231  0.17713004  -0.00000000  1.0
