# generated using pymatgen
data_Rb2Ti(IO3)6
_symmetry_space_group_name_H-M   'P 1'
_cell_length_a   7.79436815
_cell_length_b   7.79436815
_cell_length_c   7.79436815
_cell_angle_alpha   97.16477636
_cell_angle_beta   97.16477636
_cell_angle_gamma   97.16477636
_symmetry_Int_Tables_number   1
_chemical_formula_structural   Rb2Ti(IO3)6
_chemical_formula_sum   'Rb2 Ti1 I6 O18'
_cell_volume   461.40174953
_cell_formula_units_Z   1
loop_
 _symmetry_equiv_pos_site_id
 _symmetry_equiv_pos_as_xyz
  1  'x, y, z'
loop_
 _atom_site_type_symbol
 _atom_site_label
 _atom_site_symmetry_multiplicity
 _atom_site_fract_x
 _atom_site_fract_y
 _atom_site_fract_z
 _atom_site_occupancy
  Rb  Rb0  1  0.67266156  0.67266156  0.67266156  1.0
  Rb  Rb1  1  0.32733844  0.32733844  0.32733844  1.0
  Ti  Ti2  1  0.00000000  0.00000000  0.00000000  1.0
  I  I3  1  0.83417178  0.63058143  0.20410937  1.0
  I  I4  1  1.36941857  -0.20410937  0.16582822  1.0
  I  I5  1  0.79589063  0.16582822  0.36941857  1.0
  I  I6  1  1.16582822  0.36941857  -0.20410937  1.0
  I  I7  1  0.63058143  1.20410937  -0.16582822  1.0
  I  I8  1  1.20410937  0.83417178  -0.36941857  1.0
  O  O9  1  0.83354822  0.80705233  0.04885836  1.0
  O  O10  1  1.19294767  -0.04885836  0.16645178  1.0
  O  O11  1  0.95114164  0.16645178  0.19294767  1.0
  O  O12  1  1.16645178  0.19294767  -0.04885836  1.0
  O  O13  1  0.80705233  1.04885836  -0.16645178  1.0
  O  O14  1  1.04885836  0.83354822  -0.19294767  1.0
  O  O15  1  0.58914889  0.59116045  0.18956143  1.0
  O  O16  1  1.40883955  -0.18956143  0.41085111  1.0
  O  O17  1  0.81043857  0.41085111  0.40883955  1.0
  O  O18  1  1.41085111  0.40883955  -0.18956143  1.0
  O  O19  1  0.59116045  1.18956143  -0.41085111  1.0
  O  O20  1  1.18956143  0.58914889  -0.40883955  1.0
  O  O21  1  1.41116887  0.89801294  -0.20944535  1.0
  O  O22  1  1.10198706  0.20944535  -0.41116887  1.0
  O  O23  1  1.20944535  -0.41116887  0.10198706  1.0
  O  O24  1  0.58883113  0.10198706  0.20944535  1.0
  O  O25  1  0.89801294  0.79055465  0.41116887  1.0
  O  O26  1  0.79055465  1.41116887  -0.10198706  1.0
