# generated using pymatgen
data_PtF6
_symmetry_space_group_name_H-M   'P 1'
_cell_length_a   9.91554995
_cell_length_b   9.11592318
_cell_length_c   5.26919090
_cell_angle_alpha   90.00000000
_cell_angle_beta   90.00000000
_cell_angle_gamma   90.00000000
_symmetry_Int_Tables_number   1
_chemical_formula_structural   PtF6
_chemical_formula_sum   'Pt4 F24'
_cell_volume   476.27895995
_cell_formula_units_Z   4
loop_
 _symmetry_equiv_pos_site_id
 _symmetry_equiv_pos_as_xyz
  1  'x, y, z'
loop_
 _atom_site_type_symbol
 _atom_site_label
 _atom_site_symmetry_multiplicity
 _atom_site_fract_x
 _atom_site_fract_y
 _atom_site_fract_z
 _atom_site_occupancy
  Pt  Pt0  1  0.87295017  0.25000000  0.40860593  1.0
  Pt  Pt1  1  0.37295017  0.25000000  0.09139407  1.0
  Pt  Pt2  1  0.12704983  0.75000000  0.59139407  1.0
  Pt  Pt3  1  0.62704983  0.75000000  0.90860593  1.0
  F  F4  1  0.76310276  0.39615791  0.55480913  1.0
  F  F5  1  0.76310276  0.10384209  0.55480913  1.0
  F  F6  1  0.26310276  0.39615791  0.94519087  1.0
  F  F7  1  0.26310276  0.10384209  0.94519087  1.0
  F  F8  1  0.23689724  0.89615791  0.44519087  1.0
  F  F9  1  0.23689724  0.60384209  0.44519087  1.0
  F  F10  1  0.73689724  0.89615791  0.05480913  1.0
  F  F11  1  0.73689724  0.60384209  0.05480913  1.0
  F  F12  1  0.98256071  0.39636645  0.26192176  1.0
  F  F13  1  0.98256071  0.10363355  0.26192176  1.0
  F  F14  1  0.48256071  0.39636645  0.23807824  1.0
  F  F15  1  0.48256071  0.10363355  0.23807824  1.0
  F  F16  1  0.01743929  0.89636645  0.73807824  1.0
  F  F17  1  0.01743929  0.60363355  0.73807824  1.0
  F  F18  1  0.51743929  0.89636645  0.76192176  1.0
  F  F19  1  0.51743929  0.60363355  0.76192176  1.0
  F  F20  1  0.76283158  0.25000000  0.11639481  1.0
  F  F21  1  0.26283158  0.25000000  0.38360519  1.0
  F  F22  1  0.23716842  0.75000000  0.88360519  1.0
  F  F23  1  0.73716842  0.75000000  0.61639481  1.0
  F  F24  1  0.98319181  0.25000000  0.70033638  1.0
  F  F25  1  0.48319181  0.25000000  0.79966362  1.0
  F  F26  1  0.01680819  0.75000000  0.29966362  1.0
  F  F27  1  0.51680819  0.75000000  0.20033638  1.0
