# generated using pymatgen
data_Y(BRh)4
_symmetry_space_group_name_H-M   'P 1'
_cell_length_a   5.32772441
_cell_length_b   5.32772441
_cell_length_c   7.44677878
_cell_angle_alpha   90.00000000
_cell_angle_beta   90.00000000
_cell_angle_gamma   90.00000000
_symmetry_Int_Tables_number   1
_chemical_formula_structural   Y(BRh)4
_chemical_formula_sum   'Y2 B8 Rh8'
_cell_volume   211.37418984
_cell_formula_units_Z   2
loop_
 _symmetry_equiv_pos_site_id
 _symmetry_equiv_pos_as_xyz
  1  'x, y, z'
loop_
 _atom_site_type_symbol
 _atom_site_label
 _atom_site_symmetry_multiplicity
 _atom_site_fract_x
 _atom_site_fract_y
 _atom_site_fract_z
 _atom_site_occupancy
  Y  Y0  1  0.00000000  0.00000000  0.00000000  1.0
  Y  Y1  1  0.50000000  0.50000000  0.50000000  1.0
  B  B2  1  0.83076097  0.50000000  0.14970791  1.0
  B  B3  1  0.16923903  0.50000000  0.14970791  1.0
  B  B4  1  0.00000000  0.33076097  0.64970791  1.0
  B  B5  1  0.00000000  0.66923903  0.64970791  1.0
  B  B6  1  0.66923903  0.00000000  0.35029209  1.0
  B  B7  1  0.33076097  0.00000000  0.35029209  1.0
  B  B8  1  0.50000000  0.16923903  0.85029209  1.0
  B  B9  1  0.50000000  0.83076097  0.85029209  1.0
  Rh  Rh10  1  0.74851626  0.50000000  0.85474472  1.0
  Rh  Rh11  1  0.25148374  0.50000000  0.85474472  1.0
  Rh  Rh12  1  0.00000000  0.24851626  0.35474472  1.0
  Rh  Rh13  1  0.00000000  0.75148374  0.35474472  1.0
  Rh  Rh14  1  0.75148374  0.00000000  0.64525528  1.0
  Rh  Rh15  1  0.24851626  0.00000000  0.64525528  1.0
  Rh  Rh16  1  0.50000000  0.25148374  0.14525528  1.0
  Rh  Rh17  1  0.50000000  0.74851626  0.14525528  1.0
