# generated using pymatgen
data_P4SeO7
_symmetry_space_group_name_H-M   'P 1'
_cell_length_a   9.34053084
_cell_length_b   7.46020010
_cell_length_c   7.47268855
_cell_angle_alpha   95.56783509
_cell_angle_beta   104.86309224
_cell_angle_gamma   94.89541059
_symmetry_Int_Tables_number   1
_chemical_formula_structural   P4SeO7
_chemical_formula_sum   'P8 Se2 O14'
_cell_volume   497.61770640
_cell_formula_units_Z   2
loop_
 _symmetry_equiv_pos_site_id
 _symmetry_equiv_pos_as_xyz
  1  'x, y, z'
loop_
 _atom_site_type_symbol
 _atom_site_label
 _atom_site_symmetry_multiplicity
 _atom_site_fract_x
 _atom_site_fract_y
 _atom_site_fract_z
 _atom_site_occupancy
  P  P0  1  -0.92526759  -0.64375967  -0.76925007  1.0
  P  P1  1  -0.07473241  -0.35624033  -0.23074993  1.0
  P  P2  1  -0.62714208  -0.76085613  -0.73461223  1.0
  P  P3  1  -0.37285792  -0.23914387  -0.26538777  1.0
  P  P4  1  -0.86708699  -0.01377517  -0.70555792  1.0
  P  P5  1  -0.13291301  -0.98622483  -0.29444208  1.0
  P  P6  1  -0.74049157  -0.72253170  -0.40097994  1.0
  P  P7  1  -0.25950843  -0.27746830  -0.59902006  1.0
  Se  Se8  1  -0.44153297  -0.73604734  -0.83099769  1.0
  Se  Se9  1  -0.55846703  -0.26395266  -0.16900231  1.0
  O  O10  1  -0.76058073  -0.64321489  -0.82435721  1.0
  O  O11  1  -0.23941927  -0.35678511  -0.17564279  1.0
  O  O12  1  -0.97468013  -0.87165135  -0.79842550  1.0
  O  O13  1  -0.02531987  -0.12834865  -0.20157450  1.0
  O  O14  1  -0.71678943  -0.96776999  -0.77235936  1.0
  O  O15  1  -0.28321057  -0.03223001  -0.22764064  1.0
  O  O16  1  -0.93059804  -0.20455327  -0.75166383  1.0
  O  O17  1  -0.06940196  -0.79544673  -0.24833617  1.0
  O  O18  1  -0.86255879  -0.61198491  -0.53785226  1.0
  O  O19  1  -0.13744121  -0.38801509  -0.46214774  1.0
  O  O20  1  -0.60292129  -0.71214170  -0.51131000  1.0
  O  O21  1  -0.39707871  -0.28785830  -0.48869000  1.0
  O  O22  1  -0.81720218  -0.93934227  -0.48711749  1.0
  O  O23  1  -0.18279782  -0.06065773  -0.51288251  1.0
