# generated using pymatgen
data_Na2BeCl4
_symmetry_space_group_name_H-M   'P 1'
_cell_length_a   13.62290255
_cell_length_b   8.18422269
_cell_length_c   6.15436042
_cell_angle_alpha   90.00000000
_cell_angle_beta   90.00000000
_cell_angle_gamma   90.00000000
_symmetry_Int_Tables_number   1
_chemical_formula_structural   Na2BeCl4
_chemical_formula_sum   'Na8 Be4 Cl16'
_cell_volume   686.16729497
_cell_formula_units_Z   4
loop_
 _symmetry_equiv_pos_site_id
 _symmetry_equiv_pos_as_xyz
  1  'x, y, z'
loop_
 _atom_site_type_symbol
 _atom_site_label
 _atom_site_symmetry_multiplicity
 _atom_site_fract_x
 _atom_site_fract_y
 _atom_site_fract_z
 _atom_site_occupancy
  Na  Na0  1  0.77375168  0.25000000  0.51586627  1.0
  Na  Na1  1  0.27375168  0.25000000  0.98413373  1.0
  Na  Na2  1  0.22624832  0.75000000  0.48413373  1.0
  Na  Na3  1  0.72624832  0.75000000  0.01586627  1.0
  Na  Na4  1  0.00000000  0.50000000  0.00000000  1.0
  Na  Na5  1  0.00000000  0.00000000  0.00000000  1.0
  Na  Na6  1  0.50000000  0.50000000  0.50000000  1.0
  Na  Na7  1  0.50000000  0.00000000  0.50000000  1.0
  Be  Be8  1  0.59323101  0.25000000  0.09586659  1.0
  Be  Be9  1  0.09323101  0.25000000  0.40413341  1.0
  Be  Be10  1  0.40676899  0.75000000  0.90413341  1.0
  Be  Be11  1  0.90676899  0.75000000  0.59586659  1.0
  Cl  Cl12  1  0.66291182  0.45111496  0.22207226  1.0
  Cl  Cl13  1  0.66291182  0.04888504  0.22207226  1.0
  Cl  Cl14  1  0.16291182  0.45111496  0.27792774  1.0
  Cl  Cl15  1  0.16291182  0.04888504  0.27792774  1.0
  Cl  Cl16  1  0.33708818  0.95111496  0.77792774  1.0
  Cl  Cl17  1  0.33708818  0.54888504  0.77792774  1.0
  Cl  Cl18  1  0.83708818  0.95111496  0.72207226  1.0
  Cl  Cl19  1  0.83708818  0.54888504  0.72207226  1.0
  Cl  Cl20  1  0.95198026  0.25000000  0.28403991  1.0
  Cl  Cl21  1  0.45198026  0.25000000  0.21596009  1.0
  Cl  Cl22  1  0.04801974  0.75000000  0.71596009  1.0
  Cl  Cl23  1  0.54801974  0.75000000  0.78403991  1.0
  Cl  Cl24  1  0.59369161  0.25000000  0.76713356  1.0
  Cl  Cl25  1  0.09369161  0.25000000  0.73286644  1.0
  Cl  Cl26  1  0.40630839  0.75000000  0.23286644  1.0
  Cl  Cl27  1  0.90630839  0.75000000  0.26713356  1.0
