# generated using pymatgen
data_Zr5CuBi3
_symmetry_space_group_name_H-M   'P 1'
_cell_length_a   9.20047443
_cell_length_b   9.20047443
_cell_length_c   5.90603056
_cell_angle_alpha   90.00000000
_cell_angle_beta   90.00000000
_cell_angle_gamma   120.00000000
_symmetry_Int_Tables_number   1
_chemical_formula_structural   Zr5CuBi3
_chemical_formula_sum   'Zr10 Cu2 Bi6'
_cell_volume   432.95899548
_cell_formula_units_Z   2
loop_
 _symmetry_equiv_pos_site_id
 _symmetry_equiv_pos_as_xyz
  1  'x, y, z'
loop_
 _atom_site_type_symbol
 _atom_site_label
 _atom_site_symmetry_multiplicity
 _atom_site_fract_x
 _atom_site_fract_y
 _atom_site_fract_z
 _atom_site_occupancy
  Zr  Zr0  1  0.75274664  0.75274664  0.25000000  1.0
  Zr  Zr1  1  0.75274664  0.00000000  0.75000000  1.0
  Zr  Zr2  1  0.00000000  0.75274664  0.75000000  1.0
  Zr  Zr3  1  -0.00000000  0.24725336  0.25000000  1.0
  Zr  Zr4  1  0.24725336  0.24725336  0.75000000  1.0
  Zr  Zr5  1  0.24725336  -0.00000000  0.25000000  1.0
  Zr  Zr6  1  0.33333333  0.66666667  0.25000000  1.0
  Zr  Zr7  1  0.33333333  0.66666667  0.75000000  1.0
  Zr  Zr8  1  0.66666667  0.33333333  0.25000000  1.0
  Zr  Zr9  1  0.66666667  0.33333333  0.75000000  1.0
  Cu  Cu10  1  -0.00000000  -0.00000000  0.50000000  1.0
  Cu  Cu11  1  -0.00000000  -0.00000000  -0.00000000  1.0
  Bi  Bi12  1  0.37903699  0.37903699  0.25000000  1.0
  Bi  Bi13  1  0.37903699  0.00000000  0.75000000  1.0
  Bi  Bi14  1  0.00000000  0.37903699  0.75000000  1.0
  Bi  Bi15  1  -0.00000000  0.62096301  0.25000000  1.0
  Bi  Bi16  1  0.62096301  0.62096301  0.75000000  1.0
  Bi  Bi17  1  0.62096301  -0.00000000  0.25000000  1.0
