# generated using pymatgen
data_Zr6Ga2NiH10
_symmetry_space_group_name_H-M   'P 1'
_cell_length_a   8.00784658
_cell_length_b   8.00784658
_cell_length_c   7.21466967
_cell_angle_alpha   90.00000000
_cell_angle_beta   90.00000000
_cell_angle_gamma   120.00000000
_symmetry_Int_Tables_number   1
_chemical_formula_structural   Zr6Ga2NiH10
_chemical_formula_sum   'Zr12 Ga4 Ni2 H20'
_cell_volume   400.66238403
_cell_formula_units_Z   2
loop_
 _symmetry_equiv_pos_site_id
 _symmetry_equiv_pos_as_xyz
  1  'x, y, z'
loop_
 _atom_site_type_symbol
 _atom_site_label
 _atom_site_symmetry_multiplicity
 _atom_site_fract_x
 _atom_site_fract_y
 _atom_site_fract_z
 _atom_site_occupancy
  Zr  Zr0  1  0.62700617  0.58152486  0.25000000  1.0
  Zr  Zr1  1  0.58152486  0.62700617  0.75000000  1.0
  Zr  Zr2  1  0.95451869  0.37299383  0.25000000  1.0
  Zr  Zr3  1  0.41847514  0.04548131  0.25000000  1.0
  Zr  Zr4  1  0.37299383  0.95451869  0.75000000  1.0
  Zr  Zr5  1  0.04548131  0.41847514  0.75000000  1.0
  Zr  Zr6  1  0.26340491  0.26340491  0.50000000  1.0
  Zr  Zr7  1  0.26340491  0.26340491  0.00000000  1.0
  Zr  Zr8  1  -0.00000000  0.73659509  0.50000000  1.0
  Zr  Zr9  1  -0.00000000  0.73659509  0.00000000  1.0
  Zr  Zr10  1  0.73659509  0.00000000  0.50000000  1.0
  Zr  Zr11  1  0.73659509  0.00000000  0.00000000  1.0
  Ga  Ga12  1  0.33333333  0.66666667  0.45371644  1.0
  Ga  Ga13  1  0.33333333  0.66666667  0.04628356  1.0
  Ga  Ga14  1  0.66666667  0.33333333  0.95371644  1.0
  Ga  Ga15  1  0.66666667  0.33333333  0.54628356  1.0
  Ni  Ni16  1  0.00000000  0.00000000  0.25000000  1.0
  Ni  Ni17  1  0.00000000  0.00000000  0.75000000  1.0
  H  H18  1  0.11996671  0.87583499  0.25000000  1.0
  H  H19  1  0.87583499  0.11996671  0.75000000  1.0
  H  H20  1  0.75586828  0.88003329  0.25000000  1.0
  H  H21  1  0.12416501  0.24413172  0.25000000  1.0
  H  H22  1  0.88003329  0.75586828  0.75000000  1.0
  H  H23  1  0.24413172  0.12416501  0.75000000  1.0
  H  H24  1  0.88848526  0.59344122  0.25000000  1.0
  H  H25  1  0.59344122  0.88848526  0.75000000  1.0
  H  H26  1  0.70495596  0.11151474  0.25000000  1.0
  H  H27  1  0.40655878  0.29504404  0.25000000  1.0
  H  H28  1  0.11151474  0.70495596  0.75000000  1.0
  H  H29  1  0.29504404  0.40655878  0.75000000  1.0
  H  H30  1  0.72371377  0.72371377  0.50000000  1.0
  H  H31  1  0.72371377  0.72371377  0.00000000  1.0
  H  H32  1  -0.00000000  0.27628623  0.50000000  1.0
  H  H33  1  -0.00000000  0.27628623  0.00000000  1.0
  H  H34  1  0.27628623  0.00000000  0.50000000  1.0
  H  H35  1  0.27628623  0.00000000  0.00000000  1.0
  H  H36  1  0.00000000  0.00000000  0.50000000  1.0
  H  H37  1  0.00000000  0.00000000  0.00000000  1.0
