# generated using pymatgen
data_Nb3Au2
_symmetry_space_group_name_H-M   'P 1'
_cell_length_a   7.10030191
_cell_length_b   7.10030191
_cell_length_c   7.10030191
_cell_angle_alpha   90.00000000
_cell_angle_beta   90.00000000
_cell_angle_gamma   90.00000000
_symmetry_Int_Tables_number   1
_chemical_formula_structural   Nb3Au2
_chemical_formula_sum   'Nb12 Au8'
_cell_volume   357.95665914
_cell_formula_units_Z   4
loop_
 _symmetry_equiv_pos_site_id
 _symmetry_equiv_pos_as_xyz
  1  'x, y, z'
loop_
 _atom_site_type_symbol
 _atom_site_label
 _atom_site_symmetry_multiplicity
 _atom_site_fract_x
 _atom_site_fract_y
 _atom_site_fract_z
 _atom_site_occupancy
  Nb  Nb0  1  0.80852740  0.94147260  0.37500000  1.0
  Nb  Nb1  1  0.69147260  0.05852740  0.87500000  1.0
  Nb  Nb2  1  0.19147260  0.44147260  0.12500000  1.0
  Nb  Nb3  1  0.30852740  0.55852740  0.62500000  1.0
  Nb  Nb4  1  0.94147260  0.37500000  0.80852740  1.0
  Nb  Nb5  1  0.05852740  0.87500000  0.69147260  1.0
  Nb  Nb6  1  0.44147260  0.12500000  0.19147260  1.0
  Nb  Nb7  1  0.55852740  0.62500000  0.30852740  1.0
  Nb  Nb8  1  0.37500000  0.80852740  0.94147260  1.0
  Nb  Nb9  1  0.87500000  0.69147260  0.05852740  1.0
  Nb  Nb10  1  0.12500000  0.19147260  0.44147260  1.0
  Nb  Nb11  1  0.62500000  0.30852740  0.55852740  1.0
  Au  Au12  1  0.19903255  0.80096745  0.30096745  1.0
  Au  Au13  1  0.30096745  0.19903255  0.80096745  1.0
  Au  Au14  1  0.80096745  0.30096745  0.19903255  1.0
  Au  Au15  1  0.69903255  0.69903255  0.69903255  1.0
  Au  Au16  1  0.55096745  0.44903255  0.94903255  1.0
  Au  Au17  1  0.44903255  0.94903255  0.55096745  1.0
  Au  Au18  1  0.94903255  0.55096745  0.44903255  1.0
  Au  Au19  1  0.05096745  0.05096745  0.05096745  1.0
