# generated using pymatgen
data_Y5Si3H
_symmetry_space_group_name_H-M   'P 1'
_cell_length_a   8.46117861
_cell_length_b   8.46117861
_cell_length_c   6.25800582
_cell_angle_alpha   90.00000000
_cell_angle_beta   90.00000000
_cell_angle_gamma   120.00000000
_symmetry_Int_Tables_number   1
_chemical_formula_structural   Y5Si3H
_chemical_formula_sum   'Y10 Si6 H2'
_cell_volume   387.99695696
_cell_formula_units_Z   2
loop_
 _symmetry_equiv_pos_site_id
 _symmetry_equiv_pos_as_xyz
  1  'x, y, z'
loop_
 _atom_site_type_symbol
 _atom_site_label
 _atom_site_symmetry_multiplicity
 _atom_site_fract_x
 _atom_site_fract_y
 _atom_site_fract_z
 _atom_site_occupancy
  Y  Y0  1  0.33333333  0.66666667  0.50000000  1.0
  Y  Y1  1  0.33333333  0.66666667  0.00000000  1.0
  Y  Y2  1  0.66666667  0.33333333  0.50000000  1.0
  Y  Y3  1  0.66666667  0.33333333  0.00000000  1.0
  Y  Y4  1  0.74965743  0.74965743  0.25000000  1.0
  Y  Y5  1  0.74965743  0.00000000  0.75000000  1.0
  Y  Y6  1  0.00000000  0.74965743  0.75000000  1.0
  Y  Y7  1  -0.00000000  0.25034257  0.25000000  1.0
  Y  Y8  1  0.25034257  0.25034257  0.75000000  1.0
  Y  Y9  1  0.25034257  0.00000000  0.25000000  1.0
  Si  Si10  1  0.38886392  0.38886392  0.25000000  1.0
  Si  Si11  1  0.38886392  0.00000000  0.75000000  1.0
  Si  Si12  1  -0.00000000  0.38886392  0.75000000  1.0
  Si  Si13  1  0.00000000  0.61113608  0.25000000  1.0
  Si  Si14  1  0.61113608  0.61113608  0.75000000  1.0
  Si  Si15  1  0.61113608  0.00000000  0.25000000  1.0
  H  H16  1  0.00000000  0.00000000  0.50000000  1.0
  H  H17  1  0.00000000  0.00000000  0.00000000  1.0
