# generated using pymatgen
data_TlZnSClO4
_symmetry_space_group_name_H-M   'P 1'
_cell_length_a   7.31492684
_cell_length_b   9.85670393
_cell_length_c   8.51690972
_cell_angle_alpha   90.00000000
_cell_angle_beta   95.73249241
_cell_angle_gamma   90.00000000
_symmetry_Int_Tables_number   1
_chemical_formula_structural   TlZnSClO4
_chemical_formula_sum   'Tl4 Zn4 S4 Cl4 O16'
_cell_volume   611.00733566
_cell_formula_units_Z   4
loop_
 _symmetry_equiv_pos_site_id
 _symmetry_equiv_pos_as_xyz
  1  'x, y, z'
loop_
 _atom_site_type_symbol
 _atom_site_label
 _atom_site_symmetry_multiplicity
 _atom_site_fract_x
 _atom_site_fract_y
 _atom_site_fract_z
 _atom_site_occupancy
  Tl  Tl0  1  0.87571265  0.07849220  0.20114788  1.0
  Tl  Tl1  1  0.87571265  0.42150780  0.70114788  1.0
  Tl  Tl2  1  0.12428735  0.57849220  0.29885212  1.0
  Tl  Tl3  1  0.12428735  0.92150780  0.79885212  1.0
  Zn  Zn4  1  0.40564061  0.19314148  0.45425107  1.0
  Zn  Zn5  1  0.40564061  0.30685852  0.95425106  1.0
  Zn  Zn6  1  0.59435939  0.69314148  0.04574893  1.0
  Zn  Zn7  1  0.59435939  0.80685852  0.54574893  1.0
  S  S8  1  0.59950495  0.42694204  0.26532412  1.0
  S  S9  1  0.59950495  0.07305796  0.76532412  1.0
  S  S10  1  0.40049505  0.92694204  0.23467588  1.0
  S  S11  1  0.40049505  0.57305796  0.73467588  1.0
  Cl  Cl12  1  0.87726432  0.82023079  0.47509167  1.0
  Cl  Cl13  1  0.87726432  0.67976921  0.97509167  1.0
  Cl  Cl14  1  0.12273568  0.32023079  0.02490833  1.0
  Cl  Cl15  1  0.12273568  0.17976921  0.52490833  1.0
  O  O16  1  0.78183833  0.43634250  0.35356587  1.0
  O  O17  1  0.78183833  0.06365750  0.85356587  1.0
  O  O18  1  0.21816167  0.93634250  0.14643413  1.0
  O  O19  1  0.21816167  0.56365750  0.64643413  1.0
  O  O20  1  0.61110687  0.33529115  0.12405723  1.0
  O  O21  1  0.61110687  0.16470885  0.62405723  1.0
  O  O22  1  0.38889313  0.83529115  0.37594277  1.0
  O  O23  1  0.38889313  0.66470885  0.87594277  1.0
  O  O24  1  0.45729538  0.37340820  0.36598192  1.0
  O  O25  1  0.45729538  0.12659180  0.86598192  1.0
  O  O26  1  0.54270462  0.87340820  0.13401808  1.0
  O  O27  1  0.54270462  0.62659180  0.63401808  1.0
  O  O28  1  0.47476196  0.06363604  0.28990577  1.0
  O  O29  1  0.47476196  0.43636396  0.78990577  1.0
  O  O30  1  0.52523804  0.56363604  0.21009423  1.0
  O  O31  1  0.52523804  0.93636396  0.71009423  1.0
