# generated using pymatgen
data_K2PtN4(ClO4)2
_symmetry_space_group_name_H-M   'P 1'
_cell_length_a   7.42355051
_cell_length_b   9.51166918
_cell_length_c   9.68968469
_cell_angle_alpha   90.00000000
_cell_angle_beta   119.27554572
_cell_angle_gamma   90.00000000
_symmetry_Int_Tables_number   1
_chemical_formula_structural   K2PtN4(ClO4)2
_chemical_formula_sum   'K4 Pt2 N8 Cl4 O16'
_cell_volume   596.80575402
_cell_formula_units_Z   2
loop_
 _symmetry_equiv_pos_site_id
 _symmetry_equiv_pos_as_xyz
  1  'x, y, z'
loop_
 _atom_site_type_symbol
 _atom_site_label
 _atom_site_symmetry_multiplicity
 _atom_site_fract_x
 _atom_site_fract_y
 _atom_site_fract_z
 _atom_site_occupancy
  K  K0  1  0.66862652  0.95618619  0.33792552  1.0
  K  K1  1  0.66862652  0.54381381  0.83792552  1.0
  K  K2  1  0.33137348  0.45618619  0.16207448  1.0
  K  K3  1  0.33137348  0.04381381  0.66207448  1.0
  Pt  Pt4  1  0.00000000  0.50000000  0.50000000  1.0
  Pt  Pt5  1  0.00000000  0.00000000  0.00000000  1.0
  N  N6  1  0.88804858  0.96794290  0.75498382  1.0
  N  N7  1  0.88804858  0.53205710  0.25498382  1.0
  N  N8  1  0.11195142  0.46794290  0.74501618  1.0
  N  N9  1  0.11195142  0.03205710  0.24501618  1.0
  N  N10  1  0.85423798  0.30177479  0.46436055  1.0
  N  N11  1  0.85423798  0.19822521  0.96436055  1.0
  N  N12  1  0.14576202  0.80177479  0.03563945  1.0
  N  N13  1  0.14576202  0.69822521  0.53563945  1.0
  Cl  Cl14  1  0.29085087  0.38649629  0.51562731  1.0
  Cl  Cl15  1  0.29085087  0.11350371  0.01562731  1.0
  Cl  Cl16  1  0.70914913  0.88649629  -0.01562731  1.0
  Cl  Cl17  1  0.70914913  0.61350371  0.48437269  1.0
  O  O18  1  1.01221019  0.57117896  0.21333934  1.0
  O  O19  1  1.01221019  -0.07117896  0.71333934  1.0
  O  O20  1  -0.01221019  1.07117896  0.28666066  1.0
  O  O21  1  -0.01221019  0.42882104  0.78666066  1.0
  O  O22  1  0.95513873  0.20508508  0.55322086  1.0
  O  O23  1  0.95513873  0.29491492  1.05322086  1.0
  O  O24  1  0.04486127  0.70508508  -0.05322086  1.0
  O  O25  1  0.04486127  0.79491492  0.44677914  1.0
  O  O26  1  0.67472140  0.28596598  0.35760876  1.0
  O  O27  1  0.67472140  0.21403402  0.85760876  1.0
  O  O28  1  0.32527860  0.78596598  0.14239124  1.0
  O  O29  1  0.32527860  0.71403402  0.64239124  1.0
  O  O30  1  0.29632583  0.01321468  0.34000986  1.0
  O  O31  1  0.29632583  0.48678532  0.84000986  1.0
  O  O32  1  0.70367417  0.51321468  0.15999014  1.0
  O  O33  1  0.70367417  0.98678532  0.65999014  1.0
