# generated using pymatgen
data_BiBPbO4
_symmetry_space_group_name_H-M   'P 1'
_cell_length_a   7.71456622
_cell_length_b   7.71456622
_cell_length_c   7.59663642
_cell_angle_alpha   90.00000000
_cell_angle_beta   90.00000000
_cell_angle_gamma   86.85189472
_symmetry_Int_Tables_number   1
_chemical_formula_structural   BiBPbO4
_chemical_formula_sum   'Bi4 B4 Pb4 O16'
_cell_volume   451.42798734
_cell_formula_units_Z   4
loop_
 _symmetry_equiv_pos_site_id
 _symmetry_equiv_pos_as_xyz
  1  'x, y, z'
loop_
 _atom_site_type_symbol
 _atom_site_label
 _atom_site_symmetry_multiplicity
 _atom_site_fract_x
 _atom_site_fract_y
 _atom_site_fract_z
 _atom_site_occupancy
  Bi  Bi0  1  0.34231190  1.34231190  0.50000000  1.0
  Bi  Bi1  1  -0.15768810  0.84231190  0.00000000  1.0
  Bi  Bi2  1  -0.34231190  0.65768810  0.50000000  1.0
  Bi  Bi3  1  0.15768810  1.15768810  0.00000000  1.0
  B  B4  1  -0.49021737  0.99021737  0.25000000  1.0
  B  B5  1  0.00978263  1.49021737  0.25000000  1.0
  B  B6  1  -0.00978263  0.50978263  0.75000000  1.0
  B  B7  1  0.49021737  1.00978263  0.75000000  1.0
  Pb  Pb8  1  -0.31664162  1.31664162  0.10952911  1.0
  Pb  Pb9  1  0.18335838  0.81664162  0.39047089  1.0
  Pb  Pb10  1  0.31664162  0.68335838  0.89047089  1.0
  Pb  Pb11  1  -0.18335838  1.18335838  0.60952911  1.0
  O  O12  1  -0.32064567  1.02653151  0.20507099  1.0
  O  O13  1  0.17935433  0.52653151  0.29492901  1.0
  O  O14  1  0.02653151  0.67935433  0.79492901  1.0
  O  O15  1  -0.47346849  1.17935433  0.70507099  1.0
  O  O16  1  -0.02653151  1.32064567  0.20507099  1.0
  O  O17  1  0.47346849  0.82064567  0.29492901  1.0
  O  O18  1  0.32064567  0.97346849  0.79492901  1.0
  O  O19  1  -0.17935433  1.47346849  0.70507099  1.0
  O  O20  1  -0.39656676  1.39656676  0.39859717  1.0
  O  O21  1  0.10343324  0.89656676  0.10140283  1.0
  O  O22  1  0.39656676  0.60343324  0.60140283  1.0
  O  O23  1  -0.10343324  1.10343324  0.89859717  1.0
  O  O24  1  0.38001652  1.11998348  0.25000000  1.0
  O  O25  1  -0.11998348  0.61998348  0.25000000  1.0
  O  O26  1  0.11998348  1.38001652  0.75000000  1.0
  O  O27  1  -0.38001652  0.88001652  0.75000000  1.0
