# generated using pymatgen
data_KClO4
_symmetry_space_group_name_H-M   'P 1'
_cell_length_a   7.94428223
_cell_length_b   7.82472991
_cell_length_c   7.11254329
_cell_angle_alpha   90.00000000
_cell_angle_beta   90.00000000
_cell_angle_gamma   90.00000000
_symmetry_Int_Tables_number   1
_chemical_formula_structural   KClO4
_chemical_formula_sum   'K4 Cl4 O16'
_cell_volume   442.12893978
_cell_formula_units_Z   4
loop_
 _symmetry_equiv_pos_site_id
 _symmetry_equiv_pos_as_xyz
  1  'x, y, z'
loop_
 _atom_site_type_symbol
 _atom_site_label
 _atom_site_symmetry_multiplicity
 _atom_site_fract_x
 _atom_site_fract_y
 _atom_site_fract_z
 _atom_site_occupancy
  K  K0  1  0.24769664  0.25000000  0.56977392  1.0
  K  K1  1  0.74769664  0.25000000  -0.06977392  1.0
  K  K2  1  0.75230336  0.75000000  0.43022608  1.0
  K  K3  1  0.25230336  0.75000000  1.06977392  1.0
  Cl  Cl4  1  0.24779941  0.25000000  0.07059168  1.0
  Cl  Cl5  1  0.74779941  0.25000000  0.42940832  1.0
  Cl  Cl6  1  0.75220059  0.75000000  0.92940832  1.0
  Cl  Cl7  1  0.25220059  0.75000000  0.57059168  1.0
  O  O8  1  0.39740786  0.25000000  -0.05056971  1.0
  O  O9  1  0.89740786  0.25000000  0.55056971  1.0
  O  O10  1  0.60259214  0.75000000  1.05056971  1.0
  O  O11  1  0.10259214  0.75000000  0.44943029  1.0
  O  O12  1  0.09799162  0.25000000  -0.05019309  1.0
  O  O13  1  0.59799162  0.25000000  0.55019309  1.0
  O  O14  1  0.90200838  0.75000000  1.05019309  1.0
  O  O15  1  0.40200838  0.75000000  0.44980691  1.0
  O  O16  1  0.24794113  0.09762437  0.19121349  1.0
  O  O17  1  0.74794113  0.40237563  0.30878651  1.0
  O  O18  1  0.75205887  0.59762437  0.80878651  1.0
  O  O19  1  0.25205887  0.90237563  0.69121349  1.0
  O  O20  1  0.75205887  0.90237563  0.80878651  1.0
  O  O21  1  0.25205887  0.59762437  0.69121349  1.0
  O  O22  1  0.24794113  0.40237563  0.19121349  1.0
  O  O23  1  0.74794113  0.09762437  0.30878651  1.0
