# generated using pymatgen
data_Rb2AgC3(SN)3
_symmetry_space_group_name_H-M   'P 1'
_cell_length_a   9.45796704
_cell_length_b   16.53208940
_cell_length_c   8.02455031
_cell_angle_alpha   90.00000000
_cell_angle_beta   108.00118590
_cell_angle_gamma   90.00000000
_symmetry_Int_Tables_number   1
_chemical_formula_structural   Rb2AgC3(SN)3
_chemical_formula_sum   'Rb8 Ag4 C12 S12 N12'
_cell_volume   1193.30002636
_cell_formula_units_Z   4
loop_
 _symmetry_equiv_pos_site_id
 _symmetry_equiv_pos_as_xyz
  1  'x, y, z'
loop_
 _atom_site_type_symbol
 _atom_site_label
 _atom_site_symmetry_multiplicity
 _atom_site_fract_x
 _atom_site_fract_y
 _atom_site_fract_z
 _atom_site_occupancy
  Rb  Rb0  1  0.80353434  0.15595049  0.94891024  1.0
  Rb  Rb1  1  0.80353434  0.34404951  0.44891024  1.0
  Rb  Rb2  1  0.19646566  0.65595049  0.55108976  1.0
  Rb  Rb3  1  0.19646566  0.84404951  0.05108976  1.0
  Rb  Rb4  1  0.64123757  0.49010440  0.82178523  1.0
  Rb  Rb5  1  0.64123757  0.00989560  0.32178523  1.0
  Rb  Rb6  1  0.35876243  0.99010440  0.67821477  1.0
  Rb  Rb7  1  0.35876243  0.50989560  0.17821477  1.0
  Ag  Ag8  1  0.76166512  0.76027120  0.78492432  1.0
  Ag  Ag9  1  0.76166512  0.73972880  0.28492432  1.0
  Ag  Ag10  1  0.23833488  0.26027120  0.71507568  1.0
  Ag  Ag11  1  0.23833488  0.23972880  0.21507568  1.0
  C  C12  1  0.49374989  0.68313572  0.93519196  1.0
  C  C13  1  0.49374989  0.81686428  0.43519196  1.0
  C  C14  1  0.50625011  0.18313572  0.56480804  1.0
  C  C15  1  0.50625011  0.31686428  0.06480804  1.0
  C  C16  1  0.93907871  0.34541135  0.97988886  1.0
  C  C17  1  0.93907871  0.15458865  0.47988886  1.0
  C  C18  1  0.06092129  0.84541135  0.52011114  1.0
  C  C19  1  0.06092129  0.65458865  0.02011114  1.0
  C  C20  1  0.75016435  0.95165733  0.89107831  1.0
  C  C21  1  0.75016435  0.54834267  0.39107831  1.0
  C  C22  1  0.24983565  0.45165733  0.60892169  1.0
  C  C23  1  0.24983565  0.04834267  0.10892169  1.0
  S  S24  1  0.93865520  0.64098708  0.82458368  1.0
  S  S25  1  0.93865520  0.85901292  0.32458368  1.0
  S  S26  1  0.06134480  0.14098708  0.67541632  1.0
  S  S27  1  0.06134480  0.35901292  0.17541632  1.0
  S  S28  1  0.84654422  0.90720813  0.77722739  1.0
  S  S29  1  0.84654422  0.59279187  0.27722739  1.0
  S  S30  1  0.15345578  0.40720813  0.72277261  1.0
  S  S31  1  0.15345578  0.09279187  0.22277261  1.0
  S  S32  1  0.57112694  0.77378591  0.97060186  1.0
  S  S33  1  0.57112694  0.72621409  0.47060186  1.0
  S  S34  1  0.42887306  0.27378591  0.52939814  1.0
  S  S35  1  0.42887306  0.22621409  0.02939814  1.0
  N  N36  1  0.84833369  0.33674659  0.84127963  1.0
  N  N37  1  0.84833369  0.16325341  0.34127963  1.0
  N  N38  1  0.15166631  0.83674659  0.65872037  1.0
  N  N39  1  0.15166631  0.66325341  0.15872037  1.0
  N  N40  1  0.68167581  0.98596308  0.97055243  1.0
  N  N41  1  0.68167581  0.51403692  0.47055243  1.0
  N  N42  1  0.31832419  0.48596308  0.52944757  1.0
  N  N43  1  0.31832419  0.01403692  0.02944757  1.0
  N  N44  1  0.43609595  0.61883147  0.90822012  1.0
  N  N45  1  0.43609595  0.88116853  0.40822012  1.0
  N  N46  1  0.56390405  0.11883147  0.59177988  1.0
  N  N47  1  0.56390405  0.38116853  0.09177988  1.0
