# generated using pymatgen
data_CdI2
_symmetry_space_group_name_H-M   'P 1'
_cell_length_a   4.32829934
_cell_length_b   4.32829934
_cell_length_c   83.44387072
_cell_angle_alpha   90.00000000
_cell_angle_beta   90.00000000
_cell_angle_gamma   120.00000000
_symmetry_Int_Tables_number   1
_chemical_formula_structural   CdI2
_chemical_formula_sum   'Cd11 I22'
_cell_volume   1353.81602455
_cell_formula_units_Z   11
loop_
 _symmetry_equiv_pos_site_id
 _symmetry_equiv_pos_as_xyz
  1  'x, y, z'
loop_
 _atom_site_type_symbol
 _atom_site_label
 _atom_site_symmetry_multiplicity
 _atom_site_fract_x
 _atom_site_fract_y
 _atom_site_fract_z
 _atom_site_occupancy
  Cd  Cd0  1  0.00000000  0.00000000  0.02272876  1.0
  Cd  Cd1  1  0.00000000  0.00000000  0.11362918  1.0
  Cd  Cd2  1  0.00000000  0.00000000  0.20455890  1.0
  Cd  Cd3  1  0.00000000  0.00000000  0.29546786  1.0
  Cd  Cd4  1  0.00000000  0.00000000  0.38635239  1.0
  Cd  Cd5  1  0.00000000  0.00000000  0.56819065  1.0
  Cd  Cd6  1  0.00000000  0.00000000  0.65909118  1.0
  Cd  Cd7  1  0.00000000  0.00000000  0.74998765  1.0
  Cd  Cd8  1  0.66666667  0.33333333  0.47726844  1.0
  Cd  Cd9  1  0.66666667  0.33333333  0.84091926  1.0
  Cd  Cd10  1  0.66666667  0.33333333  0.93180763  1.0
  I  I11  1  0.00000000  0.00000000  0.49787052  1.0
  I  I12  1  0.00000000  0.00000000  0.86151267  1.0
  I  I13  1  0.00000000  0.00000000  0.95241114  1.0
  I  I14  1  0.66666667  0.33333333  0.04332312  1.0
  I  I15  1  0.66666667  0.33333333  0.13423155  1.0
  I  I16  1  0.66666667  0.33333333  0.22516260  1.0
  I  I17  1  0.66666667  0.33333333  0.31607242  1.0
  I  I18  1  0.66666667  0.33333333  0.40695573  1.0
  I  I19  1  0.66666667  0.33333333  0.58879331  1.0
  I  I20  1  0.66666667  0.33333333  0.67968531  1.0
  I  I21  1  0.66666667  0.33333333  0.77058252  1.0
  I  I22  1  0.33333333  0.66666667  0.00213512  1.0
  I  I23  1  0.33333333  0.66666667  0.09302467  1.0
  I  I24  1  0.33333333  0.66666667  0.18395455  1.0
  I  I25  1  0.33333333  0.66666667  0.27486435  1.0
  I  I26  1  0.33333333  0.66666667  0.36574744  1.0
  I  I27  1  0.33333333  0.66666667  0.45666519  1.0
  I  I28  1  0.33333333  0.66666667  0.54758911  1.0
  I  I29  1  0.33333333  0.66666667  0.63849538  1.0
  I  I30  1  0.33333333  0.66666667  0.72939196  1.0
  I  I31  1  0.33333333  0.66666667  0.82032558  1.0
  I  I32  1  0.33333333  0.66666667  0.91120384  1.0
