# generated using pymatgen
data_La3SbO7
_symmetry_space_group_name_H-M   'P 1'
_cell_length_a   6.80267292
_cell_length_b   6.80267292
_cell_length_c   7.84968014
_cell_angle_alpha   90.00000000
_cell_angle_beta   90.00000000
_cell_angle_gamma   68.98307957
_symmetry_Int_Tables_number   1
_chemical_formula_structural   La3SbO7
_chemical_formula_sum   'La6 Sb2 O14'
_cell_volume   339.08894006
_cell_formula_units_Z   2
loop_
 _symmetry_equiv_pos_site_id
 _symmetry_equiv_pos_as_xyz
  1  'x, y, z'
loop_
 _atom_site_type_symbol
 _atom_site_label
 _atom_site_symmetry_multiplicity
 _atom_site_fract_x
 _atom_site_fract_y
 _atom_site_fract_z
 _atom_site_occupancy
  La  La0  1  0.06380918  0.47948127  0.25000000  1.0
  La  La1  1  -0.52051873  1.06380918  0.75000000  1.0
  La  La2  1  0.52051873  0.93619082  0.25000000  1.0
  La  La3  1  -0.06380918  1.52051873  0.75000000  1.0
  La  La4  1  0.00000000  0.00000000  0.50000000  1.0
  La  La5  1  0.00000000  0.00000000  0.00000000  1.0
  Sb  Sb6  1  0.50000000  0.50000000  0.50000000  1.0
  Sb  Sb7  1  0.50000000  0.50000000  0.00000000  1.0
  O  O8  1  -0.18936290  1.43963246  0.46720195  1.0
  O  O9  1  -0.18936290  1.43963246  0.03279805  1.0
  O  O10  1  0.43963246  0.81063710  0.96720195  1.0
  O  O11  1  0.43963246  0.81063710  0.53279805  1.0
  O  O12  1  -0.43963246  1.18936290  0.46720195  1.0
  O  O13  1  -0.43963246  1.18936290  0.03279805  1.0
  O  O14  1  0.18936290  0.56036754  0.96720195  1.0
  O  O15  1  0.18936290  0.56036754  0.53279805  1.0
  O  O16  1  -0.10972073  1.84797255  0.25000000  1.0
  O  O17  1  0.84797255  0.89027927  0.75000000  1.0
  O  O18  1  -0.84797255  1.10972073  0.25000000  1.0
  O  O19  1  0.10972073  0.15202745  0.75000000  1.0
  O  O20  1  0.42220171  0.57779829  0.25000000  1.0
  O  O21  1  -0.42220171  1.42220171  0.75000000  1.0
