# generated using pymatgen
data_SrCu2Te2(ClO3)2
_symmetry_space_group_name_H-M   'P 1'
_cell_length_a   7.30933205
_cell_length_b   7.38537204
_cell_length_c   8.46648216
_cell_angle_alpha   90.00000000
_cell_angle_beta   96.35101295
_cell_angle_gamma   90.00000000
_symmetry_Int_Tables_number   1
_chemical_formula_structural   SrCu2Te2(ClO3)2
_chemical_formula_sum   'Sr2 Cu4 Te4 Cl4 O12'
_cell_volume   454.23388495
_cell_formula_units_Z   2
loop_
 _symmetry_equiv_pos_site_id
 _symmetry_equiv_pos_as_xyz
  1  'x, y, z'
loop_
 _atom_site_type_symbol
 _atom_site_label
 _atom_site_symmetry_multiplicity
 _atom_site_fract_x
 _atom_site_fract_y
 _atom_site_fract_z
 _atom_site_occupancy
  Cl  Cl0  1  0.90547668  0.75755923  0.23733945  1.0
  Cl  Cl1  1  0.09452332  0.25755923  0.76266055  1.0
  Cl  Cl2  1  0.45697119  0.73760843  0.39498281  1.0
  Cl  Cl3  1  0.54302881  0.23760843  0.60501719  1.0
  Cu  Cu4  1  0.64217233  -0.00546728  0.91837797  1.0
  Cu  Cu5  1  0.35782767  0.49453272  0.08162203  1.0
  Cu  Cu6  1  0.67596535  0.51052288  0.42304402  1.0
  Cu  Cu7  1  0.32403465  0.01052288  0.57695598  1.0
  O  O8  1  0.85697857  0.87997603  0.84800156  1.0
  O  O9  1  0.14302143  0.37997603  0.15199844  1.0
  O  O10  1  0.80929013  0.60570906  0.61937215  1.0
  O  O11  1  0.19070987  0.10570906  0.38062785  1.0
  O  O12  1  0.53811973  0.55753302  0.93999473  1.0
  O  O13  1  0.46188027  0.05753302  0.06000527  1.0
  O  O14  1  0.13844087  0.82649352  0.62645248  1.0
  O  O15  1  0.86155913  0.32649352  0.37354752  1.0
  O  O16  1  0.46787579  0.88990755  0.75670119  1.0
  O  O17  1  0.53212421  0.38990755  0.24329881  1.0
  O  O18  1  0.19907477  0.66588840  0.94444091  1.0
  O  O19  1  0.80092523  0.16588840  0.05555909  1.0
  Sr  Sr20  1  0.87413502  0.50691460  0.94189575  1.0
  Sr  Sr21  1  0.12586498  0.00691460  0.05810425  1.0
  Te  Te22  1  0.86953390  0.86148790  0.61716449  1.0
  Te  Te23  1  0.13046610  0.36148790  0.38283551  1.0
  Te  Te24  1  0.35237836  0.64216666  0.76538260  1.0
  Te  Te25  1  0.64762164  0.14216666  0.23461740  1.0
