# generated using pymatgen
data_RbAg2SbS4
_symmetry_space_group_name_H-M   'P 1'
_cell_length_a   6.73278222
_cell_length_b   6.73278222
_cell_length_c   16.93161521
_cell_angle_alpha   90.00000000
_cell_angle_beta   90.00000000
_cell_angle_gamma   120.00000000
_symmetry_Int_Tables_number   1
_chemical_formula_structural   RbAg2SbS4
_chemical_formula_sum   'Rb3 Ag6 Sb3 S12'
_cell_volume   664.68848528
_cell_formula_units_Z   3
loop_
 _symmetry_equiv_pos_site_id
 _symmetry_equiv_pos_as_xyz
  1  'x, y, z'
loop_
 _atom_site_type_symbol
 _atom_site_label
 _atom_site_symmetry_multiplicity
 _atom_site_fract_x
 _atom_site_fract_y
 _atom_site_fract_z
 _atom_site_occupancy
  Rb  Rb0  1  0.55990946  0.55990946  0.00000000  1.0
  Rb  Rb1  1  0.00000000  0.44009054  0.66666667  1.0
  Rb  Rb2  1  0.44009054  0.00000000  0.33333333  1.0
  Ag  Ag3  1  0.31310806  0.90907263  0.09401372  1.0
  Ag  Ag4  1  0.90907263  0.31310806  0.90598628  1.0
  Ag  Ag5  1  0.59596457  0.68689194  0.76068039  1.0
  Ag  Ag6  1  0.09092737  0.40403543  0.42734705  1.0
  Ag  Ag7  1  0.68689194  0.59596457  0.23931961  1.0
  Ag  Ag8  1  0.40403543  0.09092737  0.57265295  1.0
  Sb  Sb9  1  0.71932978  0.71932978  0.50000000  1.0
  Sb  Sb10  1  0.00000000  0.28067022  0.16666667  1.0
  Sb  Sb11  1  0.28067022  0.00000000  0.83333333  1.0
  S  S12  1  0.47516528  0.97250736  0.71959046  1.0
  S  S13  1  0.97250736  0.47516528  0.28040954  1.0
  S  S14  1  0.49734208  0.52483472  0.38625713  1.0
  S  S15  1  0.02749264  0.50265792  0.05292380  1.0
  S  S16  1  0.52483472  0.49734208  0.61374287  1.0
  S  S17  1  0.50265792  0.02749264  0.94707620  1.0
  S  S18  1  0.90590441  0.66794860  0.83902322  1.0
  S  S19  1  0.66794860  0.90590441  0.16097678  1.0
  S  S20  1  0.76204419  0.09409559  0.50568989  1.0
  S  S21  1  0.33205140  0.23795581  0.17235655  1.0
  S  S22  1  0.09409559  0.76204419  0.49431011  1.0
  S  S23  1  0.23795581  0.33205140  0.82764345  1.0
