# generated using pymatgen
data_Hg6S4Br3Cl
_symmetry_space_group_name_H-M   'P 1'
_cell_length_a   10.47457732
_cell_length_b   10.47457732
_cell_length_c   10.56314249
_cell_angle_alpha   66.10079746
_cell_angle_beta   113.89920254
_cell_angle_gamma   126.31392663
_symmetry_Int_Tables_number   1
_chemical_formula_structural   Hg6S4Br3Cl
_chemical_formula_sum   'Hg12 S8 Br6 Cl2'
_cell_volume   832.05097590
_cell_formula_units_Z   2
loop_
 _symmetry_equiv_pos_site_id
 _symmetry_equiv_pos_as_xyz
  1  'x, y, z'
loop_
 _atom_site_type_symbol
 _atom_site_label
 _atom_site_symmetry_multiplicity
 _atom_site_fract_x
 _atom_site_fract_y
 _atom_site_fract_z
 _atom_site_occupancy
  Hg  Hg0  1  0.65668342  -0.19592495  0.70821942  1.0
  Hg  Hg1  1  1.19592495  0.34331658  0.70821942  1.0
  Hg  Hg2  1  0.80407505  0.65668342  0.29178058  1.0
  Hg  Hg3  1  0.34331658  0.19592495  0.29178058  1.0
  Hg  Hg4  1  0.60519327  -0.13221694  0.99610443  1.0
  Hg  Hg5  1  1.13221694  0.39480673  0.99610443  1.0
  Hg  Hg6  1  0.86778306  0.60519327  0.00389557  1.0
  Hg  Hg7  1  0.39480673  0.13221694  0.00389557  1.0
  Hg  Hg8  1  0.92865332  0.07134668  0.27579946  1.0
  Hg  Hg9  1  0.07134668  -0.07134668  0.72420054  1.0
  Hg  Hg10  1  0.78545607  0.21454393  0.71458833  1.0
  Hg  Hg11  1  0.21454393  -0.21454393  0.28541167  1.0
  S  S12  1  0.54902835  -0.05921641  0.73850966  1.0
  S  S13  1  1.05921641  0.45097165  0.73850966  1.0
  S  S14  1  0.94078359  0.54902835  0.26149034  1.0
  S  S15  1  0.45097165  0.05921641  0.26149034  1.0
  S  S16  1  0.32207623  0.19152830  0.74651705  1.0
  S  S17  1  0.80847170  0.67792377  0.74651705  1.0
  S  S18  1  1.19152830  0.32207623  0.25348295  1.0
  S  S19  1  0.67792377  -0.19152830  0.25348295  1.0
  Br  Br20  1  0.88182895  0.11817105  0.51009675  1.0
  Br  Br21  1  0.11817105  -0.11817105  0.48990325  1.0
  Br  Br22  1  0.75125346  0.24874654  0.99834708  1.0
  Br  Br23  1  0.24874654  -0.24874654  0.00165292  1.0
  Br  Br24  1  0.50000000  0.50000000  0.00000000  1.0
  Br  Br25  1  -0.00000000  -0.00000000  -0.00000000  1.0
  Cl  Cl26  1  0.62773919  0.37226081  0.48326518  1.0
  Cl  Cl27  1  0.37226081  -0.37226081  0.51673482  1.0
