# generated using pymatgen
data_Be15(Nb3Ni4)2
_symmetry_space_group_name_H-M   'P 1'
_cell_length_a   7.57159997
_cell_length_b   7.57159997
_cell_length_c   7.57159997
_cell_angle_alpha   60.00000000
_cell_angle_beta   60.00000000
_cell_angle_gamma   60.00000000
_symmetry_Int_Tables_number   1
_chemical_formula_structural   Be15(Nb3Ni4)2
_chemical_formula_sum   'Be15 Nb6 Ni8'
_cell_volume   306.93611030
_cell_formula_units_Z   1
loop_
 _symmetry_equiv_pos_site_id
 _symmetry_equiv_pos_as_xyz
  1  'x, y, z'
loop_
 _atom_site_type_symbol
 _atom_site_label
 _atom_site_symmetry_multiplicity
 _atom_site_fract_x
 _atom_site_fract_y
 _atom_site_fract_z
 _atom_site_occupancy
  Be  Be0  1  0.67360140  0.67360140  -0.32639860  1.0
  Be  Be1  1  1.32639860  0.32639860  0.02080419  1.0
  Be  Be2  1  1.32639860  0.02080419  0.32639860  1.0
  Be  Be3  1  0.97919581  0.67360140  -0.32639860  1.0
  Be  Be4  1  1.02080419  0.32639860  0.32639860  1.0
  Be  Be5  1  0.67360140  0.97919581  -0.32639860  1.0
  Be  Be6  1  0.67360140  0.67360140  -0.02080419  1.0
  Be  Be7  1  1.32639860  0.32639860  0.32639860  1.0
  Be  Be8  1  1.50000000  -0.00000000  0.00000000  1.0
  Be  Be9  1  1.00000000  0.50000000  -0.50000000  1.0
  Be  Be10  1  -0.00000000  1.50000000  0.00000000  1.0
  Be  Be11  1  0.50000000  1.00000000  -0.50000000  1.0
  Be  Be12  1  0.00000000  -0.00000000  0.50000000  1.0
  Be  Be13  1  0.50000000  -0.50000000  1.00000000  1.0
  Be  Be14  1  0.00000000  0.00000000  0.00000000  1.0
  Nb  Nb15  1  -0.70277352  0.70277352  0.70277352  1.0
  Nb  Nb16  1  -0.29722648  0.29722648  0.70277352  1.0
  Nb  Nb17  1  0.70277352  0.70277352  -0.70277352  1.0
  Nb  Nb18  1  0.29722648  1.29722648  -0.29722648  1.0
  Nb  Nb19  1  0.29722648  -0.29722648  1.29722648  1.0
  Nb  Nb20  1  -0.29722648  0.29722648  0.29722648  1.0
  Ni  Ni21  1  0.87744042  0.87744042  -0.12255958  1.0
  Ni  Ni22  1  1.12255958  0.12255958  0.63232125  1.0
  Ni  Ni23  1  1.12255958  0.63232125  0.12255958  1.0
  Ni  Ni24  1  0.36767875  0.87744042  -0.12255958  1.0
  Ni  Ni25  1  1.63232125  0.12255958  0.12255958  1.0
  Ni  Ni26  1  0.87744042  0.36767875  -0.12255958  1.0
  Ni  Ni27  1  0.87744042  0.87744042  -0.63232125  1.0
  Ni  Ni28  1  1.12255958  0.12255958  0.12255958  1.0
