# generated using pymatgen
data_Cr2Hg2H2O9
_symmetry_space_group_name_H-M   'P 1'
_cell_length_a   6.51856358
_cell_length_b   6.51856358
_cell_length_c   14.11014199
_cell_angle_alpha   73.75119564
_cell_angle_beta   106.24880436
_cell_angle_gamma   131.41843608
_symmetry_Int_Tables_number   1
_chemical_formula_structural   Cr2Hg2H2O9
_chemical_formula_sum   'Cr4 Hg4 H4 O18'
_cell_volume   427.90159331
_cell_formula_units_Z   2
loop_
 _symmetry_equiv_pos_site_id
 _symmetry_equiv_pos_as_xyz
  1  'x, y, z'
loop_
 _atom_site_type_symbol
 _atom_site_label
 _atom_site_symmetry_multiplicity
 _atom_site_fract_x
 _atom_site_fract_y
 _atom_site_fract_z
 _atom_site_occupancy
  Cr  Cr0  1  0.65551770  -0.04296643  0.90054071  1.0
  Cr  Cr1  1  1.04296643  -0.65551770  0.40054071  1.0
  Cr  Cr2  1  0.95703357  0.65551770  0.59945929  1.0
  Cr  Cr3  1  1.34448230  0.04296643  0.09945929  1.0
  Hg  Hg4  1  1.58907114  -0.16870138  0.62184781  1.0
  Hg  Hg5  1  1.16870138  -0.58907114  0.12184781  1.0
  Hg  Hg6  1  0.83129862  0.58907114  0.87815219  1.0
  Hg  Hg7  1  0.41092886  0.16870138  0.37815219  1.0
  H  H8  1  0.27128682  0.18989171  0.71705458  1.0
  H  H9  1  0.81010829  0.72871318  0.21705458  1.0
  H  H10  1  1.18989171  -0.72871318  0.78294542  1.0
  H  H11  1  1.72871318  -0.18989171  0.28294542  1.0
  O  O12  1  1.81250586  -0.09579942  0.84034507  1.0
  O  O13  1  1.09579942  -0.81250586  0.34034507  1.0
  O  O14  1  0.90420058  0.81250586  0.65965493  1.0
  O  O15  1  0.18749414  0.09579942  0.15965493  1.0
  O  O16  1  1.70361520  0.11856403  0.42061648  1.0
  O  O17  1  0.88143597  0.29638480  0.92061648  1.0
  O  O18  1  1.11856403  -0.29638480  0.07938352  1.0
  O  O19  1  0.29638480  -0.11856403  0.57938352  1.0
  O  O20  1  0.37518913  -0.11933245  0.83362167  1.0
  O  O21  1  1.11933245  -0.37518913  0.33362167  1.0
  O  O22  1  0.88066755  0.37518913  0.66637833  1.0
  O  O23  1  1.62481087  0.11933245  0.16637833  1.0
  O  O24  1  0.41344353  0.23117187  0.99321315  1.0
  O  O25  1  0.76882813  0.58655647  0.49321315  1.0
  O  O26  1  1.23117187  -0.58655647  0.50678685  1.0
  O  O27  1  1.58655647  -0.23117187  0.00678685  1.0
  O  O28  1  0.34423463  0.34423463  0.75000000  1.0
  O  O29  1  0.65576537  0.65576537  0.25000000  1.0
