# generated using pymatgen
data_Cs2LaBr5
_symmetry_space_group_name_H-M   'P 1'
_cell_length_a   14.63724303
_cell_length_b   9.72148494
_cell_length_c   9.18578635
_cell_angle_alpha   90.00000000
_cell_angle_beta   90.00000000
_cell_angle_gamma   90.00000000
_symmetry_Int_Tables_number   1
_chemical_formula_structural   Cs2LaBr5
_chemical_formula_sum   'Cs8 La4 Br20'
_cell_volume   1307.09824550
_cell_formula_units_Z   4
loop_
 _symmetry_equiv_pos_site_id
 _symmetry_equiv_pos_as_xyz
  1  'x, y, z'
loop_
 _atom_site_type_symbol
 _atom_site_label
 _atom_site_symmetry_multiplicity
 _atom_site_fract_x
 _atom_site_fract_y
 _atom_site_fract_z
 _atom_site_occupancy
  Cs  Cs0  1  0.67016934  0.99299728  0.43414428  1.0
  Cs  Cs1  1  0.67016934  0.50700272  0.43414428  1.0
  Cs  Cs2  1  0.17016934  0.99299728  0.06585572  1.0
  Cs  Cs3  1  0.17016934  0.50700272  0.06585572  1.0
  Cs  Cs4  1  0.32983066  0.49299728  0.56585572  1.0
  Cs  Cs5  1  0.32983066  0.00700272  0.56585572  1.0
  Cs  Cs6  1  0.82983066  0.49299728  0.93414428  1.0
  Cs  Cs7  1  0.82983066  0.00700272  0.93414428  1.0
  La  La8  1  0.99553554  0.25000000  0.43216359  1.0
  La  La9  1  0.49553554  0.25000000  0.06783641  1.0
  La  La10  1  0.00446446  0.75000000  0.56783641  1.0
  La  La11  1  0.50446446  0.75000000  0.93216359  1.0
  Br  Br12  1  0.82371559  0.25000000  0.60566214  1.0
  Br  Br13  1  0.32371559  0.25000000  0.89433786  1.0
  Br  Br14  1  0.17628441  0.75000000  0.39433786  1.0
  Br  Br15  1  0.67628441  0.75000000  0.10566214  1.0
  Br  Br16  1  0.93369685  0.95636462  0.33900823  1.0
  Br  Br17  1  0.93369685  0.54363538  0.33900823  1.0
  Br  Br18  1  0.43369685  0.95636462  0.16099177  1.0
  Br  Br19  1  0.43369685  0.54363538  0.16099177  1.0
  Br  Br20  1  0.06630315  0.45636462  0.66099177  1.0
  Br  Br21  1  0.06630315  0.04363538  0.66099177  1.0
  Br  Br22  1  0.56630315  0.45636462  0.83900823  1.0
  Br  Br23  1  0.56630315  0.04363538  0.83900823  1.0
  Br  Br24  1  0.98701087  0.25000000  0.10415194  1.0
  Br  Br25  1  0.48701087  0.25000000  0.39584806  1.0
  Br  Br26  1  0.01298913  0.75000000  0.89584806  1.0
  Br  Br27  1  0.51298913  0.75000000  0.60415194  1.0
  Br  Br28  1  0.69321463  0.25000000  0.14534724  1.0
  Br  Br29  1  0.19321463  0.25000000  0.35465276  1.0
  Br  Br30  1  0.30678537  0.75000000  0.85465276  1.0
  Br  Br31  1  0.80678537  0.75000000  0.64534724  1.0
