# generated using pymatgen
data_TiVP
_symmetry_space_group_name_H-M   'P 1'
_cell_length_a   6.35608163
_cell_length_b   3.34340148
_cell_length_c   7.65556021
_cell_angle_alpha   90.00000000
_cell_angle_beta   90.00000000
_cell_angle_gamma   90.00000000
_symmetry_Int_Tables_number   1
_chemical_formula_structural   TiVP
_chemical_formula_sum   'Ti4 V4 P4'
_cell_volume   162.68779498
_cell_formula_units_Z   4
loop_
 _symmetry_equiv_pos_site_id
 _symmetry_equiv_pos_as_xyz
  1  'x, y, z'
loop_
 _atom_site_type_symbol
 _atom_site_label
 _atom_site_symmetry_multiplicity
 _atom_site_fract_x
 _atom_site_fract_y
 _atom_site_fract_z
 _atom_site_occupancy
  Ti  Ti0  1  0.95786064  0.75000000  0.66785987  1.0
  Ti  Ti1  1  0.45786064  0.75000000  0.83214013  1.0
  Ti  Ti2  1  0.04213936  0.25000000  0.33214013  1.0
  Ti  Ti3  1  0.54213936  0.25000000  0.16785987  1.0
  V  V4  1  0.86663085  0.75000000  0.05964246  1.0
  V  V5  1  0.36663085  0.75000000  0.44035754  1.0
  V  V6  1  0.13336915  0.25000000  0.94035754  1.0
  V  V7  1  0.63336915  0.25000000  0.55964246  1.0
  P  P8  1  0.74549591  0.75000000  0.35996656  1.0
  P  P9  1  0.24549591  0.75000000  0.14003344  1.0
  P  P10  1  0.25450409  0.25000000  0.64003344  1.0
  P  P11  1  0.75450409  0.25000000  0.85996656  1.0
