# generated using pymatgen
data_K(SnAu)4
_symmetry_space_group_name_H-M   'P 1'
_cell_length_a   15.80429683
_cell_length_b   15.98398973
_cell_length_c   8.37960018
_cell_angle_alpha   73.53387863
_cell_angle_beta   75.90448290
_cell_angle_gamma   30.56163847
_symmetry_Int_Tables_number   1
_chemical_formula_structural   K(SnAu)4
_chemical_formula_sum   'K4 Sn16 Au16'
_cell_volume   1032.18471466
_cell_formula_units_Z   4
loop_
 _symmetry_equiv_pos_site_id
 _symmetry_equiv_pos_as_xyz
  1  'x, y, z'
loop_
 _atom_site_type_symbol
 _atom_site_label
 _atom_site_symmetry_multiplicity
 _atom_site_fract_x
 _atom_site_fract_y
 _atom_site_fract_z
 _atom_site_occupancy
  K  K0  1  0.12500000  0.12500000  1.62500000  1.0
  K  K1  1  0.12500000  0.62500000  1.12500000  1.0
  K  K2  1  0.12500000  0.12500000  1.12500000  1.0
  K  K3  1  0.62500000  0.12500000  1.12500000  1.0
  Sn  Sn4  1  0.18322969  -0.16545284  1.54514840  1.0
  Sn  Sn5  1  0.43707475  0.54514840  -0.16545284  1.0
  Sn  Sn6  1  -0.58454716  1.06677031  0.81292525  1.0
  Sn  Sn7  1  -0.29514840  0.81292525  1.06677031  1.0
  Sn  Sn8  1  0.54514840  0.43707475  1.18322969  1.0
  Sn  Sn9  1  -0.16545284  0.18322969  0.43707475  1.0
  Sn  Sn10  1  -0.18707475  0.70485160  0.41545284  1.0
  Sn  Sn11  1  0.06677031  0.41545284  0.70485160  1.0
  Sn  Sn12  1  -0.26601024  0.46424188  0.26395460  1.0
  Sn  Sn13  1  0.53781376  0.26395460  1.46424188  1.0
  Sn  Sn14  1  -0.21424188  0.51601024  0.71218624  1.0
  Sn  Sn15  1  -0.01395460  0.71218624  0.51601024  1.0
  Sn  Sn16  1  0.26395460  0.53781376  -0.26601024  1.0
  Sn  Sn17  1  0.46424188  -0.26601024  1.53781376  1.0
  Sn  Sn18  1  -0.28781376  0.98604540  0.78575812  1.0
  Sn  Sn19  1  -0.48398976  0.78575812  0.98604540  1.0
  Au  Au20  1  0.28677758  0.35402929  1.49291807  1.0
  Au  Au21  1  -0.13372493  0.49291807  0.35402929  1.0
  Au  Au22  1  -0.10402929  0.96322242  0.38372493  1.0
  Au  Au23  1  -0.24291807  0.38372493  0.96322242  1.0
  Au  Au24  1  0.49291807  -0.13372493  1.28677758  1.0
  Au  Au25  1  0.35402929  0.28677758  -0.13372493  1.0
  Au  Au26  1  -0.61627507  0.75708193  0.89597071  1.0
  Au  Au27  1  -0.03677758  0.89597071  0.75708193  1.0
  Au  Au28  1  0.25709537  0.64059484  1.39015208  1.0
  Au  Au29  1  -0.28784228  0.39015208  0.64059484  1.0
  Au  Au30  1  -0.39059484  0.99290463  0.53784228  1.0
  Au  Au31  1  -0.14015208  0.53784228  0.99290463  1.0
  Au  Au32  1  0.39015208  -0.28784228  1.25709537  1.0
  Au  Au33  1  0.64059484  0.25709537  -0.28784228  1.0
  Au  Au34  1  -0.46215772  0.85984792  0.60940516  1.0
  Au  Au35  1  -0.00709537  0.60940516  0.85984792  1.0
