# generated using pymatgen
data_MnAs2S2(OF3)4
_symmetry_space_group_name_H-M   'P 1'
_cell_length_a   10.34463825
_cell_length_b   9.28488950
_cell_length_c   11.98446338
_cell_angle_alpha   56.50245095
_cell_angle_beta   48.45889923
_cell_angle_gamma   75.03864982
_symmetry_Int_Tables_number   1
_chemical_formula_structural   MnAs2S2(OF3)4
_chemical_formula_sum   'Mn2 As4 S4 O8 F24'
_cell_volume   707.66917388
_cell_formula_units_Z   2
loop_
 _symmetry_equiv_pos_site_id
 _symmetry_equiv_pos_as_xyz
  1  'x, y, z'
loop_
 _atom_site_type_symbol
 _atom_site_label
 _atom_site_symmetry_multiplicity
 _atom_site_fract_x
 _atom_site_fract_y
 _atom_site_fract_z
 _atom_site_occupancy
  Mn  Mn0  1  0.99161544  -0.00838456  0.00838456  1.0
  Mn  Mn1  1  0.24161544  0.24161544  1.25838456  1.0
  As  As2  1  -0.09375702  0.49037680  1.20320029  1.0
  As  As3  1  1.04679971  -0.15017993  0.34375702  1.0
  As  As4  1  1.49037680  -0.09375702  0.40017993  1.0
  As  As5  1  0.84982007  1.04679971  0.75962320  1.0
  S  S6  1  0.40264347  0.50933752  1.28103235  1.0
  S  S7  1  0.96896765  -0.55698666  0.84735653  1.0
  S  S8  1  1.50933752  0.40264347  -0.19301334  1.0
  S  S9  1  0.44301334  -0.03103235  0.74066248  1.0
  O  O10  1  0.30895276  0.41068799  1.46710493  1.0
  O  O11  1  0.78289507  -0.56325432  0.94104724  1.0
  O  O12  1  1.41068799  0.30895276  -0.18674568  1.0
  O  O13  1  0.43674568  -0.21710493  0.83931201  1.0
  O  O14  1  0.36637988  0.43859120  1.21838867  1.0
  O  O15  1  1.03161133  -0.72664025  0.88362012  1.0
  O  O16  1  1.43859120  0.36637988  -0.02335975  1.0
  O  O17  1  0.27335975  1.03161133  0.81140880  1.0
  F  F18  1  -0.24666677  0.46423742  1.41244792  1.0
  F  F19  1  0.83755208  -0.11998143  0.49666677  1.0
  F  F20  1  1.46423742  -0.24666677  0.36998143  1.0
  F  F21  1  0.88001857  -0.16244792  0.78576258  1.0
  F  F22  1  -0.01305839  0.71815214  1.11168892  1.0
  F  F23  1  0.13831108  0.06678266  1.26305839  1.0
  F  F24  1  1.71815214  -0.01305839  0.18321734  1.0
  F  F25  1  0.06678266  0.13831108  1.53184786  1.0
  F  F26  1  0.74427595  1.09085828  0.67546896  1.0
  F  F27  1  0.57453104  -0.23939680  0.50572405  1.0
  F  F28  1  1.09085828  -0.25572405  0.48939680  1.0
  F  F29  1  0.76060320  0.57453104  1.15914172  1.0
  F  F30  1  0.06955898  0.41788152  1.23744299  1.0
  F  F31  1  1.01255701  -0.02511651  0.18044102  1.0
  F  F32  1  0.41788152  0.06955898  1.27511651  1.0
  F  F33  1  0.97488349  0.01255701  0.83211848  1.0
  F  F34  1  -0.15958093  0.27246725  1.28733488  1.0
  F  F35  1  0.96266512  -0.34977879  0.40958093  1.0
  F  F36  1  1.27246725  -0.15958093  0.59977879  1.0
  F  F37  1  0.65022121  -0.03733488  0.97753275  1.0
  F  F38  1  1.07816870  0.52807779  -0.01263784  1.0
  F  F39  1  1.26263784  -0.15639134  0.17183130  1.0
  F  F40  1  0.52807779  0.07816870  1.40639134  1.0
  F  F41  1  -0.15639134  0.26263784  1.72192221  1.0
