# generated using pymatgen
data_NaTi2Al5O12
_symmetry_space_group_name_H-M   'P 1'
_cell_length_a   9.16705352
_cell_length_b   15.54030351
_cell_length_c   2.94054171
_cell_angle_alpha   90.00000000
_cell_angle_beta   90.00000000
_cell_angle_gamma   90.00000000
_symmetry_Int_Tables_number   1
_chemical_formula_structural   NaTi2Al5O12
_chemical_formula_sum   'Na2 Ti4 Al10 O24'
_cell_volume   418.90602580
_cell_formula_units_Z   2
loop_
 _symmetry_equiv_pos_site_id
 _symmetry_equiv_pos_as_xyz
  1  'x, y, z'
loop_
 _atom_site_type_symbol
 _atom_site_label
 _atom_site_symmetry_multiplicity
 _atom_site_fract_x
 _atom_site_fract_y
 _atom_site_fract_z
 _atom_site_occupancy
  Na  Na0  1  0.50000000  0.50000000  0.00000000  1.0
  Na  Na1  1  0.00000000  0.00000000  0.00000000  1.0
  Ti  Ti2  1  0.26823801  0.85697286  0.00000000  1.0
  Ti  Ti3  1  0.76823801  0.64302714  0.00000000  1.0
  Ti  Ti4  1  0.73176199  0.14302714  0.00000000  1.0
  Ti  Ti5  1  0.23176199  0.35697286  0.00000000  1.0
  Al  Al6  1  0.48722672  0.69906347  0.50000000  1.0
  Al  Al7  1  0.98722672  0.80093653  0.50000000  1.0
  Al  Al8  1  0.51277328  0.30093653  0.50000000  1.0
  Al  Al9  1  0.01277328  0.19906347  0.50000000  1.0
  Al  Al10  1  0.18869313  0.64671532  0.00000000  1.0
  Al  Al11  1  0.68869313  0.85328468  0.00000000  1.0
  Al  Al12  1  0.81130687  0.35328468  0.00000000  1.0
  Al  Al13  1  0.31130687  0.14671532  0.00000000  1.0
  Al  Al14  1  0.50000000  0.00000000  0.50000000  1.0
  Al  Al15  1  0.00000000  0.50000000  0.50000000  1.0
  O  O16  1  0.35895278  0.79524884  0.50000000  1.0
  O  O17  1  0.85895278  0.70475116  0.50000000  1.0
  O  O18  1  0.64104722  0.20475116  0.50000000  1.0
  O  O19  1  0.14104722  0.29524884  0.50000000  1.0
  O  O20  1  0.13240842  0.89402371  0.50000000  1.0
  O  O21  1  0.63240842  0.60597629  0.50000000  1.0
  O  O22  1  0.86759158  0.10597629  0.50000000  1.0
  O  O23  1  0.36759158  0.39402371  0.50000000  1.0
  O  O24  1  0.13315221  0.59352486  0.50000000  1.0
  O  O25  1  0.63315221  0.90647514  0.50000000  1.0
  O  O26  1  0.86684779  0.40647514  0.50000000  1.0
  O  O27  1  0.36684779  0.09352486  0.50000000  1.0
  O  O28  1  0.39280893  0.94884716  0.00000000  1.0
  O  O29  1  0.89280893  0.55115284  0.00000000  1.0
  O  O30  1  0.60719107  0.05115284  0.00000000  1.0
  O  O31  1  0.10719107  0.44884716  0.00000000  1.0
  O  O32  1  0.38363848  0.64802425  0.00000000  1.0
  O  O33  1  0.88363848  0.85197575  0.00000000  1.0
  O  O34  1  0.61636152  0.35197575  0.00000000  1.0
  O  O35  1  0.11636152  0.14802425  0.00000000  1.0
  O  O36  1  0.10549508  0.75244158  0.00000000  1.0
  O  O37  1  0.60549508  0.74755842  0.00000000  1.0
  O  O38  1  0.89450492  0.24755842  0.00000000  1.0
  O  O39  1  0.39450492  0.25244158  0.00000000  1.0
