# generated using pymatgen
data_LiAl(GeO3)2
_symmetry_space_group_name_H-M   'P 1'
_cell_length_a   5.44243492
_cell_length_b   8.45493268
_cell_length_c   9.62674700
_cell_angle_alpha   90.00000000
_cell_angle_beta   100.57056046
_cell_angle_gamma   90.00000000
_symmetry_Int_Tables_number   1
_chemical_formula_structural   LiAl(GeO3)2
_chemical_formula_sum   'Li4 Al4 Ge8 O24'
_cell_volume   435.46134760
_cell_formula_units_Z   4
loop_
 _symmetry_equiv_pos_site_id
 _symmetry_equiv_pos_as_xyz
  1  'x, y, z'
loop_
 _atom_site_type_symbol
 _atom_site_label
 _atom_site_symmetry_multiplicity
 _atom_site_fract_x
 _atom_site_fract_y
 _atom_site_fract_z
 _atom_site_occupancy
  Li  Li0  1  0.79794509  0.28578414  0.99156897  1.0
  Li  Li1  1  0.79794509  0.21421586  0.49156897  1.0
  Li  Li2  1  0.20205491  0.78578414  0.50843103  1.0
  Li  Li3  1  0.20205491  0.71421586  0.00843103  1.0
  Al  Al4  1  0.75074283  0.91350095  0.99488255  1.0
  Al  Al5  1  0.75074283  0.58649905  0.49488255  1.0
  Al  Al6  1  0.24925717  0.41350095  0.50511745  1.0
  Al  Al7  1  0.24925717  0.08649905  0.00511745  1.0
  Ge  Ge8  1  0.92794218  0.91525696  0.71075922  1.0
  Ge  Ge9  1  0.92794218  0.58474304  0.21075922  1.0
  Ge  Ge10  1  0.07205782  0.41525696  0.78924078  1.0
  Ge  Ge11  1  0.07205782  0.08474304  0.28924078  1.0
  Ge  Ge12  1  0.55465467  0.61371329  0.77733368  1.0
  Ge  Ge13  1  0.55465467  0.88628671  0.27733368  1.0
  Ge  Ge14  1  0.44534533  0.11371329  0.72266632  1.0
  Ge  Ge15  1  0.44534533  0.38628671  0.22266632  1.0
  O  O16  1  0.95485089  0.42790888  0.60279215  1.0
  O  O17  1  0.95485089  0.07209112  0.10279215  1.0
  O  O18  1  0.04514911  0.92790888  0.89720785  1.0
  O  O19  1  0.04514911  0.57209112  0.39720785  1.0
  O  O20  1  0.90953299  0.74629921  0.60598821  1.0
  O  O21  1  0.90953299  0.75370079  0.10598821  1.0
  O  O22  1  0.09046701  0.24629921  0.89401179  1.0
  O  O23  1  0.09046701  0.25370079  0.39401179  1.0
  O  O24  1  0.79888085  0.48818834  0.85742776  1.0
  O  O25  1  0.79888085  0.01181166  0.35742776  1.0
  O  O26  1  0.20111915  0.98818834  0.64257224  1.0
  O  O27  1  0.20111915  0.51181166  0.14257224  1.0
  O  O28  1  0.62500583  0.81275638  0.82180644  1.0
  O  O29  1  0.62500583  0.68724362  0.32180644  1.0
  O  O30  1  0.37499417  0.31275638  0.67819356  1.0
  O  O31  1  0.37499417  0.18724362  0.17819356  1.0
  O  O32  1  0.46337762  0.59956711  0.58906534  1.0
  O  O33  1  0.46337762  0.90043289  0.08906534  1.0
  O  O34  1  0.53662238  0.09956711  0.91093466  1.0
  O  O35  1  0.53662238  0.40043289  0.41093466  1.0
  O  O36  1  0.28723102  0.57274316  0.85461556  1.0
  O  O37  1  0.28723102  0.92725684  0.35461556  1.0
  O  O38  1  0.71276898  0.07274316  0.64538444  1.0
  O  O39  1  0.71276898  0.42725684  0.14538444  1.0
