# generated using pymatgen
data_Zn3(AsO3)2
_symmetry_space_group_name_H-M   'P 1'
_cell_length_a   6.28528023
_cell_length_b   14.56293749
_cell_length_c   7.99855963
_cell_angle_alpha   90.00000000
_cell_angle_beta   90.00000000
_cell_angle_gamma   90.00000000
_symmetry_Int_Tables_number   1
_chemical_formula_structural   Zn3(AsO3)2
_chemical_formula_sum   'Zn12 As8 O24'
_cell_volume   732.12530441
_cell_formula_units_Z   4
loop_
 _symmetry_equiv_pos_site_id
 _symmetry_equiv_pos_as_xyz
  1  'x, y, z'
loop_
 _atom_site_type_symbol
 _atom_site_label
 _atom_site_symmetry_multiplicity
 _atom_site_fract_x
 _atom_site_fract_y
 _atom_site_fract_z
 _atom_site_occupancy
  Zn  Zn0  1  0.43811830  0.72303654  0.71453659  1.0
  Zn  Zn1  1  0.43811830  0.72303654  0.28546341  1.0
  Zn  Zn2  1  0.93811830  0.77696346  0.71453659  1.0
  Zn  Zn3  1  0.93811830  0.77696346  0.28546341  1.0
  Zn  Zn4  1  0.56188170  0.27696346  0.71453659  1.0
  Zn  Zn5  1  0.56188170  0.27696346  0.28546341  1.0
  Zn  Zn6  1  0.06188170  0.22303654  0.71453659  1.0
  Zn  Zn7  1  0.06188170  0.22303654  0.28546341  1.0
  Zn  Zn8  1  0.50000000  0.50000000  0.81454039  1.0
  Zn  Zn9  1  0.50000000  0.50000000  0.18545961  1.0
  Zn  Zn10  1  0.00000000  0.00000000  0.81454039  1.0
  Zn  Zn11  1  0.00000000  0.00000000  0.18545961  1.0
  As  As12  1  0.27244742  0.90344746  0.50000000  1.0
  As  As13  1  0.77244742  0.59655254  0.50000000  1.0
  As  As14  1  0.72755258  0.09655254  0.50000000  1.0
  As  As15  1  0.22755258  0.40344746  0.50000000  1.0
  As  As16  1  0.09330769  0.62688634  0.00000000  1.0
  As  As17  1  0.59330769  0.87311366  -0.00000000  1.0
  As  As18  1  0.90669231  0.37311366  0.00000000  1.0
  As  As19  1  0.40669231  0.12688634  -0.00000000  1.0
  O  O20  1  0.16014993  0.70079205  0.82266888  1.0
  O  O21  1  0.16014993  0.70079205  0.17733112  1.0
  O  O22  1  0.66014993  0.79920795  0.82266888  1.0
  O  O23  1  0.66014993  0.79920795  0.17733112  1.0
  O  O24  1  0.83985007  0.29920795  0.82266888  1.0
  O  O25  1  0.83985007  0.29920795  0.17733112  1.0
  O  O26  1  0.33985007  0.20079205  0.82266888  1.0
  O  O27  1  0.33985007  0.20079205  0.17733112  1.0
  O  O28  1  0.08693107  0.89563993  0.67561483  1.0
  O  O29  1  0.08693107  0.89563993  0.32438517  1.0
  O  O30  1  0.58693107  0.60436007  0.67561483  1.0
  O  O31  1  0.58693107  0.60436007  0.32438517  1.0
  O  O32  1  0.91306893  0.10436007  0.67561483  1.0
  O  O33  1  0.91306893  0.10436007  0.32438517  1.0
  O  O34  1  0.41306893  0.39563993  0.67561483  1.0
  O  O35  1  0.41306893  0.39563993  0.32438517  1.0
  O  O36  1  0.34427615  0.78224385  0.50000000  1.0
  O  O37  1  0.84427615  0.71775615  0.50000000  1.0
  O  O38  1  0.65572385  0.21775615  0.50000000  1.0
  O  O39  1  0.15572385  0.28224385  0.50000000  1.0
  O  O40  1  0.33281864  0.55752692  -0.00000000  1.0
  O  O41  1  0.83281864  0.94247308  0.00000000  1.0
  O  O42  1  0.66718136  0.44247308  -0.00000000  1.0
  O  O43  1  0.16718136  0.05752692  0.00000000  1.0
