# generated using pymatgen
data_Cd(Mo3Se4)2
_symmetry_space_group_name_H-M   'P 1'
_cell_length_a   6.82462178
_cell_length_b   6.82462178
_cell_length_c   6.82462178
_cell_angle_alpha   91.74310944
_cell_angle_beta   91.74310944
_cell_angle_gamma   91.74310944
_symmetry_Int_Tables_number   1
_chemical_formula_structural   Cd(Mo3Se4)2
_chemical_formula_sum   'Cd1 Mo6 Se8'
_cell_volume   317.40948935
_cell_formula_units_Z   1
loop_
 _symmetry_equiv_pos_site_id
 _symmetry_equiv_pos_as_xyz
  1  'x, y, z'
loop_
 _atom_site_type_symbol
 _atom_site_label
 _atom_site_symmetry_multiplicity
 _atom_site_fract_x
 _atom_site_fract_y
 _atom_site_fract_z
 _atom_site_occupancy
  Cd  Cd0  1  0.00000000  0.00000000  0.00000000  1.0
  Mo  Mo1  1  1.58017547  -0.23408521  0.44741288  1.0
  Mo  Mo2  1  0.76591479  0.44741288  0.58017547  1.0
  Mo  Mo3  1  1.44741288  0.58017547  -0.23408521  1.0
  Mo  Mo4  1  0.41982453  1.23408521  -0.44741288  1.0
  Mo  Mo5  1  1.23408521  0.55258712  -0.58017547  1.0
  Mo  Mo6  1  0.55258712  0.41982453  0.23408521  1.0
  Se  Se7  1  0.77127012  0.77127012  0.77127012  1.0
  Se  Se8  1  0.22872988  0.22872988  0.22872988  1.0
  Se  Se9  1  0.62664072  1.26255818  -0.12645301  1.0
  Se  Se10  1  1.26255818  0.87354699  -0.37335928  1.0
  Se  Se11  1  0.87354699  0.62664072  0.26255818  1.0
  Se  Se12  1  1.37335928  -0.26255818  0.12645301  1.0
  Se  Se13  1  0.73744182  0.12645301  0.37335928  1.0
  Se  Se14  1  1.12645301  0.37335928  -0.26255818  1.0
