# generated using pymatgen
data_Na2Ge2S5
_symmetry_space_group_name_H-M   'P 1'
_cell_length_a   9.23893656
_cell_length_b   9.23893656
_cell_length_c   10.73636323
_cell_angle_alpha   90.00000000
_cell_angle_beta   90.00000000
_cell_angle_gamma   91.02883900
_symmetry_Int_Tables_number   1
_chemical_formula_structural   Na2Ge2S5
_chemical_formula_sum   'Na8 Ge8 S20'
_cell_volume   916.28619912
_cell_formula_units_Z   4
loop_
 _symmetry_equiv_pos_site_id
 _symmetry_equiv_pos_as_xyz
  1  'x, y, z'
loop_
 _atom_site_type_symbol
 _atom_site_label
 _atom_site_symmetry_multiplicity
 _atom_site_fract_x
 _atom_site_fract_y
 _atom_site_fract_z
 _atom_site_occupancy
  Na  Na0  1  -0.09300730  1.41909543  0.25000000  1.0
  Na  Na1  1  0.41909543  0.90699270  0.75000000  1.0
  Na  Na2  1  -0.41909543  1.09300730  0.25000000  1.0
  Na  Na3  1  0.09300730  0.58090457  0.75000000  1.0
  Na  Na4  1  0.85172499  0.85172499  0.50000000  1.0
  Na  Na5  1  0.85172499  0.85172499  0.00000000  1.0
  Na  Na6  1  0.14827501  0.14827501  0.50000000  1.0
  Na  Na7  1  0.14827501  0.14827501  0.00000000  1.0
  Ge  Ge8  1  0.25433537  0.74566463  0.41849554  1.0
  Ge  Ge9  1  0.25433537  0.74566463  0.08150446  1.0
  Ge  Ge10  1  -0.25433537  1.25433537  0.91849554  1.0
  Ge  Ge11  1  -0.25433537  1.25433537  0.58150446  1.0
  Ge  Ge12  1  0.31182483  0.40962445  0.25000000  1.0
  Ge  Ge13  1  -0.59037555  1.31182483  0.75000000  1.0
  Ge  Ge14  1  0.59037555  0.68817517  0.25000000  1.0
  Ge  Ge15  1  -0.31182483  1.59037555  0.75000000  1.0
  S  S16  1  0.20365457  0.50443904  0.42069646  1.0
  S  S17  1  0.20365457  0.50443904  0.07930354  1.0
  S  S18  1  -0.49556096  1.20365457  0.92069646  1.0
  S  S19  1  -0.49556096  1.20365457  0.57930354  1.0
  S  S20  1  0.49556096  0.79634543  0.42069646  1.0
  S  S21  1  0.49556096  0.79634543  0.07930354  1.0
  S  S22  1  -0.20365457  1.49556096  0.92069646  1.0
  S  S23  1  -0.20365457  1.49556096  0.57930354  1.0
  S  S24  1  -0.17854674  1.72726595  0.25000000  1.0
  S  S25  1  0.72726595  0.82145326  0.75000000  1.0
  S  S26  1  -0.72726595  1.17854674  0.25000000  1.0
  S  S27  1  0.17854674  0.27273405  0.75000000  1.0
  S  S28  1  0.15780324  0.84219676  0.91760055  1.0
  S  S29  1  0.15780324  0.84219676  0.58239945  1.0
  S  S30  1  -0.15780324  1.15780324  0.41760055  1.0
  S  S31  1  -0.15780324  1.15780324  0.08239945  1.0
  S  S32  1  0.15243747  0.84756253  0.25000000  1.0
  S  S33  1  -0.15243747  1.15243747  0.75000000  1.0
  S  S34  1  -0.44784454  1.44784454  0.25000000  1.0
  S  S35  1  0.44784454  0.55215546  0.75000000  1.0
