# generated using pymatgen
data_Tl2V3O8
_symmetry_space_group_name_H-M   'P 1'
_cell_length_a   8.94820959
_cell_length_b   8.94820959
_cell_length_c   5.73230589
_cell_angle_alpha   90.00000000
_cell_angle_beta   90.00000000
_cell_angle_gamma   90.00000000
_symmetry_Int_Tables_number   1
_chemical_formula_structural   Tl2V3O8
_chemical_formula_sum   'Tl4 V6 O16'
_cell_volume   458.98833958
_cell_formula_units_Z   2
loop_
 _symmetry_equiv_pos_site_id
 _symmetry_equiv_pos_as_xyz
  1  'x, y, z'
loop_
 _atom_site_type_symbol
 _atom_site_label
 _atom_site_symmetry_multiplicity
 _atom_site_fract_x
 _atom_site_fract_y
 _atom_site_fract_z
 _atom_site_occupancy
  O  O0  1  0.30844421  0.58571486  0.40472456  1.0
  O  O1  1  0.80844421  0.91428514  0.40472456  1.0
  O  O2  1  0.41428514  0.30844421  0.40472456  1.0
  O  O3  1  0.91428514  0.19155579  0.40472456  1.0
  O  O4  1  0.69155579  0.41428514  0.40472456  1.0
  O  O5  1  0.19155579  0.08571486  0.40472456  1.0
  O  O6  1  0.58571486  0.69155579  0.40472456  1.0
  O  O7  1  0.08571486  0.80844421  0.40472456  1.0
  O  O8  1  0.36200401  0.13799599  1.00416257  1.0
  O  O9  1  0.86200401  0.36200401  1.00416257  1.0
  O  O10  1  0.63799599  0.86200401  1.00416257  1.0
  O  O11  1  0.13799599  0.63799599  1.00416257  1.0
  O  O12  1  0.00000000  0.50000000  0.39425942  1.0
  O  O13  1  0.50000000  0.00000000  0.39425942  1.0
  O  O14  1  0.50000000  0.50000000  0.03035112  1.0
  O  O15  1  0.00000000  0.00000000  0.03035112  1.0
  Tl  Tl16  1  0.82724827  0.67275173  0.75619131  1.0
  Tl  Tl17  1  0.32724827  0.82724827  0.75619131  1.0
  Tl  Tl18  1  0.17275173  0.32724827  0.75619131  1.0
  Tl  Tl19  1  0.67275173  0.17275173  0.75619131  1.0
  V  V20  1  0.36426651  0.13573349  0.29160481  1.0
  V  V21  1  0.86426651  0.36426651  0.29160481  1.0
  V  V22  1  0.63573349  0.86426651  0.29160481  1.0
  V  V23  1  0.13573349  0.63573349  0.29160481  1.0
  V  V24  1  0.50000000  0.50000000  0.30987384  1.0
  V  V25  1  0.00000000  0.00000000  0.30987384  1.0
