# generated using pymatgen
data_PtPbO12
_symmetry_space_group_name_H-M   'P 1'
_cell_length_a   8.28686151
_cell_length_b   8.28686151
_cell_length_c   8.28686151
_cell_angle_alpha   60.00000000
_cell_angle_beta   60.00000000
_cell_angle_gamma   60.00000000
_symmetry_Int_Tables_number   1
_chemical_formula_structural   PtPbO12
_chemical_formula_sum   'Pt2 Pb2 O24'
_cell_volume   402.39747289
_cell_formula_units_Z   2
loop_
 _symmetry_equiv_pos_site_id
 _symmetry_equiv_pos_as_xyz
  1  'x, y, z'
loop_
 _atom_site_type_symbol
 _atom_site_label
 _atom_site_symmetry_multiplicity
 _atom_site_fract_x
 _atom_site_fract_y
 _atom_site_fract_z
 _atom_site_occupancy
  Pt  Pt0  1  0.50000000  0.50000000  -0.50000000  1.0
  Pt  Pt1  1  0.75000000  -0.25000000  0.75000000  1.0
  Pb  Pb2  1  0.00000000  1.00000000  -0.00000000  1.0
  Pb  Pb3  1  0.25000000  0.25000000  0.25000000  1.0
  O  O4  1  0.73858863  -0.55290205  1.07572480  1.0
  O  O5  1  -0.26141137  1.07572480  0.44709795  1.0
  O  O6  1  -0.19709795  0.51141137  0.51141137  1.0
  O  O7  1  0.17427520  0.51141137  0.51141137  1.0
  O  O8  1  -0.55290205  0.73858863  1.07572480  1.0
  O  O9  1  0.73858863  -0.26141137  1.07572480  1.0
  O  O10  1  0.73858863  0.07572480  0.73858863  1.0
  O  O11  1  -0.55290205  1.07572480  0.73858863  1.0
  O  O12  1  0.51141137  -0.19709795  0.51141137  1.0
  O  O13  1  0.51141137  0.51141137  -0.19709795  1.0
  O  O14  1  0.17427520  0.51141137  -0.19709795  1.0
  O  O15  1  0.17427520  -0.19709795  0.51141137  1.0
  O  O16  1  1.07572480  -0.26141137  0.73858863  1.0
  O  O17  1  -0.55290205  0.73858863  0.73858863  1.0
  O  O18  1  0.51141137  0.17427520  -0.19709795  1.0
  O  O19  1  0.51141137  -0.19709795  0.17427520  1.0
  O  O20  1  0.07572480  0.73858863  0.44709795  1.0
  O  O21  1  1.07572480  -0.55290205  0.73858863  1.0
  O  O22  1  0.73858863  -0.55290205  0.73858863  1.0
  O  O23  1  -0.26141137  0.73858863  0.44709795  1.0
  O  O24  1  0.51141137  0.17427520  0.51141137  1.0
  O  O25  1  -0.19709795  0.17427520  0.51141137  1.0
  O  O26  1  -0.19709795  0.51141137  0.17427520  1.0
  O  O27  1  0.51141137  0.51141137  0.17427520  1.0
