# generated using pymatgen
data_CaInAu
_symmetry_space_group_name_H-M   'P 1'
_cell_length_a   7.41266268
_cell_length_b   4.63738778
_cell_length_c   8.56511647
_cell_angle_alpha   90.00000000
_cell_angle_beta   90.00000000
_cell_angle_gamma   90.00000000
_symmetry_Int_Tables_number   1
_chemical_formula_structural   CaInAu
_chemical_formula_sum   'Ca4 In4 Au4'
_cell_volume   294.42923005
_cell_formula_units_Z   4
loop_
 _symmetry_equiv_pos_site_id
 _symmetry_equiv_pos_as_xyz
  1  'x, y, z'
loop_
 _atom_site_type_symbol
 _atom_site_label
 _atom_site_symmetry_multiplicity
 _atom_site_fract_x
 _atom_site_fract_y
 _atom_site_fract_z
 _atom_site_occupancy
  Ca  Ca0  1  0.97280931  0.75000000  0.68356571  1.0
  Ca  Ca1  1  0.47280931  0.75000000  0.81643429  1.0
  Ca  Ca2  1  0.02719069  0.25000000  0.31643429  1.0
  Ca  Ca3  1  0.52719069  0.25000000  0.18356571  1.0
  In  In4  1  0.84254298  0.75000000  0.06157073  1.0
  In  In5  1  0.34254298  0.75000000  0.43842927  1.0
  In  In6  1  0.15745702  0.25000000  0.93842927  1.0
  In  In7  1  0.65745702  0.25000000  0.56157073  1.0
  Au  Au8  1  0.73261338  0.75000000  0.37757124  1.0
  Au  Au9  1  0.23261338  0.75000000  0.12242876  1.0
  Au  Au10  1  0.26738662  0.25000000  0.62242876  1.0
  Au  Au11  1  0.76738662  0.25000000  0.87757124  1.0
