# generated using pymatgen
data_FeBiO3
_symmetry_space_group_name_H-M   'P 1'
_cell_length_a   5.64057547
_cell_length_b   5.64057547
_cell_length_c   5.64057547
_cell_angle_alpha   59.21456670
_cell_angle_beta   59.21456670
_cell_angle_gamma   59.21456670
_symmetry_Int_Tables_number   1
_chemical_formula_structural   FeBiO3
_chemical_formula_sum   'Fe2 Bi2 O6'
_cell_volume   124.62748702
_cell_formula_units_Z   2
loop_
 _symmetry_equiv_pos_site_id
 _symmetry_equiv_pos_as_xyz
  1  'x, y, z'
loop_
 _atom_site_type_symbol
 _atom_site_label
 _atom_site_symmetry_multiplicity
 _atom_site_fract_x
 _atom_site_fract_y
 _atom_site_fract_z
 _atom_site_occupancy
  Fe  Fe0  1  -0.00485255  -0.00485255  -0.00485255  1.0
  Fe  Fe1  1  0.49514745  0.49514745  -0.50485255  1.0
  Bi  Bi2  1  0.77566263  -0.22433737  -0.22433737  1.0
  Bi  Bi3  1  0.27566263  0.27566263  0.27566263  1.0
  O  O4  1  0.67220919  -0.19111393  0.22069467  1.0
  O  O5  1  0.17220919  0.72069467  -0.69111393  1.0
  O  O6  1  0.72069467  0.30888607  -0.82779081  1.0
  O  O7  1  1.22069467  -0.32779081  -0.19111393  1.0
  O  O8  1  0.30888607  0.17220919  -0.27930533  1.0
  O  O9  1  0.80888607  0.22069467  -0.32779081  1.0
