# generated using pymatgen
data_Lu5Ir3
_symmetry_space_group_name_H-M   'P 1'
_cell_length_a   8.20847612
_cell_length_b   8.20847612
_cell_length_c   6.03174665
_cell_angle_alpha   90.00000000
_cell_angle_beta   90.00000000
_cell_angle_gamma   120.00000000
_symmetry_Int_Tables_number   1
_chemical_formula_structural   Lu5Ir3
_chemical_formula_sum   'Lu10 Ir6'
_cell_volume   351.96445093
_cell_formula_units_Z   2
loop_
 _symmetry_equiv_pos_site_id
 _symmetry_equiv_pos_as_xyz
  1  'x, y, z'
loop_
 _atom_site_type_symbol
 _atom_site_label
 _atom_site_symmetry_multiplicity
 _atom_site_fract_x
 _atom_site_fract_y
 _atom_site_fract_z
 _atom_site_occupancy
  Lu  Lu0  1  0.73759767  0.73759767  0.25000000  1.0
  Lu  Lu1  1  0.73759767  -0.00000000  0.75000000  1.0
  Lu  Lu2  1  -0.00000000  0.73759767  0.75000000  1.0
  Lu  Lu3  1  -0.00000000  0.26240233  0.25000000  1.0
  Lu  Lu4  1  0.26240233  0.26240233  0.75000000  1.0
  Lu  Lu5  1  0.26240233  0.00000000  0.25000000  1.0
  Lu  Lu6  1  0.33333333  0.66666667  0.50000000  1.0
  Lu  Lu7  1  0.33333333  0.66666667  0.00000000  1.0
  Lu  Lu8  1  0.66666667  0.33333333  0.50000000  1.0
  Lu  Lu9  1  0.66666667  0.33333333  -0.00000000  1.0
  Ir  Ir10  1  0.38826106  0.38826106  0.25000000  1.0
  Ir  Ir11  1  0.38826106  0.00000000  0.75000000  1.0
  Ir  Ir12  1  0.00000000  0.38826106  0.75000000  1.0
  Ir  Ir13  1  -0.00000000  0.61173894  0.25000000  1.0
  Ir  Ir14  1  0.61173894  0.61173894  0.75000000  1.0
  Ir  Ir15  1  0.61173894  -0.00000000  0.25000000  1.0
