# generated using pymatgen
data_Gd2(Ga3Co)3
_symmetry_space_group_name_H-M   'P 1'
_cell_length_a   7.38344289
_cell_length_b   7.38344289
_cell_length_c   9.46759662
_cell_angle_alpha   90.00000000
_cell_angle_beta   90.00000000
_cell_angle_gamma   60.25183248
_symmetry_Int_Tables_number   1
_chemical_formula_structural   Gd2(Ga3Co)3
_chemical_formula_sum   'Gd4 Ga18 Co6'
_cell_volume   448.11007939
_cell_formula_units_Z   2
loop_
 _symmetry_equiv_pos_site_id
 _symmetry_equiv_pos_as_xyz
  1  'x, y, z'
loop_
 _atom_site_type_symbol
 _atom_site_label
 _atom_site_symmetry_multiplicity
 _atom_site_fract_x
 _atom_site_fract_y
 _atom_site_fract_z
 _atom_site_occupancy
  Gd  Gd0  1  -0.00275072  1.33175352  0.25000000  1.0
  Gd  Gd1  1  0.33175352  0.99724928  0.75000000  1.0
  Gd  Gd2  1  -0.33175352  1.00275072  0.25000000  1.0
  Gd  Gd3  1  0.00275072  0.66824648  0.75000000  1.0
  Ga  Ga4  1  0.00093793  0.66580555  0.42866872  1.0
  Ga  Ga5  1  0.00093793  0.66580555  0.07133128  1.0
  Ga  Ga6  1  -0.33419445  1.00093793  0.92866872  1.0
  Ga  Ga7  1  -0.33419445  1.00093793  0.57133128  1.0
  Ga  Ga8  1  0.33419445  0.99906207  0.42866872  1.0
  Ga  Ga9  1  0.33419445  0.99906207  0.07133128  1.0
  Ga  Ga10  1  -0.00093793  1.33419445  0.92866872  1.0
  Ga  Ga11  1  -0.00093793  1.33419445  0.57133128  1.0
  Ga  Ga12  1  0.33647556  0.45094532  0.25000000  1.0
  Ga  Ga13  1  -0.54905468  1.33647556  0.75000000  1.0
  Ga  Ga14  1  0.54905468  0.66352444  0.25000000  1.0
  Ga  Ga15  1  -0.33647556  1.54905468  0.75000000  1.0
  Ga  Ga16  1  0.33421404  0.66578596  0.94325643  1.0
  Ga  Ga17  1  0.33421404  0.66578596  0.55674357  1.0
  Ga  Ga18  1  -0.33421404  1.33421404  0.44325643  1.0
  Ga  Ga19  1  -0.33421404  1.33421404  0.05674357  1.0
  Ga  Ga20  1  0.12200470  0.87799530  0.25000000  1.0
  Ga  Ga21  1  -0.12200470  1.12200470  0.75000000  1.0
  Co  Co22  1  0.67052159  0.67052159  0.50000000  1.0
  Co  Co23  1  0.67052159  0.67052159  0.00000000  1.0
  Co  Co24  1  0.32947841  0.32947841  0.50000000  1.0
  Co  Co25  1  0.32947841  0.32947841  0.00000000  1.0
  Co  Co26  1  0.00000000  0.00000000  0.50000000  1.0
  Co  Co27  1  0.00000000  0.00000000  0.00000000  1.0
