# generated using pymatgen
data_ZnAs
_symmetry_space_group_name_H-M   'P 1'
_cell_length_a   5.74892187
_cell_length_b   7.33488268
_cell_length_c   7.64856857
_cell_angle_alpha   90.00000000
_cell_angle_beta   90.00000000
_cell_angle_gamma   90.00000000
_symmetry_Int_Tables_number   1
_chemical_formula_structural   ZnAs
_chemical_formula_sum   'Zn8 As8'
_cell_volume   322.52229588
_cell_formula_units_Z   8
loop_
 _symmetry_equiv_pos_site_id
 _symmetry_equiv_pos_as_xyz
  1  'x, y, z'
loop_
 _atom_site_type_symbol
 _atom_site_label
 _atom_site_symmetry_multiplicity
 _atom_site_fract_x
 _atom_site_fract_y
 _atom_site_fract_z
 _atom_site_occupancy
  Zn  Zn0  1  0.45962370  0.88321706  0.63342186  1.0
  Zn  Zn1  1  0.45962370  0.61678294  0.13342186  1.0
  Zn  Zn2  1  0.95962370  0.88321706  0.86657814  1.0
  Zn  Zn3  1  0.95962370  0.61678294  0.36657814  1.0
  Zn  Zn4  1  0.54037630  0.38321706  0.86657814  1.0
  Zn  Zn5  1  0.54037630  0.11678294  0.36657814  1.0
  Zn  Zn6  1  0.04037630  0.38321706  0.63342186  1.0
  Zn  Zn7  1  0.04037630  0.11678294  0.13342186  1.0
  As  As8  1  0.13657422  0.57392196  0.89824854  1.0
  As  As9  1  0.13657422  0.92607804  0.39824854  1.0
  As  As10  1  0.63657422  0.57392196  0.60175146  1.0
  As  As11  1  0.63657422  0.92607804  0.10175146  1.0
  As  As12  1  0.86342578  0.07392196  0.60175146  1.0
  As  As13  1  0.86342578  0.42607804  0.10175146  1.0
  As  As14  1  0.36342578  0.07392196  0.89824854  1.0
  As  As15  1  0.36342578  0.42607804  0.39824854  1.0
