# generated using pymatgen
data_Y5Sn4
_symmetry_space_group_name_H-M   'P 1'
_cell_length_a   8.07472524
_cell_length_b   15.51021380
_cell_length_c   8.16508988
_cell_angle_alpha   90.00000000
_cell_angle_beta   90.00000000
_cell_angle_gamma   90.00000000
_symmetry_Int_Tables_number   1
_chemical_formula_structural   Y5Sn4
_chemical_formula_sum   'Y20 Sn16'
_cell_volume   1022.60169368
_cell_formula_units_Z   4
loop_
 _symmetry_equiv_pos_site_id
 _symmetry_equiv_pos_as_xyz
  1  'x, y, z'
loop_
 _atom_site_type_symbol
 _atom_site_label
 _atom_site_symmetry_multiplicity
 _atom_site_fract_x
 _atom_site_fract_y
 _atom_site_fract_z
 _atom_site_occupancy
  Y  Y0  1  0.47392865  0.40193000  0.17812271  1.0
  Y  Y1  1  0.47392865  0.09807000  0.17812271  1.0
  Y  Y2  1  0.97392865  0.40193000  0.32187729  1.0
  Y  Y3  1  0.97392865  0.09807000  0.32187729  1.0
  Y  Y4  1  0.52607135  0.90193000  0.82187729  1.0
  Y  Y5  1  0.52607135  0.59807000  0.82187729  1.0
  Y  Y6  1  0.02607135  0.90193000  0.67812271  1.0
  Y  Y7  1  0.02607135  0.59807000  0.67812271  1.0
  Y  Y8  1  0.12846831  0.37843368  0.83875965  1.0
  Y  Y9  1  0.12846831  0.12156632  0.83875965  1.0
  Y  Y10  1  0.62846831  0.37843368  0.66124035  1.0
  Y  Y11  1  0.62846831  0.12156632  0.66124035  1.0
  Y  Y12  1  0.87153169  0.87843368  0.16124035  1.0
  Y  Y13  1  0.87153169  0.62156632  0.16124035  1.0
  Y  Y14  1  0.37153169  0.87843368  0.33875965  1.0
  Y  Y15  1  0.37153169  0.62156632  0.33875965  1.0
  Y  Y16  1  0.29611074  0.25000000  0.50324606  1.0
  Y  Y17  1  0.79611074  0.25000000  0.99675394  1.0
  Y  Y18  1  0.70388926  0.75000000  0.49675394  1.0
  Y  Y19  1  0.20388926  0.75000000  0.00324606  1.0
  Sn  Sn20  1  0.28857814  0.45793557  0.53538298  1.0
  Sn  Sn21  1  0.28857814  0.04206443  0.53538298  1.0
  Sn  Sn22  1  0.78857814  0.45793557  0.96461702  1.0
  Sn  Sn23  1  0.78857814  0.04206443  0.96461702  1.0
  Sn  Sn24  1  0.71142186  0.95793557  0.46461702  1.0
  Sn  Sn25  1  0.71142186  0.54206443  0.46461702  1.0
  Sn  Sn26  1  0.21142186  0.95793557  0.03538298  1.0
  Sn  Sn27  1  0.21142186  0.54206443  0.03538298  1.0
  Sn  Sn28  1  0.43059644  0.25000000  0.88159588  1.0
  Sn  Sn29  1  0.93059644  0.25000000  0.61840412  1.0
  Sn  Sn30  1  0.56940356  0.75000000  0.11840412  1.0
  Sn  Sn31  1  0.06940356  0.75000000  0.38159588  1.0
  Sn  Sn32  1  0.16444905  0.25000000  0.14715980  1.0
  Sn  Sn33  1  0.66444905  0.25000000  0.35284020  1.0
  Sn  Sn34  1  0.83555095  0.75000000  0.85284020  1.0
  Sn  Sn35  1  0.33555095  0.75000000  0.64715980  1.0
