# generated using pymatgen
data_ZrHg3(SeBr3)2
_symmetry_space_group_name_H-M   'P 1'
_cell_length_a   7.52246333
_cell_length_b   7.93027308
_cell_length_c   13.72556172
_cell_angle_alpha   90.00000000
_cell_angle_beta   90.00976787
_cell_angle_gamma   90.00000000
_symmetry_Int_Tables_number   1
_chemical_formula_structural   ZrHg3(SeBr3)2
_chemical_formula_sum   'Zr2 Hg6 Se4 Br12'
_cell_volume   818.80095976
_cell_formula_units_Z   2
loop_
 _symmetry_equiv_pos_site_id
 _symmetry_equiv_pos_as_xyz
  1  'x, y, z'
loop_
 _atom_site_type_symbol
 _atom_site_label
 _atom_site_symmetry_multiplicity
 _atom_site_fract_x
 _atom_site_fract_y
 _atom_site_fract_z
 _atom_site_occupancy
  Zr  Zr0  1  0.00000000  0.00000000  0.00000000  1.0
  Zr  Zr1  1  -0.00000000  0.50000000  0.50000000  1.0
  Hg  Hg2  1  0.49947771  0.74936712  0.74981334  1.0
  Hg  Hg3  1  0.49947771  0.75063288  0.24981334  1.0
  Hg  Hg4  1  0.50052229  0.24936712  0.75018666  1.0
  Hg  Hg5  1  0.50052229  0.25063288  0.25018666  1.0
  Hg  Hg6  1  0.50000000  0.00000000  0.50000000  1.0
  Hg  Hg7  1  0.50000000  0.50000000  -0.00000000  1.0
  Se  Se8  1  0.65405000  0.99924454  0.66673176  1.0
  Se  Se9  1  0.65405000  0.50075546  0.16673176  1.0
  Se  Se10  1  0.34595000  0.49924454  0.83326824  1.0
  Se  Se11  1  0.34595000  0.00075546  0.33326824  1.0
  Br  Br12  1  0.80044253  0.23806148  0.92106744  1.0
  Br  Br13  1  0.80044253  0.26193852  0.42106744  1.0
  Br  Br14  1  0.19955747  0.73806148  0.57893256  1.0
  Br  Br15  1  0.19955747  0.76193852  0.07893256  1.0
  Br  Br16  1  0.80101611  0.49944371  0.65874320  1.0
  Br  Br17  1  0.80101611  0.00055629  0.15874320  1.0
  Br  Br18  1  0.19898389  0.99944371  0.84125680  1.0
  Br  Br19  1  0.19898389  0.50055629  0.34125680  1.0
  Br  Br20  1  0.79883784  0.76321774  0.92112324  1.0
  Br  Br21  1  0.79883784  0.73678226  0.42112324  1.0
  Br  Br22  1  0.20116216  0.26321774  0.57887676  1.0
  Br  Br23  1  0.20116216  0.23678226  0.07887676  1.0
