# generated using pymatgen
data_CaMg2
_symmetry_space_group_name_H-M   'P 1'
_cell_length_a   6.21946734
_cell_length_b   6.21946734
_cell_length_c   20.25453077
_cell_angle_alpha   90.00000000
_cell_angle_beta   90.00000000
_cell_angle_gamma   120.00000000
_symmetry_Int_Tables_number   1
_chemical_formula_structural   CaMg2
_chemical_formula_sum   'Ca8 Mg16'
_cell_volume   678.51460740
_cell_formula_units_Z   8
loop_
 _symmetry_equiv_pos_site_id
 _symmetry_equiv_pos_as_xyz
  1  'x, y, z'
loop_
 _atom_site_type_symbol
 _atom_site_label
 _atom_site_symmetry_multiplicity
 _atom_site_fract_x
 _atom_site_fract_y
 _atom_site_fract_z
 _atom_site_occupancy
  Ca  Ca0  1  0.33333333  0.66666667  0.34357311  1.0
  Ca  Ca1  1  0.66666667  0.33333333  0.84357311  1.0
  Ca  Ca2  1  0.66666667  0.33333333  0.65642689  1.0
  Ca  Ca3  1  0.33333333  0.66666667  0.15642689  1.0
  Ca  Ca4  1  -0.00000000  -0.00000000  0.40587331  1.0
  Ca  Ca5  1  0.00000000  -0.00000000  0.90587331  1.0
  Ca  Ca6  1  -0.00000000  -0.00000000  0.59412669  1.0
  Ca  Ca7  1  0.00000000  0.00000000  0.09412669  1.0
  Mg  Mg8  1  0.32857365  0.16428682  0.25000000  1.0
  Mg  Mg9  1  0.83571318  0.16428682  0.25000000  1.0
  Mg  Mg10  1  0.83571318  0.67142635  0.25000000  1.0
  Mg  Mg11  1  0.67142635  0.83571318  0.75000000  1.0
  Mg  Mg12  1  0.16428682  0.83571318  0.75000000  1.0
  Mg  Mg13  1  0.16428682  0.32857365  0.75000000  1.0
  Mg  Mg14  1  0.33333333  0.66666667  0.62543358  1.0
  Mg  Mg15  1  0.66666667  0.33333333  0.12543358  1.0
  Mg  Mg16  1  0.66666667  0.33333333  0.37456642  1.0
  Mg  Mg17  1  0.33333333  0.66666667  0.87456642  1.0
  Mg  Mg18  1  0.00000000  0.50000000  0.50000000  1.0
  Mg  Mg19  1  0.50000000  0.50000000  0.50000000  1.0
  Mg  Mg20  1  0.50000000  -0.00000000  0.50000000  1.0
  Mg  Mg21  1  0.00000000  0.50000000  -0.00000000  1.0
  Mg  Mg22  1  0.50000000  0.50000000  0.00000000  1.0
  Mg  Mg23  1  0.50000000  0.00000000  0.00000000  1.0
