# generated using pymatgen
data_Ba2NbN3
_symmetry_space_group_name_H-M   'P 1'
_cell_length_a   6.71059928
_cell_length_b   6.71059928
_cell_length_c   13.32613044
_cell_angle_alpha   89.40901769
_cell_angle_beta   90.59098231
_cell_angle_gamma   55.20179599
_symmetry_Int_Tables_number   1
_chemical_formula_structural   Ba2NbN3
_chemical_formula_sum   'Ba8 Nb4 N12'
_cell_volume   492.66369935
_cell_formula_units_Z   4
loop_
 _symmetry_equiv_pos_site_id
 _symmetry_equiv_pos_as_xyz
  1  'x, y, z'
loop_
 _atom_site_type_symbol
 _atom_site_label
 _atom_site_symmetry_multiplicity
 _atom_site_fract_x
 _atom_site_fract_y
 _atom_site_fract_z
 _atom_site_occupancy
  Ba  Ba0  1  0.55229275  0.05160469  0.64203420  1.0
  Ba  Ba1  1  0.94839531  -0.55229275  0.14203420  1.0
  Ba  Ba2  1  1.05160469  -0.44770725  0.85796580  1.0
  Ba  Ba3  1  0.44770725  -0.05160469  0.35796580  1.0
  Ba  Ba4  1  0.35454712  -0.12823288  0.92283215  1.0
  Ba  Ba5  1  1.12823288  -0.35454712  0.42283215  1.0
  Ba  Ba6  1  0.87176712  -0.64545288  0.57716785  1.0
  Ba  Ba7  1  0.64545288  0.12823288  0.07716785  1.0
  Nb  Nb8  1  0.73592099  0.25764548  0.83404297  1.0
  Nb  Nb9  1  0.74235452  -0.73592099  0.33404297  1.0
  Nb  Nb10  1  1.25764548  -0.26407901  0.66595703  1.0
  Nb  Nb11  1  0.26407901  -0.25764548  0.16595703  1.0
  N  N12  1  0.68779573  0.13338167  0.45027563  1.0
  N  N13  1  0.86661833  -0.68779573  0.95027563  1.0
  N  N14  1  1.13338167  -0.31220427  0.04972437  1.0
  N  N15  1  0.31220427  -0.13338167  0.54972437  1.0
  N  N16  1  0.52881041  0.15660130  0.87211918  1.0
  N  N17  1  0.84339870  -0.52881041  0.37211918  1.0
  N  N18  1  1.15660130  -0.47118959  0.62788082  1.0
  N  N19  1  0.47118959  -0.15660130  0.12788082  1.0
  N  N20  1  0.00469301  0.00469301  0.75000000  1.0
  N  N21  1  0.99530699  -0.00469301  0.25000000  1.0
  N  N22  1  0.56283624  -0.43716376  0.75000000  1.0
  N  N23  1  0.43716376  0.43716376  0.25000000  1.0
