# generated using pymatgen
data_CsYb(MoO4)2
_symmetry_space_group_name_H-M   'P 1'
_cell_length_a   5.06329345
_cell_length_b   9.74120110
_cell_length_c   8.11396754
_cell_angle_alpha   90.00000000
_cell_angle_beta   90.00000000
_cell_angle_gamma   90.00000000
_symmetry_Int_Tables_number   1
_chemical_formula_structural   CsYb(MoO4)2
_chemical_formula_sum   'Cs2 Yb2 Mo4 O16'
_cell_volume   400.20164882
_cell_formula_units_Z   2
loop_
 _symmetry_equiv_pos_site_id
 _symmetry_equiv_pos_as_xyz
  1  'x, y, z'
loop_
 _atom_site_type_symbol
 _atom_site_label
 _atom_site_symmetry_multiplicity
 _atom_site_fract_x
 _atom_site_fract_y
 _atom_site_fract_z
 _atom_site_occupancy
  Cs  Cs0  1  0.00000000  0.50000000  0.75000000  1.0
  Cs  Cs1  1  0.00000000  0.50000000  0.25000000  1.0
  Yb  Yb2  1  0.00000000  0.00000000  0.75000000  1.0
  Yb  Yb3  1  0.00000000  0.00000000  0.25000000  1.0
  Mo  Mo4  1  0.47600045  0.80878734  0.00000000  1.0
  Mo  Mo5  1  0.47600045  0.19121266  0.50000000  1.0
  Mo  Mo6  1  0.52399955  0.80878734  0.50000000  1.0
  Mo  Mo7  1  0.52399955  0.19121266  0.00000000  1.0
  O  O8  1  0.73984635  0.81828560  0.67469711  1.0
  O  O9  1  0.73984635  0.81828560  0.32530289  1.0
  O  O10  1  0.73984635  0.18171440  0.17469711  1.0
  O  O11  1  0.73984635  0.18171440  0.82530289  1.0
  O  O12  1  0.26015365  0.81828560  0.17469711  1.0
  O  O13  1  0.26015365  0.81828560  0.82530289  1.0
  O  O14  1  0.26015365  0.18171440  0.67469711  1.0
  O  O15  1  0.26015365  0.18171440  0.32530289  1.0
  O  O16  1  0.74975077  0.93421841  0.00000000  1.0
  O  O17  1  0.74975077  0.06578159  0.50000000  1.0
  O  O18  1  0.25024923  0.93421841  0.50000000  1.0
  O  O19  1  0.25024923  0.06578159  0.00000000  1.0
  O  O20  1  0.60993301  0.64485494  0.00000000  1.0
  O  O21  1  0.60993301  0.35514506  0.50000000  1.0
  O  O22  1  0.39006699  0.64485494  0.50000000  1.0
  O  O23  1  0.39006699  0.35514506  0.00000000  1.0
