# generated using pymatgen
data_ZnTe
_symmetry_space_group_name_H-M   'P 1'
_cell_length_a   4.37639305
_cell_length_b   4.37639305
_cell_length_c   10.71301824
_cell_angle_alpha   90.00000000
_cell_angle_beta   90.00000000
_cell_angle_gamma   120.00000000
_symmetry_Int_Tables_number   1
_chemical_formula_structural   ZnTe
_chemical_formula_sum   'Zn3 Te3'
_cell_volume   177.69496224
_cell_formula_units_Z   3
loop_
 _symmetry_equiv_pos_site_id
 _symmetry_equiv_pos_as_xyz
  1  'x, y, z'
loop_
 _atom_site_type_symbol
 _atom_site_label
 _atom_site_symmetry_multiplicity
 _atom_site_fract_x
 _atom_site_fract_y
 _atom_site_fract_z
 _atom_site_occupancy
  Zn  Zn0  1  -0.00000740  0.66678223  0.64009916  1.0
  Zn  Zn1  1  0.66678963  1.00000740  0.30676583  1.0
  Zn  Zn2  1  0.33321777  0.33321037  -0.02656750  1.0
  Te  Te3  1  0.99989507  0.66656044  0.89023417  1.0
  Te  Te4  1  0.66666537  0.00010493  0.55690084  1.0
  Te  Te5  1  0.33343956  0.33333463  0.22356750  1.0
