# generated using pymatgen
data_BaZnO2
_symmetry_space_group_name_H-M   'P 1'
_cell_length_a   5.94611911
_cell_length_b   5.94611911
_cell_length_c   6.80105555
_cell_angle_alpha   90.00000000
_cell_angle_beta   90.00000000
_cell_angle_gamma   120.00000000
_symmetry_Int_Tables_number   1
_chemical_formula_structural   BaZnO2
_chemical_formula_sum   'Ba3 Zn3 O6'
_cell_volume   208.24479868
_cell_formula_units_Z   3
loop_
 _symmetry_equiv_pos_site_id
 _symmetry_equiv_pos_as_xyz
  1  'x, y, z'
loop_
 _atom_site_type_symbol
 _atom_site_label
 _atom_site_symmetry_multiplicity
 _atom_site_fract_x
 _atom_site_fract_y
 _atom_site_fract_z
 _atom_site_occupancy
  Ba  Ba0  1  0.65424384  0.65424384  0.50000000  1.0
  Ba  Ba1  1  0.00000000  0.34575616  0.16666667  1.0
  Ba  Ba2  1  0.34575616  0.00000000  0.83333333  1.0
  Zn  Zn3  1  0.58538388  0.58538388  0.00000000  1.0
  Zn  Zn4  1  0.00000000  0.41461612  0.66666667  1.0
  Zn  Zn5  1  0.41461612  0.00000000  0.33333333  1.0
  O  O6  1  0.87754493  0.57929665  0.87688624  1.0
  O  O7  1  0.57929665  0.87754493  0.12311376  1.0
  O  O8  1  0.70175172  0.12245507  0.54355290  1.0
  O  O9  1  0.42070335  0.29824828  0.21021957  1.0
  O  O10  1  0.12245507  0.70175172  0.45644710  1.0
  O  O11  1  0.29824828  0.42070335  0.78978043  1.0
