# generated using pymatgen
data_Y3ReB7
_symmetry_space_group_name_H-M   'P 1'
_cell_length_a   7.76641468
_cell_length_b   7.76641468
_cell_length_c   10.09450883
_cell_angle_alpha   90.00000000
_cell_angle_beta   90.00000000
_cell_angle_gamma   152.90137379
_symmetry_Int_Tables_number   1
_chemical_formula_structural   Y3ReB7
_chemical_formula_sum   'Y6 Re2 B14'
_cell_volume   277.35576018
_cell_formula_units_Z   2
loop_
 _symmetry_equiv_pos_site_id
 _symmetry_equiv_pos_as_xyz
  1  'x, y, z'
loop_
 _atom_site_type_symbol
 _atom_site_label
 _atom_site_symmetry_multiplicity
 _atom_site_fract_x
 _atom_site_fract_y
 _atom_site_fract_z
 _atom_site_occupancy
  Y  Y0  1  0.33495315  0.66504685  0.94368359  1.0
  Y  Y1  1  0.33495315  0.66504685  0.55631641  1.0
  Y  Y2  1  -0.33495315  0.33495315  0.44368359  1.0
  Y  Y3  1  -0.33495315  0.33495315  0.05631641  1.0
  Y  Y4  1  0.52899445  0.47100555  0.75000000  1.0
  Y  Y5  1  -0.52899445  0.52899445  0.25000000  1.0
  Re  Re6  1  -0.27488911  0.27488911  0.75000000  1.0
  Re  Re7  1  0.27488911  0.72511089  0.25000000  1.0
  B  B8  1  0.05137859  0.94862141  0.94565630  1.0
  B  B9  1  0.05137859  0.94862141  0.55434370  1.0
  B  B10  1  -0.05137859  0.05137859  0.44565630  1.0
  B  B11  1  -0.05137859  0.05137859  0.05434370  1.0
  B  B12  1  0.15710604  0.84289396  0.83942200  1.0
  B  B13  1  0.15710604  0.84289396  0.66057800  1.0
  B  B14  1  -0.15710604  0.15710604  0.33942200  1.0
  B  B15  1  -0.15710604  0.15710604  0.16057800  1.0
  B  B16  1  0.05215199  0.94784801  0.11479970  1.0
  B  B17  1  0.05215199  0.94784801  0.38520030  1.0
  B  B18  1  -0.05215199  0.05215199  0.61479970  1.0
  B  B19  1  -0.05215199  0.05215199  0.88520030  1.0
  B  B20  1  -0.11831869  0.11831869  0.75000000  1.0
  B  B21  1  0.11831869  0.88168131  0.25000000  1.0
