# generated using pymatgen
data_Ga2(SO4)3
_symmetry_space_group_name_H-M   'P 1'
_cell_length_a   8.80814338
_cell_length_b   8.80814338
_cell_length_c   8.80814338
_cell_angle_alpha   55.47806750
_cell_angle_beta   55.47806750
_cell_angle_gamma   55.47806750
_symmetry_Int_Tables_number   1
_chemical_formula_structural   Ga2(SO4)3
_chemical_formula_sum   'Ga4 S6 O24'
_cell_volume   432.47464935
_cell_formula_units_Z   2
loop_
 _symmetry_equiv_pos_site_id
 _symmetry_equiv_pos_as_xyz
  1  'x, y, z'
loop_
 _atom_site_type_symbol
 _atom_site_label
 _atom_site_symmetry_multiplicity
 _atom_site_fract_x
 _atom_site_fract_y
 _atom_site_fract_z
 _atom_site_occupancy
  Ga  Ga0  1  0.14452290  0.14452290  0.14452290  1.0
  Ga  Ga1  1  0.85547710  -0.14452290  -0.14452290  1.0
  Ga  Ga2  1  0.34844209  0.34844209  -0.65155791  1.0
  Ga  Ga3  1  0.65155791  0.65155791  -0.34844209  1.0
  S  S4  1  0.54223197  0.24908051  -0.04008859  1.0
  S  S5  1  1.04008859  -0.54223197  -0.24908051  1.0
  S  S6  1  0.75091949  0.04008859  -0.54223197  1.0
  S  S7  1  0.45776803  -0.24908051  0.04008859  1.0
  S  S8  1  0.95991141  -0.45776803  0.24908051  1.0
  S  S9  1  1.24908051  -0.04008859  -0.45776803  1.0
  O  O10  1  0.20609312  0.98293693  -0.61163595  1.0
  O  O11  1  0.61163595  -0.20609312  0.01706307  1.0
  O  O12  1  1.01706307  -0.38836405  -0.20609312  1.0
  O  O13  1  0.79390688  0.01706307  -0.38836405  1.0
  O  O14  1  0.38836405  0.20609312  -0.01706307  1.0
  O  O15  1  0.98293693  0.38836405  -0.79390688  1.0
  O  O16  1  0.54143938  0.17559248  -0.51646701  1.0
  O  O17  1  0.51646701  0.45856062  -0.17559248  1.0
  O  O18  1  0.82440752  0.51646701  -0.54143938  1.0
  O  O19  1  0.45856062  0.82440752  -0.48353299  1.0
  O  O20  1  0.48353299  0.54143938  -0.82440752  1.0
  O  O21  1  0.17559248  0.48353299  -0.45856062  1.0
  O  O22  1  0.25809536  0.88344655  -0.87248701  1.0
  O  O23  1  0.87248701  -0.25809536  0.11655345  1.0
  O  O24  1  1.11655345  -0.12751299  -0.25809536  1.0
  O  O25  1  0.74190464  0.11655345  -0.12751299  1.0
  O  O26  1  0.12751299  0.25809536  -0.11655345  1.0
  O  O27  1  0.88344655  0.12751299  -0.74190464  1.0
  O  O28  1  0.52595381  0.21368558  0.15499782  1.0
  O  O29  1  0.84500218  -0.52595381  -0.21368558  1.0
  O  O30  1  0.78631442  -0.15499782  -0.52595381  1.0
  O  O31  1  0.47404619  -0.21368558  -0.15499782  1.0
  O  O32  1  1.15499782  -0.47404619  0.21368558  1.0
  O  O33  1  1.21368558  0.15499782  -0.47404619  1.0
