# generated using pymatgen
data_SrCuF4
_symmetry_space_group_name_H-M   'P 1'
_cell_length_a   6.72445004
_cell_length_b   6.72445004
_cell_length_c   6.72445004
_cell_angle_alpha   129.28227725
_cell_angle_beta   129.28227725
_cell_angle_gamma   74.55679983
_symmetry_Int_Tables_number   1
_chemical_formula_structural   SrCuF4
_chemical_formula_sum   'Sr2 Cu2 F8'
_cell_volume   177.52082393
_cell_formula_units_Z   2
loop_
 _symmetry_equiv_pos_site_id
 _symmetry_equiv_pos_as_xyz
  1  'x, y, z'
loop_
 _atom_site_type_symbol
 _atom_site_label
 _atom_site_symmetry_multiplicity
 _atom_site_fract_x
 _atom_site_fract_y
 _atom_site_fract_z
 _atom_site_occupancy
  Sr  Sr0  1  0.75000000  0.75000000  1.00000000  1.0
  Sr  Sr1  1  0.25000000  0.25000000  0.00000000  1.0
  Cu  Cu2  1  0.50000000  0.00000000  0.50000000  1.0
  Cu  Cu3  1  0.00000000  0.50000000  0.50000000  1.0
  F  F4  1  1.20581929  0.70581929  1.16186050  1.0
  F  F5  1  0.45604121  0.95604121  1.16186050  1.0
  F  F6  1  1.04395879  1.20581929  1.50000000  1.0
  F  F7  1  0.29418071  0.45604121  0.50000000  1.0
  F  F8  1  0.70581929  0.54395879  0.50000000  1.0
  F  F9  1  0.95604121  0.79418071  1.50000000  1.0
  F  F10  1  0.54395879  1.04395879  0.83813950  1.0
  F  F11  1  0.79418071  0.29418071  0.83813950  1.0
