# generated using pymatgen
data_CsW3I3Cl4
_symmetry_space_group_name_H-M   'P 1'
_cell_length_a   10.51040331
_cell_length_b   10.51040331
_cell_length_c   16.47945221
_cell_angle_alpha   90.00000000
_cell_angle_beta   90.00000000
_cell_angle_gamma   120.00000000
_symmetry_Int_Tables_number   1
_chemical_formula_structural   CsW3I3Cl4
_chemical_formula_sum   'Cs4 W12 I12 Cl16'
_cell_volume   1576.56603269
_cell_formula_units_Z   4
loop_
 _symmetry_equiv_pos_site_id
 _symmetry_equiv_pos_as_xyz
  1  'x, y, z'
loop_
 _atom_site_type_symbol
 _atom_site_label
 _atom_site_symmetry_multiplicity
 _atom_site_fract_x
 _atom_site_fract_y
 _atom_site_fract_z
 _atom_site_occupancy
  Cs  Cs0  1  0.33333333  0.66666667  0.28550955  1.0
  Cs  Cs1  1  0.66666667  0.33333333  0.78550955  1.0
  Cs  Cs2  1  0.00000000  0.00000000  0.03505101  1.0
  Cs  Cs3  1  0.00000000  0.00000000  0.53505101  1.0
  W  W4  1  0.66566425  0.47763654  0.22122496  1.0
  W  W5  1  0.47763654  0.66566425  0.72122496  1.0
  W  W6  1  0.81197229  0.33433575  0.22122496  1.0
  W  W7  1  0.52236346  0.18802771  0.22122496  1.0
  W  W8  1  0.33433575  0.81197229  0.72122496  1.0
  W  W9  1  0.18802771  0.52236346  0.72122496  1.0
  W  W10  1  0.81235834  0.47724218  0.35140774  1.0
  W  W11  1  0.47724218  0.81235834  0.85140774  1.0
  W  W12  1  0.66488384  0.18764166  0.35140774  1.0
  W  W13  1  0.52275782  0.33511616  0.35140774  1.0
  W  W14  1  0.18764166  0.66488384  0.85140774  1.0
  W  W15  1  0.33511616  0.52275782  0.85140774  1.0
  I  I16  1  0.30686714  0.95338988  0.12899479  1.0
  I  I17  1  0.95338988  0.30686714  0.62899479  1.0
  I  I18  1  0.64652275  0.69313286  0.12899479  1.0
  I  I19  1  0.04661012  0.35347725  0.12899479  1.0
  I  I20  1  0.69313286  0.64652275  0.62899479  1.0
  I  I21  1  0.35347725  0.04661012  0.62899479  1.0
  I  I22  1  0.04755701  0.69204388  0.44359587  1.0
  I  I23  1  0.69204388  0.04755701  0.94359587  1.0
  I  I24  1  0.64448688  0.95244299  0.44359587  1.0
  I  I25  1  0.30795612  0.35551312  0.44359587  1.0
  I  I26  1  0.95244299  0.64448688  0.94359587  1.0
  I  I27  1  0.35551312  0.30795612  0.94359587  1.0
  Cl  Cl28  1  0.67233534  0.61154920  0.34957546  1.0
  Cl  Cl29  1  0.61154920  0.67233534  0.84957546  1.0
  Cl  Cl30  1  0.93921385  0.32766466  0.34957546  1.0
  Cl  Cl31  1  0.38845080  0.06078615  0.34957546  1.0
  Cl  Cl32  1  0.32766466  0.93921385  0.84957546  1.0
  Cl  Cl33  1  0.06078615  0.38845080  0.84957546  1.0
  Cl  Cl34  1  0.93997601  0.61082723  0.22306503  1.0
  Cl  Cl35  1  0.61082723  0.93997601  0.72306503  1.0
  Cl  Cl36  1  0.67085122  0.06002399  0.22306503  1.0
  Cl  Cl37  1  0.38917277  0.32914878  0.22306503  1.0
  Cl  Cl38  1  0.06002399  0.67085122  0.72306503  1.0
  Cl  Cl39  1  0.32914878  0.38917277  0.72306503  1.0
  Cl  Cl40  1  0.33333333  0.66666667  -0.02803851  1.0
  Cl  Cl41  1  0.66666667  0.33333333  0.47196149  1.0
  Cl  Cl42  1  0.33333333  0.66666667  0.60068642  1.0
  Cl  Cl43  1  0.66666667  0.33333333  0.10068642  1.0
