# generated using pymatgen
data_Ag2P2PbO7
_symmetry_space_group_name_H-M   'P 1'
_cell_length_a   5.48921363
_cell_length_b   10.80809045
_cell_length_c   7.13681895
_cell_angle_alpha   69.70608065
_cell_angle_beta   67.31522010
_cell_angle_gamma   73.93410381
_symmetry_Int_Tables_number   1
_chemical_formula_structural   Ag2P2PbO7
_chemical_formula_sum   'Ag4 P4 Pb2 O14'
_cell_volume   361.37184216
_cell_formula_units_Z   2
loop_
 _symmetry_equiv_pos_site_id
 _symmetry_equiv_pos_as_xyz
  1  'x, y, z'
loop_
 _atom_site_type_symbol
 _atom_site_label
 _atom_site_symmetry_multiplicity
 _atom_site_fract_x
 _atom_site_fract_y
 _atom_site_fract_z
 _atom_site_occupancy
  Ag  Ag0  1  -0.68733353  0.19259911  0.72002206  1.0
  Ag  Ag1  1  -0.31266647  0.80740089  -0.72002206  1.0
  Ag  Ag2  1  -0.07719261  0.03953267  0.73976084  1.0
  Ag  Ag3  1  -0.92280739  0.96046733  -0.73976084  1.0
  P  P4  1  -0.69961907  0.64268418  0.19324265  1.0
  P  P5  1  -0.30038093  0.35731582  -0.19324265  1.0
  P  P6  1  -0.48875249  0.84328544  -0.21444214  1.0
  P  P7  1  -0.51124751  0.15671456  0.21444214  1.0
  Pb  Pb8  1  -0.85663253  0.64093696  -0.26124979  1.0
  Pb  Pb9  1  -0.14336747  0.35906304  0.26124979  1.0
  O  O10  1  -0.94549084  0.66253680  0.12368774  1.0
  O  O11  1  -0.05450916  0.33746320  -0.12368774  1.0
  O  O12  1  -0.75267199  0.72502065  -0.64941980  1.0
  O  O13  1  -0.24732801  0.27497935  0.64941980  1.0
  O  O14  1  -0.58554306  0.80375799  -0.36042912  1.0
  O  O15  1  -0.41445694  0.19624201  0.36042912  1.0
  O  O16  1  -0.68760268  0.95546904  -0.12201029  1.0
  O  O17  1  -0.31239732  0.04453096  0.12201029  1.0
  O  O18  1  -0.58096171  0.49722474  0.27082407  1.0
  O  O19  1  -0.41903829  0.50277526  -0.27082407  1.0
  O  O20  1  -0.46398226  0.70912375  -0.01849218  1.0
  O  O21  1  -0.53601774  0.29087625  0.01849218  1.0
  O  O22  1  -0.19618961  0.86784499  -0.32048392  1.0
  O  O23  1  -0.80381039  0.13215501  0.32048392  1.0
