# generated using pymatgen
data_Fe3S
_symmetry_space_group_name_H-M   'P 1'
_cell_length_a   6.79758231
_cell_length_b   6.79758231
_cell_length_c   6.79758231
_cell_angle_alpha   95.87896065
_cell_angle_beta   95.87896065
_cell_angle_gamma   142.66899703
_symmetry_Int_Tables_number   1
_chemical_formula_structural   Fe3S
_chemical_formula_sum   'Fe12 S4'
_cell_volume   180.45580930
_cell_formula_units_Z   4
loop_
 _symmetry_equiv_pos_site_id
 _symmetry_equiv_pos_as_xyz
  1  'x, y, z'
loop_
 _atom_site_type_symbol
 _atom_site_label
 _atom_site_symmetry_multiplicity
 _atom_site_fract_x
 _atom_site_fract_y
 _atom_site_fract_z
 _atom_site_occupancy
  Fe  Fe0  1  0.64710232  0.62449803  0.81449544  1.0
  Fe  Fe1  1  1.16739312  0.35289768  0.97739570  1.0
  Fe  Fe2  1  0.81000258  0.83260688  1.18550456  1.0
  Fe  Fe3  1  0.37550197  1.18999742  1.02260430  1.0
  Fe  Fe4  1  0.85424703  0.52193213  0.38769255  1.0
  Fe  Fe5  1  0.53344552  0.14575297  0.66768510  1.0
  Fe  Fe6  1  1.13423958  1.46655448  1.61230745  1.0
  Fe  Fe7  1  0.47806787  0.86576042  1.33231490  1.0
  Fe  Fe8  1  1.42156478  1.46686139  1.39185838  1.0
  Fe  Fe9  1  0.97029360  1.57843522  1.04529661  1.0
  Fe  Fe10  1  1.07500301  1.02970640  0.60814162  1.0
  Fe  Fe11  1  1.53313861  0.92499699  0.95470339  1.0
  S  S12  1  1.70720656  1.95661165  1.66821135  1.0
  S  S13  1  0.96100479  1.29279344  1.24940510  1.0
  S  S14  1  1.28840031  1.03899521  0.33178865  1.0
  S  S15  1  1.04338835  0.71159969  0.75059490  1.0
