# generated using pymatgen
data_W
_symmetry_space_group_name_H-M   'P 1'
_cell_length_a   2.64834351
_cell_length_b   5.21977518
_cell_length_c   4.79522711
_cell_angle_alpha   90.00000000
_cell_angle_beta   90.00000000
_cell_angle_gamma   90.00000000
_symmetry_Int_Tables_number   1
_chemical_formula_structural   W
_chemical_formula_sum   W4
_cell_volume   66.28805763
_cell_formula_units_Z   4
loop_
 _symmetry_equiv_pos_site_id
 _symmetry_equiv_pos_as_xyz
  1  'x, y, z'
loop_
 _atom_site_type_symbol
 _atom_site_label
 _atom_site_symmetry_multiplicity
 _atom_site_fract_x
 _atom_site_fract_y
 _atom_site_fract_z
 _atom_site_occupancy
  W  W0  1  0.30708477  0.59743314  0.75000000  1.0
  W  W1  1  0.69291523  0.09743314  0.75000000  1.0
  W  W2  1  0.69291523  0.40256686  0.25000000  1.0
  W  W3  1  0.30708477  0.90256686  0.25000000  1.0
