# generated using pymatgen
data_SrP2(H2O3)2
_symmetry_space_group_name_H-M   'P 1'
_cell_length_a   8.41112476
_cell_length_b   7.25799882
_cell_length_c   5.87786940
_cell_angle_alpha   106.92976560
_cell_angle_beta   103.61113707
_cell_angle_gamma   99.25890692
_symmetry_Int_Tables_number   1
_chemical_formula_structural   SrP2(H2O3)2
_chemical_formula_sum   'Sr2 P4 H8 O12'
_cell_volume   323.32375477
_cell_formula_units_Z   2
loop_
 _symmetry_equiv_pos_site_id
 _symmetry_equiv_pos_as_xyz
  1  'x, y, z'
loop_
 _atom_site_type_symbol
 _atom_site_label
 _atom_site_symmetry_multiplicity
 _atom_site_fract_x
 _atom_site_fract_y
 _atom_site_fract_z
 _atom_site_occupancy
  Sr  Sr0  1  -0.95982975  -0.28558326  -0.66454182  1.0
  Sr  Sr1  1  -0.04017025  -0.71441674  -0.33545818  1.0
  P  P2  1  -0.32516904  -0.73866510  -0.94988799  1.0
  P  P3  1  -0.67483096  -0.26133490  -0.05011201  1.0
  P  P4  1  -0.78377215  -0.75275696  -0.67511797  1.0
  P  P5  1  -0.21622785  -0.24724304  -0.32488203  1.0
  H  H6  1  -0.41455350  -0.61354494  -0.82934276  1.0
  H  H7  1  -0.58544650  -0.38645506  -0.17065724  1.0
  H  H8  1  -0.60586535  -0.70684143  -0.58230647  1.0
  H  H9  1  -0.39413465  -0.29315857  -0.41769353  1.0
  H  H10  1  -0.55312078  -0.96487508  -0.22158296  1.0
  H  H11  1  -0.44687922  -0.03512492  -0.77841704  1.0
  H  H12  1  -0.78683473  -0.93574987  -0.05488361  1.0
  H  H13  1  -0.21316527  -0.06425013  -0.94511639  1.0
  O  O14  1  -0.17703294  -0.61561012  -0.98973376  1.0
  O  O15  1  -0.82296706  -0.38438988  -0.01026624  1.0
  O  O16  1  -0.82068093  -0.81093469  -0.97216794  1.0
  O  O17  1  -0.17931907  -0.18906531  -0.02783206  1.0
  O  O18  1  -0.28131042  -0.87542626  -0.79791690  1.0
  O  O19  1  -0.71868958  -0.12457374  -0.20208310  1.0
  O  O20  1  -0.85853003  -0.92350526  -0.60033421  1.0
  O  O21  1  -0.14146997  -0.07649474  -0.39966579  1.0
  O  O22  1  -0.84712036  -0.56849757  -0.58062659  1.0
  O  O23  1  -0.15287964  -0.43150243  -0.41937341  1.0
  O  O24  1  -0.45350886  -0.86606070  -0.21907114  1.0
  O  O25  1  -0.54649114  -0.13393930  -0.78092886  1.0
