# generated using pymatgen
data_Ba2YCoCu2O7
_symmetry_space_group_name_H-M   'P 1'
_cell_length_a   3.88128802
_cell_length_b   3.90181065
_cell_length_c   11.83548778
_cell_angle_alpha   90.00000000
_cell_angle_beta   90.00000000
_cell_angle_gamma   90.00000000
_symmetry_Int_Tables_number   1
_chemical_formula_structural   Ba2YCoCu2O7
_chemical_formula_sum   'Ba2 Y1 Co1 Cu2 O7'
_cell_volume   179.23722956
_cell_formula_units_Z   1
loop_
 _symmetry_equiv_pos_site_id
 _symmetry_equiv_pos_as_xyz
  1  'x, y, z'
loop_
 _atom_site_type_symbol
 _atom_site_label
 _atom_site_symmetry_multiplicity
 _atom_site_fract_x
 _atom_site_fract_y
 _atom_site_fract_z
 _atom_site_occupancy
  Co  Co0  1  0.00000000  0.00000000  0.00000000  1.0
  Y  Y1  1  0.50000000  0.50000000  0.50000000  1.0
  Ba  Ba2  1  0.50000000  0.50000000  0.81281452  1.0
  Ba  Ba3  1  0.50000000  0.50000000  0.18718548  1.0
  O  O4  1  0.50000000  0.00000000  0.62201838  1.0
  O  O5  1  0.50000000  0.00000000  0.37798162  1.0
  O  O6  1  0.00000000  0.50000000  0.62146978  1.0
  O  O7  1  0.00000000  0.50000000  0.37853022  1.0
  O  O8  1  0.00000000  0.00000000  0.84983158  1.0
  O  O9  1  0.00000000  0.00000000  0.15016842  1.0
  O  O10  1  0.00000000  0.50000000  0.00000000  1.0
  Cu  Cu11  1  0.00000000  0.00000000  0.63355286  1.0
  Cu  Cu12  1  0.00000000  0.00000000  0.36644714  1.0
