# generated using pymatgen
data_Ge(Te2As)2
_symmetry_space_group_name_H-M   'P 1'
_cell_length_a   13.63810455
_cell_length_b   13.63810455
_cell_length_c   13.63810455
_cell_angle_alpha   17.47150007
_cell_angle_beta   17.47150007
_cell_angle_gamma   17.47150007
_symmetry_Int_Tables_number   1
_chemical_formula_structural   Ge(Te2As)2
_chemical_formula_sum   'Ge1 Te4 As2'
_cell_volume   199.55221591
_cell_formula_units_Z   1
loop_
 _symmetry_equiv_pos_site_id
 _symmetry_equiv_pos_as_xyz
  1  'x, y, z'
loop_
 _atom_site_type_symbol
 _atom_site_label
 _atom_site_symmetry_multiplicity
 _atom_site_fract_x
 _atom_site_fract_y
 _atom_site_fract_z
 _atom_site_occupancy
  Ge  Ge0  1  0.00000000  0.00000000  0.00000000  1.0
  Te  Te1  1  0.87112502  0.87112502  0.87112502  1.0
  Te  Te2  1  1.12887498  1.12887498  0.12887498  1.0
  Te  Te3  1  0.71052184  0.71052184  0.71052184  1.0
  Te  Te4  1  1.28947816  1.28947816  0.28947816  1.0
  As  As5  1  1.57658041  0.57658041  0.57658041  1.0
  As  As6  1  1.42341959  0.42341959  0.42341959  1.0
