# generated using pymatgen
data_V2B3
_symmetry_space_group_name_H-M   'P 1'
_cell_length_a   9.31283014
_cell_length_b   9.31283014
_cell_length_c   2.97479660
_cell_angle_alpha   90.00000000
_cell_angle_beta   90.00000000
_cell_angle_gamma   161.26360918
_symmetry_Int_Tables_number   1
_chemical_formula_structural   V2B3
_chemical_formula_sum   'V4 B6'
_cell_volume   82.87352861
_cell_formula_units_Z   2
loop_
 _symmetry_equiv_pos_site_id
 _symmetry_equiv_pos_as_xyz
  1  'x, y, z'
loop_
 _atom_site_type_symbol
 _atom_site_label
 _atom_site_symmetry_multiplicity
 _atom_site_fract_x
 _atom_site_fract_y
 _atom_site_fract_z
 _atom_site_occupancy
  V  V0  1  0.42941839  0.57058161  0.75000000  1.0
  V  V1  1  -0.42941839  0.42941839  0.25000000  1.0
  V  V2  1  -0.29503965  0.29503965  0.75000000  1.0
  V  V3  1  0.29503965  0.70496035  0.25000000  1.0
  B  B4  1  0.02359289  0.97640711  0.75000000  1.0
  B  B5  1  -0.02359289  0.02359289  0.25000000  1.0
  B  B6  1  0.11771572  0.88228428  0.75000000  1.0
  B  B7  1  -0.11771572  0.11771572  0.25000000  1.0
  B  B8  1  -0.16882215  0.16882215  0.75000000  1.0
  B  B9  1  0.16882215  0.83117785  0.25000000  1.0
