# generated using pymatgen
data_RbBaVSe4
_symmetry_space_group_name_H-M   'P 1'
_cell_length_a   12.74129108
_cell_length_b   7.11433959
_cell_length_c   10.16352027
_cell_angle_alpha   90.00000000
_cell_angle_beta   90.00000000
_cell_angle_gamma   90.00000000
_symmetry_Int_Tables_number   1
_chemical_formula_structural   RbBaVSe4
_chemical_formula_sum   'Rb4 Ba4 V4 Se16'
_cell_volume   921.28115292
_cell_formula_units_Z   4
loop_
 _symmetry_equiv_pos_site_id
 _symmetry_equiv_pos_as_xyz
  1  'x, y, z'
loop_
 _atom_site_type_symbol
 _atom_site_label
 _atom_site_symmetry_multiplicity
 _atom_site_fract_x
 _atom_site_fract_y
 _atom_site_fract_z
 _atom_site_occupancy
  Rb  Rb0  1  0.08617965  0.75000000  0.13549213  1.0
  Rb  Rb1  1  0.58617965  0.75000000  0.36450787  1.0
  Rb  Rb2  1  0.91382035  0.25000000  0.86450787  1.0
  Rb  Rb3  1  0.41382035  0.25000000  0.63549213  1.0
  Ba  Ba4  1  0.14638981  0.75000000  0.60197245  1.0
  Ba  Ba5  1  0.64638981  0.75000000  0.89802755  1.0
  Ba  Ba6  1  0.85361019  0.25000000  0.39802755  1.0
  Ba  Ba7  1  0.35361019  0.25000000  0.10197245  1.0
  V  V8  1  0.33417546  0.75000000  0.88144912  1.0
  V  V9  1  0.83417546  0.75000000  0.61855088  1.0
  V  V10  1  0.66582454  0.25000000  0.11855088  1.0
  V  V11  1  0.16582454  0.25000000  0.38144912  1.0
  Se  Se12  1  0.22634327  0.00596031  0.87133596  1.0
  Se  Se13  1  0.22634327  0.49403969  0.87133596  1.0
  Se  Se14  1  0.72634327  0.00596031  0.62866404  1.0
  Se  Se15  1  0.72634327  0.49403969  0.62866404  1.0
  Se  Se16  1  0.77365673  0.50596031  0.12866404  1.0
  Se  Se17  1  0.77365673  0.99403969  0.12866404  1.0
  Se  Se18  1  0.27365673  0.50596031  0.37133596  1.0
  Se  Se19  1  0.27365673  0.99403969  0.37133596  1.0
  Se  Se20  1  0.44004055  0.75000000  0.69842551  1.0
  Se  Se21  1  0.94004055  0.75000000  0.80157449  1.0
  Se  Se22  1  0.55995945  0.25000000  0.30157449  1.0
  Se  Se23  1  0.05995945  0.25000000  0.19842551  1.0
  Se  Se24  1  0.42731301  0.75000000  0.07333410  1.0
  Se  Se25  1  0.92731301  0.75000000  0.42666590  1.0
  Se  Se26  1  0.57268699  0.25000000  0.92666590  1.0
  Se  Se27  1  0.07268699  0.25000000  0.57333410  1.0
