# generated using pymatgen
data_Hf5Al3C
_symmetry_space_group_name_H-M   'P 1'
_cell_length_a   8.15997786
_cell_length_b   8.15997786
_cell_length_c   5.67004208
_cell_angle_alpha   90.00000000
_cell_angle_beta   90.00000000
_cell_angle_gamma   120.00000000
_symmetry_Int_Tables_number   1
_chemical_formula_structural   Hf5Al3C
_chemical_formula_sum   'Hf10 Al6 C2'
_cell_volume   326.96018797
_cell_formula_units_Z   2
loop_
 _symmetry_equiv_pos_site_id
 _symmetry_equiv_pos_as_xyz
  1  'x, y, z'
loop_
 _atom_site_type_symbol
 _atom_site_label
 _atom_site_symmetry_multiplicity
 _atom_site_fract_x
 _atom_site_fract_y
 _atom_site_fract_z
 _atom_site_occupancy
  Hf  Hf0  1  0.77641702  0.77641702  0.25000000  1.0
  Hf  Hf1  1  0.77641702  0.00000000  0.75000000  1.0
  Hf  Hf2  1  0.00000000  0.77641702  0.75000000  1.0
  Hf  Hf3  1  0.00000000  0.22358298  0.25000000  1.0
  Hf  Hf4  1  0.22358298  0.22358298  0.75000000  1.0
  Hf  Hf5  1  0.22358298  -0.00000000  0.25000000  1.0
  Hf  Hf6  1  0.33333333  0.66666667  0.50000000  1.0
  Hf  Hf7  1  0.33333333  0.66666667  0.00000000  1.0
  Hf  Hf8  1  0.66666667  0.33333333  0.50000000  1.0
  Hf  Hf9  1  0.66666667  0.33333333  -0.00000000  1.0
  Al  Al10  1  0.40278172  0.40278172  0.25000000  1.0
  Al  Al11  1  0.40278172  -0.00000000  0.75000000  1.0
  Al  Al12  1  0.00000000  0.40278172  0.75000000  1.0
  Al  Al13  1  0.00000000  0.59721828  0.25000000  1.0
  Al  Al14  1  0.59721828  0.59721828  0.75000000  1.0
  Al  Al15  1  0.59721828  0.00000000  0.25000000  1.0
  C  C16  1  0.00000000  -0.00000000  0.50000000  1.0
  C  C17  1  0.00000000  0.00000000  0.00000000  1.0
