# generated using pymatgen
data_SrNiP2O7
_symmetry_space_group_name_H-M   'P 1'
_cell_length_a   5.33822361
_cell_length_b   8.35585841
_cell_length_c   13.86620779
_cell_angle_alpha   90.00000000
_cell_angle_beta   112.35521915
_cell_angle_gamma   90.00000000
_symmetry_Int_Tables_number   1
_chemical_formula_structural   SrNiP2O7
_chemical_formula_sum   'Sr4 Ni4 P8 O28'
_cell_volume   572.02344160
_cell_formula_units_Z   4
loop_
 _symmetry_equiv_pos_site_id
 _symmetry_equiv_pos_as_xyz
  1  'x, y, z'
loop_
 _atom_site_type_symbol
 _atom_site_label
 _atom_site_symmetry_multiplicity
 _atom_site_fract_x
 _atom_site_fract_y
 _atom_site_fract_z
 _atom_site_occupancy
  Sr  Sr0  1  0.00431152  0.65995973  0.21875970  1.0
  Sr  Sr1  1  0.00431152  0.84004027  0.71875970  1.0
  Sr  Sr2  1  0.99568848  0.15995973  0.28124030  1.0
  Sr  Sr3  1  0.99568848  0.34004027  0.78124030  1.0
  Ni  Ni4  1  0.69851173  0.85120531  0.38739769  1.0
  Ni  Ni5  1  0.69851173  0.64879469  0.88739769  1.0
  Ni  Ni6  1  0.30148827  0.35120531  0.11260231  1.0
  Ni  Ni7  1  0.30148827  0.14879469  0.61260231  1.0
  P  P8  1  0.67494254  0.19673530  0.48227517  1.0
  P  P9  1  0.67494254  0.30326470  0.98227517  1.0
  P  P10  1  0.32505746  0.69673530  0.01772483  1.0
  P  P11  1  0.32505746  0.80326470  0.51772483  1.0
  P  P12  1  0.58777892  0.46333203  0.33514407  1.0
  P  P13  1  0.58777892  0.03666797  0.83514407  1.0
  P  P14  1  0.41222108  0.96333203  0.16485593  1.0
  P  P15  1  0.41222108  0.53666797  0.66485593  1.0
  O  O16  1  0.90231022  0.31632989  0.09129084  1.0
  O  O17  1  0.90231022  0.18367011  0.59129084  1.0
  O  O18  1  0.09768978  0.81632989  0.40870916  1.0
  O  O19  1  0.09768978  0.68367011  0.90870916  1.0
  O  O20  1  0.68768778  0.38406909  0.45030492  1.0
  O  O21  1  0.68768778  0.11593091  0.95030492  1.0
  O  O22  1  0.31231222  0.88406909  0.04969508  1.0
  O  O23  1  0.31231222  0.61593091  0.54969508  1.0
  O  O24  1  0.81174501  0.43957881  0.29319025  1.0
  O  O25  1  0.81174501  0.06042119  0.79319025  1.0
  O  O26  1  0.18825499  0.93957881  0.20680975  1.0
  O  O27  1  0.18825499  0.56042119  0.70680975  1.0
  O  O28  1  0.73229124  0.09605469  0.39913742  1.0
  O  O29  1  0.73229124  0.40394531  0.89913742  1.0
  O  O30  1  0.26770876  0.59605469  0.10086258  1.0
  O  O31  1  0.26770876  0.90394531  0.60086258  1.0
  O  O32  1  0.38643453  0.16617141  0.47898282  1.0
  O  O33  1  0.38643453  0.33382859  0.97898282  1.0
  O  O34  1  0.61356547  0.66617141  0.02101718  1.0
  O  O35  1  0.61356547  0.83382859  0.52101718  1.0
  O  O36  1  0.47921028  0.13868759  0.15237603  1.0
  O  O37  1  0.47921028  0.36131241  0.65237603  1.0
  O  O38  1  0.52078972  0.63868759  0.34762397  1.0
  O  O39  1  0.52078972  0.86131241  0.84762397  1.0
  O  O40  1  0.32166085  0.37806697  0.26548310  1.0
  O  O41  1  0.32166085  0.12193303  0.76548310  1.0
  O  O42  1  0.67833915  0.87806697  0.23451690  1.0
  O  O43  1  0.67833915  0.62193303  0.73451690  1.0
