# generated using pymatgen
data_Mg2GeO4
_symmetry_space_group_name_H-M   'P 1'
_cell_length_a   5.89895803
_cell_length_b   5.89895803
_cell_length_c   5.89895803
_cell_angle_alpha   60.00000000
_cell_angle_beta   60.00000000
_cell_angle_gamma   60.00000000
_symmetry_Int_Tables_number   1
_chemical_formula_structural   Mg2GeO4
_chemical_formula_sum   'Mg4 Ge2 O8'
_cell_volume   145.14795459
_cell_formula_units_Z   2
loop_
 _symmetry_equiv_pos_site_id
 _symmetry_equiv_pos_as_xyz
  1  'x, y, z'
loop_
 _atom_site_type_symbol
 _atom_site_label
 _atom_site_symmetry_multiplicity
 _atom_site_fract_x
 _atom_site_fract_y
 _atom_site_fract_z
 _atom_site_occupancy
  Mg  Mg0  1  0.12500000  0.12500000  1.62500000  1.0
  Mg  Mg1  1  0.12500000  0.62500000  0.12500000  1.0
  Mg  Mg2  1  0.62500000  0.12500000  1.12500000  1.0
  Mg  Mg3  1  0.12500000  0.12500000  0.12500000  1.0
  Ge  Ge4  1  0.75000000  -0.25000000  0.75000000  1.0
  Ge  Ge5  1  0.50000000  0.50000000  -0.50000000  1.0
  O  O6  1  0.37499997  0.37499997  -0.12499990  1.0
  O  O7  1  0.37499997  -0.12499990  0.37499997  1.0
  O  O8  1  -0.12499990  0.37499997  0.37499997  1.0
  O  O9  1  0.37499997  0.37499997  0.37499997  1.0
  O  O10  1  -0.12499997  0.87500003  0.37499990  1.0
  O  O11  1  0.87500003  -0.62500010  0.87500003  1.0
  O  O12  1  -0.62500010  0.87500003  0.87500003  1.0
  O  O13  1  0.87500003  -0.12499997  0.87500003  1.0
