# generated using pymatgen
data_Si2Te(H3C)6
_symmetry_space_group_name_H-M   'P 1'
_cell_length_a   7.85010496
_cell_length_b   7.85010496
_cell_length_c   12.34173774
_cell_angle_alpha   82.13145580
_cell_angle_beta   97.86854420
_cell_angle_gamma   78.96142890
_symmetry_Int_Tables_number   1
_chemical_formula_structural   Si2Te(H3C)6
_chemical_formula_sum   'Si4 Te2 H36 C12'
_cell_volume   728.96901763
_cell_formula_units_Z   2
loop_
 _symmetry_equiv_pos_site_id
 _symmetry_equiv_pos_as_xyz
  1  'x, y, z'
loop_
 _atom_site_type_symbol
 _atom_site_label
 _atom_site_symmetry_multiplicity
 _atom_site_fract_x
 _atom_site_fract_y
 _atom_site_fract_z
 _atom_site_occupancy
  Si  Si0  1  1.56481278  0.20667645  0.20746748  1.0
  Si  Si1  1  1.20667645  0.56481278  0.29253252  1.0
  Si  Si2  1  0.43518722  -0.20667645  0.79253252  1.0
  Si  Si3  1  0.79332355  -0.56481278  0.70746748  1.0
  Te  Te4  1  0.51982949  -0.48017051  0.25000000  1.0
  Te  Te5  1  1.48017051  0.48017051  0.75000000  1.0
  H  H6  1  1.50584808  0.06024344  0.38801465  1.0
  H  H7  1  1.06024344  0.50584808  0.11198535  1.0
  H  H8  1  0.49415192  -0.06024344  0.61198535  1.0
  H  H9  1  0.93975656  -0.50584808  0.88801465  1.0
  H  H10  1  0.63633938  -0.09179484  0.32190773  1.0
  H  H11  1  0.90820516  -0.36366062  0.17809227  1.0
  H  H12  1  1.36366062  0.09179484  0.67809227  1.0
  H  H13  1  1.09179484  0.36366062  0.82190773  1.0
  H  H14  1  1.73349353  0.05770597  0.39353960  1.0
  H  H15  1  1.05770597  0.73349353  0.10646040  1.0
  H  H16  1  0.26650647  -0.05770597  0.60646040  1.0
  H  H17  1  0.94229403  -0.73349353  0.89353960  1.0
  H  H18  1  1.24880054  0.18976321  0.15281797  1.0
  H  H19  1  1.18976321  0.24880054  0.34718203  1.0
  H  H20  1  0.75119946  -0.18976321  0.84718203  1.0
  H  H21  1  0.81023679  -0.24880054  0.65281797  1.0
  H  H22  1  1.34056630  0.26257307  0.03519698  1.0
  H  H23  1  1.26257307  0.34056630  0.46480302  1.0
  H  H24  1  0.65943370  -0.26257307  0.96480302  1.0
  H  H25  1  0.73742693  -0.34056630  0.53519698  1.0
  H  H26  1  1.39484626  0.03593940  0.09725263  1.0
  H  H27  1  1.03593940  0.39484626  0.40274737  1.0
  H  H28  1  0.60515374  -0.03593940  0.90274737  1.0
  H  H29  1  0.96406060  -0.39484626  0.59725263  1.0
  H  H30  1  1.79565515  0.04730885  0.11730313  1.0
  H  H31  1  1.04730885  0.79565515  0.38269687  1.0
  H  H32  1  0.20434485  -0.04730885  0.88269687  1.0
  H  H33  1  0.95269115  -0.79565515  0.61730313  1.0
  H  H34  1  0.73208419  -0.72667679  0.05456619  1.0
  H  H35  1  0.27332321  -0.26791581  0.44543381  1.0
  H  H36  1  1.26791581  0.72667679  0.94543381  1.0
  H  H37  1  1.72667679  0.26791581  0.55456619  1.0
  H  H38  1  0.87638680  -0.79061209  0.18472837  1.0
  H  H39  1  0.20938791  -0.12361320  0.31527163  1.0
  H  H40  1  1.12361320  0.79061209  0.81527163  1.0
  H  H41  1  1.79061209  0.12361320  0.68472837  1.0
  C  C42  1  1.61458098  0.04330199  0.34046064  1.0
  C  C43  1  1.04330199  0.61458098  0.15953936  1.0
  C  C44  1  0.38541902  -0.04330199  0.65953936  1.0
  C  C45  1  0.95669801  -0.61458098  0.84046064  1.0
  C  C46  1  1.36788661  0.17168941  0.11451762  1.0
  C  C47  1  1.17168941  0.36788661  0.38548238  1.0
  C  C48  1  0.63211339  -0.17168941  0.88548238  1.0
  C  C49  1  0.82831059  -0.36788661  0.61451762  1.0
  C  C50  1  1.76107700  0.18275243  0.13410189  1.0
  C  C51  1  1.18275243  0.76107700  0.36589811  1.0
  C  C52  1  0.23892300  -0.18275243  0.86589811  1.0
  C  C53  1  0.81724757  -0.76107700  0.63410189  1.0
