# generated using pymatgen
data_TiCoGe2
_symmetry_space_group_name_H-M   'P 1'
_cell_length_a   8.84711637
_cell_length_b   9.91379214
_cell_length_c   7.74753267
_cell_angle_alpha   90.00000000
_cell_angle_beta   90.00000000
_cell_angle_gamma   90.00000000
_symmetry_Int_Tables_number   1
_chemical_formula_structural   TiCoGe2
_chemical_formula_sum   'Ti12 Co12 Ge24'
_cell_volume   679.52425725
_cell_formula_units_Z   12
loop_
 _symmetry_equiv_pos_site_id
 _symmetry_equiv_pos_as_xyz
  1  'x, y, z'
loop_
 _atom_site_type_symbol
 _atom_site_label
 _atom_site_symmetry_multiplicity
 _atom_site_fract_x
 _atom_site_fract_y
 _atom_site_fract_z
 _atom_site_occupancy
  Ti  Ti0  1  0.16839032  0.54600175  0.76225885  1.0
  Ti  Ti1  1  0.16839032  0.54600175  0.23774115  1.0
  Ti  Ti2  1  0.66839032  0.95399825  0.76225885  1.0
  Ti  Ti3  1  0.66839032  0.95399825  0.23774115  1.0
  Ti  Ti4  1  0.83160968  0.45399825  0.76225885  1.0
  Ti  Ti5  1  0.83160968  0.45399825  0.23774115  1.0
  Ti  Ti6  1  0.33160968  0.04600175  0.76225885  1.0
  Ti  Ti7  1  0.33160968  0.04600175  0.23774115  1.0
  Ti  Ti8  1  0.16606863  0.81791087  0.00000000  1.0
  Ti  Ti9  1  0.66606863  0.68208913  0.00000000  1.0
  Ti  Ti10  1  0.83393137  0.18208913  0.00000000  1.0
  Ti  Ti11  1  0.33393137  0.31791087  0.00000000  1.0
  Co  Co12  1  0.40525878  0.74911017  0.75039917  1.0
  Co  Co13  1  0.40525878  0.74911017  0.24960083  1.0
  Co  Co14  1  0.90525878  0.75088983  0.75039917  1.0
  Co  Co15  1  0.90525878  0.75088983  0.24960083  1.0
  Co  Co16  1  0.59474122  0.25088983  0.75039917  1.0
  Co  Co17  1  0.59474122  0.25088983  0.24960083  1.0
  Co  Co18  1  0.09474122  0.24911017  0.75039917  1.0
  Co  Co19  1  0.09474122  0.24911017  0.24960083  1.0
  Co  Co20  1  0.50000000  0.50000000  0.75408503  1.0
  Co  Co21  1  0.50000000  0.50000000  0.24591497  1.0
  Co  Co22  1  0.00000000  0.00000000  0.75408503  1.0
  Co  Co23  1  0.00000000  0.00000000  0.24591497  1.0
  Ge  Ge24  1  0.15948779  0.81722697  0.66136214  1.0
  Ge  Ge25  1  0.15948779  0.81722697  0.33863786  1.0
  Ge  Ge26  1  0.65948779  0.68277303  0.66136214  1.0
  Ge  Ge27  1  0.65948779  0.68277303  0.33863786  1.0
  Ge  Ge28  1  0.84051221  0.18277303  0.66136214  1.0
  Ge  Ge29  1  0.84051221  0.18277303  0.33863786  1.0
  Ge  Ge30  1  0.34051221  0.31722697  0.66136214  1.0
  Ge  Ge31  1  0.34051221  0.31722697  0.33863786  1.0
  Ge  Ge32  1  0.45714462  0.87960404  0.50000000  1.0
  Ge  Ge33  1  0.95714462  0.62039596  0.50000000  1.0
  Ge  Ge34  1  0.54285538  0.12039596  0.50000000  1.0
  Ge  Ge35  1  0.04285538  0.37960404  0.50000000  1.0
  Ge  Ge36  1  0.36265762  0.59243101  0.50000000  1.0
  Ge  Ge37  1  0.86265762  0.90756899  0.50000000  1.0
  Ge  Ge38  1  0.63734238  0.40756899  0.50000000  1.0
  Ge  Ge39  1  0.13734238  0.09243101  0.50000000  1.0
  Ge  Ge40  1  0.45902539  0.87914827  0.00000000  1.0
  Ge  Ge41  1  0.95902539  0.62085173  0.00000000  1.0
  Ge  Ge42  1  0.54097461  0.12085173  0.00000000  1.0
  Ge  Ge43  1  0.04097461  0.37914827  0.00000000  1.0
  Ge  Ge44  1  0.36939693  0.59861742  0.00000000  1.0
  Ge  Ge45  1  0.86939693  0.90138258  0.00000000  1.0
  Ge  Ge46  1  0.63060307  0.40138258  0.00000000  1.0
  Ge  Ge47  1  0.13060307  0.09861742  0.00000000  1.0
