# generated using pymatgen
data_KFe3H6(SO7)2
_symmetry_space_group_name_H-M   'P 1'
_cell_length_a   7.25592930
_cell_length_b   7.25592930
_cell_length_c   7.25592930
_cell_angle_alpha   60.48828587
_cell_angle_beta   60.48828587
_cell_angle_gamma   60.48828587
_symmetry_Int_Tables_number   1
_chemical_formula_structural   KFe3H6(SO7)2
_chemical_formula_sum   'K1 Fe3 H6 S2 O14'
_cell_volume   273.10570459
_cell_formula_units_Z   1
loop_
 _symmetry_equiv_pos_site_id
 _symmetry_equiv_pos_as_xyz
  1  'x, y, z'
loop_
 _atom_site_type_symbol
 _atom_site_label
 _atom_site_symmetry_multiplicity
 _atom_site_fract_x
 _atom_site_fract_y
 _atom_site_fract_z
 _atom_site_occupancy
  Fe  Fe0  1  0.50000000  1.00000000  -0.50000000  1.0
  Fe  Fe1  1  0.50000000  -0.50000000  0.00000000  1.0
  Fe  Fe2  1  0.00000000  0.50000000  -0.50000000  1.0
  S  S3  1  0.80815195  0.80815195  -0.19184805  1.0
  S  S4  1  1.19184805  1.19184805  0.19184805  1.0
  K  K5  1  0.50000000  0.50000000  -0.50000000  1.0
  O  O6  1  1.33207559  1.33207559  -0.00334175  1.0
  O  O7  1  1.33207559  0.99665825  0.33207559  1.0
  O  O8  1  1.00334175  0.66792441  -0.33207559  1.0
  O  O9  1  0.66792441  1.00334175  -0.33207559  1.0
  O  O10  1  0.66792441  0.66792441  0.00334175  1.0
  O  O11  1  0.99665825  1.33207559  0.33207559  1.0
  O  O12  1  0.89219794  0.89219794  -0.10780206  1.0
  O  O13  1  1.10780206  1.10780206  0.10780206  1.0
  O  O14  1  0.23475889  0.23475889  -0.37990039  1.0
  O  O15  1  0.23475889  0.62009961  -0.76524111  1.0
  O  O16  1  0.37990039  0.76524111  -0.23475889  1.0
  O  O17  1  0.76524111  0.37990039  -0.23475889  1.0
  O  O18  1  0.76524111  0.76524111  -0.62009961  1.0
  O  O19  1  0.62009961  0.23475889  -0.76524111  1.0
  H  H20  1  0.19253923  0.19253923  -0.21611182  1.0
  H  H21  1  0.19253923  0.78388818  -0.80746077  1.0
  H  H22  1  1.21611182  -0.19253923  -0.19253923  1.0
  H  H23  1  0.80746077  0.21611182  -0.19253923  1.0
  H  H24  1  0.80746077  -0.19253923  0.21611182  1.0
  H  H25  1  0.78388818  0.19253923  -0.80746077  1.0
