# generated using pymatgen
data_Gd3BBr3
_symmetry_space_group_name_H-M   'P 1'
_cell_length_a   9.89590847
_cell_length_b   9.89590847
_cell_length_c   9.89590847
_cell_angle_alpha   109.47122063
_cell_angle_beta   109.47122063
_cell_angle_gamma   109.47122063
_symmetry_Int_Tables_number   1
_chemical_formula_structural   Gd3BBr3
_chemical_formula_sum   'Gd12 B4 Br12'
_cell_volume   746.01080663
_cell_formula_units_Z   4
loop_
 _symmetry_equiv_pos_site_id
 _symmetry_equiv_pos_as_xyz
  1  'x, y, z'
loop_
 _atom_site_type_symbol
 _atom_site_label
 _atom_site_symmetry_multiplicity
 _atom_site_fract_x
 _atom_site_fract_y
 _atom_site_fract_z
 _atom_site_occupancy
  Gd  Gd0  1  1.75000000  1.22984660  1.27015340  1.0
  Gd  Gd1  1  0.75000000  1.02015340  0.47984660  1.0
  Gd  Gd2  1  1.04030679  0.27015340  1.02015340  1.0
  Gd  Gd3  1  0.45969321  0.47984660  0.22984660  1.0
  Gd  Gd4  1  1.27015340  1.02015340  1.04030679  1.0
  Gd  Gd5  1  1.22984660  1.27015340  0.75000000  1.0
  Gd  Gd6  1  1.02015340  1.04030679  0.27015340  1.0
  Gd  Gd7  1  1.47984660  0.75000000  1.02015340  1.0
  Gd  Gd8  1  1.02015340  1.47984660  0.75000000  1.0
  Gd  Gd9  1  1.47984660  1.22984660  1.45969321  1.0
  Gd  Gd10  1  0.22984660  0.45969321  0.47984660  1.0
  Gd  Gd11  1  1.27015340  0.75000000  1.22984660  1.0
  B  B12  1  1.50000000  1.00000000  1.25000000  1.0
  B  B13  1  1.00000000  1.25000000  0.50000000  1.0
  B  B14  1  0.25000000  0.25000000  0.25000000  1.0
  B  B15  1  1.25000000  0.50000000  1.00000000  1.0
  Br  Br16  1  0.51480188  0.50740094  0.75740094  1.0
  Br  Br17  1  0.98519812  0.74259906  0.99259906  1.0
  Br  Br18  1  1.25000000  0.75740094  0.74259906  1.0
  Br  Br19  1  1.25000000  0.99259906  0.50740094  1.0
  Br  Br20  1  0.99259906  1.50740094  1.25000000  1.0
  Br  Br21  1  1.50740094  1.75740094  1.51480188  1.0
  Br  Br22  1  0.74259906  0.25000000  0.75740094  1.0
  Br  Br23  1  0.75740094  0.51480188  0.50740094  1.0
  Br  Br24  1  0.99259906  0.98519812  0.74259906  1.0
  Br  Br25  1  1.50740094  1.25000000  0.99259906  1.0
  Br  Br26  1  0.75740094  0.74259906  0.25000000  1.0
  Br  Br27  1  1.74259906  0.99259906  0.98519812  1.0
