# generated using pymatgen
data_K2Hg3(GeS4)2
_symmetry_space_group_name_H-M   'P 1'
_cell_length_a   6.55048102
_cell_length_b   6.55048102
_cell_length_c   19.64243084
_cell_angle_alpha   90.00000000
_cell_angle_beta   90.00000000
_cell_angle_gamma   82.20872362
_symmetry_Int_Tables_number   1
_chemical_formula_structural   K2Hg3(GeS4)2
_chemical_formula_sum   'K4 Hg6 Ge4 S16'
_cell_volume   835.05254564
_cell_formula_units_Z   2
loop_
 _symmetry_equiv_pos_site_id
 _symmetry_equiv_pos_as_xyz
  1  'x, y, z'
loop_
 _atom_site_type_symbol
 _atom_site_label
 _atom_site_symmetry_multiplicity
 _atom_site_fract_x
 _atom_site_fract_y
 _atom_site_fract_z
 _atom_site_occupancy
  K  K0  1  -0.56164689  1.16496865  0.11691068  1.0
  K  K1  1  -0.66496865  1.06164689  0.61691068  1.0
  K  K2  1  -0.16496865  1.56164689  0.88308932  1.0
  K  K3  1  -0.06164689  1.66496865  0.38308932  1.0
  Hg  Hg4  1  0.37238866  0.71969546  0.24649736  1.0
  Hg  Hg5  1  -0.21969546  1.12761134  0.74649736  1.0
  Hg  Hg6  1  0.28030454  0.62761134  0.75350264  1.0
  Hg  Hg7  1  -0.12761134  1.21969546  0.25350264  1.0
  Hg  Hg8  1  0.50782677  0.49217323  0.50000000  1.0
  Hg  Hg9  1  0.00782677  -0.00782677  0.00000000  1.0
  Ge  Ge10  1  -0.56355398  1.14734722  0.36304418  1.0
  Ge  Ge11  1  -0.64734722  1.06355398  0.86304418  1.0
  Ge  Ge12  1  -0.14734722  1.56355398  0.63695582  1.0
  Ge  Ge13  1  -0.06355398  1.64734722  0.13695582  1.0
  S  S14  1  -0.22866207  1.19217189  0.37253892  1.0
  S  S15  1  0.30782811  0.72866207  0.87253892  1.0
  S  S16  1  -0.19217189  1.22866207  0.62746108  1.0
  S  S17  1  0.27133793  0.69217189  0.12746108  1.0
  S  S18  1  0.39697537  0.80957779  0.36692752  1.0
  S  S19  1  -0.30957779  1.10302463  0.86692752  1.0
  S  S20  1  0.19042221  0.60302463  0.63307248  1.0
  S  S21  1  -0.10302463  1.30957779  0.13307248  1.0
  S  S22  1  -0.70953303  1.29643856  0.27210438  1.0
  S  S23  1  -0.79643856  1.20953303  0.77210438  1.0
  S  S24  1  -0.29643856  1.70953303  0.72789562  1.0
  S  S25  1  -0.20953303  1.79643856  0.22789562  1.0
  S  S26  1  0.77749757  0.76929284  0.03884048  1.0
  S  S27  1  0.73070716  0.72250243  0.53884048  1.0
  S  S28  1  0.23070716  0.22250243  0.96115952  1.0
  S  S29  1  0.27749757  0.26929284  0.46115952  1.0
