# generated using pymatgen
data_Mg2SiO4
_symmetry_space_group_name_H-M   'P 1'
_cell_length_a   4.79788950
_cell_length_b   6.05927898
_cell_length_c   10.50756857
_cell_angle_alpha   90.00000000
_cell_angle_beta   89.76140484
_cell_angle_gamma   90.00000000
_symmetry_Int_Tables_number   1
_chemical_formula_structural   Mg2SiO4
_chemical_formula_sum   'Mg8 Si4 O16'
_cell_volume   305.47076878
_cell_formula_units_Z   4
loop_
 _symmetry_equiv_pos_site_id
 _symmetry_equiv_pos_as_xyz
  1  'x, y, z'
loop_
 _atom_site_type_symbol
 _atom_site_label
 _atom_site_symmetry_multiplicity
 _atom_site_fract_x
 _atom_site_fract_y
 _atom_site_fract_z
 _atom_site_occupancy
  Mg  Mg0  1  -0.00000000  0.50000000  0.50000000  1.0
  Mg  Mg1  1  0.50000000  0.00000000  0.00000000  1.0
  Mg  Mg2  1  0.50000000  0.50000000  0.00000000  1.0
  Mg  Mg3  1  0.50000000  0.00000000  0.50000000  1.0
  Mg  Mg4  1  0.50837633  0.74318315  0.25862586  1.0
  Mg  Mg5  1  0.50837633  0.25681685  0.25862586  1.0
  Mg  Mg6  1  0.49162367  0.25681685  0.74137414  1.0
  Mg  Mg7  1  0.49162367  0.74318315  0.74137414  1.0
  Si  Si8  1  0.90267524  0.50000000  0.83404699  1.0
  Si  Si9  1  0.09732476  0.50000000  0.16595301  1.0
  Si  Si10  1  0.92248081  -0.00000000  0.33177875  1.0
  Si  Si11  1  0.07751919  -0.00000000  0.66822125  1.0
  O  O12  1  0.23273040  0.50000000  0.31333890  1.0
  O  O13  1  0.76726960  0.50000000  0.68666110  1.0
  O  O14  1  0.75941702  0.50000000  0.16619513  1.0
  O  O15  1  0.24058298  0.50000000  0.83380487  1.0
  O  O16  1  0.24982321  -0.00000000  0.80717649  1.0
  O  O17  1  0.75017679  -0.00000000  0.19282351  1.0
  O  O18  1  0.26124941  -0.00000000  0.33388275  1.0
  O  O19  1  0.73875059  -0.00000000  0.66611725  1.0
  O  O20  1  0.26327523  0.71593638  0.09787761  1.0
  O  O21  1  0.26327523  0.28406362  0.09787761  1.0
  O  O22  1  0.73672477  0.28406362  0.90212239  1.0
  O  O23  1  0.73672477  0.71593638  0.90212239  1.0
  O  O24  1  0.22198215  0.78334156  0.59282169  1.0
  O  O25  1  0.22198215  0.21665844  0.59282169  1.0
  O  O26  1  0.77801785  0.21665844  0.40717831  1.0
  O  O27  1  0.77801785  0.78334156  0.40717831  1.0
