# generated using pymatgen
data_Cs2NaCo(CN)6
_symmetry_space_group_name_H-M   'P 1'
_cell_length_a   7.58779751
_cell_length_b   7.79898901
_cell_length_c   13.27158321
_cell_angle_alpha   90.00000000
_cell_angle_beta   125.00206126
_cell_angle_gamma   90.00000000
_symmetry_Int_Tables_number   1
_chemical_formula_structural   Cs2NaCo(CN)6
_chemical_formula_sum   'Cs4 Na2 Co2 C12 N12'
_cell_volume   643.32488964
_cell_formula_units_Z   2
loop_
 _symmetry_equiv_pos_site_id
 _symmetry_equiv_pos_as_xyz
  1  'x, y, z'
loop_
 _atom_site_type_symbol
 _atom_site_label
 _atom_site_symmetry_multiplicity
 _atom_site_fract_x
 _atom_site_fract_y
 _atom_site_fract_z
 _atom_site_occupancy
  Cs  Cs0  1  0.23803815  0.95331752  0.74955858  1.0
  Cs  Cs1  1  0.23803815  0.54668248  0.24955858  1.0
  Cs  Cs2  1  0.76196185  0.04668248  0.25044142  1.0
  Cs  Cs3  1  0.76196185  0.45331752  0.75044142  1.0
  Na  Na4  1  0.50000000  0.00000000  0.50000000  1.0
  Na  Na5  1  0.50000000  0.50000000  -0.00000000  1.0
  Co  Co6  1  0.00000000  0.00000000  0.00000000  1.0
  Co  Co7  1  0.00000000  0.50000000  0.50000000  1.0
  C  C8  1  0.78359353  0.01027597  0.83069550  1.0
  C  C9  1  0.78359353  0.48972403  0.33069549  1.0
  C  C10  1  0.21640647  0.98972403  0.16930450  1.0
  C  C11  1  0.21640647  0.51027597  0.66930450  1.0
  C  C12  1  0.17658338  0.14054923  0.97814113  1.0
  C  C13  1  0.17658338  0.35945077  0.47814113  1.0
  C  C14  1  0.82341662  0.85945077  0.02185887  1.0
  C  C15  1  0.82341662  0.64054923  0.52185887  1.0
  C  C16  1  0.88600535  0.19528714  0.02597770  1.0
  C  C17  1  0.88600535  0.30471286  0.52597770  1.0
  C  C18  1  0.11399465  0.80471286  0.97402230  1.0
  C  C19  1  0.11399465  0.69528714  0.47402230  1.0
  N  N20  1  0.64831146  0.01863215  0.72492125  1.0
  N  N21  1  0.64831146  0.48136785  0.22492125  1.0
  N  N22  1  0.35168854  0.98136785  0.27507875  1.0
  N  N23  1  0.35168854  0.51863215  0.77507875  1.0
  N  N24  1  0.28584952  0.22805577  0.96347959  1.0
  N  N25  1  0.28584952  0.27194423  0.46347959  1.0
  N  N26  1  0.71415048  0.77194423  0.03652041  1.0
  N  N27  1  0.71415048  0.72805577  0.53652041  1.0
  N  N28  1  0.81576113  0.31713473  0.04298469  1.0
  N  N29  1  0.81576113  0.18286527  0.54298469  1.0
  N  N30  1  0.18423887  0.68286527  0.95701531  1.0
  N  N31  1  0.18423887  0.81713473  0.45701531  1.0
