# generated using pymatgen
data_GdAl3Cu
_symmetry_space_group_name_H-M   'P 1'
_cell_length_a   6.10880356
_cell_length_b   6.10880356
_cell_length_c   6.10880356
_cell_angle_alpha   140.14326779
_cell_angle_beta   140.14326779
_cell_angle_gamma   57.63583145
_symmetry_Int_Tables_number   1
_chemical_formula_structural   GdAl3Cu
_chemical_formula_sum   'Gd1 Al3 Cu1'
_cell_volume   92.81621105
_cell_formula_units_Z   1
loop_
 _symmetry_equiv_pos_site_id
 _symmetry_equiv_pos_as_xyz
  1  'x, y, z'
loop_
 _atom_site_type_symbol
 _atom_site_label
 _atom_site_symmetry_multiplicity
 _atom_site_fract_x
 _atom_site_fract_y
 _atom_site_fract_z
 _atom_site_occupancy
  Gd  Gd0  1  0.00060830  0.00060830  -0.00000000  1.0
  Al  Al1  1  0.40783657  0.40783657  -0.00000000  1.0
  Al  Al2  1  0.24955579  0.74955579  0.50000000  1.0
  Al  Al3  1  0.74955579  0.24955579  0.50000000  1.0
  Cu  Cu4  1  0.62844355  0.62844355  1.00000000  1.0
