# generated using pymatgen
data_CuSiO4
_symmetry_space_group_name_H-M   'P 1'
_cell_length_a   9.60321442
_cell_length_b   9.60321442
_cell_length_c   9.60321442
_cell_angle_alpha   114.28071793
_cell_angle_beta   114.28071793
_cell_angle_gamma   114.28071793
_symmetry_Int_Tables_number   1
_chemical_formula_structural   CuSiO4
_chemical_formula_sum   'Si6 Cu6 O24'
_cell_volume   526.67614187
_cell_formula_units_Z   6
loop_
 _symmetry_equiv_pos_site_id
 _symmetry_equiv_pos_as_xyz
  1  'x, y, z'
loop_
 _atom_site_type_symbol
 _atom_site_label
 _atom_site_symmetry_multiplicity
 _atom_site_fract_x
 _atom_site_fract_y
 _atom_site_fract_z
 _atom_site_occupancy
  Si  Si0  1  0.81332414  0.06714387  0.18842339  1.0
  Si  Si1  1  0.81157661  0.18667586  -0.06714387  1.0
  Si  Si2  1  0.93285613  0.81157661  0.18667586  1.0
  Si  Si3  1  1.18667586  0.93285613  0.81157661  1.0
  Si  Si4  1  0.18842339  0.81332414  -0.93285613  1.0
  Si  Si5  1  1.06714387  1.18842339  -0.18667586  1.0
  O  O6  1  0.94906921  0.00515817  0.24007760  1.0
  O  O7  1  0.75992240  0.05093079  -0.00515817  1.0
  O  O8  1  0.99484183  0.75992240  0.05093079  1.0
  O  O9  1  1.05093079  0.99484183  0.75992240  1.0
  O  O10  1  0.24007760  -0.05093079  0.00515817  1.0
  O  O11  1  1.00515817  1.24007760  -0.05093079  1.0
  O  O12  1  0.44307355  0.22279269  -0.30976948  1.0
  O  O13  1  1.30976948  0.55692645  0.77720731  1.0
  O  O14  1  0.77720731  1.30976948  -0.44307355  1.0
  O  O15  1  0.55692645  0.77720731  -0.69023052  1.0
  O  O16  1  0.69023052  0.44307355  0.22279269  1.0
  O  O17  1  1.22279269  0.69023052  0.44307355  1.0
  O  O18  1  0.94958012  0.31437261  0.38892923  1.0
  O  O19  1  0.61107077  0.05041988  -0.31437261  1.0
  O  O20  1  0.68562739  0.61107077  0.05041988  1.0
  O  O21  1  1.05041988  0.68562739  0.61107077  1.0
  O  O22  1  0.38892923  0.94958012  -0.68562739  1.0
  O  O23  1  1.31437261  1.38892923  -0.05041988  1.0
  O  O24  1  1.08591518  0.87398763  0.41077042  1.0
  O  O25  1  0.58922958  -0.08591518  0.12601237  1.0
  O  O26  1  1.12601237  1.58922958  -0.08591518  1.0
  O  O27  1  0.91408482  1.12601237  -0.41077042  1.0
  O  O28  1  0.41077042  0.08591518  -0.12601237  1.0
  O  O29  1  0.87398763  0.41077042  0.08591518  1.0
  Cu  Cu30  1  0.95766752  0.55150010  0.34682033  1.0
  Cu  Cu31  1  0.65317967  1.04233248  -0.55150010  1.0
  Cu  Cu32  1  0.44849990  -0.34682033  0.04233248  1.0
  Cu  Cu33  1  1.04233248  0.44849990  0.65317967  1.0
  Cu  Cu34  1  1.34682033  0.95766752  0.55150010  1.0
  Cu  Cu35  1  0.55150010  0.34682033  -0.04233248  1.0
