# generated using pymatgen
data_LiScGeO4
_symmetry_space_group_name_H-M   'P 1'
_cell_length_a   10.77308453
_cell_length_b   6.05154934
_cell_length_c   5.02180251
_cell_angle_alpha   90.00000000
_cell_angle_beta   90.00000000
_cell_angle_gamma   90.00000000
_symmetry_Int_Tables_number   1
_chemical_formula_structural   LiScGeO4
_chemical_formula_sum   'Li4 Sc4 Ge4 O16'
_cell_volume   327.39065198
_cell_formula_units_Z   4
loop_
 _symmetry_equiv_pos_site_id
 _symmetry_equiv_pos_as_xyz
  1  'x, y, z'
loop_
 _atom_site_type_symbol
 _atom_site_label
 _atom_site_symmetry_multiplicity
 _atom_site_fract_x
 _atom_site_fract_y
 _atom_site_fract_z
 _atom_site_occupancy
  Li  Li0  1  0.00000000  0.50000000  0.00000000  1.0
  Li  Li1  1  0.00000000  0.00000000  0.00000000  1.0
  Li  Li2  1  0.50000000  0.50000000  0.50000000  1.0
  Li  Li3  1  0.50000000  0.00000000  0.50000000  1.0
  Sc  Sc4  1  0.77185055  0.25000000  0.49307285  1.0
  Sc  Sc5  1  0.27185055  0.25000000  0.00692715  1.0
  Sc  Sc6  1  0.22814945  0.75000000  0.50692715  1.0
  Sc  Sc7  1  0.72814945  0.75000000  0.99307285  1.0
  Ge  Ge8  1  0.59020721  0.25000000  0.04792571  1.0
  Ge  Ge9  1  0.09020721  0.25000000  0.45207429  1.0
  Ge  Ge10  1  0.40979279  0.75000000  0.95207429  1.0
  Ge  Ge11  1  0.90979279  0.75000000  0.54792571  1.0
  O  O12  1  0.67380630  0.47013768  0.21185267  1.0
  O  O13  1  0.67380630  0.02986232  0.21185267  1.0
  O  O14  1  0.17380630  0.47013768  0.28814733  1.0
  O  O15  1  0.17380630  0.02986232  0.28814733  1.0
  O  O16  1  0.32619370  0.97013768  0.78814733  1.0
  O  O17  1  0.32619370  0.52986232  0.78814733  1.0
  O  O18  1  0.82619370  0.97013768  0.71185267  1.0
  O  O19  1  0.82619370  0.52986232  0.71185267  1.0
  O  O20  1  0.94242609  0.25000000  0.30068118  1.0
  O  O21  1  0.44242609  0.25000000  0.19931882  1.0
  O  O22  1  0.05757391  0.75000000  0.69931882  1.0
  O  O23  1  0.55757391  0.75000000  0.80068118  1.0
  O  O24  1  0.59664420  0.25000000  0.70030856  1.0
  O  O25  1  0.09664420  0.25000000  0.79969144  1.0
  O  O26  1  0.40335580  0.75000000  0.29969144  1.0
  O  O27  1  0.90335580  0.75000000  0.20030856  1.0
