# generated using pymatgen
data_SrCu9Si4
_symmetry_space_group_name_H-M   'P 1'
_cell_length_a   8.20530673
_cell_length_b   8.20530673
_cell_length_c   8.20530673
_cell_angle_alpha   120.26585498
_cell_angle_beta   120.26585498
_cell_angle_gamma   89.54013917
_symmetry_Int_Tables_number   1
_chemical_formula_structural   SrCu9Si4
_chemical_formula_sum   'Sr2 Cu18 Si8'
_cell_volume   389.05017916
_cell_formula_units_Z   2
loop_
 _symmetry_equiv_pos_site_id
 _symmetry_equiv_pos_as_xyz
  1  'x, y, z'
loop_
 _atom_site_type_symbol
 _atom_site_label
 _atom_site_symmetry_multiplicity
 _atom_site_fract_x
 _atom_site_fract_y
 _atom_site_fract_z
 _atom_site_occupancy
  Sr  Sr0  1  0.75000000  0.75000000  1.00000000  1.0
  Sr  Sr1  1  0.25000000  0.25000000  0.00000000  1.0
  Cu  Cu2  1  0.69288864  1.19288864  1.25171171  1.0
  Cu  Cu3  1  1.05882307  0.55882307  1.25171171  1.0
  Cu  Cu4  1  0.44117693  0.69288864  0.50000000  1.0
  Cu  Cu5  1  0.80711136  1.05882307  1.50000000  1.0
  Cu  Cu6  1  1.19288864  0.94117693  1.50000000  1.0
  Cu  Cu7  1  0.55882307  0.30711136  0.50000000  1.0
  Cu  Cu8  1  0.94117693  0.44117693  0.74828829  1.0
  Cu  Cu9  1  0.30711136  0.80711136  0.74828829  1.0
  Cu  Cu10  1  0.79643483  0.93576085  1.73219568  1.0
  Cu  Cu11  1  0.70356517  0.43576085  1.13932602  1.0
  Cu  Cu12  1  0.43576085  0.29643483  0.73219568  1.0
  Cu  Cu13  1  0.06423915  0.79643483  0.86067398  1.0
  Cu  Cu14  1  0.29643483  0.56423915  0.86067398  1.0
  Cu  Cu15  1  0.20356517  0.06423915  0.26780432  1.0
  Cu  Cu16  1  0.93576085  0.20356517  1.13932602  1.0
  Cu  Cu17  1  0.56423915  0.70356517  1.26780432  1.0
  Cu  Cu18  1  0.50000000  0.00000000  0.50000000  1.0
  Cu  Cu19  1  -0.00000000  0.50000000  0.50000000  1.0
  Si  Si20  1  1.20802605  0.70802605  1.14840691  1.0
  Si  Si21  1  0.44038086  0.94038086  1.14840691  1.0
  Si  Si22  1  1.05961914  1.20802605  1.50000000  1.0
  Si  Si23  1  0.29197395  0.44038086  0.50000000  1.0
  Si  Si24  1  0.70802605  0.55961914  0.50000000  1.0
  Si  Si25  1  0.94038086  0.79197395  1.50000000  1.0
  Si  Si26  1  0.55961914  1.05961914  0.85159309  1.0
  Si  Si27  1  0.79197395  0.29197395  0.85159309  1.0
