# generated using pymatgen
data_LiTcH6O7
_symmetry_space_group_name_H-M   'P 1'
_cell_length_a   7.91452759
_cell_length_b   7.91452759
_cell_length_c   5.76369762
_cell_angle_alpha   90.00000000
_cell_angle_beta   90.00000000
_cell_angle_gamma   120.00000000
_symmetry_Int_Tables_number   1
_chemical_formula_structural   LiTcH6O7
_chemical_formula_sum   'Li2 Tc2 H12 O14'
_cell_volume   312.66683326
_cell_formula_units_Z   2
loop_
 _symmetry_equiv_pos_site_id
 _symmetry_equiv_pos_as_xyz
  1  'x, y, z'
loop_
 _atom_site_type_symbol
 _atom_site_label
 _atom_site_symmetry_multiplicity
 _atom_site_fract_x
 _atom_site_fract_y
 _atom_site_fract_z
 _atom_site_occupancy
  Li  Li0  1  -0.00000000  -0.00000000  -0.01011912  1.0
  Li  Li1  1  -0.00000000  -0.00000000  0.48988088  1.0
  Tc  Tc2  1  0.33333333  0.66666667  0.31034238  1.0
  Tc  Tc3  1  0.66666667  0.33333333  0.81034238  1.0
  H  H4  1  0.73793582  0.67229782  0.23683984  1.0
  H  H5  1  0.73793582  0.06563800  0.23683984  1.0
  H  H6  1  0.67229782  0.73793582  0.73683984  1.0
  H  H7  1  0.67229782  0.93436200  0.73683984  1.0
  H  H8  1  0.93436200  0.67229782  0.23683984  1.0
  H  H9  1  0.93436200  0.26206418  0.23683984  1.0
  H  H10  1  0.32770218  0.26206418  0.23683984  1.0
  H  H11  1  0.32770218  0.06563800  0.23683984  1.0
  H  H12  1  0.26206418  0.93436200  0.73683984  1.0
  H  H13  1  0.26206418  0.32770218  0.73683984  1.0
  H  H14  1  0.06563800  0.73793582  0.73683984  1.0
  H  H15  1  0.06563800  0.32770218  0.73683984  1.0
  O  O16  1  0.09379500  0.54689750  0.21447333  1.0
  O  O17  1  0.54689750  0.09379500  0.71447333  1.0
  O  O18  1  0.54689750  0.45310250  0.71447333  1.0
  O  O19  1  0.45310250  0.54689750  0.21447333  1.0
  O  O20  1  0.45310250  0.90620500  0.21447333  1.0
  O  O21  1  0.90620500  0.45310250  0.71447333  1.0
  O  O22  1  0.23999846  0.11999923  0.23959616  1.0
  O  O23  1  0.11999923  0.23999846  0.73959616  1.0
  O  O24  1  0.11999923  0.88000077  0.73959616  1.0
  O  O25  1  0.88000077  0.11999923  0.23959616  1.0
  O  O26  1  0.88000077  0.76000154  0.23959616  1.0
  O  O27  1  0.76000154  0.88000077  0.73959616  1.0
  O  O28  1  0.33333333  0.66666667  0.60772919  1.0
  O  O29  1  0.66666667  0.33333333  0.10772919  1.0
