# generated using pymatgen
data_Sc2Nb3Ge4
_symmetry_space_group_name_H-M   'P 1'
_cell_length_a   6.85502981
_cell_length_b   13.31408930
_cell_length_c   7.02626392
_cell_angle_alpha   90.00000000
_cell_angle_beta   90.00000000
_cell_angle_gamma   90.00000000
_symmetry_Int_Tables_number   1
_chemical_formula_structural   Sc2Nb3Ge4
_chemical_formula_sum   'Sc8 Nb12 Ge16'
_cell_volume   641.27642077
_cell_formula_units_Z   4
loop_
 _symmetry_equiv_pos_site_id
 _symmetry_equiv_pos_as_xyz
  1  'x, y, z'
loop_
 _atom_site_type_symbol
 _atom_site_label
 _atom_site_symmetry_multiplicity
 _atom_site_fract_x
 _atom_site_fract_y
 _atom_site_fract_z
 _atom_site_occupancy
  Sc  Sc0  1  0.49260170  0.59414006  0.67663345  1.0
  Sc  Sc1  1  0.99260170  0.90585994  0.82336655  1.0
  Sc  Sc2  1  0.50739830  0.09414006  0.32336655  1.0
  Sc  Sc3  1  0.00739830  0.40585994  0.17663345  1.0
  Sc  Sc4  1  0.50739830  0.40585994  0.32336655  1.0
  Sc  Sc5  1  0.00739830  0.09414006  0.17663345  1.0
  Sc  Sc6  1  0.49260170  0.90585994  0.67663345  1.0
  Sc  Sc7  1  0.99260170  0.59414006  0.82336655  1.0
  Nb  Nb8  1  0.65682413  0.62611853  0.17104367  1.0
  Nb  Nb9  1  0.15682413  0.87388147  0.32895633  1.0
  Nb  Nb10  1  0.34317587  0.12611853  0.82895633  1.0
  Nb  Nb11  1  0.84317587  0.37388147  0.67104367  1.0
  Nb  Nb12  1  0.34317587  0.37388147  0.82895633  1.0
  Nb  Nb13  1  0.84317587  0.12611853  0.67104367  1.0
  Nb  Nb14  1  0.65682413  0.87388147  0.17104367  1.0
  Nb  Nb15  1  0.15682413  0.62611853  0.32895633  1.0
  Nb  Nb16  1  0.83310734  0.75000000  0.48904378  1.0
  Nb  Nb17  1  0.33310734  0.75000000  1.01095622  1.0
  Nb  Nb18  1  0.16689266  0.25000000  0.51095622  1.0
  Nb  Nb19  1  0.66689266  0.25000000  -0.01095622  1.0
  Ge  Ge20  1  0.68246592  0.46004910  0.96571507  1.0
  Ge  Ge21  1  0.18246592  0.03995090  0.53428493  1.0
  Ge  Ge22  1  0.31753408  0.96004910  0.03428493  1.0
  Ge  Ge23  1  0.81753408  0.53995090  0.46571507  1.0
  Ge  Ge24  1  0.31753408  0.53995090  0.03428493  1.0
  Ge  Ge25  1  0.81753408  0.96004910  0.46571507  1.0
  Ge  Ge26  1  0.68246592  0.03995090  0.96571507  1.0
  Ge  Ge27  1  0.18246592  0.46004910  0.53428493  1.0
  Ge  Ge28  1  0.45749190  0.75000000  0.38858085  1.0
  Ge  Ge29  1  0.95749190  0.75000000  0.11141915  1.0
  Ge  Ge30  1  0.54250810  0.25000000  0.61141915  1.0
  Ge  Ge31  1  0.04250810  0.25000000  0.88858085  1.0
  Ge  Ge32  1  0.69151110  0.75000000  0.85151013  1.0
  Ge  Ge33  1  0.19151110  0.75000000  0.64848987  1.0
  Ge  Ge34  1  0.30848890  0.25000000  0.14848987  1.0
  Ge  Ge35  1  0.80848890  0.25000000  0.35151013  1.0
