# generated using pymatgen
data_CsBO2
_symmetry_space_group_name_H-M   'P 1'
_cell_length_a   8.47608352
_cell_length_b   8.47608352
_cell_length_c   8.47608352
_cell_angle_alpha   109.13899648
_cell_angle_beta   109.13899648
_cell_angle_gamma   109.13899648
_symmetry_Int_Tables_number   1
_chemical_formula_structural   CsBO2
_chemical_formula_sum   'Cs6 B6 O12'
_cell_volume   474.45274124
_cell_formula_units_Z   6
loop_
 _symmetry_equiv_pos_site_id
 _symmetry_equiv_pos_as_xyz
  1  'x, y, z'
loop_
 _atom_site_type_symbol
 _atom_site_label
 _atom_site_symmetry_multiplicity
 _atom_site_fract_x
 _atom_site_fract_y
 _atom_site_fract_z
 _atom_site_occupancy
  Cs  Cs0  1  0.80728633  1.25000000  -0.30728633  1.0
  Cs  Cs1  1  1.30728633  0.19271367  -0.25000000  1.0
  Cs  Cs2  1  0.75000000  0.30728633  0.19271367  1.0
  Cs  Cs3  1  1.25000000  0.69271367  -0.19271367  1.0
  Cs  Cs4  1  1.19271367  -0.25000000  0.30728633  1.0
  Cs  Cs5  1  0.69271367  0.80728633  0.25000000  1.0
  B  B6  1  1.14462766  0.25000000  -0.64462766  1.0
  B  B7  1  1.64462766  -0.14462766  0.75000000  1.0
  B  B8  1  0.75000000  1.64462766  -0.14462766  1.0
  B  B9  1  0.25000000  0.35537234  0.14462766  1.0
  B  B10  1  0.85537234  0.75000000  0.64462766  1.0
  B  B11  1  0.35537234  0.14462766  0.25000000  1.0
  O  O12  1  1.04861434  0.25000000  -0.54861434  1.0
  O  O13  1  1.54861434  -0.04861434  0.75000000  1.0
  O  O14  1  0.75000000  1.54861434  -0.04861434  1.0
  O  O15  1  0.25000000  0.45138566  0.04861434  1.0
  O  O16  1  0.95138566  0.75000000  0.54861434  1.0
  O  O17  1  0.45138566  0.04861434  0.25000000  1.0
  O  O18  1  0.35077480  0.25000000  0.14922520  1.0
  O  O19  1  0.85077480  0.64922520  0.75000000  1.0
  O  O20  1  0.75000000  0.85077480  0.64922520  1.0
  O  O21  1  0.25000000  1.14922520  -0.64922520  1.0
  O  O22  1  1.64922520  0.75000000  -0.14922520  1.0
  O  O23  1  1.14922520  -0.64922520  0.25000000  1.0
