# generated using pymatgen
data_Zr4Tc25
_symmetry_space_group_name_H-M   'P 1'
_cell_length_a   8.34881981
_cell_length_b   8.34881981
_cell_length_c   8.34881981
_cell_angle_alpha   109.47122063
_cell_angle_beta   109.47122063
_cell_angle_gamma   109.47122063
_symmetry_Int_Tables_number   1
_chemical_formula_structural   Zr4Tc25
_chemical_formula_sum   'Zr4 Tc25'
_cell_volume   447.97458203
_cell_formula_units_Z   1
loop_
 _symmetry_equiv_pos_site_id
 _symmetry_equiv_pos_as_xyz
  1  'x, y, z'
loop_
 _atom_site_type_symbol
 _atom_site_label
 _atom_site_symmetry_multiplicity
 _atom_site_fract_x
 _atom_site_fract_y
 _atom_site_fract_z
 _atom_site_occupancy
  Zr  Zr0  1  0.36543185  0.36543185  0.36543185  1.0
  Zr  Zr1  1  1.00000000  1.00000000  0.63456815  1.0
  Zr  Zr2  1  1.00000000  0.63456815  1.00000000  1.0
  Zr  Zr3  1  0.63456815  1.00000000  1.00000000  1.0
  Tc  Tc4  1  0.81832719  0.62504981  0.62504981  1.0
  Tc  Tc5  1  0.62504981  0.81832719  0.62504981  1.0
  Tc  Tc6  1  1.00000000  1.19327737  0.37495019  1.0
  Tc  Tc7  1  1.19327737  1.00000000  0.37495019  1.0
  Tc  Tc8  1  0.62504981  0.62504981  0.81832719  1.0
  Tc  Tc9  1  0.80672263  0.80672263  0.18167281  1.0
  Tc  Tc10  1  1.00000000  0.37495019  1.19327737  1.0
  Tc  Tc11  1  0.80672263  0.18167281  0.80672263  1.0
  Tc  Tc12  1  0.18167281  0.80672263  0.80672263  1.0
  Tc  Tc13  1  0.37495019  1.00000000  1.19327737  1.0
  Tc  Tc14  1  1.19327737  0.37495019  1.00000000  1.0
  Tc  Tc15  1  0.37495019  1.19327737  1.00000000  1.0
  Tc  Tc16  1  0.28169263  0.60554673  0.60554673  1.0
  Tc  Tc17  1  0.60554673  0.28169263  0.60554673  1.0
  Tc  Tc18  1  1.00000000  0.67614590  1.39445327  1.0
  Tc  Tc19  1  0.67614590  1.00000000  1.39445327  1.0
  Tc  Tc20  1  0.60554673  0.60554673  0.28169263  1.0
  Tc  Tc21  1  1.32385410  1.32385410  0.71830737  1.0
  Tc  Tc22  1  1.00000000  1.39445327  0.67614590  1.0
  Tc  Tc23  1  1.32385410  0.71830737  1.32385410  1.0
  Tc  Tc24  1  0.71830737  1.32385410  1.32385410  1.0
  Tc  Tc25  1  1.39445327  1.00000000  0.67614590  1.0
  Tc  Tc26  1  0.67614590  1.39445327  1.00000000  1.0
  Tc  Tc27  1  1.39445327  0.67614590  1.00000000  1.0
  Tc  Tc28  1  -0.00000000  -0.00000000  0.00000000  1.0
