# generated using pymatgen
data_SnH12C4(SCl2)2
_symmetry_space_group_name_H-M   'P 1'
_cell_length_a   7.26055055
_cell_length_b   12.70840800
_cell_length_c   9.41032012
_cell_angle_alpha   90.00000000
_cell_angle_beta   120.63292186
_cell_angle_gamma   90.00000000
_symmetry_Int_Tables_number   1
_chemical_formula_structural   SnH12C4(SCl2)2
_chemical_formula_sum   'Sn2 H24 C8 S4 Cl8'
_cell_volume   747.12012037
_cell_formula_units_Z   2
loop_
 _symmetry_equiv_pos_site_id
 _symmetry_equiv_pos_as_xyz
  1  'x, y, z'
loop_
 _atom_site_type_symbol
 _atom_site_label
 _atom_site_symmetry_multiplicity
 _atom_site_fract_x
 _atom_site_fract_y
 _atom_site_fract_z
 _atom_site_occupancy
  Sn  Sn0  1  0.00000000  0.00000000  0.00000000  1.0
  Sn  Sn1  1  0.00000000  0.50000000  0.50000000  1.0
  H  H2  1  0.54730488  0.20566962  0.37982520  1.0
  H  H3  1  0.54730488  0.29433038  0.87982520  1.0
  H  H4  1  0.45269512  0.79433038  0.62017480  1.0
  H  H5  1  0.45269512  0.70566962  0.12017480  1.0
  H  H6  1  0.55905870  0.06921095  0.33514435  1.0
  H  H7  1  0.55905870  0.43078905  0.83514435  1.0
  H  H8  1  0.44094130  0.93078905  0.66485565  1.0
  H  H9  1  0.44094130  0.56921095  0.16485565  1.0
  H  H10  1  0.35835402  0.11270237  0.37976524  1.0
  H  H11  1  0.35835402  0.38729763  0.87976524  1.0
  H  H12  1  0.64164598  0.88729763  0.62023476  1.0
  H  H13  1  0.64164598  0.61270237  0.12023476  1.0
  H  H14  1  0.03186724  0.24715271  0.16683656  1.0
  H  H15  1  0.03186724  0.25284729  0.66683656  1.0
  H  H16  1  0.96813276  0.75284729  0.83316344  1.0
  H  H17  1  0.96813276  0.74715271  0.33316344  1.0
  H  H18  1  0.02538364  0.29807080  0.98608552  1.0
  H  H19  1  0.02538364  0.20192920  0.48608552  1.0
  H  H20  1  0.97461636  0.70192920  0.01391448  1.0
  H  H21  1  0.97461636  0.79807080  0.51391448  1.0
  H  H22  1  0.24326098  0.33240650  0.18713010  1.0
  H  H23  1  0.24326098  0.16759350  0.68713010  1.0
  H  H24  1  0.75673902  0.66759350  0.81286990  1.0
  H  H25  1  0.75673902  0.83240650  0.31286990  1.0
  C  C26  1  0.45345423  0.13414840  0.32377110  1.0
  C  C27  1  0.45345423  0.36585160  0.82377110  1.0
  C  C28  1  0.54654577  0.86585160  0.67622890  1.0
  C  C29  1  0.54654577  0.63414840  0.17622890  1.0
  C  C30  1  0.12863068  0.27066531  0.11308674  1.0
  C  C31  1  0.12863068  0.22933469  0.61308674  1.0
  C  C32  1  0.87136932  0.72933469  0.88691326  1.0
  C  C33  1  0.87136932  0.77066531  0.38691326  1.0
  S  S34  1  0.28076753  0.16014213  0.10569682  1.0
  S  S35  1  0.28076753  0.33985787  0.60569682  1.0
  S  S36  1  0.71923247  0.83985787  0.89430318  1.0
  S  S37  1  0.71923247  0.66014213  0.39430318  1.0
  Cl  Cl38  1  0.11285216  0.95298333  0.80230653  1.0
  Cl  Cl39  1  0.11285216  0.54701667  0.30230653  1.0
  Cl  Cl40  1  0.88714784  0.04701667  0.19769347  1.0
  Cl  Cl41  1  0.88714784  0.45298333  0.69769347  1.0
  Cl  Cl42  1  0.27009502  0.88052408  0.20669545  1.0
  Cl  Cl43  1  0.27009502  0.61947592  0.70669545  1.0
  Cl  Cl44  1  0.72990498  0.11947592  0.79330455  1.0
  Cl  Cl45  1  0.72990498  0.38052408  0.29330455  1.0
