# generated using pymatgen
data_YGePd
_symmetry_space_group_name_H-M   'P 1'
_cell_length_a   11.42235960
_cell_length_b   11.42235960
_cell_length_c   11.42235960
_cell_angle_alpha   157.78710671
_cell_angle_beta   45.38001924
_cell_angle_gamma   140.95175524
_symmetry_Int_Tables_number   1
_chemical_formula_structural   YGePd
_chemical_formula_sum   'Y6 Ge6 Pd6'
_cell_volume   354.06580099
_cell_formula_units_Z   6
loop_
 _symmetry_equiv_pos_site_id
 _symmetry_equiv_pos_as_xyz
  1  'x, y, z'
loop_
 _atom_site_type_symbol
 _atom_site_label
 _atom_site_symmetry_multiplicity
 _atom_site_fract_x
 _atom_site_fract_y
 _atom_site_fract_z
 _atom_site_occupancy
  Y  Y0  1  1.76128292  0.92844544  0.83283748  1.0
  Y  Y1  1  1.09560796  0.92844544  1.16716252  1.0
  Y  Y2  1  0.67252398  0.00580576  0.66671821  1.0
  Y  Y3  1  1.33908755  1.00580576  1.33328179  1.0
  Y  Y4  1  0.42200507  0.92200507  0.50000000  1.0
  Y  Y5  1  0.00506261  0.00506261  -0.00000000  1.0
  Ge  Ge6  1  1.55941654  0.62444443  0.93497210  1.0
  Ge  Ge7  1  0.68947233  0.62444443  1.06502790  1.0
  Ge  Ge8  1  1.07335227  0.30868682  0.76466545  1.0
  Ge  Ge9  1  1.54402138  1.30868682  1.23533455  1.0
  Ge  Ge10  1  1.21984793  0.62569664  0.59415129  1.0
  Ge  Ge11  1  1.03154535  0.62569664  1.40584871  1.0
  Pd  Pd12  1  1.19340492  0.29766241  0.89574251  1.0
  Pd  Pd13  1  1.40191990  1.29766241  1.10425749  1.0
  Pd  Pd14  1  1.37018259  0.63739769  0.73278491  1.0
  Pd  Pd15  1  0.90461278  0.63739769  1.26721509  1.0
  Pd  Pd16  1  0.86588522  0.29407696  0.57180826  1.0
  Pd  Pd17  1  1.72226869  1.29407696  1.42819174  1.0
