# generated using pymatgen
data_Al2CuCl8
_symmetry_space_group_name_H-M   'P 1'
_cell_length_a   12.98922846
_cell_length_b   7.64260076
_cell_length_c   7.37083876
_cell_angle_alpha   90.03589089
_cell_angle_beta   97.64672154
_cell_angle_gamma   89.99767650
_symmetry_Int_Tables_number   1
_chemical_formula_structural   Al2CuCl8
_chemical_formula_sum   'Al4 Cu2 Cl16'
_cell_volume   725.20711515
_cell_formula_units_Z   2
loop_
 _symmetry_equiv_pos_site_id
 _symmetry_equiv_pos_as_xyz
  1  'x, y, z'
loop_
 _atom_site_type_symbol
 _atom_site_label
 _atom_site_symmetry_multiplicity
 _atom_site_fract_x
 _atom_site_fract_y
 _atom_site_fract_z
 _atom_site_occupancy
  Al  Al0  1  0.17785626  0.74475922  -0.80907279  1.0
  Al  Al1  1  0.82214374  0.25524078  -0.19092721  1.0
  Al  Al2  1  0.67783917  0.75544416  -0.80896260  1.0
  Al  Al3  1  0.32216083  0.24455584  -0.19103740  1.0
  Cu  Cu4  1  0.50000000  0.50000000  0.00000000  1.0
  Cu  Cu5  1  0.00000000  0.00000000  0.00000000  1.0
  Cl  Cl6  1  0.41987725  0.24899354  -0.91761282  1.0
  Cl  Cl7  1  0.58012275  0.75100646  -0.08238718  1.0
  Cl  Cl8  1  0.91996273  0.25117865  -0.91758288  1.0
  Cl  Cl9  1  0.08003727  0.74882135  -0.08241712  1.0
  Cl  Cl10  1  0.83653138  0.72213431  -0.84110584  1.0
  Cl  Cl11  1  0.16346862  0.27786569  -0.15889416  1.0
  Cl  Cl12  1  0.33651348  0.77792059  -0.84154127  1.0
  Cl  Cl13  1  0.66348652  0.22207941  -0.15845873  1.0
  Cl  Cl14  1  0.60835526  0.50549159  -0.72506641  1.0
  Cl  Cl15  1  0.39164474  0.49450841  -0.27493359  1.0
  Cl  Cl16  1  0.10849685  0.99490407  -0.72513741  1.0
  Cl  Cl17  1  0.89150315  0.00509593  -0.27486259  1.0
  Cl  Cl18  1  0.64248518  0.96530933  -0.64345393  1.0
  Cl  Cl19  1  0.35751482  0.03469067  -0.35654607  1.0
  Cl  Cl20  1  0.85745194  0.46474523  -0.35667973  1.0
  Cl  Cl21  1  0.14254806  0.53525477  -0.64332027  1.0
