# generated using pymatgen
data_Mo
_symmetry_space_group_name_H-M   'P 1'
_cell_length_a   5.53732028
_cell_length_b   5.53732028
_cell_length_c   5.05647026
_cell_angle_alpha   90.00000000
_cell_angle_beta   90.00000000
_cell_angle_gamma   120.00000000
_symmetry_Int_Tables_number   1
_chemical_formula_structural   Mo
_chemical_formula_sum   Mo8
_cell_volume   134.26950163
_cell_formula_units_Z   8
loop_
 _symmetry_equiv_pos_site_id
 _symmetry_equiv_pos_as_xyz
  1  'x, y, z'
loop_
 _atom_site_type_symbol
 _atom_site_label
 _atom_site_symmetry_multiplicity
 _atom_site_fract_x
 _atom_site_fract_y
 _atom_site_fract_z
 _atom_site_occupancy
  Mo  Mo0  1  0.00000000  0.00000000  0.25000007  1.0
  Mo  Mo1  1  0.00000000  0.00000000  0.74999993  1.0
  Mo  Mo2  1  0.49999997  0.50000003  0.25000011  1.0
  Mo  Mo3  1  0.49999997  0.99999995  0.25000011  1.0
  Mo  Mo4  1  0.00000005  0.50000003  0.25000011  1.0
  Mo  Mo5  1  0.50000003  0.49999997  0.74999989  1.0
  Mo  Mo6  1  0.50000003  0.00000005  0.74999989  1.0
  Mo  Mo7  1  0.99999995  0.49999997  0.74999989  1.0
