# generated using pymatgen
data_NaLiTe
_symmetry_space_group_name_H-M   'P 1'
_cell_length_a   7.73842398
_cell_length_b   4.60264502
_cell_length_c   8.36694663
_cell_angle_alpha   90.00000000
_cell_angle_beta   90.00000000
_cell_angle_gamma   90.00000000
_symmetry_Int_Tables_number   1
_chemical_formula_structural   NaLiTe
_chemical_formula_sum   'Na4 Li4 Te4'
_cell_volume   298.00736693
_cell_formula_units_Z   4
loop_
 _symmetry_equiv_pos_site_id
 _symmetry_equiv_pos_as_xyz
  1  'x, y, z'
loop_
 _atom_site_type_symbol
 _atom_site_label
 _atom_site_symmetry_multiplicity
 _atom_site_fract_x
 _atom_site_fract_y
 _atom_site_fract_z
 _atom_site_occupancy
  Na  Na0  1  0.98444092  0.75000000  0.68355606  1.0
  Na  Na1  1  0.48444092  0.75000000  0.81644394  1.0
  Na  Na2  1  0.01555908  0.25000000  0.31644394  1.0
  Na  Na3  1  0.51555908  0.25000000  0.18355606  1.0
  Li  Li4  1  0.85825442  0.75000000  0.07035323  1.0
  Li  Li5  1  0.35825442  0.75000000  0.42964677  1.0
  Li  Li6  1  0.14174558  0.25000000  0.92964677  1.0
  Li  Li7  1  0.64174558  0.25000000  0.57035323  1.0
  Te  Te8  1  0.72440003  0.75000000  0.39089009  1.0
  Te  Te9  1  0.22440003  0.75000000  0.10910991  1.0
  Te  Te10  1  0.27559997  0.25000000  0.60910991  1.0
  Te  Te11  1  0.77559997  0.25000000  0.89089009  1.0
