# generated using pymatgen
data_KH3F4
_symmetry_space_group_name_H-M   'P 1'
_cell_length_a   6.23288870
_cell_length_b   6.23288870
_cell_length_c   6.23288870
_cell_angle_alpha   72.60481707
_cell_angle_beta   72.60481707
_cell_angle_gamma   72.60481707
_symmetry_Int_Tables_number   1
_chemical_formula_structural   KH3F4
_chemical_formula_sum   'K2 H6 F8'
_cell_volume   214.57950219
_cell_formula_units_Z   2
loop_
 _symmetry_equiv_pos_site_id
 _symmetry_equiv_pos_as_xyz
  1  'x, y, z'
loop_
 _atom_site_type_symbol
 _atom_site_label
 _atom_site_symmetry_multiplicity
 _atom_site_fract_x
 _atom_site_fract_y
 _atom_site_fract_z
 _atom_site_occupancy
  K  K0  1  0.50000000  0.50000000  -0.50000000  1.0
  K  K1  1  0.00000000  0.00000000  0.00000000  1.0
  H  H2  1  1.06078099  1.25000000  0.43921901  1.0
  H  H3  1  0.56078099  0.93921901  -0.25000000  1.0
  H  H4  1  0.75000000  0.56078099  -0.06078099  1.0
  H  H5  1  1.25000000  1.43921901  0.06078099  1.0
  H  H6  1  0.93921901  0.75000000  -0.43921901  1.0
  H  H7  1  1.43921901  1.06078099  0.25000000  1.0
  F  F8  1  0.92463797  0.25000000  -0.42463797  1.0
  F  F9  1  0.42463797  0.07536203  -0.25000000  1.0
  F  F10  1  0.75000000  -0.57536203  0.07536203  1.0
  F  F11  1  0.25000000  0.57536203  -0.07536203  1.0
  F  F12  1  1.07536203  -0.25000000  -0.57536203  1.0
  F  F13  1  0.57536203  -0.07536203  0.25000000  1.0
  F  F14  1  1.25000000  1.25000000  0.25000000  1.0
  F  F15  1  0.75000000  0.75000000  -0.25000000  1.0
