# generated using pymatgen
data_Ca2GeS4
_symmetry_space_group_name_H-M   'P 1'
_cell_length_a   13.82897932
_cell_length_b   8.25059290
_cell_length_c   6.35500651
_cell_angle_alpha   90.00000000
_cell_angle_beta   90.00000000
_cell_angle_gamma   90.00000000
_symmetry_Int_Tables_number   1
_chemical_formula_structural   Ca2GeS4
_chemical_formula_sum   'Ca8 Ge4 S16'
_cell_volume   725.08894871
_cell_formula_units_Z   4
loop_
 _symmetry_equiv_pos_site_id
 _symmetry_equiv_pos_as_xyz
  1  'x, y, z'
loop_
 _atom_site_type_symbol
 _atom_site_label
 _atom_site_symmetry_multiplicity
 _atom_site_fract_x
 _atom_site_fract_y
 _atom_site_fract_z
 _atom_site_occupancy
  Ca  Ca0  1  0.77299667  0.25000000  0.51321338  1.0
  Ca  Ca1  1  0.27299667  0.25000000  0.98678662  1.0
  Ca  Ca2  1  0.22700333  0.75000000  0.48678662  1.0
  Ca  Ca3  1  0.72700333  0.75000000  0.01321338  1.0
  Ca  Ca4  1  0.00000000  0.50000000  0.00000000  1.0
  Ca  Ca5  1  -0.00000000  -0.00000000  0.00000000  1.0
  Ca  Ca6  1  0.50000000  0.50000000  0.50000000  1.0
  Ca  Ca7  1  0.50000000  -0.00000000  0.50000000  1.0
  Ge  Ge8  1  0.59300040  0.25000000  0.09061414  1.0
  Ge  Ge9  1  0.09300040  0.25000000  0.40938586  1.0
  Ge  Ge10  1  0.40699960  0.75000000  0.90938586  1.0
  Ge  Ge11  1  0.90699960  0.75000000  0.59061414  1.0
  S  S12  1  0.66792266  0.46320841  0.24012010  1.0
  S  S13  1  0.66792266  0.03679159  0.24012010  1.0
  S  S14  1  0.16792266  0.46320841  0.25987990  1.0
  S  S15  1  0.16792266  0.03679159  0.25987990  1.0
  S  S16  1  0.33207734  0.96320841  0.75987990  1.0
  S  S17  1  0.33207734  0.53679159  0.75987990  1.0
  S  S18  1  0.83207734  0.96320841  0.74012010  1.0
  S  S19  1  0.83207734  0.53679159  0.74012010  1.0
  S  S20  1  0.94284953  0.25000000  0.27047810  1.0
  S  S21  1  0.44284953  0.25000000  0.22952190  1.0
  S  S22  1  0.05715047  0.75000000  0.72952190  1.0
  S  S23  1  0.55715047  0.75000000  0.77047810  1.0
  S  S24  1  0.59354306  0.25000000  0.74112886  1.0
  S  S25  1  0.09354306  0.25000000  0.75887114  1.0
  S  S26  1  0.40645694  0.75000000  0.25887114  1.0
  S  S27  1  0.90645694  0.75000000  0.24112886  1.0
