# generated using pymatgen
data_NiSbSe
_symmetry_space_group_name_H-M   'P 1'
_cell_length_a   6.13083215
_cell_length_b   6.13083215
_cell_length_c   6.13083215
_cell_angle_alpha   90.00000000
_cell_angle_beta   90.00000000
_cell_angle_gamma   90.00000000
_symmetry_Int_Tables_number   1
_chemical_formula_structural   NiSbSe
_chemical_formula_sum   'Ni4 Sb4 Se4'
_cell_volume   230.44021803
_cell_formula_units_Z   4
loop_
 _symmetry_equiv_pos_site_id
 _symmetry_equiv_pos_as_xyz
  1  'x, y, z'
loop_
 _atom_site_type_symbol
 _atom_site_label
 _atom_site_symmetry_multiplicity
 _atom_site_fract_x
 _atom_site_fract_y
 _atom_site_fract_z
 _atom_site_occupancy
  Ni  Ni0  1  0.49029942  0.99029942  0.50970058  1.0
  Ni  Ni1  1  0.99029942  0.50970058  0.49029942  1.0
  Ni  Ni2  1  0.50970058  0.49029942  0.99029942  1.0
  Ni  Ni3  1  0.00970058  0.00970058  0.00970058  1.0
  Sb  Sb4  1  0.13103696  0.63103696  0.86896304  1.0
  Sb  Sb5  1  0.63103696  0.86896304  0.13103696  1.0
  Sb  Sb6  1  0.86896304  0.13103696  0.63103696  1.0
  Sb  Sb7  1  0.36896304  0.36896304  0.36896304  1.0
  Se  Se8  1  0.87538626  0.37538626  0.12461374  1.0
  Se  Se9  1  0.37538626  0.12461374  0.87538626  1.0
  Se  Se10  1  0.12461374  0.87538626  0.37538626  1.0
  Se  Se11  1  0.62461374  0.62461374  0.62461374  1.0
