# generated using pymatgen
data_Ca4Bi2O
_symmetry_space_group_name_H-M   'P 1'
_cell_length_a   8.96962931
_cell_length_b   8.96962931
_cell_length_c   8.96962931
_cell_angle_alpha   149.25130599
_cell_angle_beta   149.25130599
_cell_angle_gamma   44.04152731
_symmetry_Int_Tables_number   1
_chemical_formula_structural   Ca4Bi2O
_chemical_formula_sum   'Ca4 Bi2 O1'
_cell_volume   188.09845814
_cell_formula_units_Z   1
loop_
 _symmetry_equiv_pos_site_id
 _symmetry_equiv_pos_as_xyz
  1  'x, y, z'
loop_
 _atom_site_type_symbol
 _atom_site_label
 _atom_site_symmetry_multiplicity
 _atom_site_fract_x
 _atom_site_fract_y
 _atom_site_fract_z
 _atom_site_occupancy
  Ca  Ca0  1  0.83703316  0.83703316  1.00000000  1.0
  Ca  Ca1  1  0.16296684  0.16296684  0.00000000  1.0
  Ca  Ca2  1  0.50000000  0.00000000  0.50000000  1.0
  Ca  Ca3  1  0.00000000  0.50000000  0.50000000  1.0
  Bi  Bi4  1  0.64100079  0.64100079  1.00000000  1.0
  Bi  Bi5  1  0.35899921  0.35899921  0.00000000  1.0
  O  O6  1  0.00000000  0.00000000  0.00000000  1.0
