# generated using pymatgen
data_K8NO3
_symmetry_space_group_name_H-M   'P 1'
_cell_length_a   6.54964864
_cell_length_b   6.54964864
_cell_length_c   6.54964864
_cell_angle_alpha   90.00000000
_cell_angle_beta   90.00000000
_cell_angle_gamma   90.00000000
_symmetry_Int_Tables_number   1
_chemical_formula_structural   K8NO3
_chemical_formula_sum   'K8 N1 O3'
_cell_volume   280.96615462
_cell_formula_units_Z   1
loop_
 _symmetry_equiv_pos_site_id
 _symmetry_equiv_pos_as_xyz
  1  'x, y, z'
loop_
 _atom_site_type_symbol
 _atom_site_label
 _atom_site_symmetry_multiplicity
 _atom_site_fract_x
 _atom_site_fract_y
 _atom_site_fract_z
 _atom_site_occupancy
  K  K0  1  0.25340202  0.25340202  0.25340202  1.0
  K  K1  1  0.74659798  0.74659798  0.25340202  1.0
  K  K2  1  0.74659798  0.25340202  0.74659798  1.0
  K  K3  1  0.25340202  0.74659798  0.74659798  1.0
  K  K4  1  0.25340202  0.25340202  0.74659798  1.0
  K  K5  1  0.74659798  0.74659798  0.74659798  1.0
  K  K6  1  0.74659798  0.25340202  0.25340202  1.0
  K  K7  1  0.25340202  0.74659798  0.25340202  1.0
  N  N8  1  0.00000000  0.00000000  0.00000000  1.0
  O  O9  1  0.50000000  0.50000000  0.00000000  1.0
  O  O10  1  0.00000000  0.50000000  0.50000000  1.0
  O  O11  1  0.50000000  0.00000000  0.50000000  1.0
