# generated using pymatgen
data_CuMoO4
_symmetry_space_group_name_H-M   'P 1'
_cell_length_a   6.10662228
_cell_length_b   4.91262036
_cell_length_c   4.87372489
_cell_angle_alpha   85.02724720
_cell_angle_beta   77.78589223
_cell_angle_gamma   87.08442582
_symmetry_Int_Tables_number   1
_chemical_formula_structural   CuMoO4
_chemical_formula_sum   'Cu2 Mo2 O8'
_cell_volume   142.28245155
_cell_formula_units_Z   2
loop_
 _symmetry_equiv_pos_site_id
 _symmetry_equiv_pos_as_xyz
  1  'x, y, z'
loop_
 _atom_site_type_symbol
 _atom_site_label
 _atom_site_symmetry_multiplicity
 _atom_site_fract_x
 _atom_site_fract_y
 _atom_site_fract_z
 _atom_site_occupancy
  Mo  Mo0  1  -0.82955781  -0.25944770  -0.96556693  1.0
  Mo  Mo1  1  -0.17044219  -0.74055230  -0.03443307  1.0
  Cu  Cu2  1  -0.65321938  -0.74520300  -0.48681546  1.0
  Cu  Cu3  1  -0.34678062  -0.25479700  -0.51318454  1.0
  O  O4  1  -0.91891602  -0.96368899  -0.78428883  1.0
  O  O5  1  -0.08108398  -0.03631101  -0.21571117  1.0
  O  O6  1  -0.65620483  -0.43802597  -0.75669536  1.0
  O  O7  1  -0.34379517  -0.56197403  -0.24330464  1.0
  O  O8  1  -0.87517283  -0.57147420  -0.20656019  1.0
  O  O9  1  -0.12482717  -0.42852580  -0.79343981  1.0
  O  O10  1  -0.37825283  -0.90210549  -0.72758967  1.0
  O  O11  1  -0.62174717  -0.09789451  -0.27241033  1.0
