# generated using pymatgen
data_LaNO4
_symmetry_space_group_name_H-M   'P 1'
_cell_length_a   8.30059957
_cell_length_b   5.64260203
_cell_length_c   9.58507642
_cell_angle_alpha   90.00000000
_cell_angle_beta   90.00000000
_cell_angle_gamma   90.00000000
_symmetry_Int_Tables_number   1
_chemical_formula_structural   LaNO4
_chemical_formula_sum   'La4 N4 O16'
_cell_volume   448.93603276
_cell_formula_units_Z   4
loop_
 _symmetry_equiv_pos_site_id
 _symmetry_equiv_pos_as_xyz
  1  'x, y, z'
loop_
 _atom_site_type_symbol
 _atom_site_label
 _atom_site_symmetry_multiplicity
 _atom_site_fract_x
 _atom_site_fract_y
 _atom_site_fract_z
 _atom_site_occupancy
  La  La0  1  0.74996309  0.75000000  0.68347821  1.0
  La  La1  1  0.24996309  0.75000000  0.81652179  1.0
  La  La2  1  0.25003691  0.25000000  0.31652179  1.0
  La  La3  1  0.75003691  0.25000000  0.18347821  1.0
  N  N4  1  0.75002371  0.75000000  0.35283875  1.0
  N  N5  1  0.25002371  0.75000000  0.14716125  1.0
  N  N6  1  0.24997629  0.25000000  0.64716125  1.0
  N  N7  1  0.74997629  0.25000000  0.85283875  1.0
  O  O8  1  0.74999859  0.94367251  0.41894175  1.0
  O  O9  1  0.74999859  0.55632749  0.41894175  1.0
  O  O10  1  0.24999859  0.94367251  0.08105825  1.0
  O  O11  1  0.24999859  0.55632749  0.08105825  1.0
  O  O12  1  0.25000141  0.44367251  0.58105825  1.0
  O  O13  1  0.25000141  0.05632749  0.58105825  1.0
  O  O14  1  0.75000141  0.44367251  0.91894175  1.0
  O  O15  1  0.75000141  0.05632749  0.91894175  1.0
  O  O16  1  0.75006284  0.75000000  0.22083823  1.0
  O  O17  1  0.25006284  0.75000000  0.27916177  1.0
  O  O18  1  0.24993716  0.25000000  0.77916177  1.0
  O  O19  1  0.74993716  0.25000000  0.72083823  1.0
  O  O20  1  0.49997921  0.75000000  0.75003700  1.0
  O  O21  1  -0.00002079  0.75000000  0.74996300  1.0
  O  O22  1  0.50002079  0.25000000  0.24996300  1.0
  O  O23  1  1.00002079  0.25000000  0.25003700  1.0
