# generated using pymatgen
data_La2PdO4
_symmetry_space_group_name_H-M   'P 1'
_cell_length_a   7.14277538
_cell_length_b   7.14277538
_cell_length_c   7.14277538
_cell_angle_alpha   147.41806485
_cell_angle_beta   147.41806485
_cell_angle_gamma   46.74516525
_symmetry_Int_Tables_number   1
_chemical_formula_structural   La2PdO4
_chemical_formula_sum   'La2 Pd1 O4'
_cell_volume   105.29089832
_cell_formula_units_Z   1
loop_
 _symmetry_equiv_pos_site_id
 _symmetry_equiv_pos_as_xyz
  1  'x, y, z'
loop_
 _atom_site_type_symbol
 _atom_site_label
 _atom_site_symmetry_multiplicity
 _atom_site_fract_x
 _atom_site_fract_y
 _atom_site_fract_z
 _atom_site_occupancy
  La  La0  1  0.63848673  0.63848673  1.00000000  1.0
  La  La1  1  0.36151327  0.36151327  -0.00000000  1.0
  Pd  Pd2  1  0.00000000  0.00000000  0.00000000  1.0
  O  O3  1  0.50000000  0.00000000  0.50000000  1.0
  O  O4  1  0.00000000  0.50000000  0.50000000  1.0
  O  O5  1  0.80731788  0.80731788  1.00000000  1.0
  O  O6  1  0.19268212  0.19268212  -0.00000000  1.0
