# generated using pymatgen
data_TlBS2
_symmetry_space_group_name_H-M   'P 1'
_cell_length_a   8.42662884
_cell_length_b   8.42662884
_cell_length_c   8.42662884
_cell_angle_alpha   73.99891411
_cell_angle_beta   73.99891411
_cell_angle_gamma   73.99891411
_symmetry_Int_Tables_number   1
_chemical_formula_structural   TlBS2
_chemical_formula_sum   'Tl6 B6 S12'
_cell_volume   539.82895512
_cell_formula_units_Z   6
loop_
 _symmetry_equiv_pos_site_id
 _symmetry_equiv_pos_as_xyz
  1  'x, y, z'
loop_
 _atom_site_type_symbol
 _atom_site_label
 _atom_site_symmetry_multiplicity
 _atom_site_fract_x
 _atom_site_fract_y
 _atom_site_fract_z
 _atom_site_occupancy
  Tl  Tl0  1  0.22825157  0.22825157  -0.18088439  1.0
  Tl  Tl1  1  0.22825157  0.81911561  -0.77174843  1.0
  Tl  Tl2  1  1.18088439  -0.22825157  -0.22825157  1.0
  Tl  Tl3  1  0.77174843  0.18088439  -0.22825157  1.0
  Tl  Tl4  1  0.77174843  -0.22825157  0.18088439  1.0
  Tl  Tl5  1  0.81911561  0.22825157  -0.77174843  1.0
  B  B6  1  1.39953992  1.39953992  0.09477041  1.0
  B  B7  1  1.39953992  1.09477041  0.39953992  1.0
  B  B8  1  0.90522959  0.60046008  -0.39953992  1.0
  B  B9  1  0.60046008  0.90522959  -0.39953992  1.0
  B  B10  1  0.60046008  0.60046008  -0.09477041  1.0
  B  B11  1  1.09477041  1.39953992  0.39953992  1.0
  S  S12  1  0.46728433  0.46728433  -0.14863634  1.0
  S  S13  1  0.46728433  0.85136366  -0.53271567  1.0
  S  S14  1  0.14863634  0.53271567  -0.46728433  1.0
  S  S15  1  0.53271567  0.14863634  -0.46728433  1.0
  S  S16  1  0.53271567  0.53271567  -0.85136366  1.0
  S  S17  1  0.85136366  0.46728433  -0.53271567  1.0
  S  S18  1  1.16083507  1.16083507  0.47678187  1.0
  S  S19  1  1.16083507  1.47678187  0.16083507  1.0
  S  S20  1  0.52321813  0.83916493  -0.16083507  1.0
  S  S21  1  0.83916493  0.52321813  -0.16083507  1.0
  S  S22  1  0.83916493  0.83916493  -0.47678187  1.0
  S  S23  1  1.47678187  1.16083507  0.16083507  1.0
