# generated using pymatgen
data_NiC2(NO)2
_symmetry_space_group_name_H-M   'P 1'
_cell_length_a   7.17701098
_cell_length_b   7.17701098
_cell_length_c   7.42537836
_cell_angle_alpha   90.00000000
_cell_angle_beta   90.00000000
_cell_angle_gamma   90.00000000
_symmetry_Int_Tables_number   1
_chemical_formula_structural   NiC2(NO)2
_chemical_formula_sum   'Ni4 C8 N8 O8'
_cell_volume   382.47742727
_cell_formula_units_Z   4
loop_
 _symmetry_equiv_pos_site_id
 _symmetry_equiv_pos_as_xyz
  1  'x, y, z'
loop_
 _atom_site_type_symbol
 _atom_site_label
 _atom_site_symmetry_multiplicity
 _atom_site_fract_x
 _atom_site_fract_y
 _atom_site_fract_z
 _atom_site_occupancy
  O  O0  1  0.00000000  0.50000000  0.74804288  1.0
  O  O1  1  0.00000000  0.50000000  0.25195712  1.0
  O  O2  1  0.50000000  0.00000000  0.74804288  1.0
  O  O3  1  0.50000000  0.00000000  0.25195712  1.0
  O  O4  1  0.50000000  0.50000000  0.74238337  1.0
  O  O5  1  0.50000000  0.50000000  0.25761663  1.0
  O  O6  1  0.00000000  0.00000000  0.75765221  1.0
  O  O7  1  0.00000000  0.00000000  0.24234779  1.0
  N  N8  1  0.69961528  0.69961528  0.50000000  1.0
  N  N9  1  0.69961528  0.30038472  0.50000000  1.0
  N  N10  1  0.30038472  0.69961528  0.50000000  1.0
  N  N11  1  0.30038472  0.30038472  0.50000000  1.0
  N  N12  1  0.80037863  0.80037863  0.00000000  1.0
  N  N13  1  0.80037863  0.19962137  -0.00000000  1.0
  N  N14  1  0.19962137  0.80037863  -0.00000000  1.0
  N  N15  1  0.19962137  0.19962137  0.00000000  1.0
  Ni  Ni16  1  0.50000000  0.50000000  0.50000000  1.0
  Ni  Ni17  1  0.00000000  0.00000000  0.00000000  1.0
  Ni  Ni18  1  0.50000000  0.50000000  0.00000000  1.0
  Ni  Ni19  1  0.00000000  0.00000000  0.50000000  1.0
  C  C20  1  0.81417384  0.81417384  0.50000000  1.0
  C  C21  1  0.81417384  0.18582616  0.50000000  1.0
  C  C22  1  0.18582616  0.81417384  0.50000000  1.0
  C  C23  1  0.18582616  0.18582616  0.50000000  1.0
  C  C24  1  0.68583324  0.68583324  -0.00000000  1.0
  C  C25  1  0.68583324  0.31416676  0.00000000  1.0
  C  C26  1  0.31416676  0.68583324  0.00000000  1.0
  C  C27  1  0.31416676  0.31416676  -0.00000000  1.0
