# generated using pymatgen
data_K4As2Se5
_symmetry_space_group_name_H-M   'P 1'
_cell_length_a   7.80645583
_cell_length_b   22.98379844
_cell_length_c   9.87481460
_cell_angle_alpha   90.00000000
_cell_angle_beta   122.00136020
_cell_angle_gamma   90.00000000
_symmetry_Int_Tables_number   1
_chemical_formula_structural   K4As2Se5
_chemical_formula_sum   'K16 As8 Se20'
_cell_volume   1502.51460579
_cell_formula_units_Z   4
loop_
 _symmetry_equiv_pos_site_id
 _symmetry_equiv_pos_as_xyz
  1  'x, y, z'
loop_
 _atom_site_type_symbol
 _atom_site_label
 _atom_site_symmetry_multiplicity
 _atom_site_fract_x
 _atom_site_fract_y
 _atom_site_fract_z
 _atom_site_occupancy
  K  K0  1  0.75199824  0.75535022  0.49453956  1.0
  K  K1  1  0.75199824  0.74464978  0.99453956  1.0
  K  K2  1  0.24800176  0.25535022  0.00546044  1.0
  K  K3  1  0.24800176  0.24464978  0.50546044  1.0
  K  K4  1  0.74978503  0.95633136  0.99424905  1.0
  K  K5  1  0.74978503  0.54366864  0.49424905  1.0
  K  K6  1  0.25021497  0.45633136  0.50575095  1.0
  K  K7  1  0.25021497  0.04366864  0.00575095  1.0
  K  K8  1  0.75055075  0.95299528  0.49931925  1.0
  K  K9  1  0.75055075  0.54700472  0.99931925  1.0
  K  K10  1  0.24944925  0.45299528  0.00068075  1.0
  K  K11  1  0.24944925  0.04700472  0.50068075  1.0
  K  K12  1  0.73102831  0.34419517  0.49271417  1.0
  K  K13  1  0.73102831  0.15580483  0.99271417  1.0
  K  K14  1  0.26897169  0.84419517  0.00728583  1.0
  K  K15  1  0.26897169  0.65580483  0.50728583  1.0
  As  As16  1  0.85479078  0.35005427  0.17061068  1.0
  As  As17  1  0.85479078  0.14994573  0.67061068  1.0
  As  As18  1  0.14520922  0.85005427  0.32938932  1.0
  As  As19  1  0.14520922  0.64994573  0.82938932  1.0
  As  As20  1  0.65712497  0.14439097  0.35983647  1.0
  As  As21  1  0.65712497  0.35560903  0.85983647  1.0
  As  As22  1  0.34287503  0.64439097  0.14016353  1.0
  As  As23  1  0.34287503  0.85560903  0.64016353  1.0
  Se  Se24  1  0.80684669  0.85763397  0.26272780  1.0
  Se  Se25  1  0.80684669  0.64236603  0.76272780  1.0
  Se  Se26  1  0.19315331  0.35763397  0.23727220  1.0
  Se  Se27  1  0.19315331  0.14236603  0.73727220  1.0
  Se  Se28  1  0.76265251  0.43867377  0.24138627  1.0
  Se  Se29  1  0.76265251  0.06132623  0.74138627  1.0
  Se  Se30  1  0.23734749  0.93867377  0.25861373  1.0
  Se  Se31  1  0.23734749  0.56132623  0.75861373  1.0
  Se  Se32  1  0.73976202  0.06200325  0.25857357  1.0
  Se  Se33  1  0.73976202  0.43799675  0.75857357  1.0
  Se  Se34  1  0.26023798  0.56200325  0.24142643  1.0
  Se  Se35  1  0.26023798  0.93799675  0.74142643  1.0
  Se  Se36  1  0.73894344  0.23255135  0.27550408  1.0
  Se  Se37  1  0.73894344  0.26744865  0.77550408  1.0
  Se  Se38  1  0.26105656  0.73255135  0.22449592  1.0
  Se  Se39  1  0.26105656  0.76744865  0.72449592  1.0
  Se  Se40  1  0.30951464  0.14473049  0.27055401  1.0
  Se  Se41  1  0.30951464  0.35526951  0.77055401  1.0
  Se  Se42  1  0.69048536  0.64473049  0.22944599  1.0
  Se  Se43  1  0.69048536  0.85526951  0.72944599  1.0
