# generated using pymatgen
data_Na4Cr2(PO4)3
_symmetry_space_group_name_H-M   'P 1'
_cell_length_a   8.87195629
_cell_length_b   8.87195629
_cell_length_c   8.87195629
_cell_angle_alpha   61.13034239
_cell_angle_beta   61.13034239
_cell_angle_gamma   61.13034239
_symmetry_Int_Tables_number   1
_chemical_formula_structural   Na4Cr2(PO4)3
_chemical_formula_sum   'Na8 Cr4 P6 O24'
_cell_volume   506.35220163
_cell_formula_units_Z   2
loop_
 _symmetry_equiv_pos_site_id
 _symmetry_equiv_pos_as_xyz
  1  'x, y, z'
loop_
 _atom_site_type_symbol
 _atom_site_label
 _atom_site_symmetry_multiplicity
 _atom_site_fract_x
 _atom_site_fract_y
 _atom_site_fract_z
 _atom_site_occupancy
  Na  Na0  1  1.00000000  0.00000000  0.00000000  1.0
  Na  Na1  1  0.50000000  0.50000000  0.50000000  1.0
  Na  Na2  1  1.11424116  -0.25000000  0.38575884  1.0
  Na  Na3  1  0.61424116  -0.11424116  0.25000000  1.0
  Na  Na4  1  0.25000000  0.61424116  -0.11424116  1.0
  Na  Na5  1  0.75000000  0.38575884  0.11424116  1.0
  Na  Na6  1  0.88575884  0.25000000  -0.38575884  1.0
  Na  Na7  1  1.38575884  0.11424116  -0.25000000  1.0
  Cr  Cr8  1  0.85267623  -0.14732377  -0.14732377  1.0
  Cr  Cr9  1  0.35267623  0.35267623  0.35267623  1.0
  Cr  Cr10  1  0.64732377  0.64732377  -0.35267623  1.0
  Cr  Cr11  1  1.14732377  0.14732377  0.14732377  1.0
  P  P12  1  0.45416323  0.75000000  0.04583677  1.0
  P  P13  1  0.95416323  -0.45416323  0.25000000  1.0
  P  P14  1  0.25000000  0.95416323  -0.45416323  1.0
  P  P15  1  0.75000000  1.04583677  -0.54583677  1.0
  P  P16  1  0.54583677  0.25000000  -0.04583677  1.0
  P  P17  1  1.04583677  0.45416323  -0.25000000  1.0
  O  O18  1  0.79032468  1.01781868  -0.38062021  1.0
  O  O19  1  1.29032468  0.11937979  -0.48218132  1.0
  O  O20  1  0.88062021  0.48218132  -0.29032468  1.0
  O  O21  1  0.38062021  0.20967532  -0.01781868  1.0
  O  O22  1  0.98218132  0.38062021  -0.79032468  1.0
  O  O23  1  0.48218132  0.70967532  -0.11937979  1.0
  O  O24  1  0.20967532  0.98218132  -0.61937979  1.0
  O  O25  1  0.70967532  0.88062021  -0.51781868  1.0
  O  O26  1  0.61937979  0.79032468  0.01781868  1.0
  O  O27  1  1.11937979  -0.48218132  0.29032468  1.0
  O  O28  1  0.51781868  0.29032468  0.11937979  1.0
  O  O29  1  1.01781868  0.61937979  -0.20967532  1.0
  O  O30  1  0.72706934  0.08524081  -0.06642869  1.0
  O  O31  1  1.22706934  0.43357131  -0.41475919  1.0
  O  O32  1  0.56642869  0.41475919  -0.22706934  1.0
  O  O33  1  1.06642869  0.27293066  -0.08524081  1.0
  O  O34  1  0.91475919  0.06642869  0.27293066  1.0
  O  O35  1  0.41475919  0.77293066  -0.43357131  1.0
  O  O36  1  1.27293066  -0.08524081  0.06642869  1.0
  O  O37  1  0.77293066  0.56642869  -0.58524081  1.0
  O  O38  1  0.93357131  -0.27293066  0.08524081  1.0
  O  O39  1  0.43357131  0.58524081  0.22706934  1.0
  O  O40  1  0.58524081  1.22706934  -0.56642869  1.0
  O  O41  1  1.08524081  -0.06642869  -0.27293066  1.0
