# generated using pymatgen
data_Cu2SnS3
_symmetry_space_group_name_H-M   'P 1'
_cell_length_a   6.71180887
_cell_length_b   6.71180887
_cell_length_c   6.73822351
_cell_angle_alpha   80.29957166
_cell_angle_beta   99.70042834
_cell_angle_gamma   59.99119357
_symmetry_Int_Tables_number   1
_chemical_formula_structural   Cu2SnS3
_chemical_formula_sum   'Cu4 Sn2 S6'
_cell_volume   247.47583250
_cell_formula_units_Z   2
loop_
 _symmetry_equiv_pos_site_id
 _symmetry_equiv_pos_as_xyz
  1  'x, y, z'
loop_
 _atom_site_type_symbol
 _atom_site_label
 _atom_site_symmetry_multiplicity
 _atom_site_fract_x
 _atom_site_fract_y
 _atom_site_fract_z
 _atom_site_occupancy
  Cu  Cu0  1  0.90550265  -0.06878348  0.48454592  1.0
  Cu  Cu1  1  0.06878348  0.09449735  -0.01545408  1.0
  Cu  Cu2  1  0.24439998  0.24977144  0.48373803  1.0
  Cu  Cu3  1  0.75022856  -0.24439998  -0.01626197  1.0
  Sn  Sn4  1  0.60014442  -0.41518500  0.50120673  1.0
  Sn  Sn5  1  0.41518500  0.39985558  0.00120673  1.0
  S  S6  1  1.26491748  -0.44920621  0.59981527  1.0
  S  S7  1  0.44920621  -0.26491748  0.09981527  1.0
  S  S8  1  1.10106078  -0.62415814  0.12020333  1.0
  S  S9  1  0.62415814  -0.10106078  0.62020333  1.0
  S  S10  1  0.97954663  -0.81086668  0.62049072  1.0
  S  S11  1  0.81086668  0.02045337  0.12049072  1.0
