# generated using pymatgen
data_TlC6OF5
_symmetry_space_group_name_H-M   'P 1'
_cell_length_a   9.74088729
_cell_length_b   4.42744325
_cell_length_c   10.31778180
_cell_angle_alpha   102.30800526
_cell_angle_beta   102.22118214
_cell_angle_gamma   95.87522312
_symmetry_Int_Tables_number   1
_chemical_formula_structural   TlC6OF5
_chemical_formula_sum   'Tl2 C12 O2 F10'
_cell_volume   419.79846118
_cell_formula_units_Z   2
loop_
 _symmetry_equiv_pos_site_id
 _symmetry_equiv_pos_as_xyz
  1  'x, y, z'
loop_
 _atom_site_type_symbol
 _atom_site_label
 _atom_site_symmetry_multiplicity
 _atom_site_fract_x
 _atom_site_fract_y
 _atom_site_fract_z
 _atom_site_occupancy
  Tl  Tl0  1  -0.37410890  -0.15105300  -0.34226085  1.0
  Tl  Tl1  1  -0.62589110  -0.84894700  -0.65773915  1.0
  C  C2  1  -0.34741122  -0.26195571  -0.68256861  1.0
  C  C3  1  -0.65258878  -0.73804429  -0.31743139  1.0
  C  C4  1  -0.11634780  -1.00904674  -0.70032891  1.0
  C  C5  1  -0.88365220  0.00904674  -0.29967109  1.0
  C  C6  1  -0.24810852  -0.43912484  -0.88207908  1.0
  C  C7  1  -0.75189148  -0.56087516  -0.11792092  1.0
  C  C8  1  -0.12747784  -0.21259036  -0.82662696  1.0
  C  C9  1  -0.87252216  -0.78740964  -0.17337304  1.0
  C  C10  1  -0.35403931  -0.46158162  -0.81132945  1.0
  C  C11  1  -0.64596069  -0.53841838  -0.18867055  1.0
  C  C12  1  -0.22381369  -0.03402026  -0.63167671  1.0
  C  C13  1  -0.77618631  -0.96597974  -0.36832329  1.0
  O  O14  1  -0.44901711  -0.28338917  -0.61590722  1.0
  O  O15  1  -0.55098289  -0.71661083  -0.38409278  1.0
  F  F16  1  -0.00022289  -0.78638842  -0.64504352  1.0
  F  F17  1  -0.99977711  -0.21361158  -0.35495648  1.0
  F  F18  1  -0.46962702  -0.68827453  -0.86910816  1.0
  F  F19  1  -0.53037298  -0.31172547  -0.13089184  1.0
  F  F20  1  -0.20931696  -0.82711389  -0.50876756  1.0
  F  F21  1  -0.79068304  -0.17288611  -0.49123244  1.0
  F  F22  1  -0.26135916  -0.63891510  -0.00494947  1.0
  F  F23  1  -0.73864084  -0.36108490  -0.99505053  1.0
  F  F24  1  -0.02271668  -0.19082747  -0.89321410  1.0
  F  F25  1  -0.97728332  -0.80917253  -0.10678590  1.0
