# generated using pymatgen
data_CdHgC4(SN)4
_symmetry_space_group_name_H-M   'P 1'
_cell_length_a   8.58430386
_cell_length_b   8.58430386
_cell_length_c   8.58430386
_cell_angle_alpha   95.42219706
_cell_angle_beta   95.42219706
_cell_angle_gamma   144.19492498
_symmetry_Int_Tables_number   1
_chemical_formula_structural   CdHgC4(SN)4
_chemical_formula_sum   'Cd1 Hg1 C4 S4 N4'
_cell_volume   352.15891599
_cell_formula_units_Z   1
loop_
 _symmetry_equiv_pos_site_id
 _symmetry_equiv_pos_as_xyz
  1  'x, y, z'
loop_
 _atom_site_type_symbol
 _atom_site_label
 _atom_site_symmetry_multiplicity
 _atom_site_fract_x
 _atom_site_fract_y
 _atom_site_fract_z
 _atom_site_occupancy
  Cd  Cd0  1  0.00000000  0.00000000  0.00000000  1.0
  Hg  Hg1  1  0.75000000  0.25000000  0.50000000  1.0
  C  C2  1  0.57680264  0.41318412  0.70127125  1.0
  C  C3  1  1.12446861  0.42319736  0.83638148  1.0
  C  C4  1  0.71191287  0.87553139  1.29872875  1.0
  C  C5  1  0.58681588  1.28808713  1.16361852  1.0
  S  S6  1  1.57293293  1.81502796  1.44648487  1.0
  S  S7  1  0.87355194  1.42706707  1.24209503  1.0
  S  S8  1  1.36854309  1.12644806  0.55351513  1.0
  S  S9  1  1.18497204  0.63145691  0.75790497  1.0
  N  N10  1  0.71865917  0.61501562  0.80697381  1.0
  N  N11  1  1.08831464  0.28134083  0.89635645  1.0
  N  N12  1  0.80804181  0.91168536  1.19302619  1.0
  N  N13  1  0.38498438  1.19195819  1.10364355  1.0
