# generated using pymatgen
data_Sc2Re3Si4
_symmetry_space_group_name_H-M   'P 1'
_cell_length_a   6.62518686
_cell_length_b   6.62518686
_cell_length_c   12.44305402
_cell_angle_alpha   90.00000000
_cell_angle_beta   90.00000000
_cell_angle_gamma   90.00000000
_symmetry_Int_Tables_number   1
_chemical_formula_structural   Sc2Re3Si4
_chemical_formula_sum   'Sc8 Re12 Si16'
_cell_volume   546.16422621
_cell_formula_units_Z   4
loop_
 _symmetry_equiv_pos_site_id
 _symmetry_equiv_pos_as_xyz
  1  'x, y, z'
loop_
 _atom_site_type_symbol
 _atom_site_label
 _atom_site_symmetry_multiplicity
 _atom_site_fract_x
 _atom_site_fract_y
 _atom_site_fract_z
 _atom_site_occupancy
  Sc  Sc0  1  0.49277612  0.84152019  0.03080693  1.0
  Sc  Sc1  1  0.99277612  0.65847981  0.71919307  1.0
  Sc  Sc2  1  0.15847981  0.50722388  0.46919307  1.0
  Sc  Sc3  1  0.65847981  0.99277612  0.28080693  1.0
  Sc  Sc4  1  0.50722388  0.15847981  0.53080693  1.0
  Sc  Sc5  1  0.00722388  0.34152019  0.21919307  1.0
  Sc  Sc6  1  0.84152019  0.49277612  0.96919307  1.0
  Sc  Sc7  1  0.34152019  0.00722388  0.78080693  1.0
  Re  Re8  1  0.31514346  0.51805769  0.86749179  1.0
  Re  Re9  1  0.81514346  0.98194231  0.88250821  1.0
  Re  Re10  1  0.48194231  0.68485654  0.63250821  1.0
  Re  Re11  1  0.98194231  0.81514346  0.11749179  1.0
  Re  Re12  1  0.68485654  0.48194231  0.36749179  1.0
  Re  Re13  1  0.18485654  0.01805769  0.38250821  1.0
  Re  Re14  1  0.51805769  0.31514346  0.13250821  1.0
  Re  Re15  1  0.01805769  0.18485654  0.61749179  1.0
  Re  Re16  1  0.33192898  0.66807102  0.25000000  1.0
  Re  Re17  1  0.83192898  0.83192898  0.50000000  1.0
  Re  Re18  1  0.66807102  0.33192898  0.75000000  1.0
  Re  Re19  1  0.16807102  0.16807102  0.00000000  1.0
  Si  Si20  1  0.22125230  0.52654454  0.06252256  1.0
  Si  Si21  1  0.72125230  0.97345546  0.68747744  1.0
  Si  Si22  1  0.47345546  0.77874770  0.43747744  1.0
  Si  Si23  1  0.97345546  0.72125230  0.31252256  1.0
  Si  Si24  1  0.77874770  0.47345546  0.56252256  1.0
  Si  Si25  1  0.27874770  0.02654454  0.18747744  1.0
  Si  Si26  1  0.52654454  0.22125230  0.93747744  1.0
  Si  Si27  1  0.02654454  0.27874770  0.81252256  1.0
  Si  Si28  1  0.12101972  0.80458134  0.93034001  1.0
  Si  Si29  1  0.62101972  0.69541866  0.81965999  1.0
  Si  Si30  1  0.19541866  0.87898028  0.56965999  1.0
  Si  Si31  1  0.69541866  0.62101972  0.18034001  1.0
  Si  Si32  1  0.87898028  0.19541866  0.43034001  1.0
  Si  Si33  1  0.37898028  0.30458134  0.31965999  1.0
  Si  Si34  1  0.80458134  0.12101972  0.06965999  1.0
  Si  Si35  1  0.30458134  0.37898028  0.68034001  1.0
