# generated using pymatgen
data_V2MoO8
_symmetry_space_group_name_H-M   'P 1'
_cell_length_a   9.86365664
_cell_length_b   9.86365664
_cell_length_c   3.89702418
_cell_angle_alpha   89.82142841
_cell_angle_beta   90.17857159
_cell_angle_gamma   158.15143964
_symmetry_Int_Tables_number   1
_chemical_formula_structural   V2MoO8
_chemical_formula_sum   'V2 Mo1 O8'
_cell_volume   141.10104466
_cell_formula_units_Z   1
loop_
 _symmetry_equiv_pos_site_id
 _symmetry_equiv_pos_as_xyz
  1  'x, y, z'
loop_
 _atom_site_type_symbol
 _atom_site_label
 _atom_site_symmetry_multiplicity
 _atom_site_fract_x
 _atom_site_fract_y
 _atom_site_fract_z
 _atom_site_occupancy
  Mo  Mo0  1  0.00000000  0.00000000  0.00000000  1.0
  V  V1  1  0.81062735  -0.81062735  0.91016026  1.0
  V  V2  1  1.18937265  -0.18937265  0.08983974  1.0
  O  O3  1  0.90130487  -0.90130487  0.99541566  1.0
  O  O4  1  1.09869513  -0.09869513  0.00458434  1.0
  O  O5  1  0.81184168  -0.81184168  0.49940711  1.0
  O  O6  1  1.18815832  -0.18815832  0.50059289  1.0
  O  O7  1  0.70894221  -0.70894221  1.00655243  1.0
  O  O8  1  1.29105779  -0.29105779  -0.00655243  1.0
  O  O9  1  0.50000000  0.50000000  -0.00000000  1.0
  O  O10  1  -0.00000000  0.00000000  0.50000000  1.0
