# generated using pymatgen
data_TlBr2
_symmetry_space_group_name_H-M   'P 1'
_cell_length_a   8.14636095
_cell_length_b   10.78582275
_cell_length_c   10.82896234
_cell_angle_alpha   90.00000000
_cell_angle_beta   90.00000000
_cell_angle_gamma   90.00000000
_symmetry_Int_Tables_number   1
_chemical_formula_structural   TlBr2
_chemical_formula_sum   'Tl8 Br16'
_cell_volume   951.48899911
_cell_formula_units_Z   8
loop_
 _symmetry_equiv_pos_site_id
 _symmetry_equiv_pos_as_xyz
  1  'x, y, z'
loop_
 _atom_site_type_symbol
 _atom_site_label
 _atom_site_symmetry_multiplicity
 _atom_site_fract_x
 _atom_site_fract_y
 _atom_site_fract_z
 _atom_site_occupancy
  Tl  Tl0  1  0.82171035  0.75000000  0.25000000  1.0
  Tl  Tl1  1  0.32171035  0.75000000  0.75000000  1.0
  Tl  Tl2  1  0.17828965  0.25000000  0.75000000  1.0
  Tl  Tl3  1  0.67828965  0.25000000  0.25000000  1.0
  Tl  Tl4  1  0.25000000  0.00000000  0.17593293  1.0
  Tl  Tl5  1  0.25000000  0.50000000  0.32406707  1.0
  Tl  Tl6  1  0.75000000  0.00000000  0.82406707  1.0
  Tl  Tl7  1  0.75000000  0.50000000  0.67593293  1.0
  Br  Br8  1  0.50968804  0.96086594  0.31691543  1.0
  Br  Br9  1  0.50968804  0.53913406  0.18308457  1.0
  Br  Br10  1  1.00968804  0.96086594  0.68308457  1.0
  Br  Br11  1  1.00968804  0.53913406  0.81691543  1.0
  Br  Br12  1  0.49031196  0.46086594  0.81691543  1.0
  Br  Br13  1  0.49031196  0.03913406  0.68308457  1.0
  Br  Br14  1  -0.00968804  0.46086594  0.18308457  1.0
  Br  Br15  1  -0.00968804  0.03913406  0.31691543  1.0
  Br  Br16  1  0.15305443  0.80775299  0.04607742  1.0
  Br  Br17  1  0.15305443  0.69224701  0.45392258  1.0
  Br  Br18  1  0.65305444  0.80775299  0.95392258  1.0
  Br  Br19  1  0.65305444  0.69224701  0.54607742  1.0
  Br  Br20  1  0.84694557  0.30775299  0.54607742  1.0
  Br  Br21  1  0.84694557  0.19224701  0.95392258  1.0
  Br  Br22  1  0.34694556  0.30775299  0.45392258  1.0
  Br  Br23  1  0.34694556  0.19224701  0.04607742  1.0
