# generated using pymatgen
data_ScGeOs
_symmetry_space_group_name_H-M   'P 1'
_cell_length_a   6.98318183
_cell_length_b   6.98318183
_cell_length_c   3.48456208
_cell_angle_alpha   90.00000000
_cell_angle_beta   90.00000000
_cell_angle_gamma   120.00000000
_symmetry_Int_Tables_number   1
_chemical_formula_structural   ScGeOs
_chemical_formula_sum   'Sc3 Ge3 Os3'
_cell_volume   147.15856283
_cell_formula_units_Z   3
loop_
 _symmetry_equiv_pos_site_id
 _symmetry_equiv_pos_as_xyz
  1  'x, y, z'
loop_
 _atom_site_type_symbol
 _atom_site_label
 _atom_site_symmetry_multiplicity
 _atom_site_fract_x
 _atom_site_fract_y
 _atom_site_fract_z
 _atom_site_occupancy
  Sc  Sc0  1  0.40171927  0.40171927  0.00000000  1.0
  Sc  Sc1  1  0.00000000  0.59828073  0.00000000  1.0
  Sc  Sc2  1  0.59828073  0.00000000  0.00000000  1.0
  Ge  Ge3  1  0.00000000  0.00000000  0.00000000  1.0
  Ge  Ge4  1  0.33333333  0.66666667  0.50000000  1.0
  Ge  Ge5  1  0.66666667  0.33333333  0.50000000  1.0
  Os  Os6  1  0.74492872  0.74492872  0.50000000  1.0
  Os  Os7  1  0.00000000  0.25507128  0.50000000  1.0
  Os  Os8  1  0.25507128  0.00000000  0.50000000  1.0
