# generated using pymatgen
data_YB4Ru
_symmetry_space_group_name_H-M   'P 1'
_cell_length_a   5.95485281
_cell_length_b   11.51804943
_cell_length_c   3.55015667
_cell_angle_alpha   90.00000000
_cell_angle_beta   90.00000000
_cell_angle_gamma   90.00000000
_symmetry_Int_Tables_number   1
_chemical_formula_structural   YB4Ru
_chemical_formula_sum   'Y4 B16 Ru4'
_cell_volume   243.49917172
_cell_formula_units_Z   4
loop_
 _symmetry_equiv_pos_site_id
 _symmetry_equiv_pos_as_xyz
  1  'x, y, z'
loop_
 _atom_site_type_symbol
 _atom_site_label
 _atom_site_symmetry_multiplicity
 _atom_site_fract_x
 _atom_site_fract_y
 _atom_site_fract_z
 _atom_site_occupancy
  Y  Y0  1  0.12839474  0.64993182  0.50000000  1.0
  Y  Y1  1  0.62839474  0.85006818  0.50000000  1.0
  Y  Y2  1  0.87160526  0.35006818  0.50000000  1.0
  Y  Y3  1  0.37160526  0.14993182  0.50000000  1.0
  B  B4  1  0.47551900  0.69162001  0.00000000  1.0
  B  B5  1  0.97551900  0.80837999  0.00000000  1.0
  B  B6  1  0.52448100  0.30837999  0.00000000  1.0
  B  B7  1  0.02448100  0.19162001  0.00000000  1.0
  B  B8  1  0.38796444  0.54665180  0.00000000  1.0
  B  B9  1  0.88796444  0.95334820  0.00000000  1.0
  B  B10  1  0.61203556  0.45334820  0.00000000  1.0
  B  B11  1  0.11203556  0.04665180  0.00000000  1.0
  B  B12  1  0.36373521  0.96965672  0.00000000  1.0
  B  B13  1  0.86373521  0.53034328  0.00000000  1.0
  B  B14  1  0.63626479  0.03034328  0.00000000  1.0
  B  B15  1  0.13626479  0.46965672  0.00000000  1.0
  B  B16  1  0.28838701  0.81461699  0.00000000  1.0
  B  B17  1  0.78838701  0.68538301  0.00000000  1.0
  B  B18  1  0.71161299  0.18538301  0.00000000  1.0
  B  B19  1  0.21161299  0.31461699  0.00000000  1.0
  Ru  Ru20  1  0.13968278  0.90758547  0.50000000  1.0
  Ru  Ru21  1  0.63968278  0.59241453  0.50000000  1.0
  Ru  Ru22  1  0.86031722  0.09241453  0.50000000  1.0
  Ru  Ru23  1  0.36031722  0.40758547  0.50000000  1.0
