# generated using pymatgen
data_NbIn(TeO4)2
_symmetry_space_group_name_H-M   'P 1'
_cell_length_a   7.72799821
_cell_length_b   10.94897773
_cell_length_c   7.84315235
_cell_angle_alpha   90.00000000
_cell_angle_beta   90.00000000
_cell_angle_gamma   90.00000000
_symmetry_Int_Tables_number   1
_chemical_formula_structural   NbIn(TeO4)2
_chemical_formula_sum   'Nb4 In4 Te8 O32'
_cell_volume   663.63798528
_cell_formula_units_Z   4
loop_
 _symmetry_equiv_pos_site_id
 _symmetry_equiv_pos_as_xyz
  1  'x, y, z'
loop_
 _atom_site_type_symbol
 _atom_site_label
 _atom_site_symmetry_multiplicity
 _atom_site_fract_x
 _atom_site_fract_y
 _atom_site_fract_z
 _atom_site_occupancy
  Nb  Nb0  1  0.97406467  0.50285802  0.48050906  1.0
  Nb  Nb1  1  0.47406467  0.49714198  0.48050906  1.0
  Nb  Nb2  1  0.02593533  0.49714198  0.98050906  1.0
  Nb  Nb3  1  0.52593533  0.50285802  0.98050906  1.0
  In  In4  1  0.50336493  0.01024852  0.46961435  1.0
  In  In5  1  0.00336493  0.98975148  0.46961435  1.0
  In  In6  1  0.49663507  0.98975148  0.96961435  1.0
  In  In7  1  0.99663507  0.01024852  0.96961435  1.0
  Te  Te8  1  0.72589208  0.22146571  0.23988677  1.0
  Te  Te9  1  0.22589208  0.77853429  0.23988677  1.0
  Te  Te10  1  0.27410792  0.77853429  0.73988677  1.0
  Te  Te11  1  0.77410792  0.22146571  0.73988677  1.0
  Te  Te12  1  0.20213355  0.25447914  0.31565992  1.0
  Te  Te13  1  0.70213355  0.74552086  0.31565992  1.0
  Te  Te14  1  0.79786645  0.74552086  0.81565992  1.0
  Te  Te15  1  0.29786645  0.25447914  0.81565992  1.0
  O  O16  1  0.52642454  0.54960410  0.21041802  1.0
  O  O17  1  0.02642454  0.45039590  0.21041802  1.0
  O  O18  1  0.47357546  0.45039590  0.71041802  1.0
  O  O19  1  0.97357546  0.54960410  0.71041802  1.0
  O  O20  1  0.74859146  0.44623116  0.46212822  1.0
  O  O21  1  0.24859146  0.55376884  0.46212822  1.0
  O  O22  1  0.25140854  0.55376884  0.96212822  1.0
  O  O23  1  0.75140854  0.44623116  0.96212822  1.0
  O  O24  1  0.67852674  0.16500565  0.48996038  1.0
  O  O25  1  0.17852674  0.83499435  0.48996038  1.0
  O  O26  1  0.32147326  0.83499435  0.98996038  1.0
  O  O27  1  0.82147326  0.16500565  0.98996038  1.0
  O  O28  1  0.56039803  0.08552005  0.20383803  1.0
  O  O29  1  0.06039803  0.91447995  0.20383803  1.0
  O  O30  1  0.43960197  0.91447995  0.70383803  1.0
  O  O31  1  0.93960197  0.08552005  0.70383803  1.0
  O  O32  1  0.25263111  0.10355411  0.45601909  1.0
  O  O33  1  0.75263111  0.89644589  0.45601909  1.0
  O  O34  1  0.74736889  0.89644589  0.95601909  1.0
  O  O35  1  0.24736889  0.10355411  0.95601909  1.0
  O  O36  1  0.07736234  0.33082110  0.50744841  1.0
  O  O37  1  0.57736234  0.66917890  0.50744841  1.0
  O  O38  1  0.92263766  0.66917890  0.00744841  1.0
  O  O39  1  0.42263766  0.33082110  0.00744841  1.0
  O  O40  1  0.95295392  0.13814464  0.28544428  1.0
  O  O41  1  0.45295392  0.86185536  0.28544428  1.0
  O  O42  1  0.04704608  0.86185536  0.78544428  1.0
  O  O43  1  0.54704608  0.13814464  0.78544428  1.0
  O  O44  1  0.92728948  0.66590912  0.38517347  1.0
  O  O45  1  0.42728948  0.33409088  0.38517347  1.0
  O  O46  1  0.07271052  0.33409088  0.88517347  1.0
  O  O47  1  0.57271052  0.66590912  0.88517347  1.0
