# generated using pymatgen
data_Tl3AsSe3
_symmetry_space_group_name_H-M   'P 1'
_cell_length_a   6.39134079
_cell_length_b   6.39134079
_cell_length_c   6.39134079
_cell_angle_alpha   106.68985079
_cell_angle_beta   106.68985079
_cell_angle_gamma   106.68985079
_symmetry_Int_Tables_number   1
_chemical_formula_structural   Tl3AsSe3
_chemical_formula_sum   'Tl3 As1 Se3'
_cell_volume   219.24465535
_cell_formula_units_Z   1
loop_
 _symmetry_equiv_pos_site_id
 _symmetry_equiv_pos_as_xyz
  1  'x, y, z'
loop_
 _atom_site_type_symbol
 _atom_site_label
 _atom_site_symmetry_multiplicity
 _atom_site_fract_x
 _atom_site_fract_y
 _atom_site_fract_z
 _atom_site_occupancy
  Tl  Tl0  1  1.19104556  0.59326100  -0.40673900  1.0
  Tl  Tl1  1  0.59326100  1.19104556  -0.40673900  1.0
  Tl  Tl2  1  0.59326100  0.59326100  0.19104556  1.0
  As  As3  1  0.04581478  0.04581478  0.04581478  1.0
  Se  Se4  1  0.65338857  0.02456455  0.02456455  1.0
  Se  Se5  1  1.02456455  -0.34661143  0.02456455  1.0
  Se  Se6  1  1.02456455  0.02456455  -0.34661143  1.0
