# generated using pymatgen
data_YRh3
_symmetry_space_group_name_H-M   'P 1'
_cell_length_a   5.25792813
_cell_length_b   5.25792813
_cell_length_c   17.47712664
_cell_angle_alpha   90.00000000
_cell_angle_beta   90.00000000
_cell_angle_gamma   120.00000000
_symmetry_Int_Tables_number   1
_chemical_formula_structural   YRh3
_chemical_formula_sum   'Y6 Rh18'
_cell_volume   418.43688045
_cell_formula_units_Z   6
loop_
 _symmetry_equiv_pos_site_id
 _symmetry_equiv_pos_as_xyz
  1  'x, y, z'
loop_
 _atom_site_type_symbol
 _atom_site_label
 _atom_site_symmetry_multiplicity
 _atom_site_fract_x
 _atom_site_fract_y
 _atom_site_fract_z
 _atom_site_occupancy
  Y  Y0  1  0.33333333  0.66666667  0.95786333  1.0
  Y  Y1  1  0.33333333  0.66666667  0.54213667  1.0
  Y  Y2  1  0.66666667  0.33333333  0.45786333  1.0
  Y  Y3  1  0.66666667  0.33333333  0.04213667  1.0
  Y  Y4  1  0.33333333  0.66666667  0.75000000  1.0
  Y  Y5  1  0.66666667  0.33333333  0.25000000  1.0
  Rh  Rh6  1  0.16719011  0.83280989  0.37370598  1.0
  Rh  Rh7  1  0.16719011  0.83280989  0.12629402  1.0
  Rh  Rh8  1  0.16719011  0.33438022  0.37370598  1.0
  Rh  Rh9  1  0.16719011  0.33438022  0.12629402  1.0
  Rh  Rh10  1  0.83280989  0.16719011  0.87370598  1.0
  Rh  Rh11  1  0.83280989  0.16719011  0.62629402  1.0
  Rh  Rh12  1  0.83280989  0.66561978  0.87370598  1.0
  Rh  Rh13  1  0.83280989  0.66561978  0.62629402  1.0
  Rh  Rh14  1  0.66561978  0.83280989  0.37370598  1.0
  Rh  Rh15  1  0.66561978  0.83280989  0.12629402  1.0
  Rh  Rh16  1  0.33438022  0.16719011  0.87370598  1.0
  Rh  Rh17  1  0.33438022  0.16719011  0.62629402  1.0
  Rh  Rh18  1  0.33333333  0.66666667  0.25000000  1.0
  Rh  Rh19  1  0.66666667  0.33333333  0.75000000  1.0
  Rh  Rh20  1  0.00000000  0.00000000  0.25000000  1.0
  Rh  Rh21  1  0.00000000  0.00000000  0.75000000  1.0
  Rh  Rh22  1  0.00000000  0.00000000  0.50000000  1.0
  Rh  Rh23  1  0.00000000  0.00000000  0.00000000  1.0
