# generated using pymatgen
data_Rb5Ta(TlAs2)2
_symmetry_space_group_name_H-M   'P 1'
_cell_length_a   19.50123849
_cell_length_b   11.22012493
_cell_length_c   8.01589244
_cell_angle_alpha   90.00000000
_cell_angle_beta   90.00000000
_cell_angle_gamma   90.00000000
_symmetry_Int_Tables_number   1
_chemical_formula_structural   Rb5Ta(TlAs2)2
_chemical_formula_sum   'Rb20 Ta4 Tl8 As16'
_cell_volume   1753.92802463
_cell_formula_units_Z   4
loop_
 _symmetry_equiv_pos_site_id
 _symmetry_equiv_pos_as_xyz
  1  'x, y, z'
loop_
 _atom_site_type_symbol
 _atom_site_label
 _atom_site_symmetry_multiplicity
 _atom_site_fract_x
 _atom_site_fract_y
 _atom_site_fract_z
 _atom_site_occupancy
  Rb  Rb0  1  0.75217938  0.44472080  0.02584218  1.0
  Rb  Rb1  1  0.75217938  0.05527920  0.02584218  1.0
  Rb  Rb2  1  0.25217938  0.44472080  0.47415782  1.0
  Rb  Rb3  1  0.25217938  0.05527920  0.47415782  1.0
  Rb  Rb4  1  0.24782062  0.94472080  0.97415782  1.0
  Rb  Rb5  1  0.24782062  0.55527920  0.97415782  1.0
  Rb  Rb6  1  0.74782062  0.94472080  0.52584218  1.0
  Rb  Rb7  1  0.74782062  0.55527920  0.52584218  1.0
  Rb  Rb8  1  0.57799702  0.47435102  0.30442283  1.0
  Rb  Rb9  1  0.57799702  0.02564898  0.30442283  1.0
  Rb  Rb10  1  0.07799702  0.47435102  0.19557717  1.0
  Rb  Rb11  1  0.07799702  0.02564898  0.19557717  1.0
  Rb  Rb12  1  0.42200298  0.97435102  0.69557717  1.0
  Rb  Rb13  1  0.42200298  0.52564898  0.69557717  1.0
  Rb  Rb14  1  0.92200298  0.97435102  0.80442283  1.0
  Rb  Rb15  1  0.92200298  0.52564898  0.80442283  1.0
  Rb  Rb16  1  0.52025225  0.25000000  0.89267130  1.0
  Rb  Rb17  1  0.02025225  0.25000000  0.60732870  1.0
  Rb  Rb18  1  0.47974775  0.75000000  0.10732870  1.0
  Rb  Rb19  1  0.97974775  0.75000000  0.39267130  1.0
  Ta  Ta20  1  0.83639325  0.25000000  0.42325707  1.0
  Ta  Ta21  1  0.33639325  0.25000000  0.07674293  1.0
  Ta  Ta22  1  0.16360675  0.75000000  0.57674293  1.0
  Ta  Ta23  1  0.66360675  0.75000000  0.92325707  1.0
  Tl  Tl24  1  0.94401262  0.25000000  0.08545008  1.0
  Tl  Tl25  1  0.44401262  0.25000000  0.41454992  1.0
  Tl  Tl26  1  0.05598738  0.75000000  0.91454992  1.0
  Tl  Tl27  1  0.55598738  0.75000000  0.58545008  1.0
  Tl  Tl28  1  0.68676554  0.25000000  0.68049428  1.0
  Tl  Tl29  1  0.18676554  0.25000000  0.81950572  1.0
  Tl  Tl30  1  0.31323446  0.75000000  0.31950572  1.0
  Tl  Tl31  1  0.81323446  0.75000000  0.18049428  1.0
  As  As32  1  0.89695310  0.43077086  0.31001049  1.0
  As  As33  1  0.89695310  0.06922914  0.31001049  1.0
  As  As34  1  0.39695310  0.43077086  0.18998951  1.0
  As  As35  1  0.39695310  0.06922914  0.18998951  1.0
  As  As36  1  0.10304690  0.93077086  0.68998951  1.0
  As  As37  1  0.10304690  0.56922914  0.68998951  1.0
  As  As38  1  0.60304690  0.93077086  0.81001049  1.0
  As  As39  1  0.60304690  0.56922914  0.81001049  1.0
  As  As40  1  0.83554015  0.25000000  0.73456420  1.0
  As  As41  1  0.33554015  0.25000000  0.76543580  1.0
  As  As42  1  0.16445985  0.75000000  0.26543580  1.0
  As  As43  1  0.66445985  0.75000000  0.23456420  1.0
  As  As44  1  0.71097002  0.25000000  0.33869193  1.0
  As  As45  1  0.21097002  0.25000000  0.16130807  1.0
  As  As46  1  0.28902998  0.75000000  0.66130807  1.0
  As  As47  1  0.78902998  0.75000000  0.83869193  1.0
