# generated using pymatgen
data_TlIn3F10
_symmetry_space_group_name_H-M   'P 1'
_cell_length_a   6.82855549
_cell_length_b   7.92789002
_cell_length_c   8.18248096
_cell_angle_alpha   90.00000000
_cell_angle_beta   90.00000000
_cell_angle_gamma   90.00000000
_symmetry_Int_Tables_number   1
_chemical_formula_structural   TlIn3F10
_chemical_formula_sum   'Tl2 In6 F20'
_cell_volume   442.96709180
_cell_formula_units_Z   2
loop_
 _symmetry_equiv_pos_site_id
 _symmetry_equiv_pos_as_xyz
  1  'x, y, z'
loop_
 _atom_site_type_symbol
 _atom_site_label
 _atom_site_symmetry_multiplicity
 _atom_site_fract_x
 _atom_site_fract_y
 _atom_site_fract_z
 _atom_site_occupancy
  Tl  Tl0  1  0.01986025  0.50000000  0.50000000  1.0
  Tl  Tl1  1  -0.01986025  0.50000000  0.00000000  1.0
  In  In2  1  0.00000000  0.00002814  0.75000000  1.0
  In  In3  1  0.00000000  -0.00002814  0.25000000  1.0
  In  In4  1  0.50000000  0.26908588  0.75000000  1.0
  In  In5  1  0.50000000  0.73091412  0.25000000  1.0
  In  In6  1  0.50000000  0.73100319  0.75000000  1.0
  In  In7  1  0.50000000  0.26899681  0.25000000  1.0
  F  F8  1  0.80482748  0.80176634  0.19646990  1.0
  F  F9  1  0.80482748  0.19823366  0.80353010  1.0
  F  F10  1  0.19517252  0.80176634  0.30353010  1.0
  F  F11  1  0.19517252  0.19823366  0.69646990  1.0
  F  F12  1  0.91496943  0.00000000  0.50000000  1.0
  F  F13  1  0.08503057  0.00000000  0.00000000  1.0
  F  F14  1  0.50000000  0.00005704  0.75000000  1.0
  F  F15  1  0.50000000  -0.00005704  0.25000000  1.0
  F  F16  1  0.57544444  0.72026921  0.50002448  1.0
  F  F17  1  0.57544444  0.27973079  0.49997552  1.0
  F  F18  1  0.42455556  0.72026921  0.99997552  1.0
  F  F19  1  0.42455556  0.27973079  0.00002448  1.0
  F  F20  1  0.67548579  0.50006327  0.78657458  1.0
  F  F21  1  0.67548579  0.49993673  0.21342542  1.0
  F  F22  1  0.32451421  0.50006327  0.71342542  1.0
  F  F23  1  0.32451421  0.49993673  0.28657458  1.0
  F  F24  1  0.80482450  0.80190388  0.80381022  1.0
  F  F25  1  0.80482450  0.19809612  0.19618978  1.0
  F  F26  1  0.19517550  0.80190388  0.69618978  1.0
  F  F27  1  0.19517550  0.19809612  0.30381022  1.0
