# generated using pymatgen
data_Ba4YMn3O12
_symmetry_space_group_name_H-M   'P 1'
_cell_length_a   10.15433314
_cell_length_b   10.15433314
_cell_length_c   10.15433314
_cell_angle_alpha   33.34340885
_cell_angle_beta   33.34340885
_cell_angle_gamma   33.34340885
_symmetry_Int_Tables_number   1
_chemical_formula_structural   Ba4YMn3O12
_chemical_formula_sum   'Ba4 Y1 Mn3 O12'
_cell_volume   281.66092793
_cell_formula_units_Z   1
loop_
 _symmetry_equiv_pos_site_id
 _symmetry_equiv_pos_as_xyz
  1  'x, y, z'
loop_
 _atom_site_type_symbol
 _atom_site_label
 _atom_site_symmetry_multiplicity
 _atom_site_fract_x
 _atom_site_fract_y
 _atom_site_fract_z
 _atom_site_occupancy
  Ba  Ba0  1  0.78267656  0.78267656  0.78267656  1.0
  Ba  Ba1  1  1.21732344  1.21732344  0.21732344  1.0
  Ba  Ba2  1  1.63036574  0.63036574  0.63036574  1.0
  Ba  Ba3  1  1.36963426  0.36963426  0.36963426  1.0
  Y  Y4  1  1.50000000  0.50000000  0.50000000  1.0
  Mn  Mn5  1  0.91105466  0.91105466  0.91105466  1.0
  Mn  Mn6  1  1.08894534  1.08894534  0.08894534  1.0
  Mn  Mn7  1  0.00000000  0.00000000  0.00000000  1.0
  O  O8  1  1.27657511  1.27657511  -0.18826298  1.0
  O  O9  1  1.27657511  0.81173702  0.27657511  1.0
  O  O10  1  1.18826298  0.72342489  0.72342489  1.0
  O  O11  1  1.72342489  0.18826298  0.72342489  1.0
  O  O12  1  1.72342489  0.72342489  0.18826298  1.0
  O  O13  1  0.81173702  1.27657511  0.27657511  1.0
  O  O14  1  1.10420009  1.10420009  0.66662211  1.0
  O  O15  1  1.10420009  1.66662211  0.10420009  1.0
  O  O16  1  1.33337789  0.89579991  -0.10420009  1.0
  O  O17  1  0.89579991  1.33337789  -0.10420009  1.0
  O  O18  1  0.89579991  0.89579991  0.33337789  1.0
  O  O19  1  1.66662211  1.10420009  0.10420009  1.0
