# generated using pymatgen
data_Ba3(AlAs2)2
_symmetry_space_group_name_H-M   'P 1'
_cell_length_a   7.54249491
_cell_length_b   11.94254573
_cell_length_c   11.96233408
_cell_angle_alpha   90.00000000
_cell_angle_beta   90.00000000
_cell_angle_gamma   90.00000000
_symmetry_Int_Tables_number   1
_chemical_formula_structural   Ba3(AlAs2)2
_chemical_formula_sum   'Ba12 Al8 As16'
_cell_volume   1077.52626701
_cell_formula_units_Z   4
loop_
 _symmetry_equiv_pos_site_id
 _symmetry_equiv_pos_as_xyz
  1  'x, y, z'
loop_
 _atom_site_type_symbol
 _atom_site_label
 _atom_site_symmetry_multiplicity
 _atom_site_fract_x
 _atom_site_fract_y
 _atom_site_fract_z
 _atom_site_occupancy
  Ba  Ba0  1  0.41889296  0.92240327  0.63896161  1.0
  Ba  Ba1  1  0.41889296  0.57759673  0.63896161  1.0
  Ba  Ba2  1  0.91889296  0.92240327  0.86103839  1.0
  Ba  Ba3  1  0.91889296  0.57759673  0.86103839  1.0
  Ba  Ba4  1  0.58110704  0.42240327  0.36103839  1.0
  Ba  Ba5  1  0.58110704  0.07759673  0.36103839  1.0
  Ba  Ba6  1  0.08110704  0.42240327  0.13896161  1.0
  Ba  Ba7  1  0.08110704  0.07759673  0.13896161  1.0
  Ba  Ba8  1  0.40666000  0.75000000  0.26114022  1.0
  Ba  Ba9  1  0.90666000  0.75000000  0.23885978  1.0
  Ba  Ba10  1  0.59334000  0.25000000  0.73885978  1.0
  Ba  Ba11  1  0.09334000  0.25000000  0.76114022  1.0
  Al  Al12  1  0.44094171  0.87458837  0.96298703  1.0
  Al  Al13  1  0.44094171  0.62541163  0.96298703  1.0
  Al  Al14  1  0.94094171  0.87458837  0.53701297  1.0
  Al  Al15  1  0.94094171  0.62541163  0.53701297  1.0
  Al  Al16  1  0.55905829  0.37458837  0.03701297  1.0
  Al  Al17  1  0.55905829  0.12541163  0.03701297  1.0
  Al  Al18  1  0.05905829  0.37458837  0.46298703  1.0
  Al  Al19  1  0.05905829  0.12541163  0.46298703  1.0
  As  As20  1  0.34024102  0.44104948  0.88685577  1.0
  As  As21  1  0.34024102  0.05895052  0.88685577  1.0
  As  As22  1  0.84024102  0.44104948  0.61314423  1.0
  As  As23  1  0.84024102  0.05895052  0.61314423  1.0
  As  As24  1  0.65975898  0.94104948  0.11314423  1.0
  As  As25  1  0.65975898  0.55895052  0.11314423  1.0
  As  As26  1  0.15975898  0.94104948  0.38685577  1.0
  As  As27  1  0.15975898  0.55895052  0.38685577  1.0
  As  As28  1  0.18639182  0.75000000  0.02790984  1.0
  As  As29  1  0.68639182  0.75000000  0.47209016  1.0
  As  As30  1  0.81360818  0.25000000  0.97209016  1.0
  As  As31  1  0.31360818  0.25000000  0.52790984  1.0
  As  As32  1  0.09261970  0.75000000  0.67425839  1.0
  As  As33  1  0.59261970  0.75000000  0.82574161  1.0
  As  As34  1  0.90738030  0.25000000  0.32574161  1.0
  As  As35  1  0.40738030  0.25000000  0.17425839  1.0
