# generated using pymatgen
data_Rb3GeF7
_symmetry_space_group_name_H-M   'P 1'
_cell_length_a   8.24368652
_cell_length_b   8.24368652
_cell_length_c   5.99829530
_cell_angle_alpha   90.00000000
_cell_angle_beta   90.00000000
_cell_angle_gamma   90.00000000
_symmetry_Int_Tables_number   1
_chemical_formula_structural   Rb3GeF7
_chemical_formula_sum   'Rb6 Ge2 F14'
_cell_volume   407.63435603
_cell_formula_units_Z   2
loop_
 _symmetry_equiv_pos_site_id
 _symmetry_equiv_pos_as_xyz
  1  'x, y, z'
loop_
 _atom_site_type_symbol
 _atom_site_label
 _atom_site_symmetry_multiplicity
 _atom_site_fract_x
 _atom_site_fract_y
 _atom_site_fract_z
 _atom_site_occupancy
  Rb  Rb0  1  0.30549160  0.19450840  0.50000000  1.0
  Rb  Rb1  1  0.80549160  0.30549160  0.50000000  1.0
  Rb  Rb2  1  0.69450840  0.80549160  0.50000000  1.0
  Rb  Rb3  1  0.19450840  0.69450840  0.50000000  1.0
  Rb  Rb4  1  0.50000000  0.50000000  0.00000000  1.0
  Rb  Rb5  1  0.00000000  0.00000000  0.00000000  1.0
  Ge  Ge6  1  0.50000000  0.00000000  0.00000000  1.0
  Ge  Ge7  1  0.00000000  0.50000000  0.00000000  1.0
  F  F8  1  0.50000000  0.50000000  0.50000000  1.0
  F  F9  1  0.00000000  0.00000000  0.50000000  1.0
  F  F10  1  0.89019131  0.60980869  0.78112442  1.0
  F  F11  1  0.89019131  0.60980869  0.21887558  1.0
  F  F12  1  0.39019131  0.89019131  0.78112442  1.0
  F  F13  1  0.39019131  0.89019131  0.21887558  1.0
  F  F14  1  0.10980869  0.39019131  0.78112442  1.0
  F  F15  1  0.10980869  0.39019131  0.21887558  1.0
  F  F16  1  0.60980869  0.10980869  0.78112442  1.0
  F  F17  1  0.60980869  0.10980869  0.21887558  1.0
  F  F18  1  0.34294817  0.15705183  0.00000000  1.0
  F  F19  1  0.84294817  0.34294817  0.00000000  1.0
  F  F20  1  0.65705183  0.84294817  0.00000000  1.0
  F  F21  1  0.15705183  0.65705183  0.00000000  1.0
