# generated using pymatgen
data_K2NaCo(CN)6
_symmetry_space_group_name_H-M   'P 1'
_cell_length_a   7.14637831
_cell_length_b   7.58212559
_cell_length_c   12.54622515
_cell_angle_alpha   90.00000000
_cell_angle_beta   123.80913606
_cell_angle_gamma   90.00000000
_symmetry_Int_Tables_number   1
_chemical_formula_structural   K2NaCo(CN)6
_chemical_formula_sum   'K4 Na2 Co2 C12 N12'
_cell_volume   564.85450083
_cell_formula_units_Z   2
loop_
 _symmetry_equiv_pos_site_id
 _symmetry_equiv_pos_as_xyz
  1  'x, y, z'
loop_
 _atom_site_type_symbol
 _atom_site_label
 _atom_site_symmetry_multiplicity
 _atom_site_fract_x
 _atom_site_fract_y
 _atom_site_fract_z
 _atom_site_occupancy
  K  K0  1  0.72119161  0.07252611  0.24621860  1.0
  K  K1  1  0.72119161  0.42747389  0.74621860  1.0
  K  K2  1  0.27880839  0.57252611  0.25378140  1.0
  K  K3  1  0.27880839  0.92747389  0.75378140  1.0
  Na  Na4  1  0.50000000  0.50000000  0.00000000  1.0
  Na  Na5  1  0.50000000  0.00000000  0.50000000  1.0
  Co  Co6  1  0.00000000  0.50000000  0.50000000  1.0
  Co  Co7  1  0.00000000  0.00000000  0.00000000  1.0
  C  C8  1  0.91509512  0.47164427  0.33023007  1.0
  C  C9  1  0.91509512  0.02835573  0.83023007  1.0
  C  C10  1  0.08490488  0.97164427  0.16976993  1.0
  C  C11  1  0.08490488  0.52835573  0.66976993  1.0
  C  C12  1  0.74870002  0.36822949  0.46297965  1.0
  C  C13  1  0.74870002  0.13177051  0.96297965  1.0
  C  C14  1  0.25129998  0.86822949  0.03702035  1.0
  C  C15  1  0.25129998  0.63177051  0.53702035  1.0
  C  C16  1  0.17517462  0.29427794  0.54820731  1.0
  C  C17  1  0.17517462  0.20572206  0.04820731  1.0
  C  C18  1  0.82482538  0.79427794  0.95179269  1.0
  C  C19  1  0.82482538  0.70572206  0.45179269  1.0
  N  N20  1  0.71095357  0.83185298  0.42055626  1.0
  N  N21  1  0.71095357  0.66814702  0.92055626  1.0
  N  N22  1  0.28904643  0.33185298  0.07944374  1.0
  N  N23  1  0.28904643  0.16814702  0.57944374  1.0
  N  N24  1  0.85994108  0.45184282  0.22377156  1.0
  N  N25  1  0.85994108  0.04815718  0.72377156  1.0
  N  N26  1  0.14005892  0.95184282  0.27622844  1.0
  N  N27  1  0.14005892  0.54815718  0.77622844  1.0
  N  N28  1  0.58877065  0.28764508  0.43756015  1.0
  N  N29  1  0.58877065  0.21235492  0.93756015  1.0
  N  N30  1  0.41122935  0.78764508  0.06243985  1.0
  N  N31  1  0.41122935  0.71235492  0.56243985  1.0
