# generated using pymatgen
data_Ca2IrO4
_symmetry_space_group_name_H-M   'P 1'
_cell_length_a   9.57097296
_cell_length_b   9.57097296
_cell_length_c   3.25486308
_cell_angle_alpha   90.00000000
_cell_angle_beta   90.00000000
_cell_angle_gamma   120.00000000
_symmetry_Int_Tables_number   1
_chemical_formula_structural   Ca2IrO4
_chemical_formula_sum   'Ca6 Ir3 O12'
_cell_volume   258.21147246
_cell_formula_units_Z   3
loop_
 _symmetry_equiv_pos_site_id
 _symmetry_equiv_pos_as_xyz
  1  'x, y, z'
loop_
 _atom_site_type_symbol
 _atom_site_label
 _atom_site_symmetry_multiplicity
 _atom_site_fract_x
 _atom_site_fract_y
 _atom_site_fract_z
 _atom_site_occupancy
  Ca  Ca0  1  0.00000000  0.00000000  0.00000000  1.0
  Ca  Ca1  1  0.66666667  0.33333333  0.50000000  1.0
  Ca  Ca2  1  0.33333333  0.66666667  0.50000000  1.0
  Ca  Ca3  1  0.31874655  0.31874655  0.50000000  1.0
  Ca  Ca4  1  0.68125345  0.00000000  0.50000000  1.0
  Ca  Ca5  1  -0.00000000  0.68125345  0.50000000  1.0
  Ir  Ir6  1  0.68150109  0.68150109  0.00000000  1.0
  Ir  Ir7  1  0.31849891  -0.00000000  0.00000000  1.0
  Ir  Ir8  1  0.00000000  0.31849891  0.00000000  1.0
  O  O9  1  0.81991203  0.81991203  0.50000000  1.0
  O  O10  1  0.18008797  -0.00000000  0.50000000  1.0
  O  O11  1  -0.00000000  0.18008797  0.50000000  1.0
  O  O12  1  0.55768965  0.55768965  0.50000000  1.0
  O  O13  1  0.44231035  0.00000000  0.50000000  1.0
  O  O14  1  -0.00000000  0.44231035  0.50000000  1.0
  O  O15  1  0.55557713  0.80137506  0.00000000  1.0
  O  O16  1  0.19862494  0.75420207  -0.00000000  1.0
  O  O17  1  0.24579793  0.44442287  0.00000000  1.0
  O  O18  1  0.80137506  0.55557713  0.00000000  1.0
  O  O19  1  0.75420207  0.19862494  0.00000000  1.0
  O  O20  1  0.44442287  0.24579793  0.00000000  1.0
