# generated using pymatgen
data_TbSnPt2
_symmetry_space_group_name_H-M   'P 1'
_cell_length_a   4.84380814
_cell_length_b   4.84380814
_cell_length_c   8.24290601
_cell_angle_alpha   90.00000000
_cell_angle_beta   90.00000000
_cell_angle_gamma   120.00000000
_symmetry_Int_Tables_number   1
_chemical_formula_structural   TbSnPt2
_chemical_formula_sum   'Tb2 Sn2 Pt4'
_cell_volume   167.48844293
_cell_formula_units_Z   2
loop_
 _symmetry_equiv_pos_site_id
 _symmetry_equiv_pos_as_xyz
  1  'x, y, z'
loop_
 _atom_site_type_symbol
 _atom_site_label
 _atom_site_symmetry_multiplicity
 _atom_site_fract_x
 _atom_site_fract_y
 _atom_site_fract_z
 _atom_site_occupancy
  Tb  Tb0  1  0.00000000  0.00000000  0.50000000  1.0
  Tb  Tb1  1  0.00000000  0.00000000  0.00000000  1.0
  Sn  Sn2  1  0.33333333  0.66666667  0.25000000  1.0
  Sn  Sn3  1  0.66666667  0.33333333  0.75000000  1.0
  Pt  Pt4  1  0.33333333  0.66666667  0.91258571  1.0
  Pt  Pt5  1  0.33333333  0.66666667  0.58741429  1.0
  Pt  Pt6  1  0.66666667  0.33333333  0.41258571  1.0
  Pt  Pt7  1  0.66666667  0.33333333  0.08741429  1.0
