# generated using pymatgen
data_SnPO3F
_symmetry_space_group_name_H-M   'P 1'
_cell_length_a   4.82400205
_cell_length_b   13.26812430
_cell_length_c   6.57000590
_cell_angle_alpha   90.00000000
_cell_angle_beta   102.04653201
_cell_angle_gamma   90.00000000
_symmetry_Int_Tables_number   1
_chemical_formula_structural   SnPO3F
_chemical_formula_sum   'Sn4 P4 O12 F4'
_cell_volume   411.25581216
_cell_formula_units_Z   4
loop_
 _symmetry_equiv_pos_site_id
 _symmetry_equiv_pos_as_xyz
  1  'x, y, z'
loop_
 _atom_site_type_symbol
 _atom_site_label
 _atom_site_symmetry_multiplicity
 _atom_site_fract_x
 _atom_site_fract_y
 _atom_site_fract_z
 _atom_site_occupancy
  Sn  Sn0  1  0.45644616  0.13658824  0.18593529  1.0
  Sn  Sn1  1  0.45644616  0.36341176  0.68593529  1.0
  Sn  Sn2  1  0.54355384  0.63658824  0.31406471  1.0
  Sn  Sn3  1  0.54355384  0.86341176  0.81406471  1.0
  P  P4  1  0.86083288  0.35312539  0.31453025  1.0
  P  P5  1  0.86083288  0.14687461  0.81453025  1.0
  P  P6  1  0.13916712  0.85312539  0.18546975  1.0
  P  P7  1  0.13916712  0.64687461  0.68546975  1.0
  O  O8  1  0.85419419  0.80549559  0.08114751  1.0
  O  O9  1  0.85419419  0.69450441  0.58114751  1.0
  O  O10  1  0.14580581  0.30549559  0.41885249  1.0
  O  O11  1  0.14580581  0.19450441  0.91885249  1.0
  O  O12  1  0.71594058  0.41347889  0.46303526  1.0
  O  O13  1  0.71594058  0.08652111  0.96303526  1.0
  O  O14  1  0.28405942  0.91347889  0.03696474  1.0
  O  O15  1  0.28405942  0.58652111  0.53696474  1.0
  O  O16  1  0.66832826  0.28047330  0.16806339  1.0
  O  O17  1  0.66832826  0.21952670  0.66806339  1.0
  O  O18  1  0.33167174  0.78047330  0.33193661  1.0
  O  O19  1  0.33167174  0.71952670  0.83193661  1.0
  F  F20  1  0.93674233  0.43689654  0.16026623  1.0
  F  F21  1  0.93674233  0.06310346  0.66026623  1.0
  F  F22  1  0.06325767  0.93689654  0.33973377  1.0
  F  F23  1  0.06325767  0.56310346  0.83973377  1.0
