# generated using pymatgen
data_LiRh3
_symmetry_space_group_name_H-M   'P 1'
_cell_length_a   5.09265886
_cell_length_b   5.09265886
_cell_length_c   5.09265886
_cell_angle_alpha   149.56968048
_cell_angle_beta   63.93738488
_cell_angle_gamma   125.24734553
_symmetry_Int_Tables_number   1
_chemical_formula_structural   LiRh3
_chemical_formula_sum   'Li1 Rh3'
_cell_volume   54.08788164
_cell_formula_units_Z   1
loop_
 _symmetry_equiv_pos_site_id
 _symmetry_equiv_pos_as_xyz
  1  'x, y, z'
loop_
 _atom_site_type_symbol
 _atom_site_label
 _atom_site_symmetry_multiplicity
 _atom_site_fract_x
 _atom_site_fract_y
 _atom_site_fract_z
 _atom_site_occupancy
  Li  Li0  1  -0.00687008  -0.00687008  0.00000000  1.0
  Rh  Rh1  1  0.92001387  0.67543290  0.24458098  1.0
  Rh  Rh2  1  0.43085192  0.67543290  0.75541902  1.0
  Rh  Rh3  1  0.48400428  0.98400428  0.50000000  1.0
