# generated using pymatgen
data_Ti2Ni2Sn
_symmetry_space_group_name_H-M   'P 1'
_cell_length_a   6.83129364
_cell_length_b   6.83129364
_cell_length_c   6.44653708
_cell_angle_alpha   90.00000000
_cell_angle_beta   90.00000000
_cell_angle_gamma   90.00000000
_symmetry_Int_Tables_number   1
_chemical_formula_structural   Ti2Ni2Sn
_chemical_formula_sum   'Ti8 Ni8 Sn4'
_cell_volume   300.83779166
_cell_formula_units_Z   4
loop_
 _symmetry_equiv_pos_site_id
 _symmetry_equiv_pos_as_xyz
  1  'x, y, z'
loop_
 _atom_site_type_symbol
 _atom_site_label
 _atom_site_symmetry_multiplicity
 _atom_site_fract_x
 _atom_site_fract_y
 _atom_site_fract_z
 _atom_site_occupancy
  Ti  Ti0  1  0.18357323  0.18357323  0.50000000  1.0
  Ti  Ti1  1  0.68357323  0.31642677  0.00000000  1.0
  Ti  Ti2  1  0.81642677  0.81642677  0.50000000  1.0
  Ti  Ti3  1  0.31642677  0.68357323  0.00000000  1.0
  Ti  Ti4  1  0.35524935  0.64475065  0.50000000  1.0
  Ti  Ti5  1  0.85524935  0.85524935  0.00000000  1.0
  Ti  Ti6  1  0.64475065  0.35524935  0.50000000  1.0
  Ti  Ti7  1  0.14475065  0.14475065  0.00000000  1.0
  Ni  Ni8  1  0.12765386  0.87234614  0.29394626  1.0
  Ni  Ni9  1  0.12765386  0.87234614  0.70605374  1.0
  Ni  Ni10  1  0.62765386  0.62765386  0.79394626  1.0
  Ni  Ni11  1  0.62765386  0.62765386  0.20605374  1.0
  Ni  Ni12  1  0.87234614  0.12765386  0.29394626  1.0
  Ni  Ni13  1  0.87234614  0.12765386  0.70605374  1.0
  Ni  Ni14  1  0.37234614  0.37234614  0.79394626  1.0
  Ni  Ni15  1  0.37234614  0.37234614  0.20605374  1.0
  Sn  Sn16  1  0.50000000  0.00000000  0.25000000  1.0
  Sn  Sn17  1  0.50000000  0.00000000  0.75000000  1.0
  Sn  Sn18  1  0.00000000  0.50000000  0.75000000  1.0
  Sn  Sn19  1  0.00000000  0.50000000  0.25000000  1.0
