# generated using pymatgen
data_C2S
_symmetry_space_group_name_H-M   'P 1'
_cell_length_a   4.58111665
_cell_length_b   17.03774233
_cell_length_c   11.67784415
_cell_angle_alpha   90.00000000
_cell_angle_beta   93.16846934
_cell_angle_gamma   90.00000000
_symmetry_Int_Tables_number   1
_chemical_formula_structural   C2S
_chemical_formula_sum   'C32 S16'
_cell_volume   910.08440396
_cell_formula_units_Z   16
loop_
 _symmetry_equiv_pos_site_id
 _symmetry_equiv_pos_as_xyz
  1  'x, y, z'
loop_
 _atom_site_type_symbol
 _atom_site_label
 _atom_site_symmetry_multiplicity
 _atom_site_fract_x
 _atom_site_fract_y
 _atom_site_fract_z
 _atom_site_occupancy
  C  C0  1  0.97711198  0.46042139  0.39463722  1.0
  C  C1  1  0.02288802  0.96042139  0.60536278  1.0
  C  C2  1  0.90237249  0.00484928  0.78589192  1.0
  C  C3  1  0.09762751  0.50484928  0.21410808  1.0
  C  C4  1  0.98119836  0.43158743  0.18650189  1.0
  C  C5  1  0.01880164  0.93158743  0.81349811  1.0
  C  C6  1  0.90426722  0.02126161  0.66676104  1.0
  C  C7  1  0.09573278  0.52126161  0.33323896  1.0
  C  C8  1  0.86013218  0.00330026  0.98427138  1.0
  C  C9  1  0.13986782  0.50330026  0.01572862  1.0
  C  C10  1  0.81317133  0.08528625  0.59574963  1.0
  C  C11  1  0.18682867  0.58528625  0.40425037  1.0
  C  C12  1  0.81146039  0.04588512  0.88348395  1.0
  C  C13  1  0.18853961  0.54588512  0.11651605  1.0
  C  C14  1  0.86298430  0.07229339  0.48096630  1.0
  C  C15  1  0.13701570  0.57229339  0.51903370  1.0
  C  C16  1  0.68461427  0.15952100  0.61465101  1.0
  C  C17  1  0.31538573  0.65952100  0.38534899  1.0
  C  C18  1  0.68280490  0.12010388  0.90237347  1.0
  C  C19  1  0.31719510  0.62010388  0.09762653  1.0
  C  C20  1  0.63713721  0.20223674  0.51392877  1.0
  C  C21  1  0.36286279  0.70223674  0.48607123  1.0
  C  C22  1  0.59381677  0.20057796  0.71225296  1.0
  C  C23  1  0.40618323  0.70057796  0.28774704  1.0
  C  C24  1  0.59192442  0.18416030  0.83138372  1.0
  C  C25  1  0.40807558  0.68416030  0.16861628  1.0
  C  C26  1  0.47856569  0.27398035  0.68472464  1.0
  C  C27  1  0.52143431  0.77398035  0.31527536  1.0
  C  C28  1  0.47455662  0.24514172  0.89287756  1.0
  C  C29  1  0.52544338  0.74514172  0.10712244  1.0
  C  C30  1  0.36602035  0.63319522  0.98278589  1.0
  C  C31  1  0.63397965  0.13319522  0.01721411  1.0
  S  S32  1  0.97886600  0.41170918  0.03884913  1.0
  S  S33  1  0.02113400  0.91170918  0.96115087  1.0
  S  S34  1  0.97484499  0.48083813  0.54199607  1.0
  S  S35  1  0.02515501  0.98083813  0.45800393  1.0
  S  S36  1  0.86612098  0.38133524  0.30678168  1.0
  S  S37  1  0.13387902  0.88133524  0.69321832  1.0
  S  S38  1  0.74555062  0.05373374  0.10474671  1.0
  S  S39  1  0.25444938  0.55373374  0.89525329  1.0
  S  S40  1  0.75255077  0.15189148  0.39350239  1.0
  S  S41  1  0.24744923  0.65189148  0.60649761  1.0
  S  S42  1  0.52716382  0.72476703  0.95973207  1.0
  S  S43  1  0.47283618  0.22476703  0.04026793  1.0
  S  S44  1  0.47727068  0.29397466  0.53712909  1.0
  S  S45  1  0.52272932  0.79397466  0.46287091  1.0
  S  S46  1  0.36448056  0.32434866  0.80508961  1.0
  S  S47  1  0.63551944  0.82434866  0.19491039  1.0
