# generated using pymatgen
data_CrFe2C
_symmetry_space_group_name_H-M   'P 1'
_cell_length_a   5.02518388
_cell_length_b   6.85486152
_cell_length_c   4.37500770
_cell_angle_alpha   90.00000000
_cell_angle_beta   90.00000000
_cell_angle_gamma   90.00000000
_symmetry_Int_Tables_number   1
_chemical_formula_structural   CrFe2C
_chemical_formula_sum   'Cr4 Fe8 C4'
_cell_volume   150.70562614
_cell_formula_units_Z   4
loop_
 _symmetry_equiv_pos_site_id
 _symmetry_equiv_pos_as_xyz
  1  'x, y, z'
loop_
 _atom_site_type_symbol
 _atom_site_label
 _atom_site_symmetry_multiplicity
 _atom_site_fract_x
 _atom_site_fract_y
 _atom_site_fract_z
 _atom_site_occupancy
  Cr  Cr0  1  0.53567437  0.25000000  0.65933395  1.0
  Cr  Cr1  1  0.03567437  0.25000000  0.84066605  1.0
  Cr  Cr2  1  0.46432563  0.75000000  0.34066605  1.0
  Cr  Cr3  1  0.96432563  0.75000000  0.15933395  1.0
  Fe  Fe4  1  0.68135859  0.07007551  0.16022170  1.0
  Fe  Fe5  1  0.18135859  0.42992449  0.33977830  1.0
  Fe  Fe6  1  0.31864141  0.57007551  0.83977830  1.0
  Fe  Fe7  1  0.81864141  0.92992449  0.66022170  1.0
  Fe  Fe8  1  0.31864141  0.92992449  0.83977830  1.0
  Fe  Fe9  1  0.81864141  0.57007551  0.66022170  1.0
  Fe  Fe10  1  0.68135859  0.42992449  0.16022170  1.0
  Fe  Fe11  1  0.18135859  0.07007551  0.33977830  1.0
  C  C12  1  0.88275584  0.25000000  0.41762704  1.0
  C  C13  1  0.38275584  0.25000000  0.08237296  1.0
  C  C14  1  0.11724416  0.75000000  0.58237296  1.0
  C  C15  1  0.61724416  0.75000000  0.91762704  1.0
