# generated using pymatgen
data_Zr2Co4P3
_symmetry_space_group_name_H-M   'P 1'
_cell_length_a   12.08901679
_cell_length_b   12.08901679
_cell_length_c   3.66145306
_cell_angle_alpha   90.00000000
_cell_angle_beta   90.00000000
_cell_angle_gamma   120.00000000
_symmetry_Int_Tables_number   1
_chemical_formula_structural   Zr2Co4P3
_chemical_formula_sum   'Zr8 Co16 P12'
_cell_volume   463.41070741
_cell_formula_units_Z   4
loop_
 _symmetry_equiv_pos_site_id
 _symmetry_equiv_pos_as_xyz
  1  'x, y, z'
loop_
 _atom_site_type_symbol
 _atom_site_label
 _atom_site_symmetry_multiplicity
 _atom_site_fract_x
 _atom_site_fract_y
 _atom_site_fract_z
 _atom_site_occupancy
  Zr  Zr0  1  0.17653351  0.17653351  0.50000000  1.0
  Zr  Zr1  1  0.00000000  0.82346649  0.50000000  1.0
  Zr  Zr2  1  0.82346649  0.00000000  0.50000000  1.0
  Zr  Zr3  1  0.55620888  0.55620888  0.00000000  1.0
  Zr  Zr4  1  -0.00000000  0.44379112  0.00000000  1.0
  Zr  Zr5  1  0.44379112  0.00000000  0.00000000  1.0
  Zr  Zr6  1  0.33333333  0.66666667  0.00000000  1.0
  Zr  Zr7  1  0.66666667  0.33333333  0.00000000  1.0
  Co  Co8  1  0.12617984  0.64562164  0.50000000  1.0
  Co  Co9  1  0.64562164  0.12617984  0.50000000  1.0
  Co  Co10  1  0.51944180  0.87382016  0.50000000  1.0
  Co  Co11  1  0.35437836  0.48055820  0.50000000  1.0
  Co  Co12  1  0.87382016  0.51944180  0.50000000  1.0
  Co  Co13  1  0.48055820  0.35437836  0.50000000  1.0
  Co  Co14  1  0.19308144  0.82135651  0.00000000  1.0
  Co  Co15  1  0.82135651  0.19308144  0.00000000  1.0
  Co  Co16  1  0.62827508  0.80691856  0.00000000  1.0
  Co  Co17  1  0.17864349  0.37172492  0.00000000  1.0
  Co  Co18  1  0.80691856  0.62827508  0.00000000  1.0
  Co  Co19  1  0.37172492  0.17864349  0.00000000  1.0
  Co  Co20  1  0.72244337  0.72244337  0.50000000  1.0
  Co  Co21  1  0.00000000  0.27755663  0.50000000  1.0
  Co  Co22  1  0.27755663  0.00000000  0.50000000  1.0
  Co  Co23  1  0.00000000  0.00000000  0.00000000  1.0
  P  P24  1  0.30832282  0.82643240  0.50000000  1.0
  P  P25  1  0.82643240  0.30832282  0.50000000  1.0
  P  P26  1  0.51810958  0.69167718  0.50000000  1.0
  P  P27  1  0.17356760  0.48189042  0.50000000  1.0
  P  P28  1  0.69167718  0.51810958  0.50000000  1.0
  P  P29  1  0.48189042  0.17356760  0.50000000  1.0
  P  P30  1  0.82452189  0.82452189  0.00000000  1.0
  P  P31  1  -0.00000000  0.17547811  0.00000000  1.0
  P  P32  1  0.17547811  0.00000000  0.00000000  1.0
  P  P33  1  0.34576897  0.34576897  0.00000000  1.0
  P  P34  1  0.00000000  0.65423103  0.00000000  1.0
  P  P35  1  0.65423103  0.00000000  0.00000000  1.0
