# generated using pymatgen
data_Hf6Co23
_symmetry_space_group_name_H-M   'P 1'
_cell_length_a   8.07807835
_cell_length_b   8.07807835
_cell_length_c   8.07807835
_cell_angle_alpha   60.00000000
_cell_angle_beta   60.00000000
_cell_angle_gamma   60.00000000
_symmetry_Int_Tables_number   1
_chemical_formula_structural   Hf6Co23
_chemical_formula_sum   'Hf6 Co23'
_cell_volume   372.74273333
_cell_formula_units_Z   1
loop_
 _symmetry_equiv_pos_site_id
 _symmetry_equiv_pos_as_xyz
  1  'x, y, z'
loop_
 _atom_site_type_symbol
 _atom_site_label
 _atom_site_symmetry_multiplicity
 _atom_site_fract_x
 _atom_site_fract_y
 _atom_site_fract_z
 _atom_site_occupancy
  Hf  Hf0  1  -0.70982878  0.70982878  0.70982878  1.0
  Hf  Hf1  1  -0.29017122  0.29017122  0.70982878  1.0
  Hf  Hf2  1  0.70982878  0.70982878  -0.70982878  1.0
  Hf  Hf3  1  0.29017122  1.29017122  -0.29017122  1.0
  Hf  Hf4  1  0.29017122  -0.29017122  1.29017122  1.0
  Hf  Hf5  1  -0.29017122  0.29017122  0.29017122  1.0
  Co  Co6  1  0.87908455  0.87908455  -0.12091545  1.0
  Co  Co7  1  1.12091545  0.12091545  0.63725364  1.0
  Co  Co8  1  1.12091545  0.63725364  0.12091545  1.0
  Co  Co9  1  0.36274636  0.87908455  -0.12091545  1.0
  Co  Co10  1  1.63725364  0.12091545  0.12091545  1.0
  Co  Co11  1  0.87908455  0.36274636  -0.12091545  1.0
  Co  Co12  1  0.87908455  0.87908455  -0.63725364  1.0
  Co  Co13  1  1.12091545  0.12091545  0.12091545  1.0
  Co  Co14  1  0.67403684  0.67403684  -0.32596316  1.0
  Co  Co15  1  1.32596316  0.32596316  0.02211052  1.0
  Co  Co16  1  1.32596316  0.02211052  0.32596316  1.0
  Co  Co17  1  0.97788948  0.67403684  -0.32596316  1.0
  Co  Co18  1  1.02211052  0.32596316  0.32596316  1.0
  Co  Co19  1  0.67403684  0.97788948  -0.32596316  1.0
  Co  Co20  1  0.67403684  0.67403684  -0.02211052  1.0
  Co  Co21  1  1.32596316  0.32596316  0.32596316  1.0
  Co  Co22  1  1.50000000  -0.00000000  0.00000000  1.0
  Co  Co23  1  1.00000000  0.50000000  -0.50000000  1.0
  Co  Co24  1  -0.00000000  1.50000000  0.00000000  1.0
  Co  Co25  1  0.50000000  1.00000000  -0.50000000  1.0
  Co  Co26  1  0.00000000  -0.00000000  0.50000000  1.0
  Co  Co27  1  0.50000000  -0.50000000  1.00000000  1.0
  Co  Co28  1  -0.00000000  -0.00000000  0.00000000  1.0
