# generated using pymatgen
data_BaZnFeF7
_symmetry_space_group_name_H-M   'P 1'
_cell_length_a   5.56922931
_cell_length_b   11.00878144
_cell_length_c   9.27525077
_cell_angle_alpha   90.00000000
_cell_angle_beta   95.47893078
_cell_angle_gamma   90.00000000
_symmetry_Int_Tables_number   1
_chemical_formula_structural   BaZnFeF7
_chemical_formula_sum   'Ba4 Zn4 Fe4 F28'
_cell_volume   566.07156029
_cell_formula_units_Z   4
loop_
 _symmetry_equiv_pos_site_id
 _symmetry_equiv_pos_as_xyz
  1  'x, y, z'
loop_
 _atom_site_type_symbol
 _atom_site_label
 _atom_site_symmetry_multiplicity
 _atom_site_fract_x
 _atom_site_fract_y
 _atom_site_fract_z
 _atom_site_occupancy
  Fe  Fe0  1  0.68708268  0.38191527  0.25973912  1.0
  Fe  Fe1  1  0.68708268  0.11808473  0.75973912  1.0
  Fe  Fe2  1  0.31291732  0.88191527  0.24026088  1.0
  Fe  Fe3  1  0.31291732  0.61808473  0.74026088  1.0
  F  F4  1  0.50992234  0.03368805  0.26223992  1.0
  F  F5  1  0.50992234  0.46631195  0.76223992  1.0
  F  F6  1  0.49007766  0.53368805  0.23776008  1.0
  F  F7  1  0.49007766  0.96631195  0.73776008  1.0
  F  F8  1  0.66234710  0.35220401  0.05338214  1.0
  F  F9  1  0.66234710  0.14779599  0.55338214  1.0
  F  F10  1  0.33765290  0.85220401  0.44661786  1.0
  F  F11  1  0.33765290  0.64779599  0.94661786  1.0
  F  F12  1  0.97845449  0.48832512  0.27701071  1.0
  F  F13  1  0.97845449  0.01167488  0.77701071  1.0
  F  F14  1  0.02154551  0.98832512  0.22298929  1.0
  F  F15  1  0.02154551  0.51167488  0.72298929  1.0
  F  F16  1  0.89164439  0.23504914  0.29408589  1.0
  F  F17  1  0.89164439  0.26495086  0.79408589  1.0
  F  F18  1  0.10835561  0.73504914  0.20591411  1.0
  F  F19  1  0.10835561  0.76495086  0.70591411  1.0
  F  F20  1  0.85839622  0.90281924  0.49043268  1.0
  F  F21  1  0.85839622  0.59718076  0.99043268  1.0
  F  F22  1  0.14160378  0.40281924  0.00956732  1.0
  F  F23  1  0.14160378  0.09718076  0.50956732  1.0
  F  F24  1  0.70914385  0.41115735  0.47019829  1.0
  F  F25  1  0.70914385  0.08884265  0.97019829  1.0
  F  F26  1  0.29085615  0.91115735  0.02980171  1.0
  F  F27  1  0.29085615  0.58884265  0.52980171  1.0
  F  F28  1  0.39751523  0.28974481  0.27867881  1.0
  F  F29  1  0.39751523  0.21025519  0.77867881  1.0
  F  F30  1  0.60248477  0.78974481  0.22132119  1.0
  F  F31  1  0.60248477  0.71025519  0.72132119  1.0
  Ba  Ba32  1  0.76800179  0.66828398  0.46163188  1.0
  Ba  Ba33  1  0.76800179  0.83171602  0.96163188  1.0
  Ba  Ba34  1  0.23199821  0.16828398  0.03836812  1.0
  Ba  Ba35  1  0.23199821  0.33171602  0.53836812  1.0
  Zn  Zn36  1  0.82383349  0.06413533  0.38376144  1.0
  Zn  Zn37  1  0.82383349  0.43586467  0.88376144  1.0
  Zn  Zn38  1  0.17616651  0.56413533  0.11623856  1.0
  Zn  Zn39  1  0.17616651  0.93586467  0.61623856  1.0
