# generated using pymatgen
data_Ba4In2Te2Se5
_symmetry_space_group_name_H-M   'P 1'
_cell_length_a   8.74006679
_cell_length_b   8.74006679
_cell_length_c   11.49186653
_cell_angle_alpha   90.00000000
_cell_angle_beta   90.00000000
_cell_angle_gamma   90.00000000
_symmetry_Int_Tables_number   1
_chemical_formula_structural   Ba4In2Te2Se5
_chemical_formula_sum   'Ba8 In4 Te4 Se10'
_cell_volume   877.84952143
_cell_formula_units_Z   2
loop_
 _symmetry_equiv_pos_site_id
 _symmetry_equiv_pos_as_xyz
  1  'x, y, z'
loop_
 _atom_site_type_symbol
 _atom_site_label
 _atom_site_symmetry_multiplicity
 _atom_site_fract_x
 _atom_site_fract_y
 _atom_site_fract_z
 _atom_site_occupancy
  Ba  Ba0  1  0.34306021  0.15693979  0.00000000  1.0
  Ba  Ba1  1  0.84306021  0.34306021  0.00000000  1.0
  Ba  Ba2  1  0.65693979  0.84306021  0.00000000  1.0
  Ba  Ba3  1  0.15693979  0.65693979  0.00000000  1.0
  Ba  Ba4  1  0.50000000  0.50000000  0.71726542  1.0
  Ba  Ba5  1  0.50000000  0.50000000  0.28273458  1.0
  Ba  Ba6  1  0.00000000  0.00000000  0.71726542  1.0
  Ba  Ba7  1  0.00000000  0.00000000  0.28273458  1.0
  In  In8  1  0.50000000  0.00000000  0.65441882  1.0
  In  In9  1  0.50000000  0.00000000  0.34558118  1.0
  In  In10  1  0.00000000  0.50000000  0.65441882  1.0
  In  In11  1  0.00000000  0.50000000  0.34558118  1.0
  Te  Te12  1  0.31947616  0.18052384  0.50000000  1.0
  Te  Te13  1  0.81947616  0.31947616  0.50000000  1.0
  Te  Te14  1  0.68052384  0.81947616  0.50000000  1.0
  Te  Te15  1  0.18052384  0.68052384  0.50000000  1.0
  Se  Se16  1  0.84185819  0.65814181  0.80310033  1.0
  Se  Se17  1  0.84185819  0.65814181  0.19689967  1.0
  Se  Se18  1  0.34185819  0.84185819  0.80310033  1.0
  Se  Se19  1  0.34185819  0.84185819  0.19689967  1.0
  Se  Se20  1  0.15814181  0.34185819  0.80310033  1.0
  Se  Se21  1  0.15814181  0.34185819  0.19689967  1.0
  Se  Se22  1  0.65814181  0.15814181  0.80310033  1.0
  Se  Se23  1  0.65814181  0.15814181  0.19689967  1.0
  Se  Se24  1  0.50000000  0.50000000  0.00000000  1.0
  Se  Se25  1  0.00000000  0.00000000  0.00000000  1.0
