# generated using pymatgen
data_Si3MoPt2
_symmetry_space_group_name_H-M   'P 1'
_cell_length_a   3.50739685
_cell_length_b   9.24473507
_cell_length_c   5.52623641
_cell_angle_alpha   90.00000000
_cell_angle_beta   90.00000000
_cell_angle_gamma   90.00000000
_symmetry_Int_Tables_number   1
_chemical_formula_structural   Si3MoPt2
_chemical_formula_sum   'Si6 Mo2 Pt4'
_cell_volume   179.18796508
_cell_formula_units_Z   2
loop_
 _symmetry_equiv_pos_site_id
 _symmetry_equiv_pos_as_xyz
  1  'x, y, z'
loop_
 _atom_site_type_symbol
 _atom_site_label
 _atom_site_symmetry_multiplicity
 _atom_site_fract_x
 _atom_site_fract_y
 _atom_site_fract_z
 _atom_site_occupancy
  Si  Si0  1  0.50000000  0.87333267  0.15634582  1.0
  Si  Si1  1  0.50000000  0.12666733  0.65634582  1.0
  Si  Si2  1  0.00000000  0.77767645  0.81626919  1.0
  Si  Si3  1  0.00000000  0.22232355  0.31626919  1.0
  Si  Si4  1  0.00000000  0.56409208  0.32687955  1.0
  Si  Si5  1  0.00000000  0.43590792  0.82687955  1.0
  Mo  Mo6  1  0.50000000  0.39467533  0.50020171  1.0
  Mo  Mo7  1  0.50000000  0.60532467  0.00020171  1.0
  Pt  Pt8  1  0.50000000  0.71361175  0.50005183  1.0
  Pt  Pt9  1  0.50000000  0.28638825  1.00005183  1.0
  Pt  Pt10  1  0.00000000  0.96949207  0.49925190  1.0
  Pt  Pt11  1  0.00000000  0.03050793  -0.00074810  1.0
