# generated using pymatgen
data_Sr2ZnGe2O7
_symmetry_space_group_name_H-M   'P 1'
_cell_length_a   9.67259619
_cell_length_b   8.27002846
_cell_length_c   10.74416517
_cell_angle_alpha   90.00000000
_cell_angle_beta   123.20734252
_cell_angle_gamma   90.00000000
_symmetry_Int_Tables_number   1
_chemical_formula_structural   Sr2ZnGe2O7
_chemical_formula_sum   'Sr8 Zn4 Ge8 O28'
_cell_volume   719.10028880
_cell_formula_units_Z   4
loop_
 _symmetry_equiv_pos_site_id
 _symmetry_equiv_pos_as_xyz
  1  'x, y, z'
loop_
 _atom_site_type_symbol
 _atom_site_label
 _atom_site_symmetry_multiplicity
 _atom_site_fract_x
 _atom_site_fract_y
 _atom_site_fract_z
 _atom_site_occupancy
  Sr  Sr0  1  0.07388200  0.45602993  0.80002007  1.0
  Sr  Sr1  1  0.07388200  0.04397007  0.30002007  1.0
  Sr  Sr2  1  0.92611800  0.54397007  0.19997993  1.0
  Sr  Sr3  1  0.92611800  0.95602993  0.69997993  1.0
  Sr  Sr4  1  0.57019423  0.23164358  0.52991299  1.0
  Sr  Sr5  1  0.57019423  0.26835642  0.02991299  1.0
  Sr  Sr6  1  0.42980577  0.76835642  0.47008701  1.0
  Sr  Sr7  1  0.42980577  0.73164358  0.97008701  1.0
  Zn  Zn8  1  0.27954434  0.39639087  0.61933865  1.0
  Zn  Zn9  1  0.27954434  0.10360913  0.11933865  1.0
  Zn  Zn10  1  0.72045566  0.60360913  0.38066135  1.0
  Zn  Zn11  1  0.72045566  0.89639087  0.88066135  1.0
  Ge  Ge12  1  0.35109402  0.04074700  0.70726467  1.0
  Ge  Ge13  1  0.35109402  0.45925300  0.20726467  1.0
  Ge  Ge14  1  0.64890598  0.95925300  0.29273533  1.0
  Ge  Ge15  1  0.64890598  0.54074700  0.79273533  1.0
  Ge  Ge16  1  0.10913098  0.72810767  0.57298147  1.0
  Ge  Ge17  1  0.10913098  0.77189233  0.07298147  1.0
  Ge  Ge18  1  0.89086902  0.27189233  0.42701853  1.0
  Ge  Ge19  1  0.89086902  0.22810767  0.92701853  1.0
  O  O20  1  0.16773122  0.92547697  0.66592498  1.0
  O  O21  1  0.16773122  0.57452303  0.16592498  1.0
  O  O22  1  0.83226878  0.07452303  0.33407502  1.0
  O  O23  1  0.83226878  0.42547697  0.83407502  1.0
  O  O24  1  0.51886413  0.95038272  0.87158688  1.0
  O  O25  1  0.51886413  0.54961728  0.37158688  1.0
  O  O26  1  0.48113587  0.04961728  0.12841312  1.0
  O  O27  1  0.48113587  0.45038272  0.62841312  1.0
  O  O28  1  0.36222494  0.03893713  0.54938296  1.0
  O  O29  1  0.36222494  0.46106287  0.04938296  1.0
  O  O30  1  0.63777506  0.96106287  0.45061704  1.0
  O  O31  1  0.63777506  0.53893713  0.95061704  1.0
  O  O32  1  0.24815895  0.59000613  0.71346782  1.0
  O  O33  1  0.24815895  0.90999387  0.21346782  1.0
  O  O34  1  0.75184105  0.40999387  0.28653218  1.0
  O  O35  1  0.75184105  0.09000613  0.78653218  1.0
  O  O36  1  0.92190853  0.68680231  0.56220274  1.0
  O  O37  1  0.92190853  0.81319769  0.06220274  1.0
  O  O38  1  0.07809147  0.31319769  0.43779726  1.0
  O  O39  1  0.07809147  0.18680231  0.93779726  1.0
  O  O40  1  0.32799836  0.23020250  0.76985137  1.0
  O  O41  1  0.32799836  0.26979750  0.26985137  1.0
  O  O42  1  0.67200164  0.76979750  0.23014863  1.0
  O  O43  1  0.67200164  0.73020250  0.73014863  1.0
  O  O44  1  0.11770415  0.73516454  0.41487360  1.0
  O  O45  1  0.11770415  0.76483546  0.91487360  1.0
  O  O46  1  0.88229585  0.26483546  0.58512640  1.0
  O  O47  1  0.88229585  0.23516454  0.08512640  1.0
