# generated using pymatgen
data_Na2Li3FeO4
_symmetry_space_group_name_H-M   'P 1'
_cell_length_a   8.02533508
_cell_length_b   8.36545691
_cell_length_c   6.59876366
_cell_angle_alpha   90.00000000
_cell_angle_beta   90.00000000
_cell_angle_gamma   90.00000000
_symmetry_Int_Tables_number   1
_chemical_formula_structural   Na2Li3FeO4
_chemical_formula_sum   'Na8 Li12 Fe4 O16'
_cell_volume   443.01192347
_cell_formula_units_Z   4
loop_
 _symmetry_equiv_pos_site_id
 _symmetry_equiv_pos_as_xyz
  1  'x, y, z'
loop_
 _atom_site_type_symbol
 _atom_site_label
 _atom_site_symmetry_multiplicity
 _atom_site_fract_x
 _atom_site_fract_y
 _atom_site_fract_z
 _atom_site_occupancy
  Na  Na0  1  0.25760189  0.25021126  0.50000000  1.0
  Na  Na1  1  0.75760189  0.24978874  0.00000000  1.0
  Na  Na2  1  0.74239811  0.74978874  0.50000000  1.0
  Na  Na3  1  0.24239811  0.75021126  0.00000000  1.0
  Na  Na4  1  0.50000000  0.50000000  0.24218719  1.0
  Na  Na5  1  0.50000000  0.50000000  0.75781281  1.0
  Na  Na6  1  0.00000000  0.00000000  0.74218719  1.0
  Na  Na7  1  0.00000000  0.00000000  0.25781281  1.0
  Li  Li8  1  0.48728616  0.85295489  0.25527419  1.0
  Li  Li9  1  0.48728616  0.85295489  0.74472581  1.0
  Li  Li10  1  0.98728616  0.64704511  0.75527419  1.0
  Li  Li11  1  0.98728616  0.64704511  0.24472581  1.0
  Li  Li12  1  0.51271384  0.14704511  0.25527419  1.0
  Li  Li13  1  0.51271384  0.14704511  0.74472581  1.0
  Li  Li14  1  0.01271384  0.35295489  0.75527419  1.0
  Li  Li15  1  0.01271384  0.35295489  0.24472581  1.0
  Li  Li16  1  0.26802699  0.91200649  0.50000000  1.0
  Li  Li17  1  0.76802699  0.58799351  0.00000000  1.0
  Li  Li18  1  0.73197301  0.08799351  0.50000000  1.0
  Li  Li19  1  0.23197301  0.41200649  0.00000000  1.0
  Fe  Fe20  1  0.22611107  0.62170470  0.50000000  1.0
  Fe  Fe21  1  0.72611107  0.87829530  0.00000000  1.0
  Fe  Fe22  1  0.77388893  0.37829530  0.50000000  1.0
  Fe  Fe23  1  0.27388893  0.12170470  0.00000000  1.0
  O  O24  1  0.19526448  0.50987978  0.25424581  1.0
  O  O25  1  0.19526448  0.50987978  0.74575419  1.0
  O  O26  1  0.69526448  0.99012022  0.75424581  1.0
  O  O27  1  0.69526448  0.99012022  0.24575419  1.0
  O  O28  1  0.80473552  0.49012022  0.25424581  1.0
  O  O29  1  0.80473552  0.49012022  0.74575419  1.0
  O  O30  1  0.30473552  0.00987978  0.75424581  1.0
  O  O31  1  0.30473552  0.00987978  0.24575419  1.0
  O  O32  1  0.43849900  0.72594999  0.50000000  1.0
  O  O33  1  0.93849900  0.77405001  0.00000000  1.0
  O  O34  1  0.56150100  0.27405001  0.50000000  1.0
  O  O35  1  0.06150100  0.22594999  0.00000000  1.0
  O  O36  1  0.04880786  0.77610207  0.50000000  1.0
  O  O37  1  0.54880786  0.72389793  0.00000000  1.0
  O  O38  1  0.95119214  0.22389793  0.50000000  1.0
  O  O39  1  0.45119214  0.27610207  0.00000000  1.0
