# generated using pymatgen
data_Li2S2O7
_symmetry_space_group_name_H-M   'P 1'
_cell_length_a   13.37229174
_cell_length_b   8.36445019
_cell_length_c   4.96959225
_cell_angle_alpha   90.00000000
_cell_angle_beta   90.00000000
_cell_angle_gamma   90.00000000
_symmetry_Int_Tables_number   1
_chemical_formula_structural   Li2S2O7
_chemical_formula_sum   'Li8 S8 O28'
_cell_volume   555.85817775
_cell_formula_units_Z   4
loop_
 _symmetry_equiv_pos_site_id
 _symmetry_equiv_pos_as_xyz
  1  'x, y, z'
loop_
 _atom_site_type_symbol
 _atom_site_label
 _atom_site_symmetry_multiplicity
 _atom_site_fract_x
 _atom_site_fract_y
 _atom_site_fract_z
 _atom_site_occupancy
  Li  Li0  1  0.89517164  0.93059854  0.39775256  1.0
  Li  Li1  1  0.89517164  0.56940146  0.39775256  1.0
  Li  Li2  1  0.39517164  0.93059854  0.10224744  1.0
  Li  Li3  1  0.39517164  0.56940146  0.10224744  1.0
  Li  Li4  1  0.10482836  0.43059854  0.60224744  1.0
  Li  Li5  1  0.10482836  0.06940146  0.60224744  1.0
  Li  Li6  1  0.60482836  0.43059854  0.89775256  1.0
  Li  Li7  1  0.60482836  0.06940146  0.89775256  1.0
  S  S8  1  0.99928479  0.25000000  0.11629598  1.0
  S  S9  1  0.49928479  0.25000000  0.38370402  1.0
  S  S10  1  0.00071521  0.75000000  0.88370402  1.0
  S  S11  1  0.50071521  0.75000000  0.61629598  1.0
  S  S12  1  0.78663398  0.25000000  0.21616650  1.0
  S  S13  1  0.28663398  0.25000000  0.28383350  1.0
  S  S14  1  0.21336602  0.75000000  0.78383350  1.0
  S  S15  1  0.71336602  0.75000000  0.71616650  1.0
  O  O16  1  0.79629811  0.39727512  0.36970076  1.0
  O  O17  1  0.79629811  0.10272488  0.36970076  1.0
  O  O18  1  0.29629811  0.39727512  0.13029924  1.0
  O  O19  1  0.29629811  0.10272488  0.13029924  1.0
  O  O20  1  0.20370189  0.89727512  0.63029924  1.0
  O  O21  1  0.20370189  0.60272488  0.63029924  1.0
  O  O22  1  0.70370189  0.89727512  0.86970076  1.0
  O  O23  1  0.70370189  0.60272488  0.86970076  1.0
  O  O24  1  0.51061437  0.39686967  0.22399808  1.0
  O  O25  1  0.51061437  0.10313033  0.22399808  1.0
  O  O26  1  0.01061437  0.39686967  0.27600192  1.0
  O  O27  1  0.01061437  0.10313033  0.27600192  1.0
  O  O28  1  0.48938563  0.89686967  0.77600192  1.0
  O  O29  1  0.48938563  0.60313033  0.77600192  1.0
  O  O30  1  0.98938563  0.89686967  0.72399808  1.0
  O  O31  1  0.98938563  0.60313033  0.72399808  1.0
  O  O32  1  0.88535026  0.25000000  -0.00107784  1.0
  O  O33  1  0.38535026  0.25000000  0.50107784  1.0
  O  O34  1  0.11464974  0.75000000  1.00107784  1.0
  O  O35  1  0.61464974  0.75000000  0.49892216  1.0
  O  O36  1  0.70350542  0.25000000  0.02423555  1.0
  O  O37  1  0.20350542  0.25000000  0.47576445  1.0
  O  O38  1  0.29649458  0.75000000  0.97576445  1.0
  O  O39  1  0.79649458  0.75000000  0.52423555  1.0
  O  O40  1  0.55825758  0.25000000  0.63269803  1.0
  O  O41  1  0.05825758  0.25000000  0.86730197  1.0
  O  O42  1  0.44174242  0.75000000  0.36730197  1.0
  O  O43  1  0.94174242  0.75000000  0.13269803  1.0
