# generated using pymatgen
data_NaBi2
_symmetry_space_group_name_H-M   'P 1'
_cell_length_a   6.29202184
_cell_length_b   6.29202184
_cell_length_c   6.29202184
_cell_angle_alpha   102.72406701
_cell_angle_beta   102.72406701
_cell_angle_gamma   124.02040288
_symmetry_Int_Tables_number   1
_chemical_formula_structural   NaBi2
_chemical_formula_sum   'Na2 Bi4'
_cell_volume   182.31254659
_cell_formula_units_Z   2
loop_
 _symmetry_equiv_pos_site_id
 _symmetry_equiv_pos_as_xyz
  1  'x, y, z'
loop_
 _atom_site_type_symbol
 _atom_site_label
 _atom_site_symmetry_multiplicity
 _atom_site_fract_x
 _atom_site_fract_y
 _atom_site_fract_z
 _atom_site_occupancy
  Na  Na0  1  0.75000000  0.75000000  0.00000000  1.0
  Na  Na1  1  0.25000000  0.25000000  0.00000000  1.0
  Bi  Bi2  1  0.13672019  0.63672019  0.77344038  1.0
  Bi  Bi3  1  0.86327981  0.36327981  1.22655962  1.0
  Bi  Bi4  1  0.63672019  0.86327981  0.50000000  1.0
  Bi  Bi5  1  1.36327981  1.13672019  1.50000000  1.0
