# generated using pymatgen
data_ZnAgPS4
_symmetry_space_group_name_H-M   'P 1'
_cell_length_a   12.74000084
_cell_length_b   7.64133211
_cell_length_c   6.17724872
_cell_angle_alpha   90.00000000
_cell_angle_beta   90.00000000
_cell_angle_gamma   90.00000000
_symmetry_Int_Tables_number   1
_chemical_formula_structural   ZnAgPS4
_chemical_formula_sum   'Zn4 Ag4 P4 S16'
_cell_volume   601.35873012
_cell_formula_units_Z   4
loop_
 _symmetry_equiv_pos_site_id
 _symmetry_equiv_pos_as_xyz
  1  'x, y, z'
loop_
 _atom_site_type_symbol
 _atom_site_label
 _atom_site_symmetry_multiplicity
 _atom_site_fract_x
 _atom_site_fract_y
 _atom_site_fract_z
 _atom_site_occupancy
  Zn  Zn0  1  0.34131317  0.48441931  0.49994480  1.0
  Zn  Zn1  1  0.84131317  0.01558069  0.49994480  1.0
  Zn  Zn2  1  0.65868683  0.51558069  -0.00005520  1.0
  Zn  Zn3  1  0.15868683  0.98441931  -0.00005520  1.0
  Ag  Ag4  1  0.42803989  0.22301313  0.00220457  1.0
  Ag  Ag5  1  0.92803989  0.27698687  0.00220457  1.0
  Ag  Ag6  1  0.57196011  0.77698687  0.50220457  1.0
  Ag  Ag7  1  0.07196011  0.72301313  0.50220457  1.0
  P  P8  1  0.09531512  0.23126250  0.49753035  1.0
  P  P9  1  0.59531512  0.26873750  0.49753035  1.0
  P  P10  1  0.90468488  0.76873750  0.99753035  1.0
  P  P11  1  0.40468488  0.73126250  0.99753035  1.0
  S  S12  1  0.43853190  0.23241343  0.41401944  1.0
  S  S13  1  0.93853190  0.26758657  0.41401944  1.0
  S  S14  1  0.56146810  0.76758657  0.91401944  1.0
  S  S15  1  0.06146810  0.73241343  0.91401944  1.0
  S  S16  1  0.38743400  0.74911640  0.33249987  1.0
  S  S17  1  0.88743400  0.75088360  0.33249987  1.0
  S  S18  1  0.61256600  0.25088360  0.83249987  1.0
  S  S19  1  0.11256600  0.24911640  0.83249987  1.0
  S  S20  1  0.17070890  0.00947823  0.38481120  1.0
  S  S21  1  0.67070890  0.49052177  0.38481120  1.0
  S  S22  1  0.82929110  0.99052177  0.88481120  1.0
  S  S23  1  0.32929110  0.50947823  0.88481120  1.0
  S  S24  1  0.16752096  0.44861505  0.36068977  1.0
  S  S25  1  0.66752096  0.05138495  0.36068977  1.0
  S  S26  1  0.83247904  0.55138495  0.86068977  1.0
  S  S27  1  0.33247904  0.94861505  0.86068977  1.0
