# generated using pymatgen
data_CdHg4C6S6(Br2N3)2
_symmetry_space_group_name_H-M   'P 1'
_cell_length_a   12.47695850
_cell_length_b   10.03681563
_cell_length_c   15.31780707
_cell_angle_alpha   54.23829928
_cell_angle_beta   40.74978417
_cell_angle_gamma   85.01191655
_symmetry_Int_Tables_number   1
_chemical_formula_structural   CdHg4C6S6(Br2N3)2
_chemical_formula_sum   'Cd1 Hg4 C6 S6 Br4 N6'
_cell_volume   752.72079001
_cell_formula_units_Z   1
loop_
 _symmetry_equiv_pos_site_id
 _symmetry_equiv_pos_as_xyz
  1  'x, y, z'
loop_
 _atom_site_type_symbol
 _atom_site_label
 _atom_site_symmetry_multiplicity
 _atom_site_fract_x
 _atom_site_fract_y
 _atom_site_fract_z
 _atom_site_occupancy
  Cd  Cd0  1  1.02906607  0.02906607  -0.02906607  1.0
  Hg  Hg1  1  0.17936528  -0.14657713  0.43747027  1.0
  Hg  Hg2  1  0.56252973  0.47025842  -0.17936528  1.0
  Hg  Hg3  1  0.47025842  0.56252973  0.14657713  1.0
  Hg  Hg4  1  -0.14657713  0.17936528  0.52974158  1.0
  C  C5  1  0.26162469  0.36049675  -0.11021394  1.0
  C  C6  1  1.11021394  0.51190750  -0.26162469  1.0
  C  C7  1  0.51190750  1.11021394  -0.36049675  1.0
  C  C8  1  0.36049675  0.26162469  0.48809250  1.0
  C  C9  1  0.58873819  -0.18785899  0.18785899  1.0
  C  C10  1  0.81214101  0.58873819  -0.58873819  1.0
  S  S11  1  -0.23958033  0.19765614  0.43125628  1.0
  S  S12  1  0.56874372  0.38933209  0.23958033  1.0
  S  S13  1  0.38933209  0.56874372  -0.19765614  1.0
  S  S14  1  0.19765614  -0.23958033  0.61066791  1.0
  S  S15  1  0.41880811  -0.23348977  0.23348977  1.0
  S  S16  1  0.76651023  0.41880811  -0.41880811  1.0
  Br  Br17  1  0.65489056  0.36452767  -0.06187733  1.0
  Br  Br18  1  1.06187733  0.95754090  -0.65489056  1.0
  Br  Br19  1  0.95754090  1.06187733  -0.36452767  1.0
  Br  Br20  1  0.36452767  0.65489056  0.04245910  1.0
  N  N21  1  0.16649252  0.21728748  -0.04829475  1.0
  N  N22  1  1.04829475  0.33548524  -0.16649252  1.0
  N  N23  1  0.33548524  1.04829475  -0.21728748  1.0
  N  N24  1  0.21728748  0.16649252  0.66451476  1.0
  N  N25  1  0.70977798  -0.15480886  0.15480886  1.0
  N  N26  1  0.84519114  0.70977798  -0.70977798  1.0
