# generated using pymatgen
data_MnPO5
_symmetry_space_group_name_H-M   'P 1'
_cell_length_a   5.15712336
_cell_length_b   5.15712336
_cell_length_c   7.13020516
_cell_angle_alpha   71.50973909
_cell_angle_beta   108.49026091
_cell_angle_gamma   77.94167990
_symmetry_Int_Tables_number   1
_chemical_formula_structural   MnPO5
_chemical_formula_sum   'Mn2 P2 O10'
_cell_volume   160.14553584
_cell_formula_units_Z   2
loop_
 _symmetry_equiv_pos_site_id
 _symmetry_equiv_pos_as_xyz
  1  'x, y, z'
loop_
 _atom_site_type_symbol
 _atom_site_label
 _atom_site_symmetry_multiplicity
 _atom_site_fract_x
 _atom_site_fract_y
 _atom_site_fract_z
 _atom_site_occupancy
  P  P0  1  0.92536342  -0.07463658  0.25000000  1.0
  P  P1  1  1.07463658  0.07463658  0.75000000  1.0
  O  O2  1  0.77703795  -0.15579056  0.40753090  1.0
  O  O3  1  1.15579056  0.22296205  0.90753090  1.0
  O  O4  1  0.84420944  -0.22296205  0.09246910  1.0
  O  O5  1  1.22296205  0.15579056  0.59246910  1.0
  O  O6  1  0.26181955  -0.19187376  0.38029510  1.0
  O  O7  1  1.19187376  0.73818045  0.88029510  1.0
  O  O8  1  0.80812624  -0.73818045  0.11970490  1.0
  O  O9  1  1.73818045  0.19187376  0.61970490  1.0
  O  O10  1  1.31693027  0.31693027  0.25000000  1.0
  O  O11  1  0.68306973  -0.31693027  0.75000000  1.0
  Mn  Mn12  1  1.50000000  0.00000000  0.50000000  1.0
  Mn  Mn13  1  1.00000000  -0.50000000  -0.00000000  1.0
