# generated using pymatgen
data_HC4NCl2O3
_symmetry_space_group_name_H-M   'P 1'
_cell_length_a   10.55517621
_cell_length_b   5.93829276
_cell_length_c   12.15273894
_cell_angle_alpha   90.00000000
_cell_angle_beta   108.58799262
_cell_angle_gamma   90.00000000
_symmetry_Int_Tables_number   1
_chemical_formula_structural   HC4NCl2O3
_chemical_formula_sum   'H4 C16 N4 Cl8 O12'
_cell_volume   721.99486623
_cell_formula_units_Z   4
loop_
 _symmetry_equiv_pos_site_id
 _symmetry_equiv_pos_as_xyz
  1  'x, y, z'
loop_
 _atom_site_type_symbol
 _atom_site_label
 _atom_site_symmetry_multiplicity
 _atom_site_fract_x
 _atom_site_fract_y
 _atom_site_fract_z
 _atom_site_occupancy
  H  H0  1  0.60099059  0.38317737  0.50465995  1.0
  H  H1  1  0.60099059  0.11682263  1.00465995  1.0
  H  H2  1  0.39900941  0.88317737  -0.00465995  1.0
  H  H3  1  0.39900941  0.61682263  0.49534005  1.0
  C  C4  1  0.80361938  0.45375034  0.34607134  1.0
  C  C5  1  0.80361938  0.04624966  0.84607134  1.0
  C  C6  1  0.19638062  0.95375034  0.15392866  1.0
  C  C7  1  0.19638062  0.54624966  0.65392866  1.0
  C  C8  1  0.75089788  0.36360229  0.42550571  1.0
  C  C9  1  0.75089788  0.13639771  0.92550571  1.0
  C  C10  1  0.24910212  0.86360229  0.07449429  1.0
  C  C11  1  0.24910212  0.63639771  0.57449429  1.0
  C  C12  1  0.43060311  0.12826022  0.12149740  1.0
  C  C13  1  0.43060311  0.37173978  0.62149740  1.0
  C  C14  1  0.56939689  0.62826022  0.37850260  1.0
  C  C15  1  0.56939689  0.87173978  0.87850260  1.0
  C  C16  1  0.26485753  0.13822732  0.22644650  1.0
  C  C17  1  0.26485753  0.36177268  0.72644650  1.0
  C  C18  1  0.73514247  0.63822732  0.27355350  1.0
  C  C19  1  0.73514247  0.86177268  0.77355350  1.0
  N  N20  1  0.63713488  0.44912443  0.44059914  1.0
  N  N21  1  0.63713488  0.05087557  0.94059914  1.0
  N  N22  1  0.36286512  0.94912443  0.05940086  1.0
  N  N23  1  0.36286512  0.55087557  0.55940086  1.0
  Cl  Cl24  1  0.94763791  0.35529441  0.32717316  1.0
  Cl  Cl25  1  0.94763791  0.14470559  0.82717316  1.0
  Cl  Cl26  1  0.05236209  0.85529441  0.17282684  1.0
  Cl  Cl27  1  0.05236209  0.64470559  0.67282684  1.0
  Cl  Cl28  1  0.81983723  0.35894168  0.01198944  1.0
  Cl  Cl29  1  0.81983723  0.14105832  0.51198944  1.0
  Cl  Cl30  1  0.18016277  0.85894168  0.48801056  1.0
  Cl  Cl31  1  0.18016277  0.64105832  0.98801056  1.0
  O  O32  1  0.53035577  0.21207336  0.10732596  1.0
  O  O33  1  0.53035577  0.28792664  0.60732596  1.0
  O  O34  1  0.46964423  0.71207336  0.39267404  1.0
  O  O35  1  0.46964423  0.78792664  0.89267404  1.0
  O  O36  1  0.38206835  0.21568085  0.20362080  1.0
  O  O37  1  0.38206835  0.28431915  0.70362080  1.0
  O  O38  1  0.61793165  0.71568085  0.29637920  1.0
  O  O39  1  0.61793165  0.78431915  0.79637920  1.0
  O  O40  1  0.23521690  0.23378161  0.30256812  1.0
  O  O41  1  0.23521690  0.26621839  0.80256812  1.0
  O  O42  1  0.76478310  0.73378161  0.19743188  1.0
  O  O43  1  0.76478310  0.76621839  0.69743188  1.0
