# generated using pymatgen
data_Na2Mg2NiH6
_symmetry_space_group_name_H-M   'P 1'
_cell_length_a   11.40740396
_cell_length_b   8.43291878
_cell_length_c   5.40209988
_cell_angle_alpha   90.00000000
_cell_angle_beta   90.00000000
_cell_angle_gamma   90.00000000
_symmetry_Int_Tables_number   1
_chemical_formula_structural   Na2Mg2NiH6
_chemical_formula_sum   'Na8 Mg8 Ni4 H24'
_cell_volume   519.66964369
_cell_formula_units_Z   4
loop_
 _symmetry_equiv_pos_site_id
 _symmetry_equiv_pos_as_xyz
  1  'x, y, z'
loop_
 _atom_site_type_symbol
 _atom_site_label
 _atom_site_symmetry_multiplicity
 _atom_site_fract_x
 _atom_site_fract_y
 _atom_site_fract_z
 _atom_site_occupancy
  Na  Na0  1  0.89162562  0.25000000  0.04275029  1.0
  Na  Na1  1  0.39162562  0.25000000  0.45724971  1.0
  Na  Na2  1  0.10837438  0.75000000  0.95724971  1.0
  Na  Na3  1  0.60837438  0.75000000  0.54275029  1.0
  Na  Na4  1  0.67007429  0.25000000  0.56168308  1.0
  Na  Na5  1  0.17007429  0.25000000  0.93831692  1.0
  Na  Na6  1  0.32992571  0.75000000  0.43831692  1.0
  Na  Na7  1  0.82992571  0.75000000  0.06168308  1.0
  Mg  Mg8  1  0.62759036  0.49266519  0.06115506  1.0
  Mg  Mg9  1  0.62759036  0.00733481  0.06115506  1.0
  Mg  Mg10  1  0.12759036  0.49266519  0.43884494  1.0
  Mg  Mg11  1  0.12759036  0.00733481  0.43884494  1.0
  Mg  Mg12  1  0.37240964  0.99266519  0.93884494  1.0
  Mg  Mg13  1  0.37240964  0.50733481  0.93884494  1.0
  Mg  Mg14  1  0.87240964  0.99266519  0.56115506  1.0
  Mg  Mg15  1  0.87240964  0.50733481  0.56115506  1.0
  Ni  Ni16  1  0.00017279  0.25000000  0.55642034  1.0
  Ni  Ni17  1  0.50017279  0.25000000  0.94357966  1.0
  Ni  Ni18  1  0.99982721  0.75000000  0.44357966  1.0
  Ni  Ni19  1  0.49982721  0.75000000  0.05642034  1.0
  H  H20  1  0.97917792  0.89768459  0.26580923  1.0
  H  H21  1  0.97917792  0.60231541  0.26580923  1.0
  H  H22  1  0.47917792  0.89768459  0.23419077  1.0
  H  H23  1  0.47917792  0.60231541  0.23419077  1.0
  H  H24  1  0.02082208  0.39768459  0.73419077  1.0
  H  H25  1  0.02082208  0.10231541  0.73419077  1.0
  H  H26  1  0.52082208  0.39768459  0.76580923  1.0
  H  H27  1  0.52082208  0.10231541  0.76580923  1.0
  H  H28  1  0.72452257  -0.01537846  0.36633479  1.0
  H  H29  1  0.72452257  0.51537846  0.36633479  1.0
  H  H30  1  0.22452257  -0.01537846  0.13366521  1.0
  H  H31  1  0.22452257  0.51537846  0.13366521  1.0
  H  H32  1  0.27547743  0.48462154  0.63366521  1.0
  H  H33  1  0.27547743  1.01537846  0.63366521  1.0
  H  H34  1  0.77547743  0.48462154  0.86633479  1.0
  H  H35  1  0.77547743  1.01537846  0.86633479  1.0
  H  H36  1  0.86798420  0.25000000  0.46848411  1.0
  H  H37  1  0.36798420  0.25000000  0.03151589  1.0
  H  H38  1  0.13201580  0.75000000  0.53151589  1.0
  H  H39  1  0.63201580  0.75000000  0.96848411  1.0
  H  H40  1  0.59470695  0.25000000  0.15978665  1.0
  H  H41  1  0.09470695  0.25000000  0.34021335  1.0
  H  H42  1  0.40529305  0.75000000  0.84021335  1.0
  H  H43  1  0.90529305  0.75000000  0.65978665  1.0
