# generated using pymatgen
data_PBrNF
_symmetry_space_group_name_H-M   'P 1'
_cell_length_a   8.43012959
_cell_length_b   8.43012959
_cell_length_c   8.96322045
_cell_angle_alpha   90.00000000
_cell_angle_beta   90.00000000
_cell_angle_gamma   78.84873444
_symmetry_Int_Tables_number   1
_chemical_formula_structural   PBrNF
_chemical_formula_sum   'P6 Br6 N6 F6'
_cell_volume   624.96358647
_cell_formula_units_Z   6
loop_
 _symmetry_equiv_pos_site_id
 _symmetry_equiv_pos_as_xyz
  1  'x, y, z'
loop_
 _atom_site_type_symbol
 _atom_site_label
 _atom_site_symmetry_multiplicity
 _atom_site_fract_x
 _atom_site_fract_y
 _atom_site_fract_z
 _atom_site_occupancy
  P  P0  1  -0.20062862  1.41356852  0.27269980  1.0
  P  P1  1  0.41356852  0.79937138  0.77269980  1.0
  P  P2  1  -0.41356852  1.20062862  0.27269980  1.0
  P  P3  1  0.20062862  0.58643148  0.77269980  1.0
  P  P4  1  0.16752880  0.83247120  -0.01878529  1.0
  P  P5  1  -0.16752880  1.16752880  0.48121471  1.0
  Br  Br6  1  -0.26675894  1.66771438  0.33599660  1.0
  Br  Br7  1  0.66771438  0.73324106  0.83599660  1.0
  Br  Br8  1  -0.66771438  1.26675894  0.33599660  1.0
  Br  Br9  1  0.26675894  0.33228562  0.83599660  1.0
  Br  Br10  1  0.22389523  0.77610477  0.21559216  1.0
  Br  Br11  1  -0.22389523  1.22389523  0.71559216  1.0
  N  N12  1  -0.09904249  1.31006539  0.40227015  1.0
  N  N13  1  0.31006539  0.90095751  0.90227015  1.0
  N  N14  1  -0.31006539  1.09904249  0.40227015  1.0
  N  N15  1  0.09904249  0.68993461  0.90227015  1.0
  N  N16  1  -0.35157824  1.35157824  0.20248144  1.0
  N  N17  1  0.35157824  0.64842176  0.70248144  1.0
  F  F18  1  -0.07877527  1.42619883  0.14167122  1.0
  F  F19  1  0.42619883  0.92122473  0.64167122  1.0
  F  F20  1  -0.42619883  1.07877527  0.14167122  1.0
  F  F21  1  0.07877527  0.57380117  0.64167122  1.0
  F  F22  1  0.02109652  0.97890348  0.00003612  1.0
  F  F23  1  -0.02109652  1.02109652  0.50003612  1.0
