# generated using pymatgen
data_Rb2BeZn2F14
_symmetry_space_group_name_H-M   'P 1'
_cell_length_a   6.95898026
_cell_length_b   13.28010596
_cell_length_c   7.42951867
_cell_angle_alpha   90.00000000
_cell_angle_beta   106.36909801
_cell_angle_gamma   90.00000000
_symmetry_Int_Tables_number   1
_chemical_formula_structural   Rb2BeZn2F14
_chemical_formula_sum   'Rb4 Be2 Zn4 F28'
_cell_volume   658.77553783
_cell_formula_units_Z   2
loop_
 _symmetry_equiv_pos_site_id
 _symmetry_equiv_pos_as_xyz
  1  'x, y, z'
loop_
 _atom_site_type_symbol
 _atom_site_label
 _atom_site_symmetry_multiplicity
 _atom_site_fract_x
 _atom_site_fract_y
 _atom_site_fract_z
 _atom_site_occupancy
  Rb  Rb0  1  0.12463827  0.15459195  0.21053418  1.0
  Rb  Rb1  1  0.12463827  0.34540805  0.71053418  1.0
  Rb  Rb2  1  0.87536173  0.65459195  0.28946582  1.0
  Rb  Rb3  1  0.87536173  0.84540805  0.78946582  1.0
  Be  Be4  1  0.50000000  0.00000000  -0.00000000  1.0
  Be  Be5  1  0.50000000  0.50000000  0.50000000  1.0
  Zn  Zn6  1  0.29725566  0.87510085  0.45091673  1.0
  Zn  Zn7  1  0.29725566  0.62489915  0.95091673  1.0
  Zn  Zn8  1  0.70274434  0.37510085  0.04908327  1.0
  Zn  Zn9  1  0.70274434  0.12489915  0.54908327  1.0
  F  F10  1  0.09257044  0.81030574  0.51927074  1.0
  F  F11  1  0.09257044  0.68969426  1.01927074  1.0
  F  F12  1  0.90742956  0.31030574  -0.01927074  1.0
  F  F13  1  0.90742956  0.18969426  0.48072926  1.0
  F  F14  1  0.14685951  0.91523191  0.18685769  1.0
  F  F15  1  0.14685951  0.58476809  0.68685769  1.0
  F  F16  1  0.85314049  0.41523191  0.31314231  1.0
  F  F17  1  0.85314049  0.08476809  0.81314231  1.0
  F  F18  1  0.29618782  0.91254685  -0.00349765  1.0
  F  F19  1  0.29618782  0.58745315  0.49650235  1.0
  F  F20  1  0.70381218  0.41254685  0.50349765  1.0
  F  F21  1  0.70381218  0.08745315  1.00349765  1.0
  F  F22  1  0.28576422  0.48843794  0.03502248  1.0
  F  F23  1  0.28576422  1.01156206  0.53502248  1.0
  F  F24  1  0.71423578  -0.01156206  0.46497752  1.0
  F  F25  1  0.71423578  0.51156206  0.96497752  1.0
  F  F26  1  0.53717071  0.81600356  0.45326855  1.0
  F  F27  1  0.53717071  0.68399644  0.95326855  1.0
  F  F28  1  0.46282929  0.31600356  0.04673145  1.0
  F  F29  1  0.46282929  0.18399644  0.54673145  1.0
  F  F30  1  0.48422635  0.55127388  0.27982519  1.0
  F  F31  1  0.48422635  0.94872612  0.77982519  1.0
  F  F32  1  0.51577365  0.05127388  0.22017481  1.0
  F  F33  1  0.51577365  0.44872612  0.72017481  1.0
  F  F34  1  0.65881446  0.90790312  0.06057352  1.0
  F  F35  1  0.65881446  0.59209688  0.56057352  1.0
  F  F36  1  0.34118554  0.40790312  0.43942648  1.0
  F  F37  1  0.34118554  0.09209688  0.93942648  1.0
