# generated using pymatgen
data_Mn2Si2Pb2O9
_symmetry_space_group_name_H-M   'P 1'
_cell_length_a   6.29463652
_cell_length_b   6.29463652
_cell_length_c   11.36752100
_cell_angle_alpha   90.00000000
_cell_angle_beta   90.00000000
_cell_angle_gamma   108.02163158
_symmetry_Int_Tables_number   1
_chemical_formula_structural   Mn2Si2Pb2O9
_chemical_formula_sum   'Mn4 Si4 Pb4 O18'
_cell_volume   428.31185583
_cell_formula_units_Z   2
loop_
 _symmetry_equiv_pos_site_id
 _symmetry_equiv_pos_as_xyz
  1  'x, y, z'
loop_
 _atom_site_type_symbol
 _atom_site_label
 _atom_site_symmetry_multiplicity
 _atom_site_fract_x
 _atom_site_fract_y
 _atom_site_fract_z
 _atom_site_occupancy
  Mn  Mn0  1  0.32070357  0.67929643  0.75000000  1.0
  Mn  Mn1  1  -0.32070357  1.32070357  0.25000000  1.0
  Mn  Mn2  1  0.41348110  0.41348110  0.00000000  1.0
  Mn  Mn3  1  0.58651890  0.58651890  0.50000000  1.0
  O  O4  1  -0.24920043  1.63490404  0.25325831  1.0
  O  O5  1  0.63490404  0.75079957  0.74674169  1.0
  O  O6  1  0.24920043  0.36509596  0.75325831  1.0
  O  O7  1  -0.63490404  1.24920043  0.24674169  1.0
  O  O8  1  0.63001942  0.87535662  0.41452104  1.0
  O  O9  1  -0.12464338  1.63001942  0.58547896  1.0
  O  O10  1  -0.63001942  1.12464338  0.91452104  1.0
  O  O11  1  0.12464338  0.36998058  0.08547896  1.0
  O  O12  1  0.66404221  1.02575302  0.19006480  1.0
  O  O13  1  0.02575302  1.66404221  0.80993520  1.0
  O  O14  1  -0.66404221  0.97424698  0.69006480  1.0
  O  O15  1  -0.02575302  0.33595779  0.30993520  1.0
  O  O16  1  -0.33229306  1.33229306  0.75000000  1.0
  O  O17  1  0.33229306  0.66770694  0.25000000  1.0
  O  O18  1  0.30006038  0.57904223  0.53025102  1.0
  O  O19  1  -0.42095777  1.30006038  0.46974898  1.0
  O  O20  1  -0.30006038  1.42095777  0.03025102  1.0
  O  O21  1  0.42095777  0.69993962  0.96974898  1.0
  Pb  Pb22  1  -0.27895653  1.06391686  0.97534784  1.0
  Pb  Pb23  1  0.06391686  0.72104347  0.02465216  1.0
  Pb  Pb24  1  0.27895653  0.93608314  0.47534784  1.0
  Pb  Pb25  1  -0.06391686  1.27895653  0.52465216  1.0
  Si  Si26  1  -0.60201303  1.19764755  0.77326089  1.0
  Si  Si27  1  0.19764755  0.39798697  0.22673911  1.0
  Si  Si28  1  0.60201303  0.80235245  0.27326089  1.0
  Si  Si29  1  -0.19764755  1.60201303  0.72673911  1.0
