# generated using pymatgen
data_VH10SO10
_symmetry_space_group_name_H-M   'P 1'
_cell_length_a   7.65771546
_cell_length_b   9.22587377
_cell_length_c   6.08178517
_cell_angle_alpha   90.00000000
_cell_angle_beta   90.00000000
_cell_angle_gamma   90.00000000
_symmetry_Int_Tables_number   1
_chemical_formula_structural   VH10SO10
_chemical_formula_sum   'V2 H20 S2 O20'
_cell_volume   429.67274693
_cell_formula_units_Z   2
loop_
 _symmetry_equiv_pos_site_id
 _symmetry_equiv_pos_as_xyz
  1  'x, y, z'
loop_
 _atom_site_type_symbol
 _atom_site_label
 _atom_site_symmetry_multiplicity
 _atom_site_fract_x
 _atom_site_fract_y
 _atom_site_fract_z
 _atom_site_occupancy
  H  H0  1  0.34971878  0.00045599  0.91995634  1.0
  H  H1  1  0.84971878  0.99954401  0.41995634  1.0
  H  H2  1  0.65028122  0.00045599  0.91995634  1.0
  H  H3  1  0.15028122  0.99954401  0.41995634  1.0
  H  H4  1  0.32727038  0.51887651  0.72554607  1.0
  H  H5  1  0.82727038  0.48112349  0.22554607  1.0
  H  H6  1  0.67272962  0.51887651  0.72554607  1.0
  H  H7  1  0.17272962  0.48112349  0.22554607  1.0
  H  H8  1  0.24618168  0.63516432  0.54841800  1.0
  H  H9  1  0.74618168  0.36483568  0.04841800  1.0
  H  H10  1  0.75381832  0.63516432  0.54841800  1.0
  H  H11  1  0.25381832  0.36483568  0.04841800  1.0
  H  H12  1  0.20411849  0.86793981  0.93348675  1.0
  H  H13  1  0.70411849  0.13206019  0.43348675  1.0
  H  H14  1  0.79588151  0.86793981  0.93348675  1.0
  H  H15  1  0.29588151  0.13206019  0.43348675  1.0
  H  H16  1  0.50000000  0.73250014  0.20858349  1.0
  H  H17  1  0.00000000  0.26749986  0.70858349  1.0
  H  H18  1  0.50000000  0.57457670  0.11232950  1.0
  H  H19  1  0.00000000  0.42542330  0.61232950  1.0
  S  S20  1  0.50000000  0.25842580  0.77870471  1.0
  S  S21  1  0.00000000  0.74157420  0.27870471  1.0
  O  O22  1  0.34084856  0.35243228  0.81067229  1.0
  O  O23  1  0.84084856  0.64756772  0.31067229  1.0
  O  O24  1  0.65915144  0.35243228  0.81067229  1.0
  O  O25  1  0.15915144  0.64756772  0.31067229  1.0
  O  O26  1  0.31345755  0.90379347  0.86349648  1.0
  O  O27  1  0.81345755  0.09620653  0.36349648  1.0
  O  O28  1  0.68654245  0.90379347  0.86349648  1.0
  O  O29  1  0.18654245  0.09620653  0.36349648  1.0
  O  O30  1  0.30610274  0.62465847  0.69542423  1.0
  O  O31  1  0.80610274  0.37534153  0.19542423  1.0
  O  O32  1  0.69389726  0.62465847  0.69542423  1.0
  O  O33  1  0.19389726  0.37534153  0.19542423  1.0
  O  O34  1  0.50000000  0.67588311  0.07072011  1.0
  O  O35  1  0.00000000  0.32411689  0.57072011  1.0
  O  O36  1  0.50000000  0.19645028  0.55264133  1.0
  O  O37  1  0.00000000  0.80354972  0.05264133  1.0
  O  O38  1  0.50000000  0.14230185  0.94985809  1.0
  O  O39  1  0.00000000  0.85769815  0.44985809  1.0
  O  O40  1  0.50000000  0.82272819  0.48023167  1.0
  O  O41  1  0.00000000  0.17727181  -0.01976833  1.0
  V  V42  1  0.50000000  0.77260923  0.73293077  1.0
  V  V43  1  0.00000000  0.22739077  0.23293077  1.0
