# generated using pymatgen
data_TlPb2Cl5
_symmetry_space_group_name_H-M   'P 1'
_cell_length_a   9.02077861
_cell_length_b   8.17321517
_cell_length_c   12.79041267
_cell_angle_alpha   90.00000000
_cell_angle_beta   90.04451905
_cell_angle_gamma   90.00000000
_symmetry_Int_Tables_number   1
_chemical_formula_structural   TlPb2Cl5
_chemical_formula_sum   'Tl4 Pb8 Cl20'
_cell_volume   943.02104023
_cell_formula_units_Z   4
loop_
 _symmetry_equiv_pos_site_id
 _symmetry_equiv_pos_as_xyz
  1  'x, y, z'
loop_
 _atom_site_type_symbol
 _atom_site_label
 _atom_site_symmetry_multiplicity
 _atom_site_fract_x
 _atom_site_fract_y
 _atom_site_fract_z
 _atom_site_occupancy
  Tl  Tl0  1  0.48577739  0.46047882  0.17164665  1.0
  Tl  Tl1  1  0.48577739  0.03952118  0.67164665  1.0
  Tl  Tl2  1  0.51422261  0.96047882  0.32835335  1.0
  Tl  Tl3  1  0.51422261  0.53952118  0.82835335  1.0
  Pb  Pb4  1  0.98709886  0.50760882  0.17550252  1.0
  Pb  Pb5  1  0.98709886  -0.00760882  0.67550252  1.0
  Pb  Pb6  1  0.01290114  1.00760882  0.32449748  1.0
  Pb  Pb7  1  0.01290114  0.49239118  0.82449748  1.0
  Pb  Pb8  1  0.74596036  0.43528936  0.49550059  1.0
  Pb  Pb9  1  0.74596036  0.06471064  0.99550059  1.0
  Pb  Pb10  1  0.25403964  0.93528936  0.00449941  1.0
  Pb  Pb11  1  0.25403964  0.56471064  0.50449941  1.0
  Cl  Cl12  1  0.95884200  0.83962609  0.10205052  1.0
  Cl  Cl13  1  0.95884200  0.66037391  0.60205052  1.0
  Cl  Cl14  1  0.04115800  0.33962609  0.39794948  1.0
  Cl  Cl15  1  0.04115800  0.16037391  0.89794948  1.0
  Cl  Cl16  1  0.78467815  0.04592986  0.49665213  1.0
  Cl  Cl17  1  0.78467815  0.45407014  0.99665213  1.0
  Cl  Cl18  1  0.21532185  0.54592986  0.00334787  1.0
  Cl  Cl19  1  0.21532185  0.95407014  0.50334787  1.0
  Cl  Cl20  1  0.76864852  0.65069527  0.31320942  1.0
  Cl  Cl21  1  0.76864852  0.84930473  0.81320942  1.0
  Cl  Cl22  1  0.23135148  0.15069527  0.18679058  1.0
  Cl  Cl23  1  0.23135148  0.34930473  0.68679058  1.0
  Cl  Cl24  1  0.77102446  0.18823508  0.21715261  1.0
  Cl  Cl25  1  0.77102446  0.31176492  0.71715261  1.0
  Cl  Cl26  1  0.22897554  0.68823508  0.28284739  1.0
  Cl  Cl27  1  0.22897554  0.81176492  0.78284739  1.0
  Cl  Cl28  1  0.46152712  0.32843441  0.41721552  1.0
  Cl  Cl29  1  0.46152712  0.17156559  0.91721552  1.0
  Cl  Cl30  1  0.53847288  0.82843441  0.08278448  1.0
  Cl  Cl31  1  0.53847288  0.67156559  0.58278448  1.0
