# generated using pymatgen
data_Lu2Ni17
_symmetry_space_group_name_H-M   'P 1'
_cell_length_a   8.25379118
_cell_length_b   8.25379118
_cell_length_c   7.99235197
_cell_angle_alpha   90.00000000
_cell_angle_beta   90.00000000
_cell_angle_gamma   120.00000000
_symmetry_Int_Tables_number   1
_chemical_formula_structural   Lu2Ni17
_chemical_formula_sum   'Lu4 Ni34'
_cell_volume   471.53310355
_cell_formula_units_Z   2
loop_
 _symmetry_equiv_pos_site_id
 _symmetry_equiv_pos_as_xyz
  1  'x, y, z'
loop_
 _atom_site_type_symbol
 _atom_site_label
 _atom_site_symmetry_multiplicity
 _atom_site_fract_x
 _atom_site_fract_y
 _atom_site_fract_z
 _atom_site_occupancy
  Lu  Lu0  1  0.33333333  0.66666667  0.25000000  1.0
  Lu  Lu1  1  0.66666667  0.33333333  0.75000000  1.0
  Lu  Lu2  1  0.00000000  0.00000000  0.25000000  1.0
  Lu  Lu3  1  0.00000000  0.00000000  0.75000000  1.0
  Ni  Ni4  1  0.16532645  0.83467355  0.47794945  1.0
  Ni  Ni5  1  0.16532645  0.83467355  0.02205055  1.0
  Ni  Ni6  1  0.16532645  0.33065290  0.47794945  1.0
  Ni  Ni7  1  0.16532645  0.33065290  0.02205055  1.0
  Ni  Ni8  1  0.83467355  0.16532645  -0.02205055  1.0
  Ni  Ni9  1  0.83467355  0.16532645  0.52205055  1.0
  Ni  Ni10  1  0.83467355  0.66934710  -0.02205055  1.0
  Ni  Ni11  1  0.83467355  0.66934710  0.52205055  1.0
  Ni  Ni12  1  0.66934710  0.83467355  0.47794945  1.0
  Ni  Ni13  1  0.66934710  0.83467355  0.02205055  1.0
  Ni  Ni14  1  0.33065290  0.16532645  -0.02205055  1.0
  Ni  Ni15  1  0.33065290  0.16532645  0.52205055  1.0
  Ni  Ni16  1  0.36973532  0.04226003  0.25000000  1.0
  Ni  Ni17  1  0.36973532  0.32747529  0.25000000  1.0
  Ni  Ni18  1  0.04226003  0.36973532  0.75000000  1.0
  Ni  Ni19  1  0.04226003  0.67252471  0.75000000  1.0
  Ni  Ni20  1  0.67252471  0.04226003  0.25000000  1.0
  Ni  Ni21  1  0.67252471  0.63026468  0.25000000  1.0
  Ni  Ni22  1  -0.04226003  0.63026468  0.25000000  1.0
  Ni  Ni23  1  -0.04226003  0.32747529  0.25000000  1.0
  Ni  Ni24  1  0.63026468  0.67252471  0.75000000  1.0
  Ni  Ni25  1  0.63026468  -0.04226003  0.75000000  1.0
  Ni  Ni26  1  0.32747529  0.36973532  0.75000000  1.0
  Ni  Ni27  1  0.32747529  -0.04226003  0.75000000  1.0
  Ni  Ni28  1  0.50000000  0.50000000  0.50000000  1.0
  Ni  Ni29  1  0.50000000  0.50000000  -0.00000000  1.0
  Ni  Ni30  1  0.50000000  -0.00000000  0.50000000  1.0
  Ni  Ni31  1  0.50000000  -0.00000000  0.00000000  1.0
  Ni  Ni32  1  -0.00000000  0.50000000  0.50000000  1.0
  Ni  Ni33  1  -0.00000000  0.50000000  -0.00000000  1.0
  Ni  Ni34  1  0.33333333  0.66666667  0.89920802  1.0
  Ni  Ni35  1  0.33333333  0.66666667  0.60079198  1.0
  Ni  Ni36  1  0.66666667  0.33333333  0.39920802  1.0
  Ni  Ni37  1  0.66666667  0.33333333  0.10079198  1.0
