# generated using pymatgen
data_Na2CdPO4F
_symmetry_space_group_name_H-M   'P 1'
_cell_length_a   5.49524454
_cell_length_b   6.91667043
_cell_length_c   12.46138825
_cell_angle_alpha   90.00000000
_cell_angle_beta   90.00000000
_cell_angle_gamma   90.00000000
_symmetry_Int_Tables_number   1
_chemical_formula_structural   Na2CdPO4F
_chemical_formula_sum   'Na8 Cd4 P4 O16 F4'
_cell_volume   473.64235670
_cell_formula_units_Z   4
loop_
 _symmetry_equiv_pos_site_id
 _symmetry_equiv_pos_as_xyz
  1  'x, y, z'
loop_
 _atom_site_type_symbol
 _atom_site_label
 _atom_site_symmetry_multiplicity
 _atom_site_fract_x
 _atom_site_fract_y
 _atom_site_fract_z
 _atom_site_occupancy
  Na  Na0  1  0.25973537  0.00801963  0.32602712  1.0
  Na  Na1  1  0.75973537  0.49198037  0.17397288  1.0
  Na  Na2  1  0.74026463  0.50801963  0.67397288  1.0
  Na  Na3  1  0.24026463  0.99198037  0.82602712  1.0
  Na  Na4  1  0.74026463  0.99198037  0.67397288  1.0
  Na  Na5  1  0.24026463  0.50801963  0.82602712  1.0
  Na  Na6  1  0.25973537  0.49198037  0.32602712  1.0
  Na  Na7  1  0.75973537  0.00801963  0.17397288  1.0
  Cd  Cd8  1  0.72856348  0.25000000  0.40999289  1.0
  Cd  Cd9  1  0.22856348  0.25000000  0.09000711  1.0
  Cd  Cd10  1  0.27143652  0.75000000  0.59000711  1.0
  Cd  Cd11  1  0.77143652  0.75000000  0.90999289  1.0
  P  P12  1  0.71854189  0.25000000  0.92399552  1.0
  P  P13  1  0.21854189  0.25000000  0.57600448  1.0
  P  P14  1  0.28145811  0.75000000  0.07600448  1.0
  P  P15  1  0.78145811  0.75000000  0.42399552  1.0
  O  O16  1  0.06824350  0.75000000  0.43175849  1.0
  O  O17  1  0.56824350  0.75000000  0.06824151  1.0
  O  O18  1  0.93175650  0.25000000  0.56824151  1.0
  O  O19  1  0.43175650  0.25000000  0.93175849  1.0
  O  O20  1  0.32684621  0.25000000  0.46052384  1.0
  O  O21  1  0.82684621  0.25000000  0.03947616  1.0
  O  O22  1  0.67315379  0.75000000  0.53947616  1.0
  O  O23  1  0.17315379  0.75000000  0.96052384  1.0
  O  O24  1  0.80504273  0.43138728  0.85962311  1.0
  O  O25  1  0.30504273  0.06861272  0.64037689  1.0
  O  O26  1  0.19495727  0.93138728  0.14037689  1.0
  O  O27  1  0.69495727  0.56861272  0.35962311  1.0
  O  O28  1  0.19495727  0.56861272  0.14037689  1.0
  O  O29  1  0.69495727  0.93138728  0.35962311  1.0
  O  O30  1  0.80504273  0.06861272  0.85962311  1.0
  O  O31  1  0.30504273  0.43138728  0.64037689  1.0
  F  F32  1  0.49332141  0.25000000  0.23189369  1.0
  F  F33  1  0.99332141  0.25000000  0.26810631  1.0
  F  F34  1  0.50667859  0.75000000  0.76810631  1.0
  F  F35  1  0.00667859  0.75000000  0.73189369  1.0
