# generated using pymatgen
data_La2AgGe6
_symmetry_space_group_name_H-M   'P 1'
_cell_length_a   11.58151619
_cell_length_b   11.58151619
_cell_length_c   4.29511808
_cell_angle_alpha   90.00000000
_cell_angle_beta   90.00000000
_cell_angle_gamma   159.11954105
_symmetry_Int_Tables_number   1
_chemical_formula_structural   La2AgGe6
_chemical_formula_sum   'La2 Ag1 Ge6'
_cell_volume   205.33701035
_cell_formula_units_Z   1
loop_
 _symmetry_equiv_pos_site_id
 _symmetry_equiv_pos_as_xyz
  1  'x, y, z'
loop_
 _atom_site_type_symbol
 _atom_site_label
 _atom_site_symmetry_multiplicity
 _atom_site_fract_x
 _atom_site_fract_y
 _atom_site_fract_z
 _atom_site_occupancy
  La  La0  1  -0.21999367  1.21999367  0.50000000  1.0
  La  La1  1  -0.88384941  0.88384941  0.50000000  1.0
  Ag  Ag2  1  -0.44179163  1.44179163  0.00000000  1.0
  Ge  Ge3  1  -0.50730151  1.50730151  0.50000000  1.0
  Ge  Ge4  1  -0.61684240  0.61684240  0.50000000  1.0
  Ge  Ge5  1  -0.00867743  0.00867743  0.00000000  1.0
  Ge  Ge6  1  -0.11820691  1.11820691  0.00000000  1.0
  Ge  Ge7  1  -0.33045010  1.33045010  0.00000000  1.0
  Ge  Ge8  1  -0.76588694  0.76588694  0.00000000  1.0
