# generated using pymatgen
data_KLa(MoO4)2
_symmetry_space_group_name_H-M   'P 1'
_cell_length_a   7.59786310
_cell_length_b   7.59786310
_cell_length_c   8.99347161
_cell_angle_alpha   59.15167994
_cell_angle_beta   120.84832006
_cell_angle_gamma   95.03021672
_symmetry_Int_Tables_number   1
_chemical_formula_structural   KLa(MoO4)2
_chemical_formula_sum   'K2 La2 Mo4 O16'
_cell_volume   371.69146953
_cell_formula_units_Z   2
loop_
 _symmetry_equiv_pos_site_id
 _symmetry_equiv_pos_as_xyz
  1  'x, y, z'
loop_
 _atom_site_type_symbol
 _atom_site_label
 _atom_site_symmetry_multiplicity
 _atom_site_fract_x
 _atom_site_fract_y
 _atom_site_fract_z
 _atom_site_occupancy
  K  K0  1  1.17758292  0.17758292  0.75000000  1.0
  K  K1  1  0.82241708  0.82241708  0.25000000  1.0
  La  La2  1  0.77364428  0.77364428  0.75000000  1.0
  La  La3  1  1.22635572  0.22635572  0.25000000  1.0
  Mo  Mo4  1  0.68264277  -0.69328230  0.73350923  1.0
  Mo  Mo5  1  0.69328230  0.31735723  0.23350923  1.0
  Mo  Mo6  1  0.30671770  -0.31735723  0.76649077  1.0
  Mo  Mo7  1  1.31735723  -0.30671770  0.26649077  1.0
  O  O8  1  1.57337504  -0.37182664  0.53574135  1.0
  O  O9  1  1.37182664  -0.57337504  0.03574135  1.0
  O  O10  1  0.62817336  -0.42662496  0.96425865  1.0
  O  O11  1  1.42662496  0.37182664  0.46425865  1.0
  O  O12  1  1.81565642  0.09157203  0.77101265  1.0
  O  O13  1  0.90842797  0.18434358  0.27101265  1.0
  O  O14  1  1.09157203  0.81565642  0.72898735  1.0
  O  O15  1  1.18434358  -0.09157203  0.22898735  1.0
  O  O16  1  0.38980613  -0.09114234  0.62136147  1.0
  O  O17  1  1.09114234  0.61019387  0.12136147  1.0
  O  O18  1  0.90885766  0.38980613  0.87863853  1.0
  O  O19  1  0.61019387  0.09114234  0.37863853  1.0
  O  O20  1  1.58010512  0.19706890  0.88618977  1.0
  O  O21  1  0.80293110  0.41989488  0.38618977  1.0
  O  O22  1  1.19706890  0.58010512  0.61381023  1.0
  O  O23  1  1.41989488  -0.19706890  0.11381023  1.0
