# generated using pymatgen
data_Sc2V3Si4
_symmetry_space_group_name_H-M   'P 1'
_cell_length_a   6.62914387
_cell_length_b   6.62914387
_cell_length_c   12.26753137
_cell_angle_alpha   90.00000000
_cell_angle_beta   90.00000000
_cell_angle_gamma   90.00000000
_symmetry_Int_Tables_number   1
_chemical_formula_structural   Sc2V3Si4
_chemical_formula_sum   'Sc8 V12 Si16'
_cell_volume   539.10339414
_cell_formula_units_Z   4
loop_
 _symmetry_equiv_pos_site_id
 _symmetry_equiv_pos_as_xyz
  1  'x, y, z'
loop_
 _atom_site_type_symbol
 _atom_site_label
 _atom_site_symmetry_multiplicity
 _atom_site_fract_x
 _atom_site_fract_y
 _atom_site_fract_z
 _atom_site_occupancy
  Sc  Sc0  1  0.49820816  0.83723939  0.03007552  1.0
  Sc  Sc1  1  0.99820816  0.66276061  0.71992448  1.0
  Sc  Sc2  1  0.16276061  0.50179184  0.46992448  1.0
  Sc  Sc3  1  0.66276061  0.99820816  0.28007552  1.0
  Sc  Sc4  1  0.50179184  0.16276061  0.53007552  1.0
  Sc  Sc5  1  0.00179184  0.33723939  0.21992448  1.0
  Sc  Sc6  1  0.83723939  0.49820816  0.96992448  1.0
  Sc  Sc7  1  0.33723939  0.00179184  0.78007552  1.0
  V  V8  1  0.34320855  0.49220684  0.87342791  1.0
  V  V9  1  0.84320855  1.00779316  0.87657209  1.0
  V  V10  1  0.50779316  0.65679145  0.62657209  1.0
  V  V11  1  1.00779316  0.84320855  0.12342791  1.0
  V  V12  1  0.65679145  0.50779316  0.37342791  1.0
  V  V13  1  0.15679145  -0.00779316  0.37657209  1.0
  V  V14  1  0.49220684  0.34320855  0.12657209  1.0
  V  V15  1  -0.00779316  0.15679145  0.62342791  1.0
  V  V16  1  0.33149339  0.66850661  0.25000000  1.0
  V  V17  1  0.83149339  0.83149339  0.50000000  1.0
  V  V18  1  0.66850661  0.33149339  0.75000000  1.0
  V  V19  1  0.16850661  0.16850661  0.00000000  1.0
  Si  Si20  1  0.20546610  0.54004383  0.06459254  1.0
  Si  Si21  1  0.70546610  0.95995617  0.68540746  1.0
  Si  Si22  1  0.45995617  0.79453390  0.43540746  1.0
  Si  Si23  1  0.95995617  0.70546610  0.31459254  1.0
  Si  Si24  1  0.79453390  0.45995617  0.56459254  1.0
  Si  Si25  1  0.29453390  0.04004383  0.18540746  1.0
  Si  Si26  1  0.54004383  0.20546610  0.93540746  1.0
  Si  Si27  1  0.04004383  0.29453390  0.81459254  1.0
  Si  Si28  1  0.13018316  0.79668322  0.92995557  1.0
  Si  Si29  1  0.63018316  0.70331678  0.82004443  1.0
  Si  Si30  1  0.20331678  0.86981684  0.57004443  1.0
  Si  Si31  1  0.70331678  0.63018316  0.17995557  1.0
  Si  Si32  1  0.86981684  0.20331678  0.42995557  1.0
  Si  Si33  1  0.36981684  0.29668322  0.32004443  1.0
  Si  Si34  1  0.79668322  0.13018316  0.07004443  1.0
  Si  Si35  1  0.29668322  0.36981684  0.67995557  1.0
