# generated using pymatgen
data_LaGeBO5
_symmetry_space_group_name_H-M   'P 1'
_cell_length_a   7.08057287
_cell_length_b   7.08057287
_cell_length_c   6.90879913
_cell_angle_alpha   90.00000000
_cell_angle_beta   90.00000000
_cell_angle_gamma   120.00000000
_symmetry_Int_Tables_number   1
_chemical_formula_structural   LaGeBO5
_chemical_formula_sum   'La3 Ge3 B3 O15'
_cell_volume   299.96459072
_cell_formula_units_Z   3
loop_
 _symmetry_equiv_pos_site_id
 _symmetry_equiv_pos_as_xyz
  1  'x, y, z'
loop_
 _atom_site_type_symbol
 _atom_site_label
 _atom_site_symmetry_multiplicity
 _atom_site_fract_x
 _atom_site_fract_y
 _atom_site_fract_z
 _atom_site_occupancy
  La  La0  1  0.41242756  1.00233291  0.34756189  1.0
  La  La1  1  0.58990534  0.58757244  0.01422856  1.0
  La  La2  1  -0.00233291  0.41009466  0.68089523  1.0
  Ge  Ge3  1  0.41487120  0.99477100  0.84771038  1.0
  Ge  Ge4  1  0.57989980  0.58512880  0.51437704  1.0
  Ge  Ge5  1  0.00522900  0.42010020  0.18104371  1.0
  B  B6  1  -0.01490939  0.88484333  0.71015208  1.0
  B  B7  1  0.89975273  1.01490939  0.37681875  1.0
  B  B8  1  0.11515667  0.10024727  0.04348542  1.0
  O  O9  1  0.85869953  0.47049844  0.00681221  1.0
  O  O10  1  0.61179890  0.14130047  0.67347888  1.0
  O  O11  1  0.52950156  0.38820110  0.34014555  1.0
  O  O12  1  0.95741849  0.94033424  0.90844608  1.0
  O  O13  1  -0.01708425  0.04258151  0.57511275  1.0
  O  O14  1  0.05966576  1.01708425  0.24177942  1.0
  O  O15  1  0.18404702  0.85900082  0.68767832  1.0
  O  O16  1  0.67495380  0.81595298  0.35434498  1.0
  O  O17  1  0.14099918  0.32504620  0.02101165  1.0
  O  O18  1  0.45508451  0.84324616  0.02528948  1.0
  O  O19  1  0.38816166  0.54491549  0.69195615  1.0
  O  O20  1  0.15675384  0.61183834  0.35862282  1.0
  O  O21  1  0.80688555  0.65231888  0.67298288  1.0
  O  O22  1  0.84543332  0.19311445  0.33964955  1.0
  O  O23  1  0.34768112  0.15456668  0.00631621  1.0
