# generated using pymatgen
data_CaSn4(PO4)6
_symmetry_space_group_name_H-M   'P 1'
_cell_length_a   9.10739266
_cell_length_b   9.10739266
_cell_length_c   9.10739266
_cell_angle_alpha   55.80869209
_cell_angle_beta   55.80869209
_cell_angle_gamma   55.80869209
_symmetry_Int_Tables_number   1
_chemical_formula_structural   CaSn4(PO4)6
_chemical_formula_sum   'Ca1 Sn4 P6 O24'
_cell_volume   482.24383560
_cell_formula_units_Z   1
loop_
 _symmetry_equiv_pos_site_id
 _symmetry_equiv_pos_as_xyz
  1  'x, y, z'
loop_
 _atom_site_type_symbol
 _atom_site_label
 _atom_site_symmetry_multiplicity
 _atom_site_fract_x
 _atom_site_fract_y
 _atom_site_fract_z
 _atom_site_occupancy
  Ca  Ca0  1  0.00000000  -0.00000000  0.00000000  1.0
  Sn  Sn1  1  0.14765225  0.14765225  0.14765225  1.0
  Sn  Sn2  1  0.85234775  -0.14765225  -0.14765225  1.0
  Sn  Sn3  1  0.35210976  0.35210976  -0.64789024  1.0
  Sn  Sn4  1  0.64789024  0.64789024  -0.35210976  1.0
  P  P5  1  0.54294461  0.24780301  -0.03611779  1.0
  P  P6  1  1.03611779  -0.54294461  -0.24780301  1.0
  P  P7  1  0.75219699  0.03611779  -0.54294461  1.0
  P  P8  1  0.45705539  -0.24780301  0.03611779  1.0
  P  P9  1  0.96388221  -0.45705539  0.24780301  1.0
  P  P10  1  1.24780301  -0.03611779  -0.45705539  1.0
  O  O11  1  0.19325617  0.98735655  -0.60353730  1.0
  O  O12  1  0.60353730  -0.19325617  0.01264345  1.0
  O  O13  1  1.01264345  -0.39646270  -0.19325617  1.0
  O  O14  1  0.80674383  0.01264345  -0.39646270  1.0
  O  O15  1  0.39646270  0.19325617  -0.01264345  1.0
  O  O16  1  0.98735655  0.39646270  -0.80674383  1.0
  O  O17  1  0.54682517  0.17923817  -0.51708582  1.0
  O  O18  1  0.51708582  0.45317483  -0.17923817  1.0
  O  O19  1  0.82076183  0.51708582  -0.54682517  1.0
  O  O20  1  0.45317483  0.82076183  -0.48291418  1.0
  O  O21  1  0.48291418  0.54682517  -0.82076183  1.0
  O  O22  1  0.17923817  0.48291418  -0.45317483  1.0
  O  O23  1  0.25054665  0.89231756  -0.88728200  1.0
  O  O24  1  0.88728200  -0.25054665  0.10768244  1.0
  O  O25  1  1.10768244  -0.11271800  -0.25054665  1.0
  O  O26  1  0.74945335  0.10768244  -0.11271800  1.0
  O  O27  1  0.11271800  0.25054665  -0.10768244  1.0
  O  O28  1  0.89231756  0.11271800  -0.74945335  1.0
  O  O29  1  0.52991781  0.21794976  0.15591905  1.0
  O  O30  1  0.84408095  -0.52991781  -0.21794976  1.0
  O  O31  1  0.78205024  -0.15591905  -0.52991781  1.0
  O  O32  1  0.47008219  -0.21794976  -0.15591905  1.0
  O  O33  1  1.15591905  -0.47008219  0.21794976  1.0
  O  O34  1  1.21794976  0.15591905  -0.47008219  1.0
