# generated using pymatgen
data_Zr2V3Ge4
_symmetry_space_group_name_H-M   'P 1'
_cell_length_a   6.65657534
_cell_length_b   12.79502276
_cell_length_c   6.77045959
_cell_angle_alpha   90.00000000
_cell_angle_beta   90.00000000
_cell_angle_gamma   90.00000000
_symmetry_Int_Tables_number   1
_chemical_formula_structural   Zr2V3Ge4
_chemical_formula_sum   'Zr8 V12 Ge16'
_cell_volume   576.64703686
_cell_formula_units_Z   4
loop_
 _symmetry_equiv_pos_site_id
 _symmetry_equiv_pos_as_xyz
  1  'x, y, z'
loop_
 _atom_site_type_symbol
 _atom_site_label
 _atom_site_symmetry_multiplicity
 _atom_site_fract_x
 _atom_site_fract_y
 _atom_site_fract_z
 _atom_site_occupancy
  Zr  Zr0  1  0.48881940  0.40763116  0.17254771  1.0
  Zr  Zr1  1  0.48881940  0.09236884  0.17254771  1.0
  Zr  Zr2  1  0.98881940  0.40763116  0.32745229  1.0
  Zr  Zr3  1  0.98881940  0.09236884  0.32745229  1.0
  Zr  Zr4  1  0.51118060  0.90763116  0.82745229  1.0
  Zr  Zr5  1  0.51118060  0.59236884  0.82745229  1.0
  Zr  Zr6  1  0.01118060  0.90763116  0.67254771  1.0
  Zr  Zr7  1  0.01118060  0.59236884  0.67254771  1.0
  V  V8  1  0.16123313  0.37458185  0.83940394  1.0
  V  V9  1  0.16123313  0.12541815  0.83940394  1.0
  V  V10  1  0.66123313  0.37458185  0.66059606  1.0
  V  V11  1  0.66123313  0.12541815  0.66059606  1.0
  V  V12  1  0.83876687  0.87458185  0.16059606  1.0
  V  V13  1  0.83876687  0.62541815  0.16059606  1.0
  V  V14  1  0.33876687  0.87458185  0.33940394  1.0
  V  V15  1  0.33876687  0.62541815  0.33940394  1.0
  V  V16  1  0.33752922  0.25000000  0.50992151  1.0
  V  V17  1  0.83752922  0.25000000  0.99007849  1.0
  V  V18  1  0.66247078  0.75000000  0.49007849  1.0
  V  V19  1  0.16247078  0.75000000  0.00992151  1.0
  Ge  Ge20  1  0.32264624  0.45688336  0.54652589  1.0
  Ge  Ge21  1  0.32264624  0.04311664  0.54652589  1.0
  Ge  Ge22  1  0.82264624  0.45688336  0.95347411  1.0
  Ge  Ge23  1  0.82264624  0.04311664  0.95347411  1.0
  Ge  Ge24  1  0.67735376  0.95688336  0.45347411  1.0
  Ge  Ge25  1  0.67735376  0.54311664  0.45347411  1.0
  Ge  Ge26  1  0.17735376  0.95688336  0.04652589  1.0
  Ge  Ge27  1  0.17735376  0.54311664  0.04652589  1.0
  Ge  Ge28  1  0.46694071  0.25000000  0.87281024  1.0
  Ge  Ge29  1  0.96694071  0.25000000  0.62718976  1.0
  Ge  Ge30  1  0.53305929  0.75000000  0.12718976  1.0
  Ge  Ge31  1  0.03305929  0.75000000  0.37281024  1.0
  Ge  Ge32  1  0.19156987  0.25000000  0.14401536  1.0
  Ge  Ge33  1  0.69156987  0.25000000  0.35598464  1.0
  Ge  Ge34  1  0.80843013  0.75000000  0.85598464  1.0
  Ge  Ge35  1  0.30843013  0.75000000  0.64401536  1.0
