# generated using pymatgen
data_H8Se(NO2)2
_symmetry_space_group_name_H-M   'P 1'
_cell_length_a   6.80687085
_cell_length_b   6.80687085
_cell_length_c   7.87061303
_cell_angle_alpha   70.57454676
_cell_angle_beta   109.42545324
_cell_angle_gamma   120.71098182
_symmetry_Int_Tables_number   1
_chemical_formula_structural   H8Se(NO2)2
_chemical_formula_sum   'H16 Se2 N4 O8'
_cell_volume   289.66533580
_cell_formula_units_Z   2
loop_
 _symmetry_equiv_pos_site_id
 _symmetry_equiv_pos_as_xyz
  1  'x, y, z'
loop_
 _atom_site_type_symbol
 _atom_site_label
 _atom_site_symmetry_multiplicity
 _atom_site_fract_x
 _atom_site_fract_y
 _atom_site_fract_z
 _atom_site_occupancy
  H  H0  1  0.56591513  -0.31557304  0.80146572  1.0
  H  H1  1  1.31557304  0.43408487  0.80146572  1.0
  H  H2  1  0.68442696  0.56591513  0.19853428  1.0
  H  H3  1  0.43408487  0.31557304  0.19853428  1.0
  H  H4  1  0.33280216  -0.08391175  0.80546603  1.0
  H  H5  1  1.08391175  0.66719784  0.80546603  1.0
  H  H6  1  0.91608825  0.33280216  0.19453397  1.0
  H  H7  1  0.66719784  0.08391175  0.19453397  1.0
  H  H8  1  0.92827100  0.07172900  0.25757327  1.0
  H  H9  1  0.07172900  -0.07172900  0.74242673  1.0
  H  H10  1  0.85130877  0.14869123  0.39854799  1.0
  H  H11  1  0.14869123  -0.14869123  0.60145201  1.0
  H  H12  1  0.54816403  0.45183597  0.74288810  1.0
  H  H13  1  0.45183597  -0.45183597  0.25711190  1.0
  H  H14  1  0.40109035  -0.40109035  0.59859051  1.0
  H  H15  1  0.59890965  0.40109035  0.40140948  1.0
  Se  Se16  1  0.81876338  0.18123662  0.77034106  1.0
  Se  Se17  1  0.18123662  -0.18123662  0.22965894  1.0
  N  N18  1  0.84105461  0.15894539  0.26016588  1.0
  N  N19  1  0.15894539  -0.15894539  0.73983412  1.0
  N  N20  1  0.45914771  -0.45914771  0.73851187  1.0
  N  N21  1  0.54085229  0.45914771  0.26148813  1.0
  O  O22  1  0.64424703  -0.05592654  0.89835701  1.0
  O  O23  1  1.05592654  0.35575297  0.89835701  1.0
  O  O24  1  0.94407346  0.64424703  0.10164299  1.0
  O  O25  1  0.35575297  0.05592654  0.10164299  1.0
  O  O26  1  0.90043791  0.09956209  0.63775188  1.0
  O  O27  1  0.09956209  -0.09956209  0.36224812  1.0
  O  O28  1  0.66804189  0.33195811  0.64092893  1.0
  O  O29  1  0.33195811  -0.33195811  0.35907107  1.0
