# generated using pymatgen
data_Zr9BMo4
_symmetry_space_group_name_H-M   'P 1'
_cell_length_a   8.62737558
_cell_length_b   8.62737558
_cell_length_c   8.57600776
_cell_angle_alpha   90.00000000
_cell_angle_beta   90.00000000
_cell_angle_gamma   120.00000000
_symmetry_Int_Tables_number   1
_chemical_formula_structural   Zr9BMo4
_chemical_formula_sum   'Zr18 B2 Mo8'
_cell_volume   552.80658346
_cell_formula_units_Z   2
loop_
 _symmetry_equiv_pos_site_id
 _symmetry_equiv_pos_as_xyz
  1  'x, y, z'
loop_
 _atom_site_type_symbol
 _atom_site_label
 _atom_site_symmetry_multiplicity
 _atom_site_fract_x
 _atom_site_fract_y
 _atom_site_fract_z
 _atom_site_occupancy
  Zr  Zr0  1  0.20338652  0.79661348  0.44364551  1.0
  Zr  Zr1  1  0.20338652  0.79661348  0.05635449  1.0
  Zr  Zr2  1  0.20338652  0.40677304  0.44364551  1.0
  Zr  Zr3  1  0.20338652  0.40677304  0.05635449  1.0
  Zr  Zr4  1  0.79661348  0.20338652  0.94364551  1.0
  Zr  Zr5  1  0.79661348  0.20338652  0.55635449  1.0
  Zr  Zr6  1  0.79661348  0.59322696  0.94364551  1.0
  Zr  Zr7  1  0.79661348  0.59322696  0.55635449  1.0
  Zr  Zr8  1  0.59322696  0.79661348  0.44364551  1.0
  Zr  Zr9  1  0.59322696  0.79661348  0.05635449  1.0
  Zr  Zr10  1  0.40677304  0.20338652  0.94364551  1.0
  Zr  Zr11  1  0.40677304  0.20338652  0.55635449  1.0
  Zr  Zr12  1  0.53965720  0.46034280  0.25000000  1.0
  Zr  Zr13  1  0.53965720  0.07931440  0.25000000  1.0
  Zr  Zr14  1  0.46034280  0.53965720  0.75000000  1.0
  Zr  Zr15  1  0.46034280  0.92068560  0.75000000  1.0
  Zr  Zr16  1  0.92068560  0.46034280  0.25000000  1.0
  Zr  Zr17  1  0.07931440  0.53965720  0.75000000  1.0
  B  B18  1  0.33333333  0.66666667  0.25000000  1.0
  B  B19  1  0.66666667  0.33333333  0.75000000  1.0
  Mo  Mo20  1  0.89000922  0.10999078  0.25000000  1.0
  Mo  Mo21  1  0.89000922  0.78001843  0.25000000  1.0
  Mo  Mo22  1  0.10999078  0.89000922  0.75000000  1.0
  Mo  Mo23  1  0.10999078  0.21998157  0.75000000  1.0
  Mo  Mo24  1  0.21998157  0.10999078  0.25000000  1.0
  Mo  Mo25  1  0.78001843  0.89000922  0.75000000  1.0
  Mo  Mo26  1  0.00000000  0.00000000  0.50000000  1.0
  Mo  Mo27  1  0.00000000  0.00000000  0.00000000  1.0
