# generated using pymatgen
data_FeH12C8S2(NO)2
_symmetry_space_group_name_H-M   'P 1'
_cell_length_a   7.98140564
_cell_length_b   5.74066167
_cell_length_c   8.49677817
_cell_angle_alpha   104.50272228
_cell_angle_beta   104.36956137
_cell_angle_gamma   95.17070354
_symmetry_Int_Tables_number   1
_chemical_formula_structural   FeH12C8S2(NO)2
_chemical_formula_sum   'Fe1 H12 C8 S2 N2 O2'
_cell_volume   360.26882802
_cell_formula_units_Z   1
loop_
 _symmetry_equiv_pos_site_id
 _symmetry_equiv_pos_as_xyz
  1  'x, y, z'
loop_
 _atom_site_type_symbol
 _atom_site_label
 _atom_site_symmetry_multiplicity
 _atom_site_fract_x
 _atom_site_fract_y
 _atom_site_fract_z
 _atom_site_occupancy
  Fe  Fe0  1  -0.50000000  -0.50000000  -0.50000000  1.0
  H  H1  1  -0.71622831  -0.07455497  -0.36051056  1.0
  H  H2  1  -0.28377169  -0.92544503  -0.63948944  1.0
  H  H3  1  -0.91263707  -0.09427409  -0.29170338  1.0
  H  H4  1  -0.08736293  -0.90572591  -0.70829662  1.0
  H  H5  1  -0.70599048  -0.01057623  -0.14030274  1.0
  H  H6  1  -0.29400952  -0.98942377  -0.85969726  1.0
  H  H7  1  -0.83459294  -0.65602991  -0.14916864  1.0
  H  H8  1  -0.16540706  -0.34397009  -0.85083136  1.0
  H  H9  1  -0.85240733  -0.34820155  -0.04461445  1.0
  H  H10  1  -0.14759267  -0.65179845  -0.95538555  1.0
  H  H11  1  -0.01219967  -0.51274582  -0.23379623  1.0
  H  H12  1  -0.98780033  -0.48725418  -0.76620377  1.0
  C  C13  1  -0.77582487  -0.12623387  -0.26909669  1.0
  C  C14  1  -0.22417513  -0.87376613  -0.73090331  1.0
  C  C15  1  -0.76979545  -0.38607778  -0.27017851  1.0
  C  C16  1  -0.23020455  -0.61392222  -0.72982149  1.0
  C  C17  1  -0.87127450  -0.48370721  -0.16721967  1.0
  C  C18  1  -0.12872550  -0.51629279  -0.83278033  1.0
  C  C19  1  -0.34144846  -0.89515202  -0.32790538  1.0
  C  C20  1  -0.65855154  -0.10484798  -0.67209462  1.0
  S  S21  1  -0.29887305  -0.13369478  -0.26118456  1.0
  S  S22  1  -0.70112695  -0.86630522  -0.73881544  1.0
  N  N23  1  -0.37415758  -0.72530521  -0.37837150  1.0
  N  N24  1  -0.62584242  -0.27469479  -0.62162850  1.0
  O  O25  1  -0.68702967  -0.51891402  -0.35035299  1.0
  O  O26  1  -0.31297033  -0.48108598  -0.64964701  1.0
