# generated using pymatgen
data_W3N2
_symmetry_space_group_name_H-M   'P 1'
_cell_length_a   8.26689410
_cell_length_b   8.26689410
_cell_length_c   8.26689410
_cell_angle_alpha   19.91582681
_cell_angle_beta   19.91582681
_cell_angle_gamma   19.91582681
_symmetry_Int_Tables_number   1
_chemical_formula_structural   W3N2
_chemical_formula_sum   'W3 N2'
_cell_volume   57.34517610
_cell_formula_units_Z   1
loop_
 _symmetry_equiv_pos_site_id
 _symmetry_equiv_pos_as_xyz
  1  'x, y, z'
loop_
 _atom_site_type_symbol
 _atom_site_label
 _atom_site_symmetry_multiplicity
 _atom_site_fract_x
 _atom_site_fract_y
 _atom_site_fract_z
 _atom_site_occupancy
  W  W0  1  0.11865161  0.11865161  0.11865161  1.0
  W  W1  1  0.88134839  -0.11865161  -0.11865161  1.0
  W  W2  1  0.00000000  0.00000000  0.00000000  1.0
  N  N3  1  0.72774029  -0.27225971  -0.27225971  1.0
  N  N4  1  0.27225971  0.27225971  0.27225971  1.0
