# generated using pymatgen
data_MgCuAs
_symmetry_space_group_name_H-M   'P 1'
_cell_length_a   13.56958546
_cell_length_b   3.99965632
_cell_length_c   7.40215213
_cell_angle_alpha   90.00000000
_cell_angle_beta   90.00000000
_cell_angle_gamma   90.00000000
_symmetry_Int_Tables_number   1
_chemical_formula_structural   MgCuAs
_chemical_formula_sum   'Mg8 Cu8 As8'
_cell_volume   401.74202290
_cell_formula_units_Z   8
loop_
 _symmetry_equiv_pos_site_id
 _symmetry_equiv_pos_as_xyz
  1  'x, y, z'
loop_
 _atom_site_type_symbol
 _atom_site_label
 _atom_site_symmetry_multiplicity
 _atom_site_fract_x
 _atom_site_fract_y
 _atom_site_fract_z
 _atom_site_occupancy
  Mg  Mg0  1  0.39195078  0.75000000  0.94126934  1.0
  Mg  Mg1  1  0.89195078  0.75000000  0.55873066  1.0
  Mg  Mg2  1  0.60804922  0.25000000  0.05873066  1.0
  Mg  Mg3  1  0.10804922  0.25000000  0.44126934  1.0
  Mg  Mg4  1  0.14154038  0.75000000  0.82799428  1.0
  Mg  Mg5  1  0.64154038  0.75000000  0.67200572  1.0
  Mg  Mg6  1  0.85845962  0.25000000  0.17200572  1.0
  Mg  Mg7  1  0.35845962  0.25000000  0.32799428  1.0
  Cu  Cu8  1  0.43463747  0.75000000  0.56932353  1.0
  Cu  Cu9  1  0.93463747  0.75000000  0.93067647  1.0
  Cu  Cu10  1  0.56536253  0.25000000  0.43067647  1.0
  Cu  Cu11  1  0.06536253  0.25000000  0.06932353  1.0
  Cu  Cu12  1  0.18508928  0.75000000  0.19936186  1.0
  Cu  Cu13  1  0.68508928  0.75000000  0.30063814  1.0
  Cu  Cu14  1  0.81491072  0.25000000  0.80063814  1.0
  Cu  Cu15  1  0.31491072  0.25000000  0.69936186  1.0
  As  As16  1  0.24692823  0.75000000  0.52172222  1.0
  As  As17  1  0.74692823  0.75000000  0.97827778  1.0
  As  As18  1  0.75307177  0.25000000  0.47827778  1.0
  As  As19  1  0.25307177  0.25000000  0.02172222  1.0
  As  As20  1  -0.00065746  0.75000000  0.25343430  1.0
  As  As21  1  0.49934254  0.75000000  0.24656570  1.0
  As  As22  1  1.00065746  0.25000000  0.74656570  1.0
  As  As23  1  0.50065746  0.25000000  0.75343430  1.0
