# generated using pymatgen
data_BaN2
_symmetry_space_group_name_H-M   'P 1'
_cell_length_a   4.22993122
_cell_length_b   4.22993122
_cell_length_c   7.35143915
_cell_angle_alpha   77.39009491
_cell_angle_beta   102.60990509
_cell_angle_gamma   116.71235279
_symmetry_Int_Tables_number   1
_chemical_formula_structural   BaN2
_chemical_formula_sum   'Ba2 N4'
_cell_volume   113.56724428
_cell_formula_units_Z   2
loop_
 _symmetry_equiv_pos_site_id
 _symmetry_equiv_pos_as_xyz
  1  'x, y, z'
loop_
 _atom_site_type_symbol
 _atom_site_label
 _atom_site_symmetry_multiplicity
 _atom_site_fract_x
 _atom_site_fract_y
 _atom_site_fract_z
 _atom_site_occupancy
  Ba  Ba0  1  0.78937242  -0.21062758  0.25000000  1.0
  Ba  Ba1  1  1.21062758  0.21062758  0.75000000  1.0
  N  N2  1  1.55541906  0.14915295  0.45415084  1.0
  N  N3  1  0.85084705  -0.55541906  0.95415084  1.0
  N  N4  1  1.14915295  0.55541906  0.04584916  1.0
  N  N5  1  0.44458094  -0.14915295  0.54584916  1.0
