# generated using pymatgen
data_Cu7Si2
_symmetry_space_group_name_H-M   'P 1'
_cell_length_a   4.08530324
_cell_length_b   4.08530324
_cell_length_c   7.55460887
_cell_angle_alpha   90.00000000
_cell_angle_beta   90.00000000
_cell_angle_gamma   120.00000000
_symmetry_Int_Tables_number   1
_chemical_formula_structural   Cu7Si2
_chemical_formula_sum   'Cu7 Si2'
_cell_volume   109.19209837
_cell_formula_units_Z   1
loop_
 _symmetry_equiv_pos_site_id
 _symmetry_equiv_pos_as_xyz
  1  'x, y, z'
loop_
 _atom_site_type_symbol
 _atom_site_label
 _atom_site_symmetry_multiplicity
 _atom_site_fract_x
 _atom_site_fract_y
 _atom_site_fract_z
 _atom_site_occupancy
  Cu  Cu0  1  0.33333333  0.66666667  0.12046592  1.0
  Cu  Cu1  1  0.66666667  0.33333333  0.87953408  1.0
  Cu  Cu2  1  0.33333333  0.66666667  0.46046466  1.0
  Cu  Cu3  1  0.66666667  0.33333333  0.53953534  1.0
  Cu  Cu4  1  -0.00000000  -0.00000000  0.32976691  1.0
  Cu  Cu5  1  -0.00000000  -0.00000000  0.67023309  1.0
  Cu  Cu6  1  0.00000000  0.00000000  -0.00000000  1.0
  Si  Si7  1  0.33333333  0.66666667  0.78078187  1.0
  Si  Si8  1  0.66666667  0.33333333  0.21921813  1.0
