# generated using pymatgen
data_Ca4Mn2O7
_symmetry_space_group_name_H-M   'P 1'
_cell_length_a   6.63606344
_cell_length_b   6.63606344
_cell_length_c   10.18483434
_cell_angle_alpha   90.00000000
_cell_angle_beta   90.00000000
_cell_angle_gamma   47.72511310
_symmetry_Int_Tables_number   1
_chemical_formula_structural   Ca4Mn2O7
_chemical_formula_sum   'Ca8 Mn4 O14'
_cell_volume   331.86642868
_cell_formula_units_Z   2
loop_
 _symmetry_equiv_pos_site_id
 _symmetry_equiv_pos_as_xyz
  1  'x, y, z'
loop_
 _atom_site_type_symbol
 _atom_site_label
 _atom_site_symmetry_multiplicity
 _atom_site_fract_x
 _atom_site_fract_y
 _atom_site_fract_z
 _atom_site_occupancy
  Mn  Mn0  1  -0.72843329  0.72843329  0.87614302  1.0
  Mn  Mn1  1  -0.22843329  0.22843329  0.62385698  1.0
  Mn  Mn2  1  -0.27156671  0.27156671  0.12385698  1.0
  Mn  Mn3  1  -0.77156671  0.77156671  0.37614302  1.0
  O  O4  1  0.10984183  0.56845762  0.88186891  1.0
  O  O5  1  -0.39015817  1.06845762  0.61813109  1.0
  O  O6  1  -0.43154238  1.10984183  0.11813109  1.0
  O  O7  1  0.06845762  0.60984183  0.38186891  1.0
  O  O8  1  -0.56845762  0.89015817  0.88186891  1.0
  O  O9  1  -0.06845762  0.39015817  0.61813109  1.0
  O  O10  1  -0.10984183  0.43154238  0.11813109  1.0
  O  O11  1  -0.60984183  0.93154238  0.38186891  1.0
  O  O12  1  0.07714651  -0.07714651  0.70726509  1.0
  O  O13  1  -0.42285349  0.42285349  0.79273491  1.0
  O  O14  1  -0.07714651  0.07714651  0.29273491  1.0
  O  O15  1  -0.57714651  0.57714651  0.20726509  1.0
  O  O16  1  0.00000000  0.00000000  0.00000000  1.0
  O  O17  1  -0.50000000  0.50000000  0.50000000  1.0
  Ca  Ca18  1  -0.05958268  0.35991296  0.87507088  1.0
  Ca  Ca19  1  -0.55958268  0.85991296  0.62492912  1.0
  Ca  Ca20  1  -0.64008704  0.94041732  0.12492912  1.0
  Ca  Ca21  1  -0.14008704  0.44041732  0.37507088  1.0
  Ca  Ca22  1  -0.35991296  1.05958268  0.87507088  1.0
  Ca  Ca23  1  0.14008704  0.55958268  0.62492912  1.0
  Ca  Ca24  1  0.05958268  0.64008704  0.12492912  1.0
  Ca  Ca25  1  -0.44041732  1.14008704  0.37507088  1.0
