# generated using pymatgen
data_ZrTl2Se3
_symmetry_space_group_name_H-M   'P 1'
_cell_length_a   8.20175945
_cell_length_b   3.96690665
_cell_length_c   10.97224437
_cell_angle_alpha   90.00000000
_cell_angle_beta   96.55555405
_cell_angle_gamma   90.00000000
_symmetry_Int_Tables_number   1
_chemical_formula_structural   ZrTl2Se3
_chemical_formula_sum   'Zr2 Tl4 Se6'
_cell_volume   354.65458292
_cell_formula_units_Z   2
loop_
 _symmetry_equiv_pos_site_id
 _symmetry_equiv_pos_as_xyz
  1  'x, y, z'
loop_
 _atom_site_type_symbol
 _atom_site_label
 _atom_site_symmetry_multiplicity
 _atom_site_fract_x
 _atom_site_fract_y
 _atom_site_fract_z
 _atom_site_occupancy
  Zr  Zr0  1  0.59101322  0.25000000  0.66381957  1.0
  Zr  Zr1  1  0.40898678  0.75000000  0.33618043  1.0
  Tl  Tl2  1  0.93641997  0.25000000  0.34351408  1.0
  Tl  Tl3  1  0.06358003  0.75000000  0.65648592  1.0
  Tl  Tl4  1  0.25919587  0.25000000  1.01033421  1.0
  Tl  Tl5  1  0.74080413  0.75000000  -0.01033421  1.0
  Se  Se6  1  0.86811181  0.25000000  0.80527179  1.0
  Se  Se7  1  0.13188819  0.75000000  0.19472821  1.0
  Se  Se8  1  0.55210600  0.25000000  0.21647947  1.0
  Se  Se9  1  0.44789400  0.75000000  0.78352053  1.0
  Se  Se10  1  0.30822314  0.25000000  0.48537687  1.0
  Se  Se11  1  0.69177686  0.75000000  0.51462313  1.0
