# generated using pymatgen
data_K2Pb(SeO4)2
_symmetry_space_group_name_H-M   'P 1'
_cell_length_a   7.92393139
_cell_length_b   7.92393139
_cell_length_c   7.92393139
_cell_angle_alpha   43.02505437
_cell_angle_beta   43.02505437
_cell_angle_gamma   43.02505437
_symmetry_Int_Tables_number   1
_chemical_formula_structural   K2Pb(SeO4)2
_chemical_formula_sum   'K2 Pb1 Se2 O8'
_cell_volume   209.96104932
_cell_formula_units_Z   1
loop_
 _symmetry_equiv_pos_site_id
 _symmetry_equiv_pos_as_xyz
  1  'x, y, z'
loop_
 _atom_site_type_symbol
 _atom_site_label
 _atom_site_symmetry_multiplicity
 _atom_site_fract_x
 _atom_site_fract_y
 _atom_site_fract_z
 _atom_site_occupancy
  K  K0  1  0.79943892  0.79943892  0.79943892  1.0
  K  K1  1  1.20056108  1.20056108  0.20056108  1.0
  Pb  Pb2  1  -0.00000000  -0.00000000  0.00000000  1.0
  Se  Se3  1  1.59989054  0.59989054  0.59989054  1.0
  Se  Se4  1  1.40010946  0.40010946  0.40010946  1.0
  O  O5  1  1.26920849  0.26920849  0.74044741  1.0
  O  O6  1  1.26920849  0.74044741  0.26920849  1.0
  O  O7  1  1.25955259  0.73079151  0.73079151  1.0
  O  O8  1  1.73079151  0.25955259  0.73079151  1.0
  O  O9  1  1.73079151  0.73079151  0.25955259  1.0
  O  O10  1  1.74044741  0.26920849  0.26920849  1.0
  O  O11  1  0.67674944  0.67674944  0.67674944  1.0
  O  O12  1  1.32325056  1.32325056  0.32325056  1.0
