# generated using pymatgen
data_Si3N4
_symmetry_space_group_name_H-M   'P 1'
_cell_length_a   7.41528144
_cell_length_b   7.41528144
_cell_length_c   6.24785284
_cell_angle_alpha   90.00000000
_cell_angle_beta   90.00000000
_cell_angle_gamma   120.00000000
_symmetry_Int_Tables_number   1
_chemical_formula_structural   Si3N4
_chemical_formula_sum   'Si12 N16'
_cell_volume   297.52036727
_cell_formula_units_Z   4
loop_
 _symmetry_equiv_pos_site_id
 _symmetry_equiv_pos_as_xyz
  1  'x, y, z'
loop_
 _atom_site_type_symbol
 _atom_site_label
 _atom_site_symmetry_multiplicity
 _atom_site_fract_x
 _atom_site_fract_y
 _atom_site_fract_z
 _atom_site_occupancy
  Si  Si0  1  0.51049497  0.62023100  0.75179565  1.0
  Si  Si1  1  0.37976900  0.89026398  0.75179565  1.0
  Si  Si2  1  0.10973602  0.48950503  0.75179565  1.0
  Si  Si3  1  0.62023100  0.51049497  0.25179565  1.0
  Si  Si4  1  0.89026398  0.37976900  0.25179565  1.0
  Si  Si5  1  0.48950503  0.10973602  0.25179565  1.0
  Si  Si6  1  0.82703329  0.06431996  0.53080259  1.0
  Si  Si7  1  0.93568004  0.76271333  0.53080259  1.0
  Si  Si8  1  0.23728667  0.17296671  0.53080259  1.0
  Si  Si9  1  0.06431996  0.82703329  0.03080259  1.0
  Si  Si10  1  0.76271333  0.93568004  0.03080259  1.0
  Si  Si11  1  0.17296671  0.23728667  0.03080259  1.0
  N  N12  1  -0.00000000  -0.00000000  0.38372256  1.0
  N  N13  1  -0.00000000  -0.00000000  -0.11627744  1.0
  N  N14  1  0.00000000  0.00000000  0.18139509  1.0
  N  N15  1  -0.00000000  -0.00000000  0.68139509  1.0
  N  N16  1  0.65972058  0.62026034  0.52042613  1.0
  N  N17  1  0.37973966  0.03946024  0.52042613  1.0
  N  N18  1  -0.03946024  0.34027942  0.52042613  1.0
  N  N19  1  0.62026034  0.65972058  0.02042613  1.0
  N  N20  1  0.03946024  0.37973966  0.02042613  1.0
  N  N21  1  0.34027942  -0.03946024  0.02042613  1.0
  N  N22  1  0.64486568  -0.05116276  0.75860308  1.0
  N  N23  1  0.05116276  0.69602844  0.75860308  1.0
  N  N24  1  0.30397156  0.35513432  0.75860308  1.0
  N  N25  1  -0.05116276  0.64486568  0.25860308  1.0
  N  N26  1  0.69602844  0.05116276  0.25860308  1.0
  N  N27  1  0.35513432  0.30397156  0.25860308  1.0
