# generated using pymatgen
data_CuF2
_symmetry_space_group_name_H-M   'P 1'
_cell_length_a   3.37390122
_cell_length_b   4.60661280
_cell_length_c   5.39086305
_cell_angle_alpha   90.00000000
_cell_angle_beta   119.82999416
_cell_angle_gamma   90.00000000
_symmetry_Int_Tables_number   1
_chemical_formula_structural   CuF2
_chemical_formula_sum   'Cu2 F4'
_cell_volume   72.68494111
_cell_formula_units_Z   2
loop_
 _symmetry_equiv_pos_site_id
 _symmetry_equiv_pos_as_xyz
  1  'x, y, z'
loop_
 _atom_site_type_symbol
 _atom_site_label
 _atom_site_symmetry_multiplicity
 _atom_site_fract_x
 _atom_site_fract_y
 _atom_site_fract_z
 _atom_site_occupancy
  Cu  Cu0  1  -0.00000000  0.50000000  0.50000000  1.0
  Cu  Cu1  1  0.00000000  -0.00000000  -0.00000000  1.0
  F  F2  1  0.74301293  0.20086629  0.20702821  1.0
  F  F3  1  0.74301293  0.29913371  0.70702821  1.0
  F  F4  1  0.25698707  0.70086629  0.29297179  1.0
  F  F5  1  0.25698707  0.79913371  0.79297179  1.0
