# generated using pymatgen
data_MgC2S2(OF)6
_symmetry_space_group_name_H-M   'P 1'
_cell_length_a   11.15746042
_cell_length_b   11.15746042
_cell_length_c   11.15746042
_cell_angle_alpha   27.05108388
_cell_angle_beta   27.05108388
_cell_angle_gamma   27.05108388
_symmetry_Int_Tables_number   1
_chemical_formula_structural   MgC2S2(OF)6
_chemical_formula_sum   'Mg1 C2 S2 O6 F6'
_cell_volume   253.41023807
_cell_formula_units_Z   1
loop_
 _symmetry_equiv_pos_site_id
 _symmetry_equiv_pos_as_xyz
  1  'x, y, z'
loop_
 _atom_site_type_symbol
 _atom_site_label
 _atom_site_symmetry_multiplicity
 _atom_site_fract_x
 _atom_site_fract_y
 _atom_site_fract_z
 _atom_site_occupancy
  Mg  Mg0  1  -0.00000000  0.00000000  -0.00000000  1.0
  C  C1  1  0.22633404  0.22633404  0.22633404  1.0
  C  C2  1  0.77366596  -0.22633404  -0.22633404  1.0
  S  S3  1  0.28446647  0.28446647  0.28446647  1.0
  S  S4  1  0.71553353  -0.28446647  -0.28446647  1.0
  O  O5  1  0.40182428  -0.06916504  -0.21894659  1.0
  O  O6  1  1.21894659  -0.40182428  0.06916504  1.0
  O  O7  1  1.06916504  0.21894659  -0.40182428  1.0
  O  O8  1  0.59817572  0.06916504  0.21894659  1.0
  O  O9  1  0.78105341  -0.59817572  -0.06916504  1.0
  O  O10  1  0.93083496  -0.21894659  -0.59817572  1.0
  F  F11  1  0.26496298  0.94707563  -0.57524685  1.0
  F  F12  1  0.57524685  -0.26496298  0.05292437  1.0
  F  F13  1  1.05292437  -0.42475315  -0.26496298  1.0
  F  F14  1  0.73503702  0.05292437  -0.42475315  1.0
  F  F15  1  0.42475315  0.26496298  -0.05292437  1.0
  F  F16  1  0.94707563  0.42475315  -0.73503702  1.0
