# generated using pymatgen
data_Sr3In4Pb
_symmetry_space_group_name_H-M   'P 1'
_cell_length_a   6.53162304
_cell_length_b   6.53162304
_cell_length_c   16.73229724
_cell_angle_alpha   90.00000000
_cell_angle_beta   90.00000000
_cell_angle_gamma   133.39575384
_symmetry_Int_Tables_number   1
_chemical_formula_structural   Sr3In4Pb
_chemical_formula_sum   'Sr6 In8 Pb2'
_cell_volume   518.69072708
_cell_formula_units_Z   2
loop_
 _symmetry_equiv_pos_site_id
 _symmetry_equiv_pos_as_xyz
  1  'x, y, z'
loop_
 _atom_site_type_symbol
 _atom_site_label
 _atom_site_symmetry_multiplicity
 _atom_site_fract_x
 _atom_site_fract_y
 _atom_site_fract_z
 _atom_site_occupancy
  Sr  Sr0  1  0.09065847  0.90934153  0.89206092  1.0
  Sr  Sr1  1  0.09065847  0.90934153  0.60793908  1.0
  Sr  Sr2  1  -0.09065847  0.09065847  0.39206092  1.0
  Sr  Sr3  1  -0.09065847  0.09065847  0.10793908  1.0
  Sr  Sr4  1  0.36062736  0.63937264  0.75000000  1.0
  Sr  Sr5  1  -0.36062736  0.36062736  0.25000000  1.0
  In  In6  1  0.20711901  0.79288099  0.40294476  1.0
  In  In7  1  0.20711901  0.79288099  0.09705524  1.0
  In  In8  1  -0.20711901  0.20711901  0.90294476  1.0
  In  In9  1  -0.20711901  0.20711901  0.59705524  1.0
  In  In10  1  0.38585661  0.61414339  0.96392229  1.0
  In  In11  1  0.38585661  0.61414339  0.53607771  1.0
  In  In12  1  -0.38585661  0.38585661  0.46392229  1.0
  In  In13  1  -0.38585661  0.38585661  0.03607771  1.0
  Pb  Pb14  1  -0.34852194  0.34852194  0.75000000  1.0
  Pb  Pb15  1  0.34852194  0.65147806  0.25000000  1.0
