# generated using pymatgen
data_Zr9(NiP2)2
_symmetry_space_group_name_H-M   'P 1'
_cell_length_a   12.05898752
_cell_length_b   12.05898752
_cell_length_c   3.68786433
_cell_angle_alpha   90.00000000
_cell_angle_beta   90.00000000
_cell_angle_gamma   90.00000000
_symmetry_Int_Tables_number   1
_chemical_formula_structural   Zr9(NiP2)2
_chemical_formula_sum   'Zr18 Ni4 P8'
_cell_volume   536.28620663
_cell_formula_units_Z   2
loop_
 _symmetry_equiv_pos_site_id
 _symmetry_equiv_pos_as_xyz
  1  'x, y, z'
loop_
 _atom_site_type_symbol
 _atom_site_label
 _atom_site_symmetry_multiplicity
 _atom_site_fract_x
 _atom_site_fract_y
 _atom_site_fract_z
 _atom_site_occupancy
  Zr  Zr0  1  0.39699411  0.68064340  0.50000000  1.0
  Zr  Zr1  1  0.89699411  0.81935660  0.50000000  1.0
  Zr  Zr2  1  0.31935660  0.39699411  0.50000000  1.0
  Zr  Zr3  1  0.81935660  0.10300589  0.50000000  1.0
  Zr  Zr4  1  0.60300589  0.31935660  0.50000000  1.0
  Zr  Zr5  1  0.10300589  0.18064340  0.50000000  1.0
  Zr  Zr6  1  0.68064340  0.60300589  0.50000000  1.0
  Zr  Zr7  1  0.18064340  0.89699411  0.50000000  1.0
  Zr  Zr8  1  0.38051969  0.11948031  0.50000000  1.0
  Zr  Zr9  1  0.88051969  0.38051969  0.50000000  1.0
  Zr  Zr10  1  0.61948031  0.88051969  0.50000000  1.0
  Zr  Zr11  1  0.11948031  0.61948031  0.50000000  1.0
  Zr  Zr12  1  0.90375126  0.59624874  0.00000000  1.0
  Zr  Zr13  1  0.40375126  0.90375126  0.00000000  1.0
  Zr  Zr14  1  0.09624874  0.40375126  0.00000000  1.0
  Zr  Zr15  1  0.59624874  0.09624874  0.00000000  1.0
  Zr  Zr16  1  0.50000000  0.50000000  0.00000000  1.0
  Zr  Zr17  1  0.00000000  0.00000000  0.00000000  1.0
  Ni  Ni18  1  0.25395729  0.24604271  0.00000000  1.0
  Ni  Ni19  1  0.75395729  0.25395729  0.00000000  1.0
  Ni  Ni20  1  0.74604271  0.75395729  0.00000000  1.0
  Ni  Ni21  1  0.24604271  0.74604271  0.00000000  1.0
  P  P22  1  0.27536113  0.55574748  0.00000000  1.0
  P  P23  1  0.77536113  0.94425252  0.00000000  1.0
  P  P24  1  0.44425252  0.27536113  0.00000000  1.0
  P  P25  1  0.94425252  0.22463887  0.00000000  1.0
  P  P26  1  0.72463887  0.44425252  0.00000000  1.0
  P  P27  1  0.22463887  0.05574748  0.00000000  1.0
  P  P28  1  0.55574748  0.72463887  0.00000000  1.0
  P  P29  1  0.05574748  0.77536113  0.00000000  1.0
