# generated using pymatgen
data_MnVHPbO5
_symmetry_space_group_name_H-M   'P 1'
_cell_length_a   7.69272779
_cell_length_b   6.25064822
_cell_length_c   9.50174549
_cell_angle_alpha   90.00000000
_cell_angle_beta   90.00000000
_cell_angle_gamma   90.00000000
_symmetry_Int_Tables_number   1
_chemical_formula_structural   MnVHPbO5
_chemical_formula_sum   'Mn4 V4 H4 Pb4 O20'
_cell_volume   456.88701597
_cell_formula_units_Z   4
loop_
 _symmetry_equiv_pos_site_id
 _symmetry_equiv_pos_as_xyz
  1  'x, y, z'
loop_
 _atom_site_type_symbol
 _atom_site_label
 _atom_site_symmetry_multiplicity
 _atom_site_fract_x
 _atom_site_fract_y
 _atom_site_fract_z
 _atom_site_occupancy
  Mn  Mn0  1  0.00000000  0.00000000  0.00000000  1.0
  Mn  Mn1  1  0.00000000  0.50000000  0.00000000  1.0
  Mn  Mn2  1  0.50000000  0.00000000  0.50000000  1.0
  Mn  Mn3  1  0.50000000  0.50000000  0.50000000  1.0
  V  V4  1  0.86824620  0.75000000  0.31461741  1.0
  V  V5  1  0.36824620  0.75000000  0.18538259  1.0
  V  V6  1  0.13175380  0.25000000  0.68538259  1.0
  V  V7  1  0.63175380  0.25000000  0.81461741  1.0
  H  H8  1  0.23179593  0.75000000  0.51870757  1.0
  H  H9  1  0.73179593  0.75000000  0.98129243  1.0
  H  H10  1  0.76820407  0.25000000  0.48129243  1.0
  H  H11  1  0.26820407  0.25000000  0.01870757  1.0
  Pb  Pb12  1  0.86411969  0.75000000  0.67682730  1.0
  Pb  Pb13  1  0.36411969  0.75000000  0.82317270  1.0
  Pb  Pb14  1  0.13588031  0.25000000  0.32317270  1.0
  Pb  Pb15  1  0.63588031  0.25000000  0.17682730  1.0
  O  O16  1  0.87804992  0.98364931  0.20973886  1.0
  O  O17  1  0.87804992  0.51635069  0.20973886  1.0
  O  O18  1  0.37804992  0.98364931  0.29026114  1.0
  O  O19  1  0.37804992  0.51635069  0.29026114  1.0
  O  O20  1  0.12195008  0.48364931  0.79026114  1.0
  O  O21  1  0.12195008  0.01635069  0.79026114  1.0
  O  O22  1  0.62195008  0.48364931  0.70973886  1.0
  O  O23  1  0.62195008  0.01635069  0.70973886  1.0
  O  O24  1  0.68629130  0.75000000  0.42825077  1.0
  O  O25  1  0.18629130  0.75000000  0.07174923  1.0
  O  O26  1  0.31370870  0.25000000  0.57174923  1.0
  O  O27  1  0.81370870  0.25000000  0.92825077  1.0
  O  O28  1  0.54119902  0.75000000  0.07747714  1.0
  O  O29  1  0.04119902  0.75000000  0.42252286  1.0
  O  O30  1  0.45880098  0.25000000  0.92252286  1.0
  O  O31  1  0.95880098  0.25000000  0.57747714  1.0
  O  O32  1  0.34610118  0.75000000  0.56810410  1.0
  O  O33  1  0.84610118  0.75000000  0.93189590  1.0
  O  O34  1  0.65389882  0.25000000  0.43189590  1.0
  O  O35  1  0.15389882  0.25000000  0.06810410  1.0
