# generated using pymatgen
data_BH6C2N5F4
_symmetry_space_group_name_H-M   'P 1'
_cell_length_a   5.62993475
_cell_length_b   9.30607555
_cell_length_c   7.49338726
_cell_angle_alpha   76.88184366
_cell_angle_beta   88.80969518
_cell_angle_gamma   86.63366475
_symmetry_Int_Tables_number   1
_chemical_formula_structural   BH6C2N5F4
_chemical_formula_sum   'B2 H12 C4 N10 F8'
_cell_volume   381.68188242
_cell_formula_units_Z   2
loop_
 _symmetry_equiv_pos_site_id
 _symmetry_equiv_pos_as_xyz
  1  'x, y, z'
loop_
 _atom_site_type_symbol
 _atom_site_label
 _atom_site_symmetry_multiplicity
 _atom_site_fract_x
 _atom_site_fract_y
 _atom_site_fract_z
 _atom_site_occupancy
  B  B0  1  -0.12081595  -0.67723307  -0.13163499  1.0
  B  B1  1  -0.87918405  -0.32276693  -0.86836501  1.0
  H  H2  1  -0.93550956  -0.04208962  -0.30908576  1.0
  H  H3  1  -0.06449044  -0.95791038  -0.69091424  1.0
  H  H4  1  -0.76774806  0.03220787  -0.16386577  1.0
  H  H5  1  -0.23225194  -1.03220787  -0.83613423  1.0
  H  H6  1  -0.31803492  -0.56717398  -0.79017168  1.0
  H  H7  1  -0.68196508  -0.43282602  -0.20982832  1.0
  H  H8  1  -0.23448619  -0.58821170  -0.56252038  1.0
  H  H9  1  -0.76551381  -0.41178830  -0.43747962  1.0
  H  H10  1  -0.44073145  -0.78639468  -0.31841371  1.0
  H  H11  1  -0.55926855  -0.21360532  -0.68158629  1.0
  H  H12  1  -0.71569977  -0.70605072  -0.84005512  1.0
  H  H13  1  -0.28430023  -0.29394928  -0.15994488  1.0
  C  C14  1  -0.72456136  -0.88018642  -0.43609529  1.0
  C  C15  1  -0.27543864  -0.11981358  -0.56390471  1.0
  C  C16  1  -0.51486752  -0.70379016  -0.60289047  1.0
  C  C17  1  -0.48513248  -0.29620984  -0.39710953  1.0
  N  N18  1  -0.81013853  -0.85722047  -0.60362388  1.0
  N  N19  1  -0.18986147  -0.14277953  -0.39637612  1.0
  N  N20  1  -0.78859740  -0.98598855  -0.29087974  1.0
  N  N21  1  -0.21140260  -0.01401145  -0.70912026  1.0
  N  N22  1  -0.35930930  -0.59895513  -0.65435077  1.0
  N  N23  1  -0.64069070  -0.40104487  -0.34564923  1.0
  N  N24  1  -0.54424710  -0.78674063  -0.43019744  1.0
  N  N25  1  -0.45575290  -0.21325937  -0.56980256  1.0
  N  N26  1  -0.67566586  -0.74702986  -0.70528586  1.0
  N  N27  1  -0.32433414  -0.25297014  -0.29471414  1.0
  F  F28  1  -0.08118134  -0.60669773  -0.31730341  1.0
  F  F29  1  -0.91881866  -0.39330227  -0.68269659  1.0
  F  F30  1  -0.90124217  -0.73147986  -0.04697948  1.0
  F  F31  1  -0.09875783  -0.26852014  -0.95302052  1.0
  F  F32  1  -0.23899725  -0.57637401  -0.03977876  1.0
  F  F33  1  -0.76100275  -0.42362599  -0.96022124  1.0
  F  F34  1  -0.26752748  -0.79890735  -0.12515196  1.0
  F  F35  1  -0.73247252  -0.20109265  -0.87484804  1.0
