# generated using pymatgen
data_LiMgH6Ir
_symmetry_space_group_name_H-M   'P 1'
_cell_length_a   6.65889841
_cell_length_b   6.65889841
_cell_length_c   6.65889841
_cell_angle_alpha   90.00000000
_cell_angle_beta   90.00000000
_cell_angle_gamma   90.00000000
_symmetry_Int_Tables_number   1
_chemical_formula_structural   LiMgH6Ir
_chemical_formula_sum   'Li4 Mg4 H24 Ir4'
_cell_volume   295.26173483
_cell_formula_units_Z   4
loop_
 _symmetry_equiv_pos_site_id
 _symmetry_equiv_pos_as_xyz
  1  'x, y, z'
loop_
 _atom_site_type_symbol
 _atom_site_label
 _atom_site_symmetry_multiplicity
 _atom_site_fract_x
 _atom_site_fract_y
 _atom_site_fract_z
 _atom_site_occupancy
  Li  Li0  1  0.50000000  0.50000000  0.50000000  1.0
  Li  Li1  1  0.50000000  0.50000000  0.00000000  1.0
  Li  Li2  1  0.50000000  0.00000000  0.50000000  1.0
  Li  Li3  1  0.00000000  0.50000000  0.50000000  1.0
  Mg  Mg4  1  0.00000000  0.00000000  0.00000000  1.0
  Mg  Mg5  1  0.00000000  0.00000000  0.50000000  1.0
  Mg  Mg6  1  0.00000000  0.50000000  0.00000000  1.0
  Mg  Mg7  1  0.50000000  0.00000000  0.00000000  1.0
  H  H8  1  0.49211319  0.24920042  0.75079958  1.0
  H  H9  1  0.24920042  0.24920042  0.50788681  1.0
  H  H10  1  0.24920042  0.49211319  0.75079958  1.0
  H  H11  1  0.49211319  0.75079958  0.24920042  1.0
  H  H12  1  0.24920042  0.75079958  0.49211319  1.0
  H  H13  1  0.24920042  0.50788681  0.24920042  1.0
  H  H14  1  0.50788681  0.24920042  0.24920042  1.0
  H  H15  1  0.75079958  0.24920042  0.49211319  1.0
  H  H16  1  0.75079958  0.49211319  0.24920042  1.0
  H  H17  1  0.50788681  0.75079958  0.75079958  1.0
  H  H18  1  0.75079958  0.75079958  0.50788681  1.0
  H  H19  1  0.75079958  0.50788681  0.75079958  1.0
  H  H20  1  0.99268833  0.74857872  0.25142128  1.0
  H  H21  1  0.74857872  0.74857872  0.00731167  1.0
  H  H22  1  0.74857872  0.99268833  0.25142128  1.0
  H  H23  1  0.99268833  0.25142128  0.74857872  1.0
  H  H24  1  0.74857872  0.25142128  0.99268833  1.0
  H  H25  1  0.74857872  0.00731167  0.74857872  1.0
  H  H26  1  0.00731167  0.74857872  0.74857872  1.0
  H  H27  1  0.25142128  0.74857872  0.99268833  1.0
  H  H28  1  0.25142128  0.99268833  0.74857872  1.0
  H  H29  1  0.00731167  0.25142128  0.25142128  1.0
  H  H30  1  0.25142128  0.25142128  0.00731167  1.0
  H  H31  1  0.25142128  0.00731167  0.25142128  1.0
  Ir  Ir32  1  0.24256079  0.24256079  0.75743921  1.0
  Ir  Ir33  1  0.24256079  0.75743921  0.24256079  1.0
  Ir  Ir34  1  0.75743921  0.24256079  0.24256079  1.0
  Ir  Ir35  1  0.75743921  0.75743921  0.75743921  1.0
