# generated using pymatgen
data_Ca2(BO2)11
_symmetry_space_group_name_H-M   'P 1'
_cell_length_a   9.91277651
_cell_length_b   6.70998392
_cell_length_c   6.62123665
_cell_angle_alpha   59.46211375
_cell_angle_beta   83.17756729
_cell_angle_gamma   83.24113192
_symmetry_Int_Tables_number   1
_chemical_formula_structural   Ca2(BO2)11
_chemical_formula_sum   'Ca2 B11 O22'
_cell_volume   375.78786008
_cell_formula_units_Z   1
loop_
 _symmetry_equiv_pos_site_id
 _symmetry_equiv_pos_as_xyz
  1  'x, y, z'
loop_
 _atom_site_type_symbol
 _atom_site_label
 _atom_site_symmetry_multiplicity
 _atom_site_fract_x
 _atom_site_fract_y
 _atom_site_fract_z
 _atom_site_occupancy
  O  O0  1  -0.01582822  0.08558517  -0.20547308  1.0
  O  O1  1  -0.05882123  0.18735268  -0.90951524  1.0
  O  O2  1  -0.33271804  0.22370481  -0.56869534  1.0
  O  O3  1  -0.30191697  0.31062135  -1.26747613  1.0
  O  O4  1  -0.05650330  0.39578284  -0.69529020  1.0
  O  O5  1  -0.34247782  0.51209748  -0.95831628  1.0
  O  O6  1  -0.35331550  0.62422846  -0.66142655  1.0
  O  O7  1  -0.02676467  0.68803429  -1.10446433  1.0
  O  O8  1  -0.30803500  0.71496525  -1.37799873  1.0
  O  O9  1  -0.06012413  0.78496641  -0.79850677  1.0
  O  O10  1  -0.31251024  0.92453066  -1.16200763  1.0
  O  O11  1  -0.03951257  0.97617715  -1.49454804  1.0
  O  O12  1  -0.56434562  0.13140013  -0.77935158  1.0
  O  O13  1  -0.72654091  0.73220936  -1.29370682  1.0
  O  O14  1  -0.63584924  0.04094720  -0.86627942  1.0
  O  O15  1  -0.59938458  0.37979662  -0.53109342  1.0
  O  O16  1  -0.77169572  0.50968754  -0.77168619  1.0
  O  O17  1  -0.82647724  0.50067351  -1.41382885  1.0
  O  O18  1  -0.85140706  0.18798939  -0.73963816  1.0
  O  O19  1  -0.51864102  0.79365356  -1.19236232  1.0
  O  O20  1  -0.51771705  0.52927661  -1.32838287  1.0
  O  O21  1  -0.84544096  0.97221010  -0.93483744  1.0
  Ca  Ca22  1  -0.30223456  0.03665865  -0.81489144  1.0
  Ca  Ca23  1  -0.06060176  0.51351452  -1.34714079  1.0
  B  B24  1  0.00737726  0.00795743  0.04080400  1.0
  B  B25  1  -0.78526552  0.07425284  -0.84379217  1.0
  B  B26  1  -0.31760088  0.14985166  -0.33454750  1.0
  B  B27  1  -0.00466079  0.19141879  -0.71231479  1.0
  B  B28  1  -0.34722721  0.46415442  -0.73344855  1.0
  B  B29  1  -0.37205868  0.54740735  -1.40768102  1.0
  B  B30  1  -0.04454718  0.61943218  -0.86738414  1.0
  B  B31  1  -0.58928067  0.68531911  -1.26904295  1.0
  B  B32  1  -0.37153625  0.73839912  -1.17332865  1.0
  B  B33  1  -0.02391058  0.92581355  -1.27245104  1.0
  B  B34  1  -0.73282607  0.45332985  -0.55039556  1.0
