# generated using pymatgen
data_V13Ni4N
_symmetry_space_group_name_H-M   'P 1'
_cell_length_a   9.26687786
_cell_length_b   9.26687786
_cell_length_c   9.26687786
_cell_angle_alpha   60.00000000
_cell_angle_beta   60.00000000
_cell_angle_gamma   60.00000000
_symmetry_Int_Tables_number   1
_chemical_formula_structural   V13Ni4N
_chemical_formula_sum   'V26 Ni8 N2'
_cell_volume   562.71088877
_cell_formula_units_Z   2
loop_
 _symmetry_equiv_pos_site_id
 _symmetry_equiv_pos_as_xyz
  1  'x, y, z'
loop_
 _atom_site_type_symbol
 _atom_site_label
 _atom_site_symmetry_multiplicity
 _atom_site_fract_x
 _atom_site_fract_y
 _atom_site_fract_z
 _atom_site_occupancy
  V  V0  1  0.96020998  -0.63465257  0.71423260  1.0
  V  V1  1  -0.03979002  0.71423260  0.36534743  1.0
  V  V2  1  -0.11534743  0.28979002  0.28979002  1.0
  V  V3  1  0.53576740  0.28979002  0.28979002  1.0
  V  V4  1  -0.63465257  0.96020998  0.71423260  1.0
  V  V5  1  0.96020998  -0.03979002  0.71423260  1.0
  V  V6  1  0.96020998  -0.28576740  0.96020998  1.0
  V  V7  1  -0.63465257  0.71423260  0.96020998  1.0
  V  V8  1  0.28979002  -0.11534743  0.28979002  1.0
  V  V9  1  0.28979002  0.28979002  -0.11534743  1.0
  V  V10  1  0.53576740  0.28979002  -0.11534743  1.0
  V  V11  1  0.53576740  -0.11534743  0.28979002  1.0
  V  V12  1  0.71423260  -0.03979002  0.96020998  1.0
  V  V13  1  -0.63465257  0.96020998  0.96020998  1.0
  V  V14  1  0.28979002  0.53576740  -0.11534743  1.0
  V  V15  1  0.28979002  -0.11534743  0.53576740  1.0
  V  V16  1  -0.28576740  0.96020998  0.36534743  1.0
  V  V17  1  0.71423260  -0.63465257  0.96020998  1.0
  V  V18  1  0.96020998  -0.63465257  0.96020998  1.0
  V  V19  1  -0.03979002  0.96020998  0.36534743  1.0
  V  V20  1  0.28979002  0.53576740  0.28979002  1.0
  V  V21  1  -0.11534743  0.53576740  0.28979002  1.0
  V  V22  1  -0.11534743  0.28979002  0.53576740  1.0
  V  V23  1  0.28979002  0.28979002  0.53576740  1.0
  V  V24  1  0.50000000  0.50000000  -0.50000000  1.0
  V  V25  1  0.75000000  -0.25000000  0.75000000  1.0
  Ni  Ni26  1  0.66705187  -0.33294813  0.99884438  1.0
  Ni  Ni27  1  0.66705187  -0.00115562  0.66705187  1.0
  Ni  Ni28  1  0.58294813  -0.41705187  0.58294813  1.0
  Ni  Ni29  1  1.25115562  -0.41705187  0.58294813  1.0
  Ni  Ni30  1  0.99884438  -0.33294813  0.66705187  1.0
  Ni  Ni31  1  0.66705187  -0.33294813  0.66705187  1.0
  Ni  Ni32  1  0.58294813  0.25115562  0.58294813  1.0
  Ni  Ni33  1  0.58294813  -0.41705187  1.25115562  1.0
  N  N34  1  -0.00000000  1.00000000  0.00000000  1.0
  N  N35  1  0.25000000  0.25000000  0.25000000  1.0
