# generated using pymatgen
data_Cd(PtO2)3
_symmetry_space_group_name_H-M   'P 1'
_cell_length_a   6.30213452
_cell_length_b   6.30213452
_cell_length_c   3.22530750
_cell_angle_alpha   90.00000000
_cell_angle_beta   90.00000000
_cell_angle_gamma   109.33213020
_symmetry_Int_Tables_number   1
_chemical_formula_structural   Cd(PtO2)3
_chemical_formula_sum   'Cd1 Pt3 O6'
_cell_volume   120.87639817
_cell_formula_units_Z   1
loop_
 _symmetry_equiv_pos_site_id
 _symmetry_equiv_pos_as_xyz
  1  'x, y, z'
loop_
 _atom_site_type_symbol
 _atom_site_label
 _atom_site_symmetry_multiplicity
 _atom_site_fract_x
 _atom_site_fract_y
 _atom_site_fract_z
 _atom_site_occupancy
  Cd  Cd0  1  0.00000000  0.00000000  0.00000000  1.0
  Pt  Pt1  1  0.00000000  1.50000000  0.50000000  1.0
  Pt  Pt2  1  0.50000000  1.00000000  0.50000000  1.0
  Pt  Pt3  1  0.50000000  0.50000000  0.00000000  1.0
  O  O4  1  -0.16516775  1.57594742  0.00000000  1.0
  O  O5  1  0.57594742  0.83483225  0.00000000  1.0
  O  O6  1  -0.57594742  1.16516775  0.00000000  1.0
  O  O7  1  0.16516775  0.42405258  0.00000000  1.0
  O  O8  1  0.16230546  0.83769454  0.50000000  1.0
  O  O9  1  -0.16230546  1.16230546  0.50000000  1.0
