# generated using pymatgen
data_Ba(AsPd)2
_symmetry_space_group_name_H-M   'P 1'
_cell_length_a   6.19311232
_cell_length_b   6.19311232
_cell_length_c   6.19311232
_cell_angle_alpha   137.09135452
_cell_angle_beta   137.09135452
_cell_angle_gamma   62.29752121
_symmetry_Int_Tables_number   1
_chemical_formula_structural   Ba(AsPd)2
_chemical_formula_sum   'Ba1 As2 Pd2'
_cell_volume   108.78370555
_cell_formula_units_Z   1
loop_
 _symmetry_equiv_pos_site_id
 _symmetry_equiv_pos_as_xyz
  1  'x, y, z'
loop_
 _atom_site_type_symbol
 _atom_site_label
 _atom_site_symmetry_multiplicity
 _atom_site_fract_x
 _atom_site_fract_y
 _atom_site_fract_z
 _atom_site_occupancy
  Ba  Ba0  1  0.00000000  0.00000000  0.00000000  1.0
  As  As1  1  0.63042809  0.63042809  1.00000000  1.0
  As  As2  1  0.36957191  0.36957191  -0.00000000  1.0
  Pd  Pd3  1  0.25000000  0.75000000  0.50000000  1.0
  Pd  Pd4  1  0.75000000  0.25000000  0.50000000  1.0
