# generated using pymatgen
data_KNaCu(Si2O5)2
_symmetry_space_group_name_H-M   'P 1'
_cell_length_a   7.02195691
_cell_length_b   10.03987758
_cell_length_c   8.46168231
_cell_angle_alpha   115.00427665
_cell_angle_beta   116.56315730
_cell_angle_gamma   79.41310927
_symmetry_Int_Tables_number   1
_chemical_formula_structural   KNaCu(Si2O5)2
_chemical_formula_sum   'K2 Na2 Cu2 Si8 O20'
_cell_volume   483.55602991
_cell_formula_units_Z   2
loop_
 _symmetry_equiv_pos_site_id
 _symmetry_equiv_pos_as_xyz
  1  'x, y, z'
loop_
 _atom_site_type_symbol
 _atom_site_label
 _atom_site_symmetry_multiplicity
 _atom_site_fract_x
 _atom_site_fract_y
 _atom_site_fract_z
 _atom_site_occupancy
  K  K0  1  -0.35960167  0.49819677  0.29973073  1.0
  K  K1  1  0.35960167  0.50180323  0.70026927  1.0
  Na  Na2  1  0.04529132  0.08749743  0.37431334  1.0
  Na  Na3  1  -0.04529132  0.91250257  0.62568666  1.0
  Cu  Cu4  1  0.47820682  0.91472956  0.65514034  1.0
  Cu  Cu5  1  -0.47820682  0.08527044  0.34485966  1.0
  Si  Si6  1  -0.72045502  0.77002364  0.10859914  1.0
  Si  Si7  1  0.72045502  0.22997636  0.89140086  1.0
  Si  Si8  1  -0.16900600  0.70205219  0.78935606  1.0
  Si  Si9  1  0.16900600  0.29794781  0.21064394  1.0
  Si  Si10  1  -0.15682367  0.35119003  0.66341666  1.0
  Si  Si11  1  0.15682367  0.64880997  0.33658334  1.0
  Si  Si12  1  -0.27570770  0.77688583  0.15137546  1.0
  Si  Si13  1  0.27570770  0.22311417  0.84862454  1.0
  O  O14  1  -0.69451319  0.93790001  0.25403196  1.0
  O  O15  1  0.69451319  0.06209999  0.74596804  1.0
  O  O16  1  0.08950615  0.73593330  0.88971723  1.0
  O  O17  1  -0.08950615  0.26406670  0.11028277  1.0
  O  O18  1  0.50721974  0.30025346  0.93252312  1.0
  O  O19  1  -0.50721974  0.69974654  0.06747688  1.0
  O  O20  1  -0.29338351  0.76943364  0.62837028  1.0
  O  O21  1  0.29338351  0.23056636  0.37162972  1.0
  O  O22  1  -0.20402996  0.52169686  0.67616986  1.0
  O  O23  1  0.20402996  0.47830314  0.32383014  1.0
  O  O24  1  0.10540342  0.33379173  0.75141514  1.0
  O  O25  1  -0.10540342  0.66620827  0.24858486  1.0
  O  O26  1  -0.76037958  0.65806021  0.18824278  1.0
  O  O27  1  0.76037958  0.34193979  0.81175722  1.0
  O  O28  1  -0.26642371  0.23905702  0.44502967  1.0
  O  O29  1  0.26642371  0.76094298  0.55497033  1.0
  O  O30  1  0.74995057  0.76262415  0.96160692  1.0
  O  O31  1  -0.74995057  0.23737585  0.03839308  1.0
  O  O32  1  -0.24901781  0.94169309  0.30836154  1.0
  O  O33  1  0.24901781  0.05830691  0.69163846  1.0
