# generated using pymatgen
data_Fe2WO6
_symmetry_space_group_name_H-M   'P 1'
_cell_length_a   4.61862325
_cell_length_b   16.84357254
_cell_length_c   4.96124818
_cell_angle_alpha   90.00000000
_cell_angle_beta   90.00000000
_cell_angle_gamma   90.00000000
_symmetry_Int_Tables_number   1
_chemical_formula_structural   Fe2WO6
_chemical_formula_sum   'Fe8 W4 O24'
_cell_volume   385.95591500
_cell_formula_units_Z   4
loop_
 _symmetry_equiv_pos_site_id
 _symmetry_equiv_pos_as_xyz
  1  'x, y, z'
loop_
 _atom_site_type_symbol
 _atom_site_label
 _atom_site_symmetry_multiplicity
 _atom_site_fract_x
 _atom_site_fract_y
 _atom_site_fract_z
 _atom_site_occupancy
  Fe  Fe0  1  0.50000000  0.05521533  0.25000000  1.0
  Fe  Fe1  1  0.50000000  0.94478467  0.75000000  1.0
  Fe  Fe2  1  0.00000000  0.55521533  0.25000000  1.0
  Fe  Fe3  1  0.00000000  0.44478467  0.75000000  1.0
  Fe  Fe4  1  0.50000000  0.72199615  0.25000000  1.0
  Fe  Fe5  1  0.50000000  0.27800385  0.75000000  1.0
  Fe  Fe6  1  0.00000000  0.22199615  0.25000000  1.0
  Fe  Fe7  1  0.00000000  0.77800385  0.75000000  1.0
  W  W8  1  0.50000000  0.38535096  0.25000000  1.0
  W  W9  1  0.50000000  0.61464904  0.75000000  1.0
  W  W10  1  0.00000000  0.88535096  0.25000000  1.0
  W  W11  1  0.00000000  0.11464904  0.75000000  1.0
  O  O12  1  0.28327640  0.29122292  0.07364563  1.0
  O  O13  1  0.28327640  0.70877708  0.57364563  1.0
  O  O14  1  0.78327640  0.79122292  0.42635437  1.0
  O  O15  1  0.78327640  0.20877708  0.92635437  1.0
  O  O16  1  0.71672360  0.29122292  0.42635437  1.0
  O  O17  1  0.71672360  0.70877708  0.92635437  1.0
  O  O18  1  0.21672360  0.79122292  0.07364563  1.0
  O  O19  1  0.21672360  0.20877708  0.57364563  1.0
  O  O20  1  0.23867768  0.45629838  0.09586753  1.0
  O  O21  1  0.23867768  0.54370162  0.59586753  1.0
  O  O22  1  0.73867768  0.95629838  0.40413247  1.0
  O  O23  1  0.73867768  0.04370162  0.90413247  1.0
  O  O24  1  0.76132232  0.45629838  0.40413247  1.0
  O  O25  1  0.76132232  0.54370162  0.90413247  1.0
  O  O26  1  0.26132232  0.95629838  0.09586753  1.0
  O  O27  1  0.26132232  0.04370162  0.59586753  1.0
  O  O28  1  0.22685072  0.12778765  0.06961419  1.0
  O  O29  1  0.22685072  0.87221235  0.56961419  1.0
  O  O30  1  0.72685072  0.62778765  0.43038581  1.0
  O  O31  1  0.72685072  0.37221235  0.93038581  1.0
  O  O32  1  0.77314928  0.12778765  0.43038581  1.0
  O  O33  1  0.77314928  0.87221235  0.93038581  1.0
  O  O34  1  0.27314928  0.62778765  0.06961419  1.0
  O  O35  1  0.27314928  0.37221235  0.56961419  1.0
