# generated using pymatgen
data_CaMgPt
_symmetry_space_group_name_H-M   'P 1'
_cell_length_a   7.32094916
_cell_length_b   4.28514817
_cell_length_c   8.43355099
_cell_angle_alpha   90.00000000
_cell_angle_beta   90.00000000
_cell_angle_gamma   90.00000000
_symmetry_Int_Tables_number   1
_chemical_formula_structural   CaMgPt
_chemical_formula_sum   'Ca4 Mg4 Pt4'
_cell_volume   264.57189558
_cell_formula_units_Z   4
loop_
 _symmetry_equiv_pos_site_id
 _symmetry_equiv_pos_as_xyz
  1  'x, y, z'
loop_
 _atom_site_type_symbol
 _atom_site_label
 _atom_site_symmetry_multiplicity
 _atom_site_fract_x
 _atom_site_fract_y
 _atom_site_fract_z
 _atom_site_occupancy
  Ca  Ca0  1  0.96952597  0.75000000  0.67506943  1.0
  Ca  Ca1  1  0.46952597  0.75000000  0.82493057  1.0
  Ca  Ca2  1  0.03047403  0.25000000  0.32493057  1.0
  Ca  Ca3  1  0.53047403  0.25000000  0.17506943  1.0
  Mg  Mg4  1  0.86008481  0.75000000  0.06312701  1.0
  Mg  Mg5  1  0.36008481  0.75000000  0.43687299  1.0
  Mg  Mg6  1  0.13991519  0.25000000  0.93687299  1.0
  Mg  Mg7  1  0.63991519  0.25000000  0.56312701  1.0
  Pt  Pt8  1  0.72982224  0.75000000  0.37591067  1.0
  Pt  Pt9  1  0.22982224  0.75000000  0.12408933  1.0
  Pt  Pt10  1  0.27017776  0.25000000  0.62408933  1.0
  Pt  Pt11  1  0.77017776  0.25000000  0.87591067  1.0
