# generated using pymatgen
data_Co3(PO4)2
_symmetry_space_group_name_H-M   'P 1'
_cell_length_a   5.08318938
_cell_length_b   8.38076329
_cell_length_c   8.84848063
_cell_angle_alpha   90.00000000
_cell_angle_beta   119.34330185
_cell_angle_gamma   90.00000000
_symmetry_Int_Tables_number   1
_chemical_formula_structural   Co3(PO4)2
_chemical_formula_sum   'Co6 P4 O16'
_cell_volume   328.59064922
_cell_formula_units_Z   2
loop_
 _symmetry_equiv_pos_site_id
 _symmetry_equiv_pos_as_xyz
  1  'x, y, z'
loop_
 _atom_site_type_symbol
 _atom_site_label
 _atom_site_symmetry_multiplicity
 _atom_site_fract_x
 _atom_site_fract_y
 _atom_site_fract_z
 _atom_site_occupancy
  Co  Co0  1  0.97986874  0.85496111  0.39116341  1.0
  Co  Co1  1  0.97986874  0.64503889  0.89116341  1.0
  Co  Co2  1  0.02013126  0.35496111  0.10883659  1.0
  Co  Co3  1  0.02013126  0.14503889  0.60883659  1.0
  Co  Co4  1  -0.00000000  0.50000000  0.50000000  1.0
  Co  Co5  1  0.00000000  -0.00000000  0.00000000  1.0
  P  P6  1  0.66461358  0.19163467  0.19986883  1.0
  P  P7  1  0.66461358  0.30836533  0.69986883  1.0
  P  P8  1  0.33538642  0.69163467  0.30013117  1.0
  P  P9  1  0.33538642  0.80836533  0.80013117  1.0
  O  O10  1  0.81489720  0.36106821  0.25369582  1.0
  O  O11  1  0.81489720  0.13893179  0.75369582  1.0
  O  O12  1  0.18510280  0.86106821  0.24630418  1.0
  O  O13  1  0.18510280  0.63893179  0.74630418  1.0
  O  O14  1  0.81548912  0.07757678  0.36042153  1.0
  O  O15  1  0.81548912  0.42242322  0.86042153  1.0
  O  O16  1  0.18451088  0.57757678  0.13957847  1.0
  O  O17  1  0.18451088  0.92242322  0.63957847  1.0
  O  O18  1  0.72789110  0.13532197  0.05362612  1.0
  O  O19  1  0.72789110  0.36467803  0.55362612  1.0
  O  O20  1  0.27210890  0.63532197  0.44637388  1.0
  O  O21  1  0.27210890  0.86467803  0.94637388  1.0
  O  O22  1  0.31885392  0.19362924  0.13293811  1.0
  O  O23  1  0.31885392  0.30637076  0.63293811  1.0
  O  O24  1  0.68114608  0.69362924  0.36706189  1.0
  O  O25  1  0.68114608  0.80637076  0.86706189  1.0
