# generated using pymatgen
data_Cd2P2O7
_symmetry_space_group_name_H-M   'P 1'
_cell_length_a   6.84103101
_cell_length_b   6.99359764
_cell_length_c   6.67877864
_cell_angle_alpha   65.23946466
_cell_angle_beta   81.36317905
_cell_angle_gamma   82.34940336
_symmetry_Int_Tables_number   1
_chemical_formula_structural   Cd2P2O7
_chemical_formula_sum   'Cd4 P4 O14'
_cell_volume   285.98983544
_cell_formula_units_Z   2
loop_
 _symmetry_equiv_pos_site_id
 _symmetry_equiv_pos_as_xyz
  1  'x, y, z'
loop_
 _atom_site_type_symbol
 _atom_site_label
 _atom_site_symmetry_multiplicity
 _atom_site_fract_x
 _atom_site_fract_y
 _atom_site_fract_z
 _atom_site_occupancy
  Cd  Cd0  1  0.16195544  0.35857402  0.71156158  1.0
  Cd  Cd1  1  0.83804456  0.64142598  0.28843842  1.0
  Cd  Cd2  1  0.66634114  0.25057451  0.11486392  1.0
  Cd  Cd3  1  0.33365886  0.74942549  0.88513608  1.0
  P  P4  1  0.16223450  0.25596195  0.22755140  1.0
  P  P5  1  0.83776550  0.74403805  0.77244860  1.0
  P  P6  1  0.63405540  0.17840347  0.64318821  1.0
  P  P7  1  0.36594460  0.82159653  0.35681179  1.0
  O  O8  1  0.01241159  0.23729099  0.08555203  1.0
  O  O9  1  0.98758841  0.76270901  0.91444797  1.0
  O  O10  1  0.07016051  0.35793148  0.38807026  1.0
  O  O11  1  0.92983949  0.64206852  0.61192974  1.0
  O  O12  1  0.24369967  0.02410222  0.39522330  1.0
  O  O13  1  0.75630033  0.97589778  0.60477670  1.0
  O  O14  1  0.25348887  0.77128118  0.20784270  1.0
  O  O15  1  0.74651113  0.22871882  0.79215730  1.0
  O  O16  1  0.33985744  0.36571546  0.06820714  1.0
  O  O17  1  0.66014256  0.63428454  0.93179286  1.0
  O  O18  1  0.41996888  0.11099702  0.73856493  1.0
  O  O19  1  0.58003112  0.88900298  0.26143507  1.0
  O  O20  1  0.63874036  0.35125407  0.40392864  1.0
  O  O21  1  0.36125964  0.64874593  0.59607136  1.0
