# generated using pymatgen
data_NbN2
_symmetry_space_group_name_H-M   'P 1'
_cell_length_a   6.54419920
_cell_length_b   6.54419920
_cell_length_c   4.20464543
_cell_angle_alpha   90.00000000
_cell_angle_beta   90.00000000
_cell_angle_gamma   37.39188860
_symmetry_Int_Tables_number   1
_chemical_formula_structural   NbN2
_chemical_formula_sum   'Nb4 N8'
_cell_volume   109.35017511
_cell_formula_units_Z   4
loop_
 _symmetry_equiv_pos_site_id
 _symmetry_equiv_pos_as_xyz
  1  'x, y, z'
loop_
 _atom_site_type_symbol
 _atom_site_label
 _atom_site_symmetry_multiplicity
 _atom_site_fract_x
 _atom_site_fract_y
 _atom_site_fract_z
 _atom_site_occupancy
  Nb  Nb0  1  -0.36797109  0.63202891  0.50000000  1.0
  Nb  Nb1  1  0.13202891  0.13202891  0.00000000  1.0
  Nb  Nb2  1  0.36797109  0.36797109  0.50000000  1.0
  Nb  Nb3  1  -0.13202891  0.86797109  0.00000000  1.0
  N  N4  1  0.19138289  0.19138289  0.50000000  1.0
  N  N5  1  -0.30861711  0.69138289  0.00000000  1.0
  N  N6  1  -0.19138289  0.80861711  0.50000000  1.0
  N  N7  1  0.30861711  0.30861711  0.00000000  1.0
  N  N8  1  -0.38718150  0.38718150  0.11104357  1.0
  N  N9  1  -0.61281850  0.61281850  0.88895643  1.0
  N  N10  1  -0.11281850  0.11281850  0.61104357  1.0
  N  N11  1  -0.88718150  0.88718150  0.38895643  1.0
