# generated using pymatgen
data_Te6Cl2O11
_symmetry_space_group_name_H-M   'P 1'
_cell_length_a   6.89185432
_cell_length_b   6.89185432
_cell_length_c   15.97796835
_cell_angle_alpha   90.00000000
_cell_angle_beta   90.00000000
_cell_angle_gamma   61.23899812
_symmetry_Int_Tables_number   1
_chemical_formula_structural   Te6Cl2O11
_chemical_formula_sum   'Te12 Cl4 O22'
_cell_volume   665.29189673
_cell_formula_units_Z   2
loop_
 _symmetry_equiv_pos_site_id
 _symmetry_equiv_pos_as_xyz
  1  'x, y, z'
loop_
 _atom_site_type_symbol
 _atom_site_label
 _atom_site_symmetry_multiplicity
 _atom_site_fract_x
 _atom_site_fract_y
 _atom_site_fract_z
 _atom_site_occupancy
  Te  Te0  1  0.19843252  0.48099100  0.41541482  1.0
  Te  Te1  1  0.19843252  0.48099100  0.08458518  1.0
  Te  Te2  1  -0.51900900  1.19843252  0.91541482  1.0
  Te  Te3  1  -0.51900900  1.19843252  0.58458518  1.0
  Te  Te4  1  0.51900900  0.80156748  0.41541482  1.0
  Te  Te5  1  0.51900900  0.80156748  0.08458518  1.0
  Te  Te6  1  -0.19843252  1.51900900  0.91541482  1.0
  Te  Te7  1  -0.19843252  1.51900900  0.58458518  1.0
  Te  Te8  1  0.08213956  0.91786044  0.85617982  1.0
  Te  Te9  1  0.08213956  0.91786044  0.64382018  1.0
  Te  Te10  1  -0.08213956  1.08213956  0.35617982  1.0
  Te  Te11  1  -0.08213956  1.08213956  0.14382018  1.0
  Cl  Cl12  1  -0.12363368  1.44291974  0.25000000  1.0
  Cl  Cl13  1  0.44291974  0.87636632  0.75000000  1.0
  Cl  Cl14  1  -0.44291974  1.12363368  0.25000000  1.0
  Cl  Cl15  1  0.12363368  0.55708026  0.75000000  1.0
  O  O16  1  -0.05766295  1.80625651  0.40571277  1.0
  O  O17  1  -0.05766295  1.80625651  0.09428723  1.0
  O  O18  1  0.80625651  0.94233705  0.90571277  1.0
  O  O19  1  0.80625651  0.94233705  0.59428723  1.0
  O  O20  1  -0.80625651  1.05766295  0.40571277  1.0
  O  O21  1  -0.80625651  1.05766295  0.09428723  1.0
  O  O22  1  0.05766295  0.19374349  0.90571277  1.0
  O  O23  1  0.05766295  0.19374349  0.59428723  1.0
  O  O24  1  -0.17851174  1.48892324  0.46093068  1.0
  O  O25  1  -0.17851174  1.48892324  0.03906932  1.0
  O  O26  1  0.48892324  0.82148826  0.96093068  1.0
  O  O27  1  0.48892324  0.82148826  0.53906932  1.0
  O  O28  1  -0.48892324  1.17851174  0.46093068  1.0
  O  O29  1  -0.48892324  1.17851174  0.03906932  1.0
  O  O30  1  0.17851174  0.51107676  0.96093068  1.0
  O  O31  1  0.17851174  0.51107676  0.53906932  1.0
  O  O32  1  0.41932724  0.58067276  0.38536289  1.0
  O  O33  1  0.41932724  0.58067276  0.11463711  1.0
  O  O34  1  -0.41932724  1.41932724  0.88536289  1.0
  O  O35  1  -0.41932724  1.41932724  0.61463711  1.0
  O  O36  1  0.07530157  0.92469843  0.25000000  1.0
  O  O37  1  -0.07530157  1.07530157  0.75000000  1.0
