# generated using pymatgen
data_TbB2Ru
_symmetry_space_group_name_H-M   'P 1'
_cell_length_a   5.88410324
_cell_length_b   5.31040607
_cell_length_c   6.35309313
_cell_angle_alpha   90.00000000
_cell_angle_beta   90.00000000
_cell_angle_gamma   90.00000000
_symmetry_Int_Tables_number   1
_chemical_formula_structural   TbB2Ru
_chemical_formula_sum   'Tb4 B8 Ru4'
_cell_volume   198.51495846
_cell_formula_units_Z   4
loop_
 _symmetry_equiv_pos_site_id
 _symmetry_equiv_pos_as_xyz
  1  'x, y, z'
loop_
 _atom_site_type_symbol
 _atom_site_label
 _atom_site_symmetry_multiplicity
 _atom_site_fract_x
 _atom_site_fract_y
 _atom_site_fract_z
 _atom_site_occupancy
  Tb  Tb0  1  0.99198269  0.75000000  0.66206166  1.0
  Tb  Tb1  1  0.49198269  0.75000000  0.83793834  1.0
  Tb  Tb2  1  0.00801731  0.25000000  0.33793834  1.0
  Tb  Tb3  1  0.50801731  0.25000000  0.16206166  1.0
  B  B4  1  0.62917163  0.91528461  0.46217036  1.0
  B  B5  1  0.62917163  0.58471539  0.46217036  1.0
  B  B6  1  0.12917163  0.91528461  0.03782964  1.0
  B  B7  1  0.12917163  0.58471539  0.03782964  1.0
  B  B8  1  0.37082837  0.41528461  0.53782964  1.0
  B  B9  1  0.37082837  0.08471539  0.53782964  1.0
  B  B10  1  0.87082837  0.41528461  0.96217036  1.0
  B  B11  1  0.87082837  0.08471539  0.96217036  1.0
  Ru  Ru12  1  0.81576932  0.75000000  0.18388166  1.0
  Ru  Ru13  1  0.31576932  0.75000000  0.31611834  1.0
  Ru  Ru14  1  0.18423068  0.25000000  0.81611834  1.0
  Ru  Ru15  1  0.68423068  0.25000000  0.68388166  1.0
