# generated using pymatgen
data_YbB2Rh5
_symmetry_space_group_name_H-M   'P 1'
_cell_length_a   2.88862536
_cell_length_b   9.00366770
_cell_length_c   5.14455469
_cell_angle_alpha   90.00000000
_cell_angle_beta   106.29900565
_cell_angle_gamma   90.00000000
_symmetry_Int_Tables_number   1
_chemical_formula_structural   YbB2Rh5
_chemical_formula_sum   'Yb1 B2 Rh5'
_cell_volume   128.42329541
_cell_formula_units_Z   1
loop_
 _symmetry_equiv_pos_site_id
 _symmetry_equiv_pos_as_xyz
  1  'x, y, z'
loop_
 _atom_site_type_symbol
 _atom_site_label
 _atom_site_symmetry_multiplicity
 _atom_site_fract_x
 _atom_site_fract_y
 _atom_site_fract_z
 _atom_site_occupancy
  Yb  Yb0  1  0.50000000  0.50000000  -0.00000000  1.0
  B  B1  1  0.50000000  0.17650622  -0.00000000  1.0
  B  B2  1  0.50000000  0.82349378  -0.00000000  1.0
  Rh  Rh3  1  -0.13891660  0.26429712  0.72189182  1.0
  Rh  Rh4  1  -0.13891660  0.73570288  0.72189182  1.0
  Rh  Rh5  1  0.13891660  0.26429712  0.27810818  1.0
  Rh  Rh6  1  0.13891660  0.73570288  0.27810818  1.0
  Rh  Rh7  1  0.00000000  0.00000000  0.00000000  1.0
