# generated using pymatgen
data_RbAsO4
_symmetry_space_group_name_H-M   'P 1'
_cell_length_a   6.62840941
_cell_length_b   6.62840941
_cell_length_c   6.62840941
_cell_angle_alpha   109.51724721
_cell_angle_beta   109.51724721
_cell_angle_gamma   109.37920664
_symmetry_Int_Tables_number   1
_chemical_formula_structural   RbAsO4
_chemical_formula_sum   'Rb2 As2 O8'
_cell_volume   224.18432616
_cell_formula_units_Z   2
loop_
 _symmetry_equiv_pos_site_id
 _symmetry_equiv_pos_as_xyz
  1  'x, y, z'
loop_
 _atom_site_type_symbol
 _atom_site_label
 _atom_site_symmetry_multiplicity
 _atom_site_fract_x
 _atom_site_fract_y
 _atom_site_fract_z
 _atom_site_occupancy
  Rb  Rb0  1  0.50000000  0.50000000  -0.00000000  1.0
  Rb  Rb1  1  1.25000000  0.75000000  0.50000000  1.0
  As  As2  1  0.00000000  0.00000000  0.00000000  1.0
  As  As3  1  0.75000000  1.25000000  0.50000000  1.0
  O  O4  1  1.03466039  0.98920317  0.74630053  1.0
  O  O5  1  0.71533961  0.96164014  0.45454278  1.0
  O  O6  1  0.73920317  1.28466039  1.24630053  1.0
  O  O7  1  1.01079683  1.75709736  1.04545722  1.0
  O  O8  1  0.50709736  0.26079683  0.54545722  1.0
  O  O9  1  1.24290264  1.28835986  1.25369947  1.0
  O  O10  1  1.71164014  0.96533961  0.95454278  1.0
  O  O11  1  1.03835986  1.49290264  0.75369947  1.0
