# generated using pymatgen
data_InHg7S6Cl5
_symmetry_space_group_name_H-M   'P 1'
_cell_length_a   11.07020362
_cell_length_b   7.66260484
_cell_length_c   14.00605514
_cell_angle_alpha   104.34616870
_cell_angle_beta   111.51696155
_cell_angle_gamma   89.11025107
_symmetry_Int_Tables_number   1
_chemical_formula_structural   InHg7S6Cl5
_chemical_formula_sum   'In2 Hg14 S12 Cl10'
_cell_volume   1067.07146384
_cell_formula_units_Z   2
loop_
 _symmetry_equiv_pos_site_id
 _symmetry_equiv_pos_as_xyz
  1  'x, y, z'
loop_
 _atom_site_type_symbol
 _atom_site_label
 _atom_site_symmetry_multiplicity
 _atom_site_fract_x
 _atom_site_fract_y
 _atom_site_fract_z
 _atom_site_occupancy
  In  In0  1  0.35368837  0.07217570  0.67713600  1.0
  In  In1  1  0.64631163  -0.07217570  0.32286400  1.0
  Hg  Hg2  1  0.89736384  0.13483287  0.66391030  1.0
  Hg  Hg3  1  0.10263616  -0.13483287  0.33608970  1.0
  Hg  Hg4  1  0.46596994  -0.66009574  0.22512317  1.0
  Hg  Hg5  1  0.53403006  0.66009574  0.77487683  1.0
  Hg  Hg6  1  0.50000000  -0.50000000  -0.00000000  1.0
  Hg  Hg7  1  0.00000000  0.50000000  0.50000000  1.0
  Hg  Hg8  1  0.21989079  0.12617271  0.94405106  1.0
  Hg  Hg9  1  0.78010921  -0.12617271  0.05594894  1.0
  Hg  Hg10  1  0.60657965  -0.18446823  0.57214741  1.0
  Hg  Hg11  1  0.39342035  0.18446823  0.42785259  1.0
  Hg  Hg12  1  0.88739355  0.20915877  0.94350554  1.0
  Hg  Hg13  1  0.11260645  -0.20915877  0.05649446  1.0
  Hg  Hg14  1  0.95444810  -0.64666874  0.22617368  1.0
  Hg  Hg15  1  0.04555190  0.64666874  0.77382632  1.0
  S  S16  1  1.01301620  0.29226175  0.85237419  1.0
  S  S17  1  -0.01301620  -0.29226175  0.14762581  1.0
  S  S18  1  0.65758060  0.57505414  0.93478138  1.0
  S  S19  1  0.34241940  -0.57505414  0.06521862  1.0
  S  S20  1  0.89040603  0.46682600  0.61190893  1.0
  S  S21  1  0.10959397  -0.46682600  0.38809107  1.0
  S  S22  1  0.77939157  -0.79988949  0.06419128  1.0
  S  S23  1  0.22060843  0.79988949  0.93580872  1.0
  S  S24  1  0.77637874  -0.11830933  0.51776187  1.0
  S  S25  1  0.22362126  0.11830933  0.48223813  1.0
  S  S26  1  0.42495094  -0.26625317  0.60979660  1.0
  S  S27  1  0.57504906  0.26625317  0.39020340  1.0
  Cl  Cl28  1  0.56294468  0.20895636  0.67331443  1.0
  Cl  Cl29  1  0.43705532  -0.20895636  0.32668557  1.0
  Cl  Cl30  1  0.45679290  0.05082963  0.86713614  1.0
  Cl  Cl31  1  0.54320710  -0.05082963  0.13286386  1.0
  Cl  Cl32  1  0.13835204  -0.07860977  0.65816250  1.0
  Cl  Cl33  1  0.86164796  0.07860977  0.34183750  1.0
  Cl  Cl34  1  0.70566366  -0.39071831  0.25511680  1.0
  Cl  Cl35  1  0.29433634  0.39071831  0.74488320  1.0
  Cl  Cl36  1  0.83228389  -0.16502894  0.83950824  1.0
  Cl  Cl37  1  0.16771611  0.16502894  0.16049176  1.0
