# generated using pymatgen
data_B5H7
_symmetry_space_group_name_H-M   'P 1'
_cell_length_a   13.72523181
_cell_length_b   5.87495874
_cell_length_c   15.35888871
_cell_angle_alpha   90.00000000
_cell_angle_beta   123.78624264
_cell_angle_gamma   90.00000000
_symmetry_Int_Tables_number   1
_chemical_formula_structural   B5H7
_chemical_formula_sum   'B40 H56'
_cell_volume   1029.31191592
_cell_formula_units_Z   8
loop_
 _symmetry_equiv_pos_site_id
 _symmetry_equiv_pos_as_xyz
  1  'x, y, z'
loop_
 _atom_site_type_symbol
 _atom_site_label
 _atom_site_symmetry_multiplicity
 _atom_site_fract_x
 _atom_site_fract_y
 _atom_site_fract_z
 _atom_site_occupancy
  B  B0  1  0.95777800  0.33608536  0.13695437  1.0
  B  B1  1  0.95777800  0.66391464  0.63695437  1.0
  B  B2  1  0.04222200  0.33608536  0.36304563  1.0
  B  B3  1  0.04222200  0.66391464  0.86304563  1.0
  B  B4  1  0.94959505  0.62477498  0.11477940  1.0
  B  B5  1  0.94959505  0.37522502  0.61477940  1.0
  B  B6  1  0.05040495  0.62477498  0.38522060  1.0
  B  B7  1  0.05040495  0.37522502  0.88522060  1.0
  B  B8  1  0.92643062  0.27276566  0.23202479  1.0
  B  B9  1  0.92643062  0.72723434  0.73202479  1.0
  B  B10  1  0.07356938  0.27276566  0.26797521  1.0
  B  B11  1  0.07356938  0.72723434  0.76797521  1.0
  B  B12  1  0.91039411  0.50120039  0.29599894  1.0
  B  B13  1  0.91039411  0.49879961  0.79599894  1.0
  B  B14  1  0.08960589  0.50120039  0.20400106  1.0
  B  B15  1  0.08960589  0.49879961  0.70400106  1.0
  B  B16  1  0.85485921  0.50168604  0.14686502  1.0
  B  B17  1  0.85485921  0.49831396  0.64686502  1.0
  B  B18  1  0.14514079  0.50168604  0.35313498  1.0
  B  B19  1  0.14514079  0.49831396  0.85313498  1.0
  B  B20  1  0.64539808  -0.00060917  0.79181421  1.0
  B  B21  1  0.64539808  0.00060917  0.29181421  1.0
  B  B22  1  0.35460192  -0.00060917  0.70818579  1.0
  B  B23  1  0.35460192  0.00060917  0.20818579  1.0
  B  B24  1  0.58895121  -0.00035516  0.88502271  1.0
  B  B25  1  0.58895121  0.00035516  0.38502271  1.0
  B  B26  1  0.41104879  -0.00035516  0.61497729  1.0
  B  B27  1  0.41104879  0.00035516  0.11497729  1.0
  B  B28  1  0.57343291  0.22824599  0.80537678  1.0
  B  B29  1  0.57343291  0.77175401  0.30537678  1.0
  B  B30  1  0.42656709  0.22824599  0.69462322  1.0
  B  B31  1  0.42656709  0.77175401  0.19462322  1.0
  B  B32  1  0.55124442  0.12376708  0.16546668  1.0
  B  B33  1  0.55124442  0.87623292  0.66546668  1.0
  B  B34  1  0.44875558  0.12376708  0.33453332  1.0
  B  B35  1  0.44875558  0.87623292  0.83453332  1.0
  B  B36  1  0.54285674  0.16490895  0.67941227  1.0
  B  B37  1  0.54285674  0.83509105  0.17941227  1.0
  B  B38  1  0.45714326  0.16490895  0.82058773  1.0
  B  B39  1  0.45714326  0.83509105  0.32058773  1.0
  H  H40  1  0.94787227  0.71375554  0.30781075  1.0
  H  H41  1  0.94787227  0.28624446  0.80781075  1.0
  H  H42  1  0.05212773  0.71375554  0.19218925  1.0
  H  H43  1  0.05212773  0.28624446  0.69218925  1.0
  H  H44  1  0.93190975  0.20583550  0.06793102  1.0
  H  H45  1  0.93190975  0.79416450  0.56793102  1.0
  H  H46  1  0.06809025  0.20583550  0.43206898  1.0
  H  H47  1  0.06809025  0.79416450  0.93206898  1.0
  H  H48  1  0.92079913  0.27015615  0.53790592  1.0
  H  H49  1  0.92079913  0.72984385  0.03790592  1.0
  H  H50  1  0.07920087  0.27015615  0.96209408  1.0
  H  H51  1  0.07920087  0.72984385  0.46209408  1.0
  H  H52  1  0.89069689  0.71396377  0.15320993  1.0
  H  H53  1  0.89069689  0.28603623  0.65320993  1.0
  H  H54  1  0.10930311  0.71396377  0.34679007  1.0
  H  H55  1  0.10930311  0.28603623  0.84679007  1.0
  H  H56  1  0.86483552  0.11290792  0.21693389  1.0
  H  H57  1  0.86483552  0.88709208  0.71693389  1.0
  H  H58  1  0.13516448  0.11290792  0.28306611  1.0
  H  H59  1  0.13516448  0.88709208  0.78306611  1.0
  H  H60  1  0.83726214  0.50872309  0.31483405  1.0
  H  H61  1  0.83726214  0.49127691  0.81483405  1.0
  H  H62  1  0.16273786  0.50872309  0.18516595  1.0
  H  H63  1  0.16273786  0.49127691  0.68516595  1.0
  H  H64  1  0.74875378  -0.00844451  0.83307729  1.0
  H  H65  1  0.74875378  0.00844451  0.33307729  1.0
  H  H66  1  0.25124622  -0.00844451  0.66692271  1.0
  H  H67  1  0.25124622  0.00844451  0.16692271  1.0
  H  H68  1  0.75158212  0.50968185  0.08504527  1.0
  H  H69  1  0.75158212  0.49031815  0.58504527  1.0
  H  H70  1  0.24841788  0.50968185  0.41495473  1.0
  H  H71  1  0.24841788  0.49031815  0.91495473  1.0
  H  H72  1  0.66165409  0.00755867  0.47664810  1.0
  H  H73  1  0.66165409  -0.00755867  -0.02335190  1.0
  H  H74  1  0.33834591  0.00755867  1.02335190  1.0
  H  H75  1  0.33834591  -0.00755867  0.52335190  1.0
  H  H76  1  0.63498051  0.38797896  0.85175604  1.0
  H  H77  1  0.63498051  0.61202104  0.35175604  1.0
  H  H78  1  0.36501949  0.38797896  0.64824396  1.0
  H  H79  1  0.36501949  0.61202104  0.14824396  1.0
  H  H80  1  0.60986112  0.21295551  0.26241902  1.0
  H  H81  1  0.60986112  0.78704449  0.76241902  1.0
  H  H82  1  0.39013888  0.21295551  0.23758098  1.0
  H  H83  1  0.39013888  0.78704449  0.73758098  1.0
  H  H84  1  0.58041082  0.22874824  0.11747662  1.0
  H  H85  1  0.58041082  0.77125176  0.61747662  1.0
  H  H86  1  0.41958918  0.22874824  0.38252338  1.0
  H  H87  1  0.41958918  0.77125176  0.88252338  1.0
  H  H88  1  0.56905763  0.29518109  0.63634872  1.0
  H  H89  1  0.56905763  0.70481891  0.13634872  1.0
  H  H90  1  0.43094237  0.29518109  0.86365128  1.0
  H  H91  1  0.43094237  0.70481891  0.36365128  1.0
  H  H92  1  0.44859491  0.21278869  0.14068034  1.0
  H  H93  1  0.44859491  0.78721131  0.64068034  1.0
  H  H94  1  0.55140509  0.21278869  0.35931966  1.0
  H  H95  1  0.55140509  0.78721131  0.85931966  1.0
