# generated using pymatgen
data_Cs2LiLa(BO3)2
_symmetry_space_group_name_H-M   'P 1'
_cell_length_a   7.39740801
_cell_length_b   10.16887374
_cell_length_c   10.49024255
_cell_angle_alpha   90.00000000
_cell_angle_beta   90.00000000
_cell_angle_gamma   90.00000000
_symmetry_Int_Tables_number   1
_chemical_formula_structural   Cs2LiLa(BO3)2
_chemical_formula_sum   'Cs8 Li4 La4 B8 O24'
_cell_volume   789.11074711
_cell_formula_units_Z   4
loop_
 _symmetry_equiv_pos_site_id
 _symmetry_equiv_pos_as_xyz
  1  'x, y, z'
loop_
 _atom_site_type_symbol
 _atom_site_label
 _atom_site_symmetry_multiplicity
 _atom_site_fract_x
 _atom_site_fract_y
 _atom_site_fract_z
 _atom_site_occupancy
  Cs  Cs0  1  0.22741149  0.07578396  0.44664026  1.0
  Cs  Cs1  1  0.77258851  0.92421604  0.94664026  1.0
  Cs  Cs2  1  0.77258851  0.57578396  0.05335974  1.0
  Cs  Cs3  1  0.22741149  0.42421604  0.55335974  1.0
  Cs  Cs4  1  0.77258851  0.92421604  0.55335974  1.0
  Cs  Cs5  1  0.22741149  0.07578396  0.05335974  1.0
  Cs  Cs6  1  0.22741149  0.42421604  0.94664026  1.0
  Cs  Cs7  1  0.77258851  0.57578396  0.44664026  1.0
  Li  Li8  1  0.05922209  0.33719853  0.25000000  1.0
  Li  Li9  1  0.94077791  0.66280147  0.75000000  1.0
  Li  Li10  1  0.94077791  0.83719853  0.25000000  1.0
  Li  Li11  1  0.05922209  0.16280147  0.75000000  1.0
  La  La12  1  0.64772097  0.22555827  0.25000000  1.0
  La  La13  1  0.35227903  0.77444173  0.75000000  1.0
  La  La14  1  0.35227903  0.72555827  0.25000000  1.0
  La  La15  1  0.64772097  0.27444173  0.75000000  1.0
  B  B16  1  0.82026270  0.25000000  -0.00000000  1.0
  B  B17  1  0.17973730  0.75000000  0.50000000  1.0
  B  B18  1  0.17973730  0.75000000  0.00000000  1.0
  B  B19  1  0.82026270  0.25000000  0.50000000  1.0
  B  B20  1  0.65040389  0.92855076  0.25000000  1.0
  B  B21  1  0.34959611  0.07144924  0.75000000  1.0
  B  B22  1  0.34959611  0.42855076  0.25000000  1.0
  B  B23  1  0.65040389  0.57144924  0.75000000  1.0
  O  O24  1  0.47936109  0.98362486  0.25000000  1.0
  O  O25  1  0.52063891  0.01637514  0.75000000  1.0
  O  O26  1  0.52063891  0.48362486  0.25000000  1.0
  O  O27  1  0.47936109  0.51637514  0.75000000  1.0
  O  O28  1  0.32580009  0.29240490  0.25000000  1.0
  O  O29  1  0.67419991  0.70759510  0.75000000  1.0
  O  O30  1  0.67419991  0.79240490  0.25000000  1.0
  O  O31  1  0.32580009  0.20759510  0.75000000  1.0
  O  O32  1  0.63078331  0.25000000  0.50000000  1.0
  O  O33  1  0.36921669  0.75000000  0.00000000  1.0
  O  O34  1  0.36921669  0.75000000  0.50000000  1.0
  O  O35  1  0.63078331  0.25000000  0.00000000  1.0
  O  O36  1  0.90853931  0.28842696  0.11025868  1.0
  O  O37  1  0.09146069  0.71157304  0.61025868  1.0
  O  O38  1  0.09146069  0.78842696  0.38974132  1.0
  O  O39  1  0.90853931  0.21157304  0.88974132  1.0
  O  O40  1  0.09146069  0.71157304  0.88974132  1.0
  O  O41  1  0.90853931  0.28842696  0.38974132  1.0
  O  O42  1  0.90853931  0.21157304  0.61025868  1.0
  O  O43  1  0.09146069  0.78842696  0.11025868  1.0
  O  O44  1  0.80223534  0.00910430  0.25000000  1.0
  O  O45  1  0.19776466  0.99089570  0.75000000  1.0
  O  O46  1  0.19776466  0.50910430  0.25000000  1.0
  O  O47  1  0.80223534  0.49089570  0.75000000  1.0
