# generated using pymatgen
data_Y3ScO6
_symmetry_space_group_name_H-M   'P 1'
_cell_length_a   6.59552120
_cell_length_b   6.59552120
_cell_length_c   6.59552120
_cell_angle_alpha   91.97590404
_cell_angle_beta   91.97590404
_cell_angle_gamma   91.97590403
_symmetry_Int_Tables_number   1
_chemical_formula_structural   Y3ScO6
_chemical_formula_sum   'Y6 Sc2 O12'
_cell_volume   286.38724296
_cell_formula_units_Z   2
loop_
 _symmetry_equiv_pos_site_id
 _symmetry_equiv_pos_as_xyz
  1  'x, y, z'
loop_
 _atom_site_type_symbol
 _atom_site_label
 _atom_site_symmetry_multiplicity
 _atom_site_fract_x
 _atom_site_fract_y
 _atom_site_fract_z
 _atom_site_occupancy
  Y  Y0  1  0.75280955  0.56814972  0.06071836  1.0
  Y  Y1  1  1.43185028  -0.06071836  0.24719045  1.0
  Y  Y2  1  0.93928164  0.24719045  0.43185028  1.0
  Y  Y3  1  1.24719045  0.43185028  -0.06071836  1.0
  Y  Y4  1  0.56814972  1.06071836  -0.24719045  1.0
  Y  Y5  1  1.06071836  0.75280955  -0.43185028  1.0
  Sc  Sc6  1  0.50000000  0.50000000  0.50000000  1.0
  Sc  Sc7  1  0.00000000  0.00000000  0.00000000  1.0
  O  O8  1  1.56899861  0.41470295  -0.19345227  1.0
  O  O9  1  0.58529705  1.19345227  -0.56899861  1.0
  O  O10  1  1.19345227  0.43100139  -0.41470295  1.0
  O  O11  1  0.43100139  0.58529705  0.19345227  1.0
  O  O12  1  1.41470295  -0.19345227  0.56899861  1.0
  O  O13  1  0.80654773  0.56899861  0.41470295  1.0
  O  O14  1  0.69354488  0.90695977  0.03729162  1.0
  O  O15  1  1.09304023  -0.03729162  0.30645512  1.0
  O  O16  1  0.96270838  0.30645512  0.09304023  1.0
  O  O17  1  1.30645512  0.09304023  -0.03729162  1.0
  O  O18  1  0.90695977  1.03729162  -0.30645512  1.0
  O  O19  1  1.03729162  0.69354488  -0.09304023  1.0
