# generated using pymatgen
data_EuN
_symmetry_space_group_name_H-M   'P 1'
_cell_length_a   8.21624739
_cell_length_b   8.21624739
_cell_length_c   8.21624739
_cell_angle_alpha   127.28428360
_cell_angle_beta   127.28428360
_cell_angle_gamma   77.78736382
_symmetry_Int_Tables_number   1
_chemical_formula_structural   EuN
_chemical_formula_sum   'Eu8 N8'
_cell_volume   340.37208686
_cell_formula_units_Z   8
loop_
 _symmetry_equiv_pos_site_id
 _symmetry_equiv_pos_as_xyz
  1  'x, y, z'
loop_
 _atom_site_type_symbol
 _atom_site_label
 _atom_site_symmetry_multiplicity
 _atom_site_fract_x
 _atom_site_fract_y
 _atom_site_fract_z
 _atom_site_occupancy
  Eu  Eu0  1  1.08356866  0.35818524  0.72538341  1.0
  Eu  Eu1  1  1.11719817  0.89181476  1.22538341  1.0
  Eu  Eu2  1  0.63280183  0.35818524  0.27461659  1.0
  Eu  Eu3  1  0.66643134  0.89181476  0.77461659  1.0
  Eu  Eu4  1  0.64181476  0.36719817  0.72538341  1.0
  Eu  Eu5  1  0.10818524  0.33356866  0.22538341  1.0
  Eu  Eu6  1  0.64181476  0.91643134  1.27461659  1.0
  Eu  Eu7  1  0.10818524  0.88280183  0.77461659  1.0
  N  N8  1  0.93296961  0.17887395  0.75409566  1.0
  N  N9  1  0.32522171  0.07112605  0.25409566  1.0
  N  N10  1  0.42477829  0.17887395  0.24590434  1.0
  N  N11  1  0.81703039  0.07112605  0.74590434  1.0
  N  N12  1  0.82112605  0.57522171  0.75409566  1.0
  N  N13  1  0.92887395  1.18296961  1.25409566  1.0
  N  N14  1  0.82112605  1.06703039  1.24590434  1.0
  N  N15  1  0.92887395  0.67477829  0.74590434  1.0
