# generated using pymatgen
data_KMnO3
_symmetry_space_group_name_H-M   'P 1'
_cell_length_a   7.34598505
_cell_length_b   11.79560133
_cell_length_c   9.74873251
_cell_angle_alpha   90.00000000
_cell_angle_beta   90.00000000
_cell_angle_gamma   90.00000000
_symmetry_Int_Tables_number   1
_chemical_formula_structural   KMnO3
_chemical_formula_sum   'K8 Mn8 O24'
_cell_volume   844.73070434
_cell_formula_units_Z   8
loop_
 _symmetry_equiv_pos_site_id
 _symmetry_equiv_pos_as_xyz
  1  'x, y, z'
loop_
 _atom_site_type_symbol
 _atom_site_label
 _atom_site_symmetry_multiplicity
 _atom_site_fract_x
 _atom_site_fract_y
 _atom_site_fract_z
 _atom_site_occupancy
  K  K0  1  0.38145977  0.03847122  0.31698807  1.0
  K  K1  1  0.11854023  0.96152878  0.81698807  1.0
  K  K2  1  0.88145977  0.46152878  0.18301193  1.0
  K  K3  1  0.61854023  0.53847122  0.68301193  1.0
  K  K4  1  0.61854023  0.96152878  0.68301193  1.0
  K  K5  1  0.88145977  0.03847122  0.18301193  1.0
  K  K6  1  0.11854023  0.53847122  0.81698807  1.0
  K  K7  1  0.38145977  0.46152878  0.31698807  1.0
  Mn  Mn8  1  0.88951726  0.15202966  0.51112227  1.0
  Mn  Mn9  1  0.61048274  0.84797034  1.01112227  1.0
  Mn  Mn10  1  0.38951726  0.34797034  -0.01112227  1.0
  Mn  Mn11  1  0.11048274  0.65202966  0.48887773  1.0
  Mn  Mn12  1  0.11048274  0.84797034  0.48887773  1.0
  Mn  Mn13  1  0.38951726  0.15202966  -0.01112227  1.0
  Mn  Mn14  1  0.61048274  0.65202966  1.01112227  1.0
  Mn  Mn15  1  0.88951726  0.34797034  0.51112227  1.0
  O  O16  1  0.91323970  0.11872508  0.67010924  1.0
  O  O17  1  0.58676030  0.88127492  0.17010924  1.0
  O  O18  1  0.41323970  0.38127492  0.82989076  1.0
  O  O19  1  0.08676030  0.61872508  0.32989076  1.0
  O  O20  1  0.08676030  0.88127492  0.32989076  1.0
  O  O21  1  0.41323970  0.11872508  0.82989076  1.0
  O  O22  1  0.58676030  0.61872508  0.17010924  1.0
  O  O23  1  0.91323970  0.38127492  0.67010924  1.0
  O  O24  1  0.69609217  0.11439608  0.44277359  1.0
  O  O25  1  0.80390783  0.88560392  0.94277359  1.0
  O  O26  1  0.19609217  0.38560392  0.05722641  1.0
  O  O27  1  0.30390783  0.61439608  0.55722641  1.0
  O  O28  1  0.30390783  0.88560392  0.55722641  1.0
  O  O29  1  0.19609217  0.11439608  0.05722641  1.0
  O  O30  1  0.80390783  0.61439608  0.94277359  1.0
  O  O31  1  0.69609217  0.38560392  0.44277359  1.0
  O  O32  1  1.06168663  0.36976233  0.41095343  1.0
  O  O33  1  0.43831337  0.63023767  0.91095343  1.0
  O  O34  1  0.56168663  0.13023767  0.08904657  1.0
  O  O35  1  -0.06168663  0.86976233  0.58904657  1.0
  O  O36  1  -0.06168663  0.63023767  0.58904657  1.0
  O  O37  1  0.56168663  0.36976233  0.08904657  1.0
  O  O38  1  0.43831337  0.86976233  0.91095343  1.0
  O  O39  1  1.06168663  0.13023767  0.41095343  1.0
