# generated using pymatgen
data_Fe3(PO6)2
_symmetry_space_group_name_H-M   'P 1'
_cell_length_a   8.12249992
_cell_length_b   4.63065509
_cell_length_c   10.92330257
_cell_angle_alpha   90.00000000
_cell_angle_beta   105.82999565
_cell_angle_gamma   90.00000000
_symmetry_Int_Tables_number   1
_chemical_formula_structural   Fe3(PO6)2
_chemical_formula_sum   'Fe6 P4 O24'
_cell_volume   395.27121259
_cell_formula_units_Z   2
loop_
 _symmetry_equiv_pos_site_id
 _symmetry_equiv_pos_as_xyz
  1  'x, y, z'
loop_
 _atom_site_type_symbol
 _atom_site_label
 _atom_site_symmetry_multiplicity
 _atom_site_fract_x
 _atom_site_fract_y
 _atom_site_fract_z
 _atom_site_occupancy
  Fe  Fe0  1  0.64172921  0.35094725  0.30175061  1.0
  Fe  Fe1  1  0.64172921  0.14905275  0.80175061  1.0
  Fe  Fe2  1  0.35827079  0.85094725  0.19824939  1.0
  Fe  Fe3  1  0.35827079  0.64905275  0.69824939  1.0
  Fe  Fe4  1  -0.00000000  0.50000000  0.50000000  1.0
  Fe  Fe5  1  0.00000000  0.00000000  0.00000000  1.0
  O  O6  1  0.92219955  0.25436565  0.10817618  1.0
  O  O7  1  0.92219955  0.24563435  0.60817618  1.0
  O  O8  1  0.07780045  0.75436565  0.39182382  1.0
  O  O9  1  0.07780045  0.74563435  0.89182382  1.0
  O  O10  1  0.62260115  0.19516727  0.45579746  1.0
  O  O11  1  0.62260115  0.30483273  0.95579746  1.0
  O  O12  1  0.37739885  0.69516727  0.04420254  1.0
  O  O13  1  0.37739885  0.80483273  0.54420254  1.0
  O  O14  1  0.53116068  0.08507484  0.20207015  1.0
  O  O15  1  0.53116068  0.41492516  0.70207015  1.0
  O  O16  1  0.46883932  0.58507484  0.29792985  1.0
  O  O17  1  0.46883932  0.91492516  0.79792985  1.0
  O  O18  1  0.86503646  0.31635625  0.36266161  1.0
  O  O19  1  0.86503646  0.18364375  0.86266161  1.0
  O  O20  1  0.13496354  0.81635625  0.13733839  1.0
  O  O21  1  0.13496354  0.68364375  0.63733839  1.0
  O  O22  1  0.81367259  0.75704103  0.49141820  1.0
  O  O23  1  0.81367259  0.74295897  0.99141820  1.0
  O  O24  1  0.18632741  0.25704103  0.00858180  1.0
  O  O25  1  0.18632741  0.24295897  0.50858180  1.0
  O  O26  1  0.30231035  0.06266363  0.33219988  1.0
  O  O27  1  0.30231035  0.43733637  0.83219988  1.0
  O  O28  1  0.69768965  0.56266363  0.16780012  1.0
  O  O29  1  0.69768965  0.93733637  0.66780012  1.0
  P  P30  1  0.23088852  -0.03377257  0.44323786  1.0
  P  P31  1  0.23088852  0.53377257  0.94323786  1.0
  P  P32  1  0.76911148  0.46622743  0.05676214  1.0
  P  P33  1  0.76911148  1.03377257  0.55676214  1.0
