# generated using pymatgen
data_NiH20PtC4(NO3)4
_symmetry_space_group_name_H-M   'P 1'
_cell_length_a   9.12578501
_cell_length_b   9.12578501
_cell_length_c   9.12578501
_cell_angle_alpha   132.76172281
_cell_angle_beta   133.44972320
_cell_angle_gamma   68.48968203
_symmetry_Int_Tables_number   1
_chemical_formula_structural   NiH20PtC4(NO3)4
_chemical_formula_sum   'Ni1 H20 Pt1 C4 N4 O12'
_cell_volume   397.84749418
_cell_formula_units_Z   1
loop_
 _symmetry_equiv_pos_site_id
 _symmetry_equiv_pos_as_xyz
  1  'x, y, z'
loop_
 _atom_site_type_symbol
 _atom_site_label
 _atom_site_symmetry_multiplicity
 _atom_site_fract_x
 _atom_site_fract_y
 _atom_site_fract_z
 _atom_site_occupancy
  Ni  Ni0  1  0.00000000  0.00000000  0.00000000  1.0
  H  H1  1  0.70341433  0.30616619  0.38410132  1.0
  H  H2  1  0.29658567  0.68068699  0.60275186  1.0
  H  H3  1  1.07793514  0.69383381  1.39724814  1.0
  H  H4  1  0.92206486  1.31931301  1.61589868  1.0
  H  H5  1  0.47341852  0.29231564  0.59420433  1.0
  H  H6  1  0.52658148  1.12078581  0.81889712  1.0
  H  H7  1  1.30188870  0.70768436  1.18110288  1.0
  H  H8  1  0.69811130  0.87921419  1.40579567  1.0
  H  H9  1  0.51862440  0.68403962  0.39577363  1.0
  H  H10  1  0.48137560  0.87714923  1.16541522  1.0
  H  H11  1  0.71173401  0.31596038  0.83458478  1.0
  H  H12  1  1.28826599  1.12285077  1.60422637  1.0
  H  H13  1  0.63323093  0.51000661  0.82958569  1.0
  H  H14  1  0.36676907  1.19635476  0.87677568  1.0
  H  H15  1  1.31957908  0.48999339  1.12322432  1.0
  H  H16  1  0.68042092  0.80364524  1.17041431  1.0
  H  H17  1  0.05640742  0.69900889  0.64696496  1.0
  H  H18  1  0.94359258  0.59055753  0.64260146  1.0
  H  H19  1  0.94795607  1.30099111  1.35739854  1.0
  H  H20  1  1.05204393  0.40944247  1.35303504  1.0
  Pt  Pt21  1  0.50000000  0.50000000  1.00000000  1.0
  C  C22  1  0.28834159  1.17261477  1.10093920  1.0
  C  C23  1  0.71165841  0.81259760  0.88427317  1.0
  C  C24  1  0.92832443  0.82738523  1.11572683  1.0
  C  C25  1  1.07167557  0.18740240  0.89906080  1.0
  N  N26  1  0.59061865  0.39154577  0.79246961  1.0
  N  N27  1  1.40938135  1.20185096  1.80092713  1.0
  N  N28  1  0.40092383  0.60845423  0.19907287  1.0
  N  N29  1  0.59907617  0.79814904  1.20753039  1.0
  O  O30  1  0.44038550  1.23238864  1.16545752  1.0
  O  O31  1  0.55961450  0.72507203  0.79200314  1.0
  O  O32  1  0.93306889  0.76761136  1.20799686  1.0
  O  O33  1  1.06693111  0.27492797  0.83454248  1.0
  O  O34  1  0.70805587  0.89102319  0.80739047  1.0
  O  O35  1  0.29194413  1.09933460  1.18296732  1.0
  O  O36  1  0.91636728  0.10897681  0.81703268  1.0
  O  O37  1  1.08363272  0.90066540  1.19260953  1.0
  O  O38  1  0.85262217  0.35262217  0.50000000  1.0
  O  O39  1  0.14737783  0.64737783  0.50000000  1.0
  O  O40  1  0.00000000  0.27892357  0.27892357  1.0
  O  O41  1  0.00000000  0.72107643  0.72107643  1.0
