# generated using pymatgen
data_B2Mo(PbO2)6
_symmetry_space_group_name_H-M   'P 1'
_cell_length_a   9.93985750
_cell_length_b   9.93985750
_cell_length_c   12.11554762
_cell_angle_alpha   90.00000000
_cell_angle_beta   90.00000000
_cell_angle_gamma   37.82529199
_symmetry_Int_Tables_number   1
_chemical_formula_structural   B2Mo(PbO2)6
_chemical_formula_sum   'B4 Mo2 Pb12 O24'
_cell_volume   734.08275712
_cell_formula_units_Z   2
loop_
 _symmetry_equiv_pos_site_id
 _symmetry_equiv_pos_as_xyz
  1  'x, y, z'
loop_
 _atom_site_type_symbol
 _atom_site_label
 _atom_site_symmetry_multiplicity
 _atom_site_fract_x
 _atom_site_fract_y
 _atom_site_fract_z
 _atom_site_occupancy
  B  B0  1  -0.24607645  0.75392355  0.00000000  1.0
  B  B1  1  -0.24607645  0.75392355  0.50000000  1.0
  B  B2  1  0.24607645  0.24607645  0.00000000  1.0
  B  B3  1  0.24607645  0.24607645  0.50000000  1.0
  Mo  Mo4  1  -0.76989916  0.76989916  0.75000000  1.0
  Mo  Mo5  1  -0.23010084  0.23010084  0.25000000  1.0
  Pb  Pb6  1  -0.15108821  0.36796151  0.90507630  1.0
  Pb  Pb7  1  -0.15108821  0.36796151  0.59492370  1.0
  Pb  Pb8  1  -0.63203849  0.84891179  0.40507630  1.0
  Pb  Pb9  1  -0.63203849  0.84891179  0.09492370  1.0
  Pb  Pb10  1  -0.36796151  1.15108821  0.90507630  1.0
  Pb  Pb11  1  -0.36796151  1.15108821  0.59492370  1.0
  Pb  Pb12  1  0.15108821  0.63203849  0.40507630  1.0
  Pb  Pb13  1  0.15108821  0.63203849  0.09492370  1.0
  Pb  Pb14  1  -0.00697255  0.58868052  0.75000000  1.0
  Pb  Pb15  1  -0.41131948  0.99302745  0.25000000  1.0
  Pb  Pb16  1  -0.58868052  1.00697255  0.75000000  1.0
  Pb  Pb17  1  0.00697255  0.41131948  0.25000000  1.0
  O  O18  1  -0.22821330  0.66394368  0.90467206  1.0
  O  O19  1  -0.22821330  0.66394368  0.59532794  1.0
  O  O20  1  -0.33605632  0.77178670  0.40467206  1.0
  O  O21  1  -0.33605632  0.77178670  0.09532794  1.0
  O  O22  1  -0.66394368  1.22821330  0.90467206  1.0
  O  O23  1  -0.66394368  1.22821330  0.59532794  1.0
  O  O24  1  0.22821330  0.33605632  0.40467206  1.0
  O  O25  1  0.22821330  0.33605632  0.09532794  1.0
  O  O26  1  0.31886566  0.52734636  0.75000000  1.0
  O  O27  1  -0.47265364  1.31886566  0.25000000  1.0
  O  O28  1  -0.52734636  0.68113434  0.75000000  1.0
  O  O29  1  -0.31886566  0.47265364  0.25000000  1.0
  O  O30  1  0.01971072  0.28902778  0.75000000  1.0
  O  O31  1  -0.71097222  1.01971072  0.25000000  1.0
  O  O32  1  -0.28902778  0.98028928  0.75000000  1.0
  O  O33  1  -0.01971072  0.71097222  0.25000000  1.0
  O  O34  1  -0.93073471  0.93073471  0.86922021  1.0
  O  O35  1  -0.93073471  0.93073471  0.63077979  1.0
  O  O36  1  -0.06926529  0.06926529  0.36922021  1.0
  O  O37  1  -0.06926529  0.06926529  0.13077979  1.0
  O  O38  1  -0.17153310  0.82846690  0.00000000  1.0
  O  O39  1  -0.17153310  0.82846690  0.50000000  1.0
  O  O40  1  0.17153310  0.17153310  0.00000000  1.0
  O  O41  1  0.17153310  0.17153310  0.50000000  1.0
