# generated using pymatgen
data_La4Ru
_symmetry_space_group_name_H-M   'P 1'
_cell_length_a   7.94696213
_cell_length_b   7.94696213
_cell_length_c   7.94696213
_cell_angle_alpha   60.00000000
_cell_angle_beta   60.00000000
_cell_angle_gamma   60.00000000
_symmetry_Int_Tables_number   1
_chemical_formula_structural   La4Ru
_chemical_formula_sum   'La8 Ru2'
_cell_volume   354.88564453
_cell_formula_units_Z   2
loop_
 _symmetry_equiv_pos_site_id
 _symmetry_equiv_pos_as_xyz
  1  'x, y, z'
loop_
 _atom_site_type_symbol
 _atom_site_label
 _atom_site_symmetry_multiplicity
 _atom_site_fract_x
 _atom_site_fract_y
 _atom_site_fract_z
 _atom_site_occupancy
  La  La0  1  -0.11495491  0.88504509  0.34486474  1.0
  La  La1  1  0.88504509  -0.65513526  0.88504509  1.0
  La  La2  1  0.36495491  0.36495491  0.36495491  1.0
  La  La3  1  -0.09486474  0.36495491  0.36495491  1.0
  La  La4  1  -0.65513526  0.88504509  0.88504509  1.0
  La  La5  1  0.88504509  -0.11495491  0.88504509  1.0
  La  La6  1  0.36495491  -0.09486474  0.36495491  1.0
  La  La7  1  0.36495491  0.36495491  -0.09486474  1.0
  Ru  Ru8  1  0.50000000  0.50000000  -0.50000000  1.0
  Ru  Ru9  1  0.75000000  -0.25000000  0.75000000  1.0
