# generated using pymatgen
data_Na2IO6
_symmetry_space_group_name_H-M   'P 1'
_cell_length_a   4.47776266
_cell_length_b   5.26518801
_cell_length_c   10.60023065
_cell_angle_alpha   90.00000000
_cell_angle_beta   90.00000000
_cell_angle_gamma   90.00000000
_symmetry_Int_Tables_number   1
_chemical_formula_structural   Na2IO6
_chemical_formula_sum   'Na4 I2 O12'
_cell_volume   249.91381788
_cell_formula_units_Z   2
loop_
 _symmetry_equiv_pos_site_id
 _symmetry_equiv_pos_as_xyz
  1  'x, y, z'
loop_
 _atom_site_type_symbol
 _atom_site_label
 _atom_site_symmetry_multiplicity
 _atom_site_fract_x
 _atom_site_fract_y
 _atom_site_fract_z
 _atom_site_occupancy
  Na  Na0  1  0.50000000  0.50000000  0.16566145  1.0
  Na  Na1  1  0.50000000  0.50000000  0.83433855  1.0
  Na  Na2  1  0.00000000  0.00000000  0.66566145  1.0
  Na  Na3  1  0.00000000  0.00000000  0.33433855  1.0
  I  I4  1  0.50000000  0.50000000  0.50000000  1.0
  I  I5  1  0.00000000  0.00000000  0.00000000  1.0
  O  O6  1  0.27521681  0.90392656  0.13595211  1.0
  O  O7  1  0.27521681  0.90392656  0.86404789  1.0
  O  O8  1  0.77521681  0.59607344  0.63595211  1.0
  O  O9  1  0.77521681  0.59607344  0.36404789  1.0
  O  O10  1  0.72478319  0.09607344  0.13595211  1.0
  O  O11  1  0.72478319  0.09607344  0.86404789  1.0
  O  O12  1  0.22478319  0.40392656  0.63595211  1.0
  O  O13  1  0.22478319  0.40392656  0.36404789  1.0
  O  O14  1  0.33133074  0.84499547  0.50000000  1.0
  O  O15  1  0.83133074  0.65500453  0.00000000  1.0
  O  O16  1  0.66866926  0.15500453  0.50000000  1.0
  O  O17  1  0.16866926  0.34499547  0.00000000  1.0
