# generated using pymatgen
data_CaP2H2O7
_symmetry_space_group_name_H-M   'P 1'
_cell_length_a   5.51816968
_cell_length_b   5.51816968
_cell_length_c   9.96790051
_cell_angle_alpha   82.93279421
_cell_angle_beta   97.06720579
_cell_angle_gamma   84.97995283
_symmetry_Int_Tables_number   1
_chemical_formula_structural   CaP2H2O7
_chemical_formula_sum   'Ca2 P4 H4 O14'
_cell_volume   297.30214278
_cell_formula_units_Z   2
loop_
 _symmetry_equiv_pos_site_id
 _symmetry_equiv_pos_as_xyz
  1  'x, y, z'
loop_
 _atom_site_type_symbol
 _atom_site_label
 _atom_site_symmetry_multiplicity
 _atom_site_fract_x
 _atom_site_fract_y
 _atom_site_fract_z
 _atom_site_occupancy
  Ca  Ca0  1  -0.00000000  0.00000000  0.50000000  1.0
  Ca  Ca1  1  -0.00000000  0.00000000  -0.00000000  1.0
  P  P2  1  0.45179131  -0.21733300  0.30851652  1.0
  P  P3  1  1.21733300  0.54820869  0.80851652  1.0
  P  P4  1  0.78266700  -0.54820869  0.19148348  1.0
  P  P5  1  1.54820869  0.21733300  0.69148348  1.0
  H  H6  1  1.51023174  0.08182961  0.15207299  1.0
  H  H7  1  0.91817039  -0.51023174  0.65207299  1.0
  H  H8  1  1.08182961  0.51023174  0.34792701  1.0
  H  H9  1  0.48976826  -0.08182961  0.84792701  1.0
  O  O10  1  0.66749829  -0.14099982  0.39417913  1.0
  O  O11  1  1.14099982  0.33250171  0.89417913  1.0
  O  O12  1  0.85900018  -0.33250171  0.10582087  1.0
  O  O13  1  1.33250171  0.14099982  0.60582087  1.0
  O  O14  1  1.73685873  0.22263262  0.12540929  1.0
  O  O15  1  0.77736738  -0.73685873  0.62540929  1.0
  O  O16  1  1.22263262  0.73685873  0.37459071  1.0
  O  O17  1  0.26314127  -0.22263262  0.87459071  1.0
  O  O18  1  0.36943317  -0.02092790  0.17384031  1.0
  O  O19  1  1.02092790  0.63056683  0.67384031  1.0
  O  O20  1  0.97907210  -0.63056683  0.32615969  1.0
  O  O21  1  1.63056683  0.02092790  0.82615969  1.0
  O  O22  1  0.52710862  -0.47289138  0.25000000  1.0
  O  O23  1  1.47289138  0.47289138  0.75000000  1.0
