# generated using pymatgen
data_CsSc3(CuTe3)2
_symmetry_space_group_name_H-M   'P 1'
_cell_length_a   9.21536150
_cell_length_b   9.21536150
_cell_length_c   10.40404097
_cell_angle_alpha   67.40848469
_cell_angle_beta   112.59151531
_cell_angle_gamma   153.72968906
_symmetry_Int_Tables_number   1
_chemical_formula_structural   CsSc3(CuTe3)2
_chemical_formula_sum   'Cs1 Sc3 Cu2 Te6'
_cell_volume   359.34796169
_cell_formula_units_Z   1
loop_
 _symmetry_equiv_pos_site_id
 _symmetry_equiv_pos_as_xyz
  1  'x, y, z'
loop_
 _atom_site_type_symbol
 _atom_site_label
 _atom_site_symmetry_multiplicity
 _atom_site_fract_x
 _atom_site_fract_y
 _atom_site_fract_z
 _atom_site_occupancy
  Cs  Cs0  1  0.00000000  0.00000000  0.00000000  1.0
  Sc  Sc1  1  0.71086963  0.28913037  0.63408231  1.0
  Sc  Sc2  1  0.28913037  -0.28913037  0.36591769  1.0
  Sc  Sc3  1  0.00000000  -0.00000000  0.50000000  1.0
  Cu  Cu4  1  0.72470055  0.27529945  0.91567955  1.0
  Cu  Cu5  1  0.27529945  -0.27529945  0.08432045  1.0
  Te  Te6  1  0.85912437  0.14087563  0.57577989  1.0
  Te  Te7  1  0.14087563  -0.14087563  0.42422011  1.0
  Te  Te8  1  0.57242907  0.42757093  0.71206321  1.0
  Te  Te9  1  0.42757093  -0.42757093  0.28793679  1.0
  Te  Te10  1  0.29773155  -0.29773155  0.84952882  1.0
  Te  Te11  1  0.70226845  0.29773155  0.15047118  1.0
