# generated using pymatgen
data_Fe(SiO3)2
_symmetry_space_group_name_H-M   'P 1'
_cell_length_a   5.18451734
_cell_length_b   5.18451734
_cell_length_c   10.29183426
_cell_angle_alpha   87.84511084
_cell_angle_beta   92.15488916
_cell_angle_gamma   61.02992570
_symmetry_Int_Tables_number   1
_chemical_formula_structural   Fe(SiO3)2
_chemical_formula_sum   'Fe2 Si4 O12'
_cell_volume   241.35722663
_cell_formula_units_Z   2
loop_
 _symmetry_equiv_pos_site_id
 _symmetry_equiv_pos_as_xyz
  1  'x, y, z'
loop_
 _atom_site_type_symbol
 _atom_site_label
 _atom_site_symmetry_multiplicity
 _atom_site_fract_x
 _atom_site_fract_y
 _atom_site_fract_z
 _atom_site_occupancy
  O  O0  1  1.62421528  -0.00523853  0.10422361  1.0
  O  O1  1  1.00523853  -0.62421528  0.10422361  1.0
  O  O2  1  0.99476147  0.62421528  0.89577639  1.0
  O  O3  1  0.37578472  0.00523853  0.89577639  1.0
  O  O4  1  0.89291594  -0.89291594  0.30851477  1.0
  O  O5  1  0.10708406  -0.10708406  0.69148523  1.0
  O  O6  1  0.80325791  -0.34930590  0.32431560  1.0
  O  O7  1  1.34930590  0.19674209  0.32431560  1.0
  O  O8  1  0.65069410  -0.19674209  0.67568440  1.0
  O  O9  1  1.19674209  0.34930590  0.67568440  1.0
  O  O10  1  0.39102801  -0.39102801  0.09068803  1.0
  O  O11  1  0.60897199  -0.60897199  0.90931197  1.0
  Si  Si12  1  1.66698350  -0.01036587  0.26548917  1.0
  Si  Si13  1  1.01036587  -0.66698350  0.26548917  1.0
  Si  Si14  1  0.98963413  0.66698350  0.73451083  1.0
  Si  Si15  1  0.33301650  0.01036587  0.73451083  1.0
  Fe  Fe16  1  0.65619375  -0.34380625  0.00000000  1.0
  Fe  Fe17  1  1.34380625  0.34380625  0.00000000  1.0
