# generated using pymatgen
data_Tl2Sn2S3
_symmetry_space_group_name_H-M   'P 1'
_cell_length_a   8.39997954
_cell_length_b   8.39997954
_cell_length_c   7.19222012
_cell_angle_alpha   75.45551706
_cell_angle_beta   104.54448294
_cell_angle_gamma   121.67103445
_symmetry_Int_Tables_number   1
_chemical_formula_structural   Tl2Sn2S3
_chemical_formula_sum   'Tl4 Sn4 S6'
_cell_volume   413.65830680
_cell_formula_units_Z   2
loop_
 _symmetry_equiv_pos_site_id
 _symmetry_equiv_pos_as_xyz
  1  'x, y, z'
loop_
 _atom_site_type_symbol
 _atom_site_label
 _atom_site_symmetry_multiplicity
 _atom_site_fract_x
 _atom_site_fract_y
 _atom_site_fract_z
 _atom_site_occupancy
  Tl  Tl0  1  0.76925774  0.02046079  0.98708774  1.0
  Tl  Tl1  1  0.97953921  0.23074226  0.48708774  1.0
  Tl  Tl2  1  1.02046079  0.76925774  0.51291226  1.0
  Tl  Tl3  1  0.23074226  -0.02046079  0.01291226  1.0
  Sn  Sn4  1  0.49513519  0.26022143  0.46007006  1.0
  Sn  Sn5  1  0.73977857  0.50486481  0.96007006  1.0
  Sn  Sn6  1  1.26022143  0.49513519  0.03992994  1.0
  Sn  Sn7  1  0.50486481  -0.26022143  0.53992994  1.0
  S  S8  1  0.63742394  0.19110764  0.19145860  1.0
  S  S9  1  0.80889236  0.36257606  0.69145860  1.0
  S  S10  1  1.19110764  0.63742394  0.30854140  1.0
  S  S11  1  0.36257606  -0.19110764  0.80854140  1.0
  S  S12  1  0.59354355  0.59354355  0.25000000  1.0
  S  S13  1  0.40645645  0.40645645  0.75000000  1.0
