# generated using pymatgen
data_Sr2LiBr5
_symmetry_space_group_name_H-M   'P 1'
_cell_length_a   9.24292049
_cell_length_b   8.50327446
_cell_length_c   13.46483629
_cell_angle_alpha   90.00000000
_cell_angle_beta   90.54935797
_cell_angle_gamma   90.00000000
_symmetry_Int_Tables_number   1
_chemical_formula_structural   Sr2LiBr5
_chemical_formula_sum   'Sr8 Li4 Br20'
_cell_volume   1058.22137254
_cell_formula_units_Z   4
loop_
 _symmetry_equiv_pos_site_id
 _symmetry_equiv_pos_as_xyz
  1  'x, y, z'
loop_
 _atom_site_type_symbol
 _atom_site_label
 _atom_site_symmetry_multiplicity
 _atom_site_fract_x
 _atom_site_fract_y
 _atom_site_fract_z
 _atom_site_occupancy
  Sr  Sr0  1  0.99814973  0.48737519  0.17579851  1.0
  Sr  Sr1  1  0.99814973  0.01262481  0.67579851  1.0
  Sr  Sr2  1  0.00185027  0.98737519  0.32420149  1.0
  Sr  Sr3  1  0.00185027  0.51262481  0.82420149  1.0
  Sr  Sr4  1  0.75416990  0.41487046  0.49328327  1.0
  Sr  Sr5  1  0.75416990  0.08512954  0.99328327  1.0
  Sr  Sr6  1  0.24583010  0.91487046  0.00671673  1.0
  Sr  Sr7  1  0.24583010  0.58512954  0.50671673  1.0
  Li  Li8  1  0.51621961  0.65780386  0.26041309  1.0
  Li  Li9  1  0.51621961  -0.15780386  0.76041309  1.0
  Li  Li10  1  0.48378039  1.15780386  0.23958691  1.0
  Li  Li11  1  0.48378039  0.34219614  0.73958691  1.0
  Br  Br12  1  0.95133643  0.84666643  0.10272253  1.0
  Br  Br13  1  0.95133643  0.65333357  0.60272253  1.0
  Br  Br14  1  0.04866357  0.34666643  0.39727747  1.0
  Br  Br15  1  0.04866357  0.15333357  0.89727747  1.0
  Br  Br16  1  0.78310060  0.04822979  0.49449818  1.0
  Br  Br17  1  0.78310060  0.45177021  0.99449818  1.0
  Br  Br18  1  0.21689940  0.54822979  0.00550182  1.0
  Br  Br19  1  0.21689940  0.95177021  0.50550182  1.0
  Br  Br20  1  0.78263711  0.67290884  0.32299421  1.0
  Br  Br21  1  0.78263711  0.82709116  0.82299421  1.0
  Br  Br22  1  0.21736289  0.17290884  0.17700579  1.0
  Br  Br23  1  0.21736289  0.32709116  0.67700579  1.0
  Br  Br24  1  0.76902749  0.20814223  0.21685857  1.0
  Br  Br25  1  0.76902749  0.29185777  0.71685857  1.0
  Br  Br26  1  0.23097251  0.70814223  0.28314143  1.0
  Br  Br27  1  0.23097251  0.79185777  0.78314143  1.0
  Br  Br28  1  0.47178869  0.39011551  0.37197968  1.0
  Br  Br29  1  0.47178869  0.10988449  0.87197968  1.0
  Br  Br30  1  0.52821131  0.89011551  0.12802032  1.0
  Br  Br31  1  0.52821131  0.60988449  0.62802032  1.0
