# generated using pymatgen
data_ZrAlPt
_symmetry_space_group_name_H-M   'P 1'
_cell_length_a   7.16114789
_cell_length_b   7.16114789
_cell_length_c   7.25917003
_cell_angle_alpha   90.00000000
_cell_angle_beta   90.00000000
_cell_angle_gamma   120.00000000
_symmetry_Int_Tables_number   1
_chemical_formula_structural   ZrAlPt
_chemical_formula_sum   'Zr6 Al6 Pt6'
_cell_volume   322.39098278
_cell_formula_units_Z   6
loop_
 _symmetry_equiv_pos_site_id
 _symmetry_equiv_pos_as_xyz
  1  'x, y, z'
loop_
 _atom_site_type_symbol
 _atom_site_label
 _atom_site_symmetry_multiplicity
 _atom_site_fract_x
 _atom_site_fract_y
 _atom_site_fract_z
 _atom_site_occupancy
  Zr  Zr0  1  0.98118433  0.58823612  0.25000000  1.0
  Zr  Zr1  1  0.58823612  0.98118433  0.75000000  1.0
  Zr  Zr2  1  0.60705179  0.01881567  0.25000000  1.0
  Zr  Zr3  1  0.41176388  0.39294821  0.25000000  1.0
  Zr  Zr4  1  0.01881567  0.60705179  0.75000000  1.0
  Zr  Zr5  1  0.39294821  0.41176388  0.75000000  1.0
  Al  Al6  1  0.74089474  0.74089474  0.50000000  1.0
  Al  Al7  1  0.74089474  0.74089474  0.00000000  1.0
  Al  Al8  1  0.00000000  0.25910526  0.50000000  1.0
  Al  Al9  1  0.00000000  0.25910526  0.00000000  1.0
  Al  Al10  1  0.25910526  0.00000000  0.50000000  1.0
  Al  Al11  1  0.25910526  0.00000000  0.00000000  1.0
  Pt  Pt12  1  0.33333333  0.66666667  0.47373867  1.0
  Pt  Pt13  1  0.33333333  0.66666667  0.02626133  1.0
  Pt  Pt14  1  0.66666667  0.33333333  0.97373867  1.0
  Pt  Pt15  1  0.66666667  0.33333333  0.52626133  1.0
  Pt  Pt16  1  0.00000000  0.00000000  0.25000000  1.0
  Pt  Pt17  1  0.00000000  0.00000000  0.75000000  1.0
