# generated using pymatgen
data_C4SeBr4
_symmetry_space_group_name_H-M   'P 1'
_cell_length_a   15.58193331
_cell_length_b   5.08553459
_cell_length_c   14.01793822
_cell_angle_alpha   90.00000000
_cell_angle_beta   97.27700099
_cell_angle_gamma   90.00000000
_symmetry_Int_Tables_number   1
_chemical_formula_structural   C4SeBr4
_chemical_formula_sum   'C16 Se4 Br16'
_cell_volume   1101.86870620
_cell_formula_units_Z   4
loop_
 _symmetry_equiv_pos_site_id
 _symmetry_equiv_pos_as_xyz
  1  'x, y, z'
loop_
 _atom_site_type_symbol
 _atom_site_label
 _atom_site_symmetry_multiplicity
 _atom_site_fract_x
 _atom_site_fract_y
 _atom_site_fract_z
 _atom_site_occupancy
  C  C0  1  0.84580956  0.57340851  0.87702260  1.0
  C  C1  1  0.84580956  0.92659149  0.37702260  1.0
  C  C2  1  0.15419044  0.07340851  0.62297740  1.0
  C  C3  1  0.15419044  0.42659149  0.12297740  1.0
  C  C4  1  0.77676245  0.45887626  0.82258264  1.0
  C  C5  1  0.77676245  0.04112374  0.32258264  1.0
  C  C6  1  0.22323755  0.95887626  0.67741736  1.0
  C  C7  1  0.22323755  0.54112374  0.17741736  1.0
  C  C8  1  0.69931175  0.62550371  0.94426776  1.0
  C  C9  1  0.69931175  0.87449629  0.44426776  1.0
  C  C10  1  0.30068825  0.12550371  0.55573224  1.0
  C  C11  1  0.30068825  0.37449629  0.05573224  1.0
  C  C12  1  0.69522245  0.48788268  0.85990388  1.0
  C  C13  1  0.69522245  0.01211732  0.35990388  1.0
  C  C14  1  0.30477755  0.98788268  0.64009612  1.0
  C  C15  1  0.30477755  0.51211732  0.14009612  1.0
  Se  Se16  1  0.81298917  0.76193235  0.48727054  1.0
  Se  Se17  1  0.81298917  0.73806765  -0.01272946  1.0
  Se  Se18  1  0.18701083  0.26193235  1.01272946  1.0
  Se  Se19  1  0.18701083  0.23806765  0.51272946  1.0
  Br  Br20  1  0.96085715  0.58581467  0.85147203  1.0
  Br  Br21  1  0.96085715  0.91418533  0.35147203  1.0
  Br  Br22  1  0.03914285  0.08581467  0.64852797  1.0
  Br  Br23  1  0.03914285  0.41418533  0.14852797  1.0
  Br  Br24  1  0.78710094  0.27554925  0.70716315  1.0
  Br  Br25  1  0.78710094  0.22445075  0.20716315  1.0
  Br  Br26  1  0.21289906  0.77554925  0.79283685  1.0
  Br  Br27  1  0.21289906  0.72445075  0.29283685  1.0
  Br  Br28  1  0.60877888  0.79554542  0.51534241  1.0
  Br  Br29  1  0.60877888  0.70445458  0.01534241  1.0
  Br  Br30  1  0.39122112  0.29554542  0.98465759  1.0
  Br  Br31  1  0.39122112  0.20445458  0.48465759  1.0
  Br  Br32  1  0.40899662  0.84588945  0.70307939  1.0
  Br  Br33  1  0.40899662  0.65411055  0.20307939  1.0
  Br  Br34  1  0.59100338  0.34588945  0.79692061  1.0
  Br  Br35  1  0.59100338  0.15411055  0.29692061  1.0
