# generated using pymatgen
data_Ca2VP3H4O13
_symmetry_space_group_name_H-M   'P 1'
_cell_length_a   8.70511674
_cell_length_b   8.70511674
_cell_length_c   9.18937295
_cell_angle_alpha   80.29845421
_cell_angle_beta   99.70154579
_cell_angle_gamma   51.38585083
_symmetry_Int_Tables_number   1
_chemical_formula_structural   Ca2VP3H4O13
_chemical_formula_sum   'Ca4 V2 P6 H8 O26'
_cell_volume   501.32928975
_cell_formula_units_Z   2
loop_
 _symmetry_equiv_pos_site_id
 _symmetry_equiv_pos_as_xyz
  1  'x, y, z'
loop_
 _atom_site_type_symbol
 _atom_site_label
 _atom_site_symmetry_multiplicity
 _atom_site_fract_x
 _atom_site_fract_y
 _atom_site_fract_z
 _atom_site_occupancy
  Ca  Ca0  1  0.71887449  0.26290850  0.43711618  1.0
  Ca  Ca1  1  0.73709150  -0.71887449  0.93711618  1.0
  Ca  Ca2  1  1.26290850  -0.28112551  0.06288382  1.0
  Ca  Ca3  1  0.28112551  -0.26290850  0.56288382  1.0
  V  V4  1  0.50000000  0.00000000  0.50000000  1.0
  V  V5  1  1.00000000  -0.50000000  0.00000000  1.0
  P  P6  1  0.48312125  -0.17795377  0.85067052  1.0
  P  P7  1  1.17795377  -0.48312125  0.35067052  1.0
  P  P8  1  0.82204623  -0.51687875  0.64932948  1.0
  P  P9  1  0.51687875  0.17795377  0.14932948  1.0
  P  P10  1  0.89578449  -0.10421551  0.75000000  1.0
  P  P11  1  0.10421551  0.10421551  0.25000000  1.0
  H  H12  1  0.31355540  0.08066076  0.95304698  1.0
  H  H13  1  0.91933924  -0.31355540  0.45304698  1.0
  H  H14  1  1.08066076  -0.68644460  0.54695302  1.0
  H  H15  1  0.68644460  -0.08066076  0.04695302  1.0
  H  H16  1  0.44400102  0.28638977  0.71129325  1.0
  H  H17  1  0.71361023  -0.44400102  0.21129325  1.0
  H  H18  1  1.28638977  -0.55599898  0.78870675  1.0
  H  H19  1  0.55599898  -0.28638977  0.28870675  1.0
  O  O20  1  0.68747190  -0.23802803  0.95035427  1.0
  O  O21  1  1.23802803  -0.68747190  0.45035427  1.0
  O  O22  1  0.76197197  -0.31252810  0.54964573  1.0
  O  O23  1  0.31252810  0.23802803  0.04964573  1.0
  O  O24  1  0.91599641  -0.01299113  0.87336325  1.0
  O  O25  1  1.01299113  -0.91599641  0.37336325  1.0
  O  O26  1  0.98700887  -0.08400359  0.62663675  1.0
  O  O27  1  0.08400359  0.01299113  0.12663675  1.0
  O  O28  1  0.47452498  -0.35199200  0.88289910  1.0
  O  O29  1  1.35199200  -0.47452498  0.38289910  1.0
  O  O30  1  0.64800800  -0.52547502  0.61710090  1.0
  O  O31  1  0.52547502  0.35199200  0.11710090  1.0
  O  O32  1  0.65496061  0.03009004  0.65834025  1.0
  O  O33  1  0.96990996  -0.65496061  0.15834025  1.0
  O  O34  1  1.03009004  -0.34503939  0.84165975  1.0
  O  O35  1  0.34503939  -0.03009004  0.34165975  1.0
  O  O36  1  0.42405590  -0.09067406  0.66958274  1.0
  O  O37  1  1.09067406  -0.42405590  0.16958274  1.0
  O  O38  1  0.90932594  -0.57594410  0.83041726  1.0
  O  O39  1  0.57594410  0.09067406  0.33041726  1.0
  O  O40  1  0.30300964  -0.01057959  0.90823149  1.0
  O  O41  1  1.01057959  -0.30300964  0.40823149  1.0
  O  O42  1  0.98942041  -0.69699036  0.59176851  1.0
  O  O43  1  0.69699036  0.01057959  0.09176851  1.0
  O  O44  1  0.40163454  0.40163454  0.75000000  1.0
  O  O45  1  0.59836546  -0.40163454  0.25000000  1.0
