# generated using pymatgen
data_CeScSi
_symmetry_space_group_name_H-M   'P 1'
_cell_length_a   8.54480776
_cell_length_b   8.54480776
_cell_length_c   8.54480776
_cell_angle_alpha   152.76766812
_cell_angle_beta   152.76766812
_cell_angle_gamma   38.89329915
_symmetry_Int_Tables_number   1
_chemical_formula_structural   CeScSi
_chemical_formula_sum   'Ce2 Sc2 Si2'
_cell_volume   130.41562728
_cell_formula_units_Z   2
loop_
 _symmetry_equiv_pos_site_id
 _symmetry_equiv_pos_as_xyz
  1  'x, y, z'
loop_
 _atom_site_type_symbol
 _atom_site_label
 _atom_site_symmetry_multiplicity
 _atom_site_fract_x
 _atom_site_fract_y
 _atom_site_fract_z
 _atom_site_occupancy
  Ce  Ce0  1  0.50000000  -0.00000000  0.50000000  1.0
  Ce  Ce1  1  0.00000000  0.50000000  0.50000000  1.0
  Sc  Sc2  1  0.81817642  0.81817642  1.00000000  1.0
  Sc  Sc3  1  0.18182358  0.18182358  -0.00000000  1.0
  Si  Si4  1  0.64571826  0.64571826  1.00000000  1.0
  Si  Si5  1  0.35428174  0.35428174  -0.00000000  1.0
