# generated using pymatgen
data_CeGeBi2
_symmetry_space_group_name_H-M   'P 1'
_cell_length_a   10.70622107
_cell_length_b   10.70622107
_cell_length_c   10.70622107
_cell_angle_alpha   155.00654944
_cell_angle_beta   155.00654944
_cell_angle_gamma   35.63822844
_symmetry_Int_Tables_number   1
_chemical_formula_structural   CeGeBi2
_chemical_formula_sum   'Ce2 Ge2 Bi4'
_cell_volume   218.81020990
_cell_formula_units_Z   2
loop_
 _symmetry_equiv_pos_site_id
 _symmetry_equiv_pos_as_xyz
  1  'x, y, z'
loop_
 _atom_site_type_symbol
 _atom_site_label
 _atom_site_symmetry_multiplicity
 _atom_site_fract_x
 _atom_site_fract_y
 _atom_site_fract_z
 _atom_site_occupancy
  Ce  Ce0  1  0.87913128  0.87913128  1.00000000  1.0
  Ce  Ce1  1  0.12086872  0.12086872  -0.00000000  1.0
  Ge  Ge2  1  0.61879430  0.61879430  1.00000000  1.0
  Ge  Ge3  1  0.38120570  0.38120570  -0.00000000  1.0
  Bi  Bi4  1  0.25000000  0.75000000  0.50000000  1.0
  Bi  Bi5  1  0.75000000  0.25000000  0.50000000  1.0
  Bi  Bi6  1  0.50000000  -0.00000000  0.50000000  1.0
  Bi  Bi7  1  0.00000000  0.50000000  0.50000000  1.0
