# generated using pymatgen
data_PtS(NO)4
_symmetry_space_group_name_H-M   'P 1'
_cell_length_a   8.69025823
_cell_length_b   8.69025823
_cell_length_c   8.69025823
_cell_angle_alpha   133.98865882
_cell_angle_beta   133.98865882
_cell_angle_gamma   67.10572270
_symmetry_Int_Tables_number   1
_chemical_formula_structural   PtS(NO)4
_chemical_formula_sum   'Pt2 S2 N8 O8'
_cell_volume   334.16246866
_cell_formula_units_Z   2
loop_
 _symmetry_equiv_pos_site_id
 _symmetry_equiv_pos_as_xyz
  1  'x, y, z'
loop_
 _atom_site_type_symbol
 _atom_site_label
 _atom_site_symmetry_multiplicity
 _atom_site_fract_x
 _atom_site_fract_y
 _atom_site_fract_z
 _atom_site_occupancy
  Pt  Pt0  1  0.75000000  0.25000000  0.50000000  1.0
  Pt  Pt1  1  0.00000000  0.00000000  0.00000000  1.0
  S  S2  1  0.25000000  0.75000000  0.50000000  1.0
  S  S3  1  0.50000000  0.50000000  1.00000000  1.0
  N  N4  1  0.55352372  0.44647628  0.50000000  1.0
  N  N5  1  0.94647628  1.05352372  1.50000000  1.0
  N  N6  1  0.80352372  0.19647628  1.00000000  1.0
  N  N7  1  0.19647628  0.80352372  1.00000000  1.0
  N  N8  1  0.55352372  1.05352372  1.10704745  1.0
  N  N9  1  0.94647628  0.44647628  0.89295255  1.0
  N  N10  1  0.80352372  0.80352372  1.60704745  1.0
  N  N11  1  0.19647628  0.19647628  0.39295255  1.0
  O  O12  1  0.18947635  0.86966763  0.68019127  1.0
  O  O13  1  0.18947635  0.50928508  0.31980873  1.0
  O  O14  1  0.56052365  0.74071492  1.18019127  1.0
  O  O15  1  0.56052365  0.38033237  0.81980873  1.0
  O  O16  1  1.13033237  0.81052365  1.31980873  1.0
  O  O17  1  0.49071492  0.81052365  0.68019127  1.0
  O  O18  1  1.25928508  0.43947635  0.81980873  1.0
  O  O19  1  0.61966763  0.43947635  0.18019127  1.0
