# generated using pymatgen
data_Sr11(CdSb2)6
_symmetry_space_group_name_H-M   'P 1'
_cell_length_a   16.82728112
_cell_length_b   16.82728112
_cell_length_c   12.74015801
_cell_angle_alpha   70.26953231
_cell_angle_beta   109.73046769
_cell_angle_gamma   163.52501862
_symmetry_Int_Tables_number   1
_chemical_formula_structural   Sr11(CdSb2)6
_chemical_formula_sum   'Sr11 Cd6 Sb12'
_cell_volume   961.70434643
_cell_formula_units_Z   1
loop_
 _symmetry_equiv_pos_site_id
 _symmetry_equiv_pos_as_xyz
  1  'x, y, z'
loop_
 _atom_site_type_symbol
 _atom_site_label
 _atom_site_symmetry_multiplicity
 _atom_site_fract_x
 _atom_site_fract_y
 _atom_site_fract_z
 _atom_site_occupancy
  Sr  Sr0  1  0.98104984  -0.98104984  0.31888747  1.0
  Sr  Sr1  1  1.01895016  -0.01895016  0.68111253  1.0
  Sr  Sr2  1  0.88637859  -0.88637859  0.49369373  1.0
  Sr  Sr3  1  1.11362141  -0.11362141  0.50630627  1.0
  Sr  Sr4  1  0.87382921  -0.87382921  0.98444908  1.0
  Sr  Sr5  1  1.12617079  -0.12617079  0.01555092  1.0
  Sr  Sr6  1  0.79941866  -0.79941866  0.65682008  1.0
  Sr  Sr7  1  1.20058134  -0.20058134  0.34317992  1.0
  Sr  Sr8  1  0.72190528  -0.72190528  0.86664239  1.0
  Sr  Sr9  1  1.27809472  -0.27809472  0.13335761  1.0
  Sr  Sr10  1  0.00000000  0.00000000  0.00000000  1.0
  Cd  Cd11  1  0.78088048  -0.78088048  0.33329296  1.0
  Cd  Cd12  1  1.21911952  -0.21911952  0.66670704  1.0
  Cd  Cd13  1  0.60035936  -0.60035936  0.74521339  1.0
  Cd  Cd14  1  1.39964064  -0.39964064  0.25478661  1.0
  Cd  Cd15  1  1.45254428  -0.45254428  0.75526503  1.0
  Cd  Cd16  1  0.54745572  -0.54745572  0.24473497  1.0
  Sb  Sb17  1  0.90998173  -0.90998173  0.76717615  1.0
  Sb  Sb18  1  1.09001827  -0.09001827  0.23282385  1.0
  Sb  Sb19  1  0.84992417  -0.84992417  0.21615500  1.0
  Sb  Sb20  1  1.15007583  -0.15007583  0.78384500  1.0
  Sb  Sb21  1  0.69084033  -0.69084033  0.52957554  1.0
  Sb  Sb22  1  1.30915967  -0.30915967  0.47042446  1.0
  Sb  Sb23  1  0.54655173  -0.54655173  0.88445132  1.0
  Sb  Sb24  1  1.45344827  -0.45344827  0.11554868  1.0
  Sb  Sb25  1  0.54302914  -0.54302914  0.50047261  1.0
  Sb  Sb26  1  1.45697086  -0.45697086  0.49952739  1.0
  Sb  Sb27  1  1.29519560  -0.29519560  0.86532935  1.0
  Sb  Sb28  1  0.70480440  -0.70480440  0.13467065  1.0
