# generated using pymatgen
data_Ca2MgH24(NO5)6
_symmetry_space_group_name_H-M   'P 1'
_cell_length_a   8.99629391
_cell_length_b   8.99629391
_cell_length_c   8.99629391
_cell_angle_alpha   71.80524759
_cell_angle_beta   71.80524759
_cell_angle_gamma   71.80524759
_symmetry_Int_Tables_number   1
_chemical_formula_structural   Ca2MgH24(NO5)6
_chemical_formula_sum   'Ca2 Mg1 H24 N6 O30'
_cell_volume   638.23721489
_cell_formula_units_Z   1
loop_
 _symmetry_equiv_pos_site_id
 _symmetry_equiv_pos_as_xyz
  1  'x, y, z'
loop_
 _atom_site_type_symbol
 _atom_site_label
 _atom_site_symmetry_multiplicity
 _atom_site_fract_x
 _atom_site_fract_y
 _atom_site_fract_z
 _atom_site_occupancy
  Ca  Ca0  1  1.22277744  1.22277744  0.22277744  1.0
  Ca  Ca1  1  0.77722256  0.77722256  -0.22277744  1.0
  Mg  Mg2  1  0.50000000  0.50000000  -0.50000000  1.0
  H  H3  1  0.34502127  0.11561488  -0.08712984  1.0
  H  H4  1  0.11561488  0.91287016  -0.65497873  1.0
  H  H5  1  0.91287016  0.34502127  -0.88438512  1.0
  H  H6  1  0.65497873  -0.11561488  0.08712984  1.0
  H  H7  1  0.88438512  0.08712984  -0.34502127  1.0
  H  H8  1  1.08712984  -0.34502127  -0.11561488  1.0
  H  H9  1  0.18112288  0.24175463  -0.10583669  1.0
  H  H10  1  0.24175463  0.89416331  -0.81887712  1.0
  H  H11  1  0.89416331  0.18112288  -0.75824537  1.0
  H  H12  1  0.81887712  -0.24175463  0.10583669  1.0
  H  H13  1  0.75824537  0.10583669  -0.18112288  1.0
  H  H14  1  1.10583669  -0.18112288  -0.24175463  1.0
  H  H15  1  0.18063243  0.60837764  -0.38672435  1.0
  H  H16  1  0.60837764  0.61327565  -0.81936757  1.0
  H  H17  1  0.61327565  0.18063243  -0.39162236  1.0
  H  H18  1  0.81936757  0.39162236  -0.61327565  1.0
  H  H19  1  0.39162236  0.38672435  -0.18063243  1.0
  H  H20  1  0.38672435  0.81936757  -0.60837764  1.0
  H  H21  1  0.18765545  0.53850780  -0.53247592  1.0
  H  H22  1  0.53850780  0.46752408  -0.81234455  1.0
  H  H23  1  0.46752408  0.18765545  -0.46149220  1.0
  H  H24  1  0.81234455  0.46149220  -0.46752408  1.0
  H  H25  1  0.46149220  0.53247592  -0.18765545  1.0
  H  H26  1  0.53247592  0.81234455  -0.53850780  1.0
  N  N27  1  0.91879361  0.42977728  -0.19341880  1.0
  N  N28  1  0.42977728  0.80658120  -0.08120639  1.0
  N  N29  1  0.80658120  0.91879361  -0.57022272  1.0
  N  N30  1  1.08120639  1.57022272  0.19341880  1.0
  N  N31  1  1.57022272  1.19341880  0.08120639  1.0
  N  N32  1  1.19341880  1.08120639  0.57022272  1.0
  O  O33  1  0.87341904  0.48547536  -0.06794926  1.0
  O  O34  1  0.48547536  0.93205074  -0.12658096  1.0
  O  O35  1  0.93205074  0.87341904  -0.51452464  1.0
  O  O36  1  1.12658096  1.51452464  0.06794926  1.0
  O  O37  1  1.51452464  1.06794926  0.12658096  1.0
  O  O38  1  1.06794926  1.12658096  0.51452464  1.0
  O  O39  1  0.86954172  0.52214715  -0.31700801  1.0
  O  O40  1  0.52214715  0.68299199  -0.13045828  1.0
  O  O41  1  0.68299199  0.86954172  -0.47785285  1.0
  O  O42  1  1.13045828  1.47785285  0.31700801  1.0
  O  O43  1  1.47785285  1.31700801  0.13045828  1.0
  O  O44  1  1.31700801  1.13045828  0.47785285  1.0
  O  O45  1  1.00893734  0.29412678  -0.19602499  1.0
  O  O46  1  1.29412678  -0.19602499  0.00893734  1.0
  O  O47  1  0.80397501  0.00893734  0.29412678  1.0
  O  O48  1  0.99106266  1.70587322  0.19602499  1.0
  O  O49  1  1.70587322  1.19602499  -0.00893734  1.0
  O  O50  1  1.19602499  0.99106266  0.70587322  1.0
  O  O51  1  0.27624429  0.21932329  -0.06252657  1.0
  O  O52  1  0.21932329  0.93747343  -0.72375571  1.0
  O  O53  1  0.93747343  0.27624429  -0.78067671  1.0
  O  O54  1  0.72375571  -0.21932329  0.06252657  1.0
  O  O55  1  0.78067671  0.06252657  -0.27624429  1.0
  O  O56  1  1.06252657  -0.27624429  -0.21932329  1.0
  O  O57  1  0.25050007  0.54170645  -0.46219518  1.0
  O  O58  1  0.54170645  0.53780482  -0.74949993  1.0
  O  O59  1  0.53780482  0.25050007  -0.45829355  1.0
  O  O60  1  0.74949993  0.45829355  -0.53780482  1.0
  O  O61  1  0.45829355  0.46219518  -0.25050007  1.0
  O  O62  1  0.46219518  0.74949993  -0.54170645  1.0
