# generated using pymatgen
data_La4Te3N2
_symmetry_space_group_name_H-M   'P 1'
_cell_length_a   7.53071732
_cell_length_b   11.88627943
_cell_length_c   11.70655134
_cell_angle_alpha   90.00000000
_cell_angle_beta   90.00000000
_cell_angle_gamma   90.00000000
_symmetry_Int_Tables_number   1
_chemical_formula_structural   La4Te3N2
_chemical_formula_sum   'La16 Te12 N8'
_cell_volume   1047.87928565
_cell_formula_units_Z   4
loop_
 _symmetry_equiv_pos_site_id
 _symmetry_equiv_pos_as_xyz
  1  'x, y, z'
loop_
 _atom_site_type_symbol
 _atom_site_label
 _atom_site_symmetry_multiplicity
 _atom_site_fract_x
 _atom_site_fract_y
 _atom_site_fract_z
 _atom_site_occupancy
  La  La0  1  0.35284219  0.95016870  0.89023892  1.0
  La  La1  1  0.35284219  0.54983130  0.89023892  1.0
  La  La2  1  0.85284219  0.95016870  0.60976108  1.0
  La  La3  1  0.85284219  0.54983130  0.60976108  1.0
  La  La4  1  0.64715781  0.45016870  0.10976108  1.0
  La  La5  1  0.64715781  0.04983130  0.10976108  1.0
  La  La6  1  0.14715781  0.45016870  0.39023892  1.0
  La  La7  1  0.14715781  0.04983130  0.39023892  1.0
  La  La8  1  0.22576191  0.25000000  0.03023969  1.0
  La  La9  1  0.72576191  0.25000000  0.46976031  1.0
  La  La10  1  0.77423809  0.75000000  0.96976031  1.0
  La  La11  1  0.27423809  0.75000000  0.53023969  1.0
  La  La12  1  0.09121013  0.25000000  0.65805793  1.0
  La  La13  1  0.59121013  0.25000000  0.84194207  1.0
  La  La14  1  0.90878987  0.75000000  0.34194207  1.0
  La  La15  1  0.40878987  0.75000000  0.15805793  1.0
  Te  Te16  1  0.43520487  0.42225079  0.63595192  1.0
  Te  Te17  1  0.43520487  0.07774921  0.63595192  1.0
  Te  Te18  1  0.93520487  0.42225079  0.86404808  1.0
  Te  Te19  1  0.93520487  0.07774921  0.86404808  1.0
  Te  Te20  1  0.56479513  0.92225079  0.36404808  1.0
  Te  Te21  1  0.56479513  0.57774921  0.36404808  1.0
  Te  Te22  1  0.06479513  0.92225079  0.13595192  1.0
  Te  Te23  1  0.06479513  0.57774921  0.13595192  1.0
  Te  Te24  1  0.41980680  0.25000000  0.27085227  1.0
  Te  Te25  1  0.91980680  0.25000000  0.22914773  1.0
  Te  Te26  1  0.58019320  0.75000000  0.72914773  1.0
  Te  Te27  1  0.08019320  0.75000000  0.77085227  1.0
  N  N28  1  0.44688265  0.37823521  0.96669218  1.0
  N  N29  1  0.44688265  0.12176479  0.96669218  1.0
  N  N30  1  0.94688265  0.37823521  0.53330782  1.0
  N  N31  1  0.94688265  0.12176479  0.53330782  1.0
  N  N32  1  0.55311735  0.87823521  0.03330782  1.0
  N  N33  1  0.55311735  0.62176479  0.03330782  1.0
  N  N34  1  0.05311735  0.87823521  0.46669218  1.0
  N  N35  1  0.05311735  0.62176479  0.46669218  1.0
