# generated using pymatgen
data_Sr2WO5
_symmetry_space_group_name_H-M   'P 1'
_cell_length_a   7.32427448
_cell_length_b   5.59481058
_cell_length_c   11.02194852
_cell_angle_alpha   90.00000000
_cell_angle_beta   90.00000000
_cell_angle_gamma   90.00000000
_symmetry_Int_Tables_number   1
_chemical_formula_structural   Sr2WO5
_chemical_formula_sum   'Sr8 W4 O20'
_cell_volume   451.65661708
_cell_formula_units_Z   4
loop_
 _symmetry_equiv_pos_site_id
 _symmetry_equiv_pos_as_xyz
  1  'x, y, z'
loop_
 _atom_site_type_symbol
 _atom_site_label
 _atom_site_symmetry_multiplicity
 _atom_site_fract_x
 _atom_site_fract_y
 _atom_site_fract_z
 _atom_site_occupancy
  Sr  Sr0  1  0.81927151  0.75000000  0.41596829  1.0
  Sr  Sr1  1  0.31927151  0.75000000  0.08403171  1.0
  Sr  Sr2  1  0.18072849  0.25000000  0.58403171  1.0
  Sr  Sr3  1  0.68072849  0.25000000  0.91596829  1.0
  Sr  Sr4  1  0.51823585  0.75000000  0.71840116  1.0
  Sr  Sr5  1  0.01823585  0.75000000  0.78159884  1.0
  Sr  Sr6  1  0.48176415  0.25000000  0.28159884  1.0
  Sr  Sr7  1  0.98176415  0.25000000  0.21840116  1.0
  W  W8  1  0.81344023  0.75000000  0.06340446  1.0
  W  W9  1  0.31344023  0.75000000  0.43659554  1.0
  W  W10  1  0.18655977  0.25000000  0.93659554  1.0
  W  W11  1  0.68655977  0.25000000  0.56340446  1.0
  O  O12  1  0.66039469  -0.00242183  0.10812228  1.0
  O  O13  1  0.66039469  0.50242183  0.10812228  1.0
  O  O14  1  0.16039469  -0.00242183  0.39187772  1.0
  O  O15  1  0.16039469  0.50242183  0.39187772  1.0
  O  O16  1  0.33960531  0.49757817  0.89187772  1.0
  O  O17  1  0.33960531  1.00242183  0.89187772  1.0
  O  O18  1  0.83960531  0.49757817  0.60812228  1.0
  O  O19  1  0.83960531  1.00242183  0.60812228  1.0
  O  O20  1  0.95488592  0.75000000  0.20565553  1.0
  O  O21  1  0.45488592  0.75000000  0.29434447  1.0
  O  O22  1  0.04511408  0.25000000  0.79434447  1.0
  O  O23  1  0.54511408  0.25000000  0.70565553  1.0
  O  O24  1  0.72883071  0.75000000  0.89344439  1.0
  O  O25  1  0.22883071  0.75000000  0.60655561  1.0
  O  O26  1  0.27116929  0.25000000  0.10655561  1.0
  O  O27  1  0.77116929  0.25000000  0.39344439  1.0
  O  O28  1  0.00000000  0.00000000  0.00000000  1.0
  O  O29  1  0.00000000  0.50000000  0.00000000  1.0
  O  O30  1  0.50000000  0.00000000  0.50000000  1.0
  O  O31  1  0.50000000  0.50000000  0.50000000  1.0
