# generated using pymatgen
data_NaAuF4
_symmetry_space_group_name_H-M   'P 1'
_cell_length_a   6.72239316
_cell_length_b   6.72239316
_cell_length_c   6.72239316
_cell_angle_alpha   128.99264410
_cell_angle_beta   128.99264410
_cell_angle_gamma   75.02240999
_symmetry_Int_Tables_number   1
_chemical_formula_structural   NaAuF4
_chemical_formula_sum   'Na2 Au2 F8'
_cell_volume   178.69762239
_cell_formula_units_Z   2
loop_
 _symmetry_equiv_pos_site_id
 _symmetry_equiv_pos_as_xyz
  1  'x, y, z'
loop_
 _atom_site_type_symbol
 _atom_site_label
 _atom_site_symmetry_multiplicity
 _atom_site_fract_x
 _atom_site_fract_y
 _atom_site_fract_z
 _atom_site_occupancy
  Na  Na0  1  0.75000000  0.75000000  1.00000000  1.0
  Na  Na1  1  0.25000000  0.25000000  0.00000000  1.0
  Au  Au2  1  0.50000000  0.00000000  0.50000000  1.0
  Au  Au3  1  0.00000000  0.50000000  0.50000000  1.0
  F  F4  1  1.20099635  0.70099635  1.15972483  1.0
  F  F5  1  0.45872848  0.95872848  1.15972483  1.0
  F  F6  1  1.04127152  1.20099635  1.50000000  1.0
  F  F7  1  0.29900365  0.45872848  0.50000000  1.0
  F  F8  1  0.70099635  0.54127152  0.50000000  1.0
  F  F9  1  0.95872848  0.79900365  1.50000000  1.0
  F  F10  1  0.54127152  1.04127152  0.84027517  1.0
  F  F11  1  0.79900365  0.29900365  0.84027517  1.0
