# generated using pymatgen
data_Rb2FeF5
_symmetry_space_group_name_H-M   'P 1'
_cell_length_a   7.75513831
_cell_length_b   5.96006081
_cell_length_c   12.19887477
_cell_angle_alpha   90.00000000
_cell_angle_beta   90.00000000
_cell_angle_gamma   90.00000000
_symmetry_Int_Tables_number   1
_chemical_formula_structural   Rb2FeF5
_chemical_formula_sum   'Rb8 Fe4 F20'
_cell_volume   563.84536038
_cell_formula_units_Z   4
loop_
 _symmetry_equiv_pos_site_id
 _symmetry_equiv_pos_as_xyz
  1  'x, y, z'
loop_
 _atom_site_type_symbol
 _atom_site_label
 _atom_site_symmetry_multiplicity
 _atom_site_fract_x
 _atom_site_fract_y
 _atom_site_fract_z
 _atom_site_occupancy
  Fe  Fe0  1  0.83361830  0.75000000  0.06244552  1.0
  Fe  Fe1  1  0.33361830  0.75000000  0.43755448  1.0
  Fe  Fe2  1  0.16638170  0.25000000  0.93755448  1.0
  Fe  Fe3  1  0.66638170  0.25000000  0.56244552  1.0
  Rb  Rb4  1  0.83921175  0.75000000  0.41581093  1.0
  Rb  Rb5  1  0.33921175  0.75000000  0.08418907  1.0
  Rb  Rb6  1  0.16078825  0.25000000  0.58418907  1.0
  Rb  Rb7  1  0.66078825  0.25000000  0.91581093  1.0
  Rb  Rb8  1  0.51749235  0.75000000  0.72136039  1.0
  Rb  Rb9  1  0.01749235  0.75000000  0.77863961  1.0
  Rb  Rb10  1  0.48250765  0.25000000  0.27863961  1.0
  Rb  Rb11  1  0.98250765  0.25000000  0.22136039  1.0
  F  F12  1  0.72493391  0.75000000  0.91744497  1.0
  F  F13  1  0.22493391  0.75000000  0.58255503  1.0
  F  F14  1  0.27506609  0.25000000  0.08255503  1.0
  F  F15  1  0.77506609  0.25000000  0.41744497  1.0
  F  F16  1  0.68699093  0.98620997  0.11478746  1.0
  F  F17  1  0.68699093  0.51379003  0.11478746  1.0
  F  F18  1  0.18699093  0.98620997  0.38521254  1.0
  F  F19  1  0.18699093  0.51379003  0.38521254  1.0
  F  F20  1  0.31300907  0.48620997  0.88521254  1.0
  F  F21  1  0.31300907  0.01379003  0.88521254  1.0
  F  F22  1  0.81300907  0.48620997  0.61478746  1.0
  F  F23  1  0.81300907  0.01379003  0.61478746  1.0
  F  F24  1  0.97649479  0.75000000  0.19035388  1.0
  F  F25  1  0.47649479  0.75000000  0.30964612  1.0
  F  F26  1  0.02350521  0.25000000  0.80964612  1.0
  F  F27  1  0.52350521  0.25000000  0.69035388  1.0
  F  F28  1  0.00000000  0.00000000  0.00000000  1.0
  F  F29  1  0.00000000  0.50000000  0.00000000  1.0
  F  F30  1  0.50000000  0.00000000  0.50000000  1.0
  F  F31  1  0.50000000  0.50000000  0.50000000  1.0
