# generated using pymatgen
data_H6C2NO
_symmetry_space_group_name_H-M   'P 1'
_cell_length_a   7.15672945
_cell_length_b   8.60274451
_cell_length_c   5.72638954
_cell_angle_alpha   90.00000000
_cell_angle_beta   90.00000000
_cell_angle_gamma   90.00000000
_symmetry_Int_Tables_number   1
_chemical_formula_structural   H6C2NO
_chemical_formula_sum   'H24 C8 N4 O4'
_cell_volume   352.55957395
_cell_formula_units_Z   4
loop_
 _symmetry_equiv_pos_site_id
 _symmetry_equiv_pos_as_xyz
  1  'x, y, z'
loop_
 _atom_site_type_symbol
 _atom_site_label
 _atom_site_symmetry_multiplicity
 _atom_site_fract_x
 _atom_site_fract_y
 _atom_site_fract_z
 _atom_site_occupancy
  H  H0  1  0.29506210  0.50000000  0.96748033  1.0
  H  H1  1  0.70493790  0.50000000  0.96748033  1.0
  H  H2  1  0.20493790  0.00000000  0.03251967  1.0
  H  H3  1  0.79506210  0.00000000  0.03251967  1.0
  H  H4  1  0.16750802  0.60459219  0.74617501  1.0
  H  H5  1  0.16750802  0.39540781  0.74617501  1.0
  H  H6  1  0.83249198  0.60459219  0.74617501  1.0
  H  H7  1  0.83249198  0.39540781  0.74617501  1.0
  H  H8  1  0.33249198  0.89540781  0.25382499  1.0
  H  H9  1  0.33249198  0.10459219  0.25382499  1.0
  H  H10  1  0.66750802  0.89540781  0.25382499  1.0
  H  H11  1  0.66750802  0.10459219  0.25382499  1.0
  H  H12  1  0.12581724  0.64118762  0.26648497  1.0
  H  H13  1  0.12581724  0.35881238  0.26648497  1.0
  H  H14  1  0.87418276  0.64118762  0.26648497  1.0
  H  H15  1  0.87418276  0.35881238  0.26648497  1.0
  H  H16  1  0.37418276  0.85881238  0.73351503  1.0
  H  H17  1  0.37418276  0.14118762  0.73351503  1.0
  H  H18  1  0.62581724  0.85881238  0.73351503  1.0
  H  H19  1  0.62581724  0.14118762  0.73351503  1.0
  H  H20  1  0.00000000  0.74480799  0.04337874  1.0
  H  H21  1  0.00000000  0.25519201  0.04337874  1.0
  H  H22  1  0.50000000  0.75519201  0.95662126  1.0
  H  H23  1  0.50000000  0.24480799  0.95662126  1.0
  C  C24  1  0.17105387  0.50000000  0.85491911  1.0
  C  C25  1  0.82894613  0.50000000  0.85491911  1.0
  C  C26  1  0.32894613  0.00000000  0.14508089  1.0
  C  C27  1  0.67105387  0.00000000  0.14508089  1.0
  C  C28  1  0.00000000  0.64264024  0.15778852  1.0
  C  C29  1  0.00000000  0.35735976  0.15778852  1.0
  C  C30  1  0.50000000  0.85735976  0.84221148  1.0
  C  C31  1  0.50000000  0.14264024  0.84221148  1.0
  N  N32  1  0.00000000  0.00000000  0.56447559  1.0
  N  N33  1  0.50000000  0.50000000  0.43552441  1.0
  N  N34  1  0.00000000  0.50000000  0.00695435  1.0
  N  N35  1  0.50000000  0.00000000  0.99304565  1.0
  O  O36  1  0.00000000  0.87508791  0.68231124  1.0
  O  O37  1  0.00000000  0.12491209  0.68231124  1.0
  O  O38  1  0.50000000  0.62491209  0.31768876  1.0
  O  O39  1  0.50000000  0.37508791  0.31768876  1.0
