# generated using pymatgen
data_ZrZn2Ge
_symmetry_space_group_name_H-M   'P 1'
_cell_length_a   9.08611422
_cell_length_b   9.08611422
_cell_length_c   9.08611422
_cell_angle_alpha   154.71460603
_cell_angle_beta   154.71460603
_cell_angle_gamma   36.06176138
_symmetry_Int_Tables_number   1
_chemical_formula_structural   ZrZn2Ge
_chemical_formula_sum   'Zr2 Zn4 Ge2'
_cell_volume   136.67811404
_cell_formula_units_Z   2
loop_
 _symmetry_equiv_pos_site_id
 _symmetry_equiv_pos_as_xyz
  1  'x, y, z'
loop_
 _atom_site_type_symbol
 _atom_site_label
 _atom_site_symmetry_multiplicity
 _atom_site_fract_x
 _atom_site_fract_y
 _atom_site_fract_z
 _atom_site_occupancy
  Zr  Zr0  1  0.87388606  0.87388606  1.00000000  1.0
  Zr  Zr1  1  0.12611394  0.12611394  0.00000000  1.0
  Zn  Zn2  1  0.60237552  0.60237552  1.00000000  1.0
  Zn  Zn3  1  0.39762448  0.39762448  0.00000000  1.0
  Zn  Zn4  1  0.50000000  -0.00000000  0.50000000  1.0
  Zn  Zn5  1  -0.00000000  0.50000000  0.50000000  1.0
  Ge  Ge6  1  0.25000000  0.75000000  0.50000000  1.0
  Ge  Ge7  1  0.75000000  0.25000000  0.50000000  1.0
