# generated using pymatgen
data_Rb3Ti2Cl9
_symmetry_space_group_name_H-M   'P 1'
_cell_length_a   7.27693887
_cell_length_b   7.27693887
_cell_length_c   18.04582248
_cell_angle_alpha   90.00000000
_cell_angle_beta   90.00000000
_cell_angle_gamma   120.00000000
_symmetry_Int_Tables_number   1
_chemical_formula_structural   Rb3Ti2Cl9
_chemical_formula_sum   'Rb6 Ti4 Cl18'
_cell_volume   827.57005129
_cell_formula_units_Z   2
loop_
 _symmetry_equiv_pos_site_id
 _symmetry_equiv_pos_as_xyz
  1  'x, y, z'
loop_
 _atom_site_type_symbol
 _atom_site_label
 _atom_site_symmetry_multiplicity
 _atom_site_fract_x
 _atom_site_fract_y
 _atom_site_fract_z
 _atom_site_occupancy
  Rb  Rb0  1  0.33333333  0.66666667  0.43236624  1.0
  Rb  Rb1  1  0.33333333  0.66666667  0.06763376  1.0
  Rb  Rb2  1  0.66666667  0.33333333  0.93236624  1.0
  Rb  Rb3  1  0.66666667  0.33333333  0.56763376  1.0
  Rb  Rb4  1  0.00000000  0.00000000  0.25000000  1.0
  Rb  Rb5  1  0.00000000  0.00000000  0.75000000  1.0
  Ti  Ti6  1  0.33333333  0.66666667  0.83529372  1.0
  Ti  Ti7  1  0.33333333  0.66666667  0.66470628  1.0
  Ti  Ti8  1  0.66666667  0.33333333  0.33529372  1.0
  Ti  Ti9  1  0.66666667  0.33333333  0.16470628  1.0
  Cl  Cl10  1  0.17591548  0.82408452  0.90627188  1.0
  Cl  Cl11  1  0.17591548  0.82408452  0.59372812  1.0
  Cl  Cl12  1  0.17591548  0.35183096  0.90627188  1.0
  Cl  Cl13  1  0.17591548  0.35183096  0.59372812  1.0
  Cl  Cl14  1  0.82408452  0.17591548  0.40627188  1.0
  Cl  Cl15  1  0.82408452  0.17591548  0.09372812  1.0
  Cl  Cl16  1  0.82408452  0.64816904  0.40627188  1.0
  Cl  Cl17  1  0.82408452  0.64816904  0.09372812  1.0
  Cl  Cl18  1  0.64816904  0.82408452  0.90627188  1.0
  Cl  Cl19  1  0.64816904  0.82408452  0.59372812  1.0
  Cl  Cl20  1  0.35183096  0.17591548  0.40627188  1.0
  Cl  Cl21  1  0.35183096  0.17591548  0.09372812  1.0
  Cl  Cl22  1  0.50951451  0.49048549  0.25000000  1.0
  Cl  Cl23  1  0.50951451  0.01902903  0.25000000  1.0
  Cl  Cl24  1  0.49048549  0.50951451  0.75000000  1.0
  Cl  Cl25  1  0.49048549  0.98097097  0.75000000  1.0
  Cl  Cl26  1  0.98097097  0.49048549  0.25000000  1.0
  Cl  Cl27  1  0.01902903  0.50951451  0.75000000  1.0
