# generated using pymatgen
data_CrO2
_symmetry_space_group_name_H-M   'P 1'
_cell_length_a   5.65734063
_cell_length_b   5.65734063
_cell_length_c   5.65734063
_cell_angle_alpha   29.64527319
_cell_angle_beta   29.64527319
_cell_angle_gamma   29.64527319
_symmetry_Int_Tables_number   1
_chemical_formula_structural   CrO2
_chemical_formula_sum   'Cr1 O2'
_cell_volume   39.21890247
_cell_formula_units_Z   1
loop_
 _symmetry_equiv_pos_site_id
 _symmetry_equiv_pos_as_xyz
  1  'x, y, z'
loop_
 _atom_site_type_symbol
 _atom_site_label
 _atom_site_symmetry_multiplicity
 _atom_site_fract_x
 _atom_site_fract_y
 _atom_site_fract_z
 _atom_site_occupancy
  Cr  Cr0  1  0.00000000  0.00000000  0.00000000  1.0
  O  O1  1  1.60824220  0.60824220  0.60824220  1.0
  O  O2  1  1.39175780  0.39175780  0.39175780  1.0
