# generated using pymatgen
data_Zn2PN3
_symmetry_space_group_name_H-M   'P 1'
_cell_length_a   5.45067310
_cell_length_b   5.45067310
_cell_length_c   4.98826342
_cell_angle_alpha   90.00000000
_cell_angle_beta   90.00000000
_cell_angle_gamma   60.61262272
_symmetry_Int_Tables_number   1
_chemical_formula_structural   Zn2PN3
_chemical_formula_sum   'Zn4 P2 N6'
_cell_volume   129.13034229
_cell_formula_units_Z   2
loop_
 _symmetry_equiv_pos_site_id
 _symmetry_equiv_pos_as_xyz
  1  'x, y, z'
loop_
 _atom_site_type_symbol
 _atom_site_label
 _atom_site_symmetry_multiplicity
 _atom_site_fract_x
 _atom_site_fract_y
 _atom_site_fract_z
 _atom_site_occupancy
  Zn  Zn0  1  -0.17639844  1.50614713  0.01507879  1.0
  Zn  Zn1  1  0.50614713  0.82360156  0.51507879  1.0
  Zn  Zn2  1  -0.50614713  1.17639844  0.01507879  1.0
  Zn  Zn3  1  0.17639844  0.49385287  0.51507879  1.0
  P  P4  1  0.15942275  0.84057725  0.00036706  1.0
  P  P5  1  -0.15942275  1.15942275  0.50036706  1.0
  N  N6  1  -0.15941099  1.44858899  0.41796440  1.0
  N  N7  1  0.44858899  0.84058901  0.91796440  1.0
  N  N8  1  -0.44858899  1.15941099  0.41796440  1.0
  N  N9  1  0.15941099  0.55141101  0.91796440  1.0
  N  N10  1  0.11871953  0.88128047  0.34624655  1.0
  N  N11  1  -0.11871953  1.11871953  0.84624655  1.0
