# generated using pymatgen
data_CaH8(ClO2)2
_symmetry_space_group_name_H-M   'P 1'
_cell_length_a   6.04820838
_cell_length_b   8.32027425
_cell_length_c   8.82778781
_cell_angle_alpha   90.00000000
_cell_angle_beta   110.88550119
_cell_angle_gamma   90.00000000
_symmetry_Int_Tables_number   1
_chemical_formula_structural   CaH8(ClO2)2
_chemical_formula_sum   'Ca2 H16 Cl4 O8'
_cell_volume   415.04975929
_cell_formula_units_Z   2
loop_
 _symmetry_equiv_pos_site_id
 _symmetry_equiv_pos_as_xyz
  1  'x, y, z'
loop_
 _atom_site_type_symbol
 _atom_site_label
 _atom_site_symmetry_multiplicity
 _atom_site_fract_x
 _atom_site_fract_y
 _atom_site_fract_z
 _atom_site_occupancy
  Ca  Ca0  1  0.00000000  0.50000000  0.50000000  1.0
  Ca  Ca1  1  0.00000000  0.00000000  0.00000000  1.0
  H  H2  1  0.91765914  0.92678926  0.31431482  1.0
  H  H3  1  0.91765914  0.57321074  0.81431482  1.0
  H  H4  1  0.08234086  0.42678926  0.18568518  1.0
  H  H5  1  0.08234086  0.07321074  0.68568518  1.0
  H  H6  1  0.90002836  0.93169918  0.64221943  1.0
  H  H7  1  0.90002836  0.56830082  0.14221943  1.0
  H  H8  1  0.09997164  0.43169918  0.85778057  1.0
  H  H9  1  0.09997164  0.06830082  0.35778057  1.0
  H  H10  1  0.56443757  0.30180110  0.48091079  1.0
  H  H11  1  0.56443757  0.19819890  0.98091079  1.0
  H  H12  1  0.43556243  0.80180110  0.01908921  1.0
  H  H13  1  0.43556243  0.69819890  0.51908921  1.0
  H  H14  1  0.55913174  0.31816437  0.30422778  1.0
  H  H15  1  0.55913174  0.18183563  0.80422778  1.0
  H  H16  1  0.44086826  0.81816437  0.19577222  1.0
  H  H17  1  0.44086826  0.68183563  0.69577222  1.0
  Cl  Cl18  1  0.72172413  0.77638868  0.43252819  1.0
  Cl  Cl19  1  0.72172413  0.72361132  0.93252819  1.0
  Cl  Cl20  1  0.27827587  0.27638868  0.06747181  1.0
  Cl  Cl21  1  0.27827587  0.22361132  0.56747181  1.0
  O  O22  1  0.99098646  0.49670834  0.23179812  1.0
  O  O23  1  0.99098646  0.00329166  0.73179812  1.0
  O  O24  1  0.00901354  0.99670834  0.26820188  1.0
  O  O25  1  0.00901354  0.50329166  0.76820188  1.0
  O  O26  1  0.66052469  0.33764875  0.41782480  1.0
  O  O27  1  0.66052469  0.16235125  0.91782480  1.0
  O  O28  1  0.33947531  0.83764875  0.08217520  1.0
  O  O29  1  0.33947531  0.66235125  0.58217520  1.0
