# generated using pymatgen
data_SiC
_symmetry_space_group_name_H-M   'P 1'
_cell_length_a   3.09539913
_cell_length_b   3.09539913
_cell_length_c   25.32544650
_cell_angle_alpha   90.00000000
_cell_angle_beta   90.00000000
_cell_angle_gamma   120.00000000
_symmetry_Int_Tables_number   1
_chemical_formula_structural   SiC
_chemical_formula_sum   'Si10 C10'
_cell_volume   210.14596498
_cell_formula_units_Z   10
loop_
 _symmetry_equiv_pos_site_id
 _symmetry_equiv_pos_as_xyz
  1  'x, y, z'
loop_
 _atom_site_type_symbol
 _atom_site_label
 _atom_site_symmetry_multiplicity
 _atom_site_fract_x
 _atom_site_fract_y
 _atom_site_fract_z
 _atom_site_occupancy
  Si  Si0  1  0.00000000  0.00000000  0.02491826  1.0
  Si  Si1  1  0.00000000  0.00000000  0.42503060  1.0
  Si  Si2  1  0.00000000  0.00000000  0.72497830  1.0
  Si  Si3  1  0.66666667  0.33333333  0.22495909  1.0
  Si  Si4  1  0.66666667  0.33333333  0.62492950  1.0
  Si  Si5  1  0.66666667  0.33333333  0.82500630  1.0
  Si  Si6  1  0.33333333  0.66666667  0.12491654  1.0
  Si  Si7  1  0.33333333  0.66666667  0.32497695  1.0
  Si  Si8  1  0.33333333  0.66666667  0.52505691  1.0
  Si  Si9  1  0.33333333  0.66666667  0.92487981  1.0
  C  C10  1  0.00000000  0.00000000  0.10012896  1.0
  C  C11  1  0.00000000  0.00000000  0.50022769  1.0
  C  C12  1  0.00000000  0.00000000  0.80018213  1.0
  C  C13  1  0.66666667  0.33333333  0.30017006  1.0
  C  C14  1  0.66666667  0.33333333  0.69990562  1.0
  C  C15  1  0.66666667  0.33333333  0.89999801  1.0
  C  C16  1  0.33333333  0.66666667  -0.00013264  1.0
  C  C17  1  0.33333333  0.66666667  0.19988979  1.0
  C  C18  1  0.33333333  0.66666667  0.39994584  1.0
  C  C19  1  0.33333333  0.66666667  0.60003228  1.0
