# generated using pymatgen
data_GeAs
_symmetry_space_group_name_H-M   'P 1'
_cell_length_a   4.01174281
_cell_length_b   4.01174281
_cell_length_c   4.01174281
_cell_angle_alpha   124.55116796
_cell_angle_beta   124.55116796
_cell_angle_gamma   82.28278130
_symmetry_Int_Tables_number   1
_chemical_formula_structural   GeAs
_chemical_formula_sum   'Ge1 As1'
_cell_volume   42.09403926
_cell_formula_units_Z   1
loop_
 _symmetry_equiv_pos_site_id
 _symmetry_equiv_pos_as_xyz
  1  'x, y, z'
loop_
 _atom_site_type_symbol
 _atom_site_label
 _atom_site_symmetry_multiplicity
 _atom_site_fract_x
 _atom_site_fract_y
 _atom_site_fract_z
 _atom_site_occupancy
  Ge  Ge0  1  0.00423731  0.00423731  -0.00000000  1.0
  As  As1  1  0.42276269  0.42276269  -0.00000000  1.0
