# generated using pymatgen
data_K2Hg3Se4
_symmetry_space_group_name_H-M   'P 1'
_cell_length_a   11.20825528
_cell_length_b   7.00298013
_cell_length_c   14.22683658
_cell_angle_alpha   90.00000000
_cell_angle_beta   90.00000000
_cell_angle_gamma   90.00000000
_symmetry_Int_Tables_number   1
_chemical_formula_structural   K2Hg3Se4
_chemical_formula_sum   'K8 Hg12 Se16'
_cell_volume   1116.68131883
_cell_formula_units_Z   4
loop_
 _symmetry_equiv_pos_site_id
 _symmetry_equiv_pos_as_xyz
  1  'x, y, z'
loop_
 _atom_site_type_symbol
 _atom_site_label
 _atom_site_symmetry_multiplicity
 _atom_site_fract_x
 _atom_site_fract_y
 _atom_site_fract_z
 _atom_site_occupancy
  K  K0  1  0.61819247  0.77116682  0.00150961  1.0
  K  K1  1  0.61819247  0.22883318  0.50150961  1.0
  K  K2  1  0.11819247  0.27116682  0.49849039  1.0
  K  K3  1  0.11819247  0.72883318  0.99849039  1.0
  K  K4  1  0.38180753  0.77116682  0.49849039  1.0
  K  K5  1  0.38180753  0.22883318  0.99849039  1.0
  K  K6  1  0.88180753  0.27116682  0.00150961  1.0
  K  K7  1  0.88180753  0.72883318  0.50150961  1.0
  Hg  Hg8  1  0.00000000  0.90789574  0.25000000  1.0
  Hg  Hg9  1  0.00000000  0.09210426  0.75000000  1.0
  Hg  Hg10  1  0.50000000  0.40789574  0.25000000  1.0
  Hg  Hg11  1  0.50000000  0.59210426  0.75000000  1.0
  Hg  Hg12  1  0.66128091  0.90730425  0.25901448  1.0
  Hg  Hg13  1  0.66128091  0.09269575  0.75901448  1.0
  Hg  Hg14  1  0.16128091  0.40730425  0.24098552  1.0
  Hg  Hg15  1  0.16128091  0.59269575  0.74098552  1.0
  Hg  Hg16  1  0.33871909  0.90730425  0.24098552  1.0
  Hg  Hg17  1  0.33871909  0.09269575  0.74098552  1.0
  Hg  Hg18  1  0.83871909  0.40730425  0.25901448  1.0
  Hg  Hg19  1  0.83871909  0.59269575  0.75901448  1.0
  Se  Se20  1  0.62885335  0.63059516  0.37062891  1.0
  Se  Se21  1  0.62885335  0.36940484  0.87062891  1.0
  Se  Se22  1  0.12885335  0.13059516  0.12937109  1.0
  Se  Se23  1  0.12885335  0.86940484  0.62937109  1.0
  Se  Se24  1  0.37114665  0.63059516  0.12937109  1.0
  Se  Se25  1  0.37114665  0.36940484  0.62937109  1.0
  Se  Se26  1  0.87114665  0.13059516  0.37062891  1.0
  Se  Se27  1  0.87114665  0.86940484  0.87062891  1.0
  Se  Se28  1  0.86441144  0.67019732  0.13928349  1.0
  Se  Se29  1  0.86441144  0.32980268  0.63928349  1.0
  Se  Se30  1  0.36441144  0.17019732  0.36071651  1.0
  Se  Se31  1  0.36441144  0.82980268  0.86071651  1.0
  Se  Se32  1  0.13558856  0.67019732  0.36071651  1.0
  Se  Se33  1  0.13558856  0.32980268  0.86071651  1.0
  Se  Se34  1  0.63558856  0.17019732  0.13928349  1.0
  Se  Se35  1  0.63558856  0.82980268  0.63928349  1.0
