# generated using pymatgen
data_Cu2ClO3
_symmetry_space_group_name_H-M   'P 1'
_cell_length_a   5.88526738
_cell_length_b   6.30825885
_cell_length_c   9.67159357
_cell_angle_alpha   90.00000000
_cell_angle_beta   119.93850356
_cell_angle_gamma   90.00000000
_symmetry_Int_Tables_number   1
_chemical_formula_structural   Cu2ClO3
_chemical_formula_sum   'Cu8 Cl4 O12'
_cell_volume   311.15240550
_cell_formula_units_Z   4
loop_
 _symmetry_equiv_pos_site_id
 _symmetry_equiv_pos_as_xyz
  1  'x, y, z'
loop_
 _atom_site_type_symbol
 _atom_site_label
 _atom_site_symmetry_multiplicity
 _atom_site_fract_x
 _atom_site_fract_y
 _atom_site_fract_z
 _atom_site_occupancy
  Cl  Cl0  1  0.80375097  0.50310842  0.19513366  1.0
  Cl  Cl1  1  0.80375097  -0.00310842  0.69513366  1.0
  Cl  Cl2  1  0.19624903  1.00310842  0.30486634  1.0
  Cl  Cl3  1  0.19624903  0.49689158  0.80486634  1.0
  O  O4  1  0.72640734  0.31003804  0.46823477  1.0
  O  O5  1  0.72640734  0.18996196  0.96823477  1.0
  O  O6  1  0.27359266  0.81003804  0.03176523  1.0
  O  O7  1  0.27359266  0.68996196  0.53176523  1.0
  O  O8  1  0.65992434  0.01140680  0.22916048  1.0
  O  O9  1  0.65992434  0.48859320  0.72916048  1.0
  O  O10  1  0.34007566  0.51140680  0.27083952  1.0
  O  O11  1  0.34007566  0.98859320  0.77083952  1.0
  O  O12  1  0.74981551  0.71080915  0.46720154  1.0
  O  O13  1  0.74981551  0.78919085  0.96720154  1.0
  O  O14  1  0.25018449  0.21080915  0.03279846  1.0
  O  O15  1  0.25018449  0.28919085  0.53279846  1.0
  Cu  Cu16  1  0.49229438  0.25728512  0.24807320  1.0
  Cu  Cu17  1  0.49229438  0.24271488  0.74807320  1.0
  Cu  Cu18  1  0.50770562  0.75728512  0.25192680  1.0
  Cu  Cu19  1  0.50770562  0.74271488  0.75192680  1.0
  Cu  Cu20  1  0.50000000  0.50000000  0.50000000  1.0
  Cu  Cu21  1  0.50000000  0.00000000  -0.00000000  1.0
  Cu  Cu22  1  0.00000000  0.50000000  0.50000000  1.0
  Cu  Cu23  1  0.00000000  0.00000000  0.00000000  1.0
