# generated using pymatgen
data_Si2Ru
_symmetry_space_group_name_H-M   'P 1'
_cell_length_a   6.51038078
_cell_length_b   6.51038078
_cell_length_c   8.22241606
_cell_angle_alpha   90.00000000
_cell_angle_beta   90.00000000
_cell_angle_gamma   77.15123073
_symmetry_Int_Tables_number   1
_chemical_formula_structural   Si2Ru
_chemical_formula_sum   'Si16 Ru8'
_cell_volume   339.78109814
_cell_formula_units_Z   8
loop_
 _symmetry_equiv_pos_site_id
 _symmetry_equiv_pos_as_xyz
  1  'x, y, z'
loop_
 _atom_site_type_symbol
 _atom_site_label
 _atom_site_symmetry_multiplicity
 _atom_site_fract_x
 _atom_site_fract_y
 _atom_site_fract_z
 _atom_site_occupancy
  Si  Si0  1  -0.09477566  1.35035015  0.44359017  1.0
  Si  Si1  1  0.35035015  0.90522434  0.55640983  1.0
  Si  Si2  1  -0.14964985  1.40522434  0.94359017  1.0
  Si  Si3  1  0.40522434  0.85035015  0.05640983  1.0
  Si  Si4  1  0.09477566  0.64964985  0.55640983  1.0
  Si  Si5  1  -0.35035015  1.09477566  0.44359017  1.0
  Si  Si6  1  0.14964985  0.59477566  0.05640983  1.0
  Si  Si7  1  -0.40522434  1.14964985  0.94359017  1.0
  Si  Si8  1  -0.07572025  0.82211183  0.27544209  1.0
  Si  Si9  1  -0.17788817  0.92427975  0.72455791  1.0
  Si  Si10  1  0.32211183  1.42427975  0.77544209  1.0
  Si  Si11  1  0.42427975  1.32211183  0.22455791  1.0
  Si  Si12  1  0.07572025  1.17788817  0.72455791  1.0
  Si  Si13  1  0.17788817  1.07572025  0.27544209  1.0
  Si  Si14  1  -0.32211183  0.57572025  0.22455791  1.0
  Si  Si15  1  -0.42427975  0.67788817  0.77544209  1.0
  Ru  Ru16  1  -0.21456117  0.78543883  0.00000000  1.0
  Ru  Ru17  1  0.28543883  1.28543883  0.50000000  1.0
  Ru  Ru18  1  0.21456117  1.21456117  0.00000000  1.0
  Ru  Ru19  1  -0.28543883  0.71456117  0.50000000  1.0
  Ru  Ru20  1  0.18823401  0.81176599  0.81774802  1.0
  Ru  Ru21  1  -0.18823401  1.18823401  0.18225198  1.0
  Ru  Ru22  1  0.31176599  0.68823401  0.31774802  1.0
  Ru  Ru23  1  -0.31176599  1.31176599  0.68225198  1.0
