# generated using pymatgen
data_Ni21(SnP3)2
_symmetry_space_group_name_H-M   'P 1'
_cell_length_a   7.87229123
_cell_length_b   7.87229123
_cell_length_c   7.87229123
_cell_angle_alpha   60.00000000
_cell_angle_beta   60.00000000
_cell_angle_gamma   60.00000000
_symmetry_Int_Tables_number   1
_chemical_formula_structural   Ni21(SnP3)2
_chemical_formula_sum   'Ni21 Sn2 P6'
_cell_volume   344.97566322
_cell_formula_units_Z   1
loop_
 _symmetry_equiv_pos_site_id
 _symmetry_equiv_pos_as_xyz
  1  'x, y, z'
loop_
 _atom_site_type_symbol
 _atom_site_label
 _atom_site_symmetry_multiplicity
 _atom_site_fract_x
 _atom_site_fract_y
 _atom_site_fract_z
 _atom_site_occupancy
  Ni  Ni0  1  1.65201471  -0.00000000  0.00000000  1.0
  Ni  Ni1  1  1.00000000  0.34798529  -0.34798529  1.0
  Ni  Ni2  1  1.00000000  0.65201471  -0.65201471  1.0
  Ni  Ni3  1  1.34798529  -0.00000000  0.00000000  1.0
  Ni  Ni4  1  -0.00000000  1.65201471  0.00000000  1.0
  Ni  Ni5  1  0.34798529  1.00000000  -0.34798529  1.0
  Ni  Ni6  1  0.00000000  -0.00000000  0.65201471  1.0
  Ni  Ni7  1  0.34798529  -0.34798529  1.00000000  1.0
  Ni  Ni8  1  0.65201471  1.00000000  -0.65201471  1.0
  Ni  Ni9  1  -0.00000000  1.34798529  0.00000000  1.0
  Ni  Ni10  1  0.65201471  -0.65201471  1.00000000  1.0
  Ni  Ni11  1  -0.00000000  0.00000000  0.34798529  1.0
  Ni  Ni12  1  0.61607642  0.61607642  -0.38392358  1.0
  Ni  Ni13  1  0.38392358  1.38392358  -0.15177073  1.0
  Ni  Ni14  1  1.38392358  -0.15177073  0.38392358  1.0
  Ni  Ni15  1  1.15177073  0.61607642  0.61607642  1.0
  Ni  Ni16  1  -0.15177073  1.38392358  0.38392358  1.0
  Ni  Ni17  1  0.61607642  1.15177073  -0.38392358  1.0
  Ni  Ni18  1  0.61607642  0.61607642  1.15177073  1.0
  Ni  Ni19  1  1.38392358  0.38392358  0.38392358  1.0
  Ni  Ni20  1  0.00000000  0.00000000  0.00000000  1.0
  Sn  Sn21  1  0.75000000  0.75000000  -0.25000000  1.0
  Sn  Sn22  1  1.25000000  0.25000000  0.25000000  1.0
  P  P23  1  -0.73826119  0.73826119  0.73826119  1.0
  P  P24  1  -0.26173881  0.26173881  0.73826119  1.0
  P  P25  1  0.73826119  0.73826119  -0.73826119  1.0
  P  P26  1  0.26173881  1.26173881  -0.26173881  1.0
  P  P27  1  0.26173881  -0.26173881  1.26173881  1.0
  P  P28  1  -0.26173881  0.26173881  0.26173881  1.0
