# generated using pymatgen
data_Cu5Se2(ClO4)2
_symmetry_space_group_name_H-M   'P 1'
_cell_length_a   5.52686054
_cell_length_b   8.47564779
_cell_length_c   11.31734616
_cell_angle_alpha   90.00000000
_cell_angle_beta   100.02640188
_cell_angle_gamma   90.00000000
_symmetry_Int_Tables_number   1
_chemical_formula_structural   Cu5Se2(ClO4)2
_chemical_formula_sum   'Cu10 Se4 Cl4 O16'
_cell_volume   522.05003780
_cell_formula_units_Z   2
loop_
 _symmetry_equiv_pos_site_id
 _symmetry_equiv_pos_as_xyz
  1  'x, y, z'
loop_
 _atom_site_type_symbol
 _atom_site_label
 _atom_site_symmetry_multiplicity
 _atom_site_fract_x
 _atom_site_fract_y
 _atom_site_fract_z
 _atom_site_occupancy
  Cu  Cu0  1  0.52746209  0.58027196  0.61987565  1.0
  Cu  Cu1  1  0.52746209  0.91972804  0.11987565  1.0
  Cu  Cu2  1  0.47253791  0.08027196  0.88012435  1.0
  Cu  Cu3  1  0.47253791  0.41972804  0.38012435  1.0
  Cu  Cu4  1  0.52525769  0.72741424  0.88262494  1.0
  Cu  Cu5  1  0.52525769  0.77258576  0.38262494  1.0
  Cu  Cu6  1  0.47474231  0.22741424  0.61737506  1.0
  Cu  Cu7  1  0.47474231  0.27258576  0.11737506  1.0
  Cu  Cu8  1  -0.00000000  0.00000000  -0.00000000  1.0
  Cu  Cu9  1  0.00000000  0.50000000  0.50000000  1.0
  Se  Se10  1  0.84664130  0.92350236  0.71391584  1.0
  Se  Se11  1  0.84664130  0.57649764  0.21391584  1.0
  Se  Se12  1  0.15335870  0.42350236  0.78608416  1.0
  Se  Se13  1  0.15335870  0.07649764  0.28608416  1.0
  Cl  Cl14  1  0.71734287  0.33399658  0.98556439  1.0
  Cl  Cl15  1  0.71734287  0.16600342  0.48556439  1.0
  Cl  Cl16  1  0.28265713  0.83399658  0.51443561  1.0
  Cl  Cl17  1  0.28265713  0.66600342  0.01443561  1.0
  O  O18  1  0.93720650  0.45484639  0.65941371  1.0
  O  O19  1  0.93720650  0.04515361  0.15941371  1.0
  O  O20  1  0.06279350  0.95484639  0.84058629  1.0
  O  O21  1  0.06279350  0.54515361  0.34058629  1.0
  O  O22  1  0.70692891  0.74713786  0.74738708  1.0
  O  O23  1  0.70692891  0.75286214  0.24738708  1.0
  O  O24  1  0.29307109  0.24713786  0.75261292  1.0
  O  O25  1  0.29307109  0.25286214  0.25261292  1.0
  O  O26  1  0.67291045  0.90714370  0.97324580  1.0
  O  O27  1  0.67291045  0.59285630  0.47324580  1.0
  O  O28  1  0.32708955  0.40714370  0.52675420  1.0
  O  O29  1  0.32708955  0.09285630  0.02675420  1.0
  O  O30  1  0.37943314  0.56329388  0.76411910  1.0
  O  O31  1  0.37943314  0.93670612  0.26411910  1.0
  O  O32  1  0.62056686  0.06329388  0.73588090  1.0
  O  O33  1  0.62056686  0.43670612  0.23588090  1.0
