# generated using pymatgen
data_Y5P12Ru19
_symmetry_space_group_name_H-M   'P 1'
_cell_length_a   12.51509668
_cell_length_b   12.51509668
_cell_length_c   3.97513156
_cell_angle_alpha   90.00000000
_cell_angle_beta   90.00000000
_cell_angle_gamma   120.00000000
_symmetry_Int_Tables_number   1
_chemical_formula_structural   Y5P12Ru19
_chemical_formula_sum   'Y5 P12 Ru19'
_cell_volume   539.20083435
_cell_formula_units_Z   1
loop_
 _symmetry_equiv_pos_site_id
 _symmetry_equiv_pos_as_xyz
  1  'x, y, z'
loop_
 _atom_site_type_symbol
 _atom_site_label
 _atom_site_symmetry_multiplicity
 _atom_site_fract_x
 _atom_site_fract_y
 _atom_site_fract_z
 _atom_site_occupancy
  Y  Y0  1  -0.00000000  0.18381217  0.50000000  1.0
  Y  Y1  1  0.81618783  0.81618783  0.50000000  1.0
  Y  Y2  1  0.18381217  0.00000000  0.50000000  1.0
  Y  Y3  1  0.66666667  0.33333333  0.00000000  1.0
  Y  Y4  1  0.33333333  0.66666667  -0.00000000  1.0
  P  P5  1  0.00000000  0.81539234  0.00000000  1.0
  P  P6  1  0.18460766  0.18460766  0.00000000  1.0
  P  P7  1  0.81539234  -0.00000000  0.00000000  1.0
  P  P8  1  0.69393319  0.17144137  0.50000000  1.0
  P  P9  1  0.82855863  0.52249183  0.50000000  1.0
  P  P10  1  0.47750817  0.30606681  0.50000000  1.0
  P  P11  1  0.17144137  0.69393319  0.50000000  1.0
  P  P12  1  0.52249183  0.82855863  0.50000000  1.0
  P  P13  1  0.30606681  0.47750817  0.50000000  1.0
  P  P14  1  0.00000000  0.37297427  0.00000000  1.0
  P  P15  1  0.62702573  0.62702573  -0.00000000  1.0
  P  P16  1  0.37297427  -0.00000000  0.00000000  1.0
  Ru  Ru17  1  0.00000000  0.55469865  0.00000000  1.0
  Ru  Ru18  1  0.44530135  0.44530135  0.00000000  1.0
  Ru  Ru19  1  0.55469865  0.00000000  -0.00000000  1.0
  Ru  Ru20  1  -0.00000000  0.71689630  0.50000000  1.0
  Ru  Ru21  1  0.28310370  0.28310370  0.50000000  1.0
  Ru  Ru22  1  0.71689630  0.00000000  0.50000000  1.0
  Ru  Ru23  1  0.80774011  0.18487111  0.00000000  1.0
  Ru  Ru24  1  0.81512889  0.62286900  0.00000000  1.0
  Ru  Ru25  1  0.37713100  0.19225989  0.00000000  1.0
  Ru  Ru26  1  0.18487111  0.80774011  0.00000000  1.0
  Ru  Ru27  1  0.62286900  0.81512889  0.00000000  1.0
  Ru  Ru28  1  0.19225989  0.37713100  0.00000000  1.0
  Ru  Ru29  1  0.87440079  0.36635323  0.50000000  1.0
  Ru  Ru30  1  0.63364677  0.50804756  0.50000000  1.0
  Ru  Ru31  1  0.49195244  0.12559921  0.50000000  1.0
  Ru  Ru32  1  0.36635323  0.87440079  0.50000000  1.0
  Ru  Ru33  1  0.50804756  0.63364677  0.50000000  1.0
  Ru  Ru34  1  0.12559921  0.49195244  0.50000000  1.0
  Ru  Ru35  1  -0.00000000  0.00000000  0.00000000  1.0
