# generated using pymatgen
data_NaLa(SeO3)2
_symmetry_space_group_name_H-M   'P 1'
_cell_length_a   6.77483872
_cell_length_b   6.86884408
_cell_length_c   13.83401850
_cell_angle_alpha   90.00000000
_cell_angle_beta   107.34992105
_cell_angle_gamma   90.00000000
_symmetry_Int_Tables_number   1
_chemical_formula_structural   NaLa(SeO3)2
_chemical_formula_sum   'Na4 La4 Se8 O24'
_cell_volume   614.47966171
_cell_formula_units_Z   4
loop_
 _symmetry_equiv_pos_site_id
 _symmetry_equiv_pos_as_xyz
  1  'x, y, z'
loop_
 _atom_site_type_symbol
 _atom_site_label
 _atom_site_symmetry_multiplicity
 _atom_site_fract_x
 _atom_site_fract_y
 _atom_site_fract_z
 _atom_site_occupancy
  Na  Na0  1  0.42322171  0.33388644  0.11637352  1.0
  Na  Na1  1  0.42322171  0.16611356  0.61637352  1.0
  Na  Na2  1  0.57677829  0.83388644  0.38362648  1.0
  Na  Na3  1  0.57677829  0.66611356  0.88362648  1.0
  La  La4  1  0.99047685  0.12152042  0.33580532  1.0
  La  La5  1  0.99047685  0.37847958  0.83580532  1.0
  La  La6  1  0.00952315  0.62152042  0.16419468  1.0
  La  La7  1  0.00952315  0.87847958  0.66419468  1.0
  Se  Se8  1  0.87815915  0.14996093  0.06981999  1.0
  Se  Se9  1  0.87815915  0.35003907  0.56981999  1.0
  Se  Se10  1  0.12184085  0.64996093  0.43018001  1.0
  Se  Se11  1  0.12184085  0.85003907  0.93018001  1.0
  Se  Se12  1  0.46425827  0.33215638  0.36217706  1.0
  Se  Se13  1  0.46425827  0.16784362  0.86217706  1.0
  Se  Se14  1  0.53574173  0.83215638  0.13782294  1.0
  Se  Se15  1  0.53574173  0.66784362  0.63782294  1.0
  O  O16  1  0.96752106  0.81969112  0.46327814  1.0
  O  O17  1  0.96752106  0.68030888  0.96327814  1.0
  O  O18  1  0.03247894  0.31969112  0.03672186  1.0
  O  O19  1  0.03247894  0.18030888  0.53672186  1.0
  O  O20  1  0.95465289  0.48440793  0.35541449  1.0
  O  O21  1  0.95465289  0.01559207  0.85541449  1.0
  O  O22  1  0.04534711  0.98440793  0.14458551  1.0
  O  O23  1  0.04534711  0.51559207  0.64458551  1.0
  O  O24  1  0.80775034  0.28271125  0.16231549  1.0
  O  O25  1  0.80775034  0.21728875  0.66231549  1.0
  O  O26  1  0.19224966  0.78271125  0.33768451  1.0
  O  O27  1  0.19224966  0.71728875  0.83768451  1.0
  O  O28  1  0.74843773  0.82696652  0.24440148  1.0
  O  O29  1  0.74843773  0.67303348  0.74440148  1.0
  O  O30  1  0.25156227  0.32696652  0.25559852  1.0
  O  O31  1  0.25156227  0.17303348  0.75559852  1.0
  O  O32  1  0.62531269  0.16295162  0.33387428  1.0
  O  O33  1  0.62531269  0.33704838  0.83387428  1.0
  O  O34  1  0.37468731  0.66295162  0.16612572  1.0
  O  O35  1  0.37468731  0.83704838  0.66612572  1.0
  O  O36  1  0.35999694  0.20252803  0.44146950  1.0
  O  O37  1  0.35999694  0.29747197  0.94146950  1.0
  O  O38  1  0.64000306  0.70252803  0.05853050  1.0
  O  O39  1  0.64000306  0.79747197  0.55853050  1.0
