# generated using pymatgen
data_CsLu(MoO4)2
_symmetry_space_group_name_H-M   'P 1'
_cell_length_a   6.01260293
_cell_length_b   6.01260293
_cell_length_c   8.41499818
_cell_angle_alpha   90.00000000
_cell_angle_beta   90.00000000
_cell_angle_gamma   120.00000000
_symmetry_Int_Tables_number   1
_chemical_formula_structural   CsLu(MoO4)2
_chemical_formula_sum   'Cs1 Lu1 Mo2 O8'
_cell_volume   263.45697878
_cell_formula_units_Z   1
loop_
 _symmetry_equiv_pos_site_id
 _symmetry_equiv_pos_as_xyz
  1  'x, y, z'
loop_
 _atom_site_type_symbol
 _atom_site_label
 _atom_site_symmetry_multiplicity
 _atom_site_fract_x
 _atom_site_fract_y
 _atom_site_fract_z
 _atom_site_occupancy
  Cs  Cs0  1  0.00000000  0.00000000  0.00000000  1.0
  Lu  Lu1  1  0.00000000  0.00000000  0.50000000  1.0
  Mo  Mo2  1  0.33333333  0.66666667  0.27479363  1.0
  Mo  Mo3  1  0.66666667  0.33333333  0.72520637  1.0
  O  O4  1  0.65998712  0.82999356  0.34199717  1.0
  O  O5  1  0.82999356  0.65998712  0.65800283  1.0
  O  O6  1  0.82999356  0.17000644  0.65800283  1.0
  O  O7  1  0.17000644  0.82999356  0.34199717  1.0
  O  O8  1  0.17000644  0.34001288  0.34199717  1.0
  O  O9  1  0.34001288  0.17000644  0.65800283  1.0
  O  O10  1  0.33333333  0.66666667  0.06861091  1.0
  O  O11  1  0.66666667  0.33333333  0.93138909  1.0
