# generated using pymatgen
data_SbAsAuF9
_symmetry_space_group_name_H-M   'P 1'
_cell_length_a   8.49436105
_cell_length_b   9.51059948
_cell_length_c   13.38288355
_cell_angle_alpha   90.00000000
_cell_angle_beta   122.93394677
_cell_angle_gamma   90.00000000
_symmetry_Int_Tables_number   1
_chemical_formula_structural   SbAsAuF9
_chemical_formula_sum   'Sb4 As4 Au4 F36'
_cell_volume   907.41184214
_cell_formula_units_Z   4
loop_
 _symmetry_equiv_pos_site_id
 _symmetry_equiv_pos_as_xyz
  1  'x, y, z'
loop_
 _atom_site_type_symbol
 _atom_site_label
 _atom_site_symmetry_multiplicity
 _atom_site_fract_x
 _atom_site_fract_y
 _atom_site_fract_z
 _atom_site_occupancy
  Sb  Sb0  1  0.65978526  0.18279274  0.42132319  1.0
  Sb  Sb1  1  0.65978526  0.31720726  0.92132319  1.0
  Sb  Sb2  1  0.34021474  0.68279274  0.07867681  1.0
  Sb  Sb3  1  0.34021474  0.81720726  0.57867681  1.0
  As  As4  1  0.85626025  0.85657552  0.10568504  1.0
  As  As5  1  0.85626025  0.64342448  0.60568504  1.0
  As  As6  1  0.14373975  0.35657552  0.39431496  1.0
  As  As7  1  0.14373975  0.14342448  0.89431496  1.0
  Au  Au8  1  0.37853136  0.20822029  0.08515313  1.0
  Au  Au9  1  0.37853136  0.29177971  0.58515313  1.0
  Au  Au10  1  0.62146864  0.70822029  0.41484687  1.0
  Au  Au11  1  0.62146864  0.79177971  0.91484687  1.0
  F  F12  1  1.01200864  0.22632029  0.29013406  1.0
  F  F13  1  1.01200864  0.27367971  0.79013406  1.0
  F  F14  1  -0.01200864  0.72632029  0.20986594  1.0
  F  F15  1  -0.01200864  0.77367971  0.70986594  1.0
  F  F16  1  0.96114782  0.46315150  0.37409506  1.0
  F  F17  1  0.96114782  0.03684850  0.87409506  1.0
  F  F18  1  0.03885218  0.96315150  0.12590494  1.0
  F  F19  1  0.03885218  0.53684850  0.62590494  1.0
  F  F20  1  0.92149641  0.19561463  0.48111827  1.0
  F  F21  1  0.92149641  0.30438537  0.98111827  1.0
  F  F22  1  0.07850359  0.69561463  0.01888173  1.0
  F  F23  1  0.07850359  0.80438537  0.51888173  1.0
  F  F24  1  0.79354579  0.95584527  0.18855289  1.0
  F  F25  1  0.79354579  0.54415473  0.68855289  1.0
  F  F26  1  0.20645421  0.45584527  0.31144711  1.0
  F  F27  1  0.20645421  0.04415473  0.81144711  1.0
  F  F28  1  0.69663884  0.37457171  0.06917669  1.0
  F  F29  1  0.69663884  0.12542829  0.56917669  1.0
  F  F30  1  0.30336116  0.87457171  0.43082331  1.0
  F  F31  1  0.30336116  0.62542829  0.93082331  1.0
  F  F32  1  0.65820758  0.37861857  0.45710362  1.0
  F  F33  1  0.65820758  0.12138143  0.95710362  1.0
  F  F34  1  0.34179242  0.87861857  0.04289638  1.0
  F  F35  1  0.34179242  0.62138143  0.54289638  1.0
  F  F36  1  0.65363202  0.99288479  0.37075166  1.0
  F  F37  1  0.65363202  0.50711521  0.87075166  1.0
  F  F38  1  0.34636798  0.49288479  0.12924834  1.0
  F  F39  1  0.34636798  0.00711521  0.62924834  1.0
  F  F40  1  0.61009014  0.24506020  0.26174652  1.0
  F  F41  1  0.61009014  0.25493980  0.76174652  1.0
  F  F42  1  0.38990986  0.74506020  0.23825348  1.0
  F  F43  1  0.38990986  0.75493980  0.73825348  1.0
  F  F44  1  0.39150071  0.18011900  0.34361520  1.0
  F  F45  1  0.39150071  0.31988100  0.84361520  1.0
  F  F46  1  0.60849929  0.68011900  0.15638480  1.0
  F  F47  1  0.60849929  0.81988100  0.65638480  1.0
