# generated using pymatgen
data_Na2Sn(H2N)6
_symmetry_space_group_name_H-M   'P 1'
_cell_length_a   7.15218388
_cell_length_b   7.15218388
_cell_length_c   7.15218388
_cell_angle_alpha   50.14541000
_cell_angle_beta   50.14541000
_cell_angle_gamma   50.14541000
_symmetry_Int_Tables_number   1
_chemical_formula_structural   Na2Sn(H2N)6
_chemical_formula_sum   'Na2 Sn1 H12 N6'
_cell_volume   198.48601283
_cell_formula_units_Z   1
loop_
 _symmetry_equiv_pos_site_id
 _symmetry_equiv_pos_as_xyz
  1  'x, y, z'
loop_
 _atom_site_type_symbol
 _atom_site_label
 _atom_site_symmetry_multiplicity
 _atom_site_fract_x
 _atom_site_fract_y
 _atom_site_fract_z
 _atom_site_occupancy
  Na  Na0  1  0.17457825  0.17457825  0.17457825  1.0
  Na  Na1  1  0.82542175  -0.17457825  -0.17457825  1.0
  Sn  Sn2  1  0.00000000  0.00000000  0.00000000  1.0
  H  H3  1  0.25917013  0.67618028  -0.67951546  1.0
  H  H4  1  0.67951546  0.74082987  -0.67618028  1.0
  H  H5  1  0.32381972  0.67951546  -0.25917013  1.0
  H  H6  1  0.74082987  0.32381972  -0.32048454  1.0
  H  H7  1  0.32048454  0.25917013  -0.32381972  1.0
  H  H8  1  0.67618028  0.32048454  -0.74082987  1.0
  H  H9  1  0.49917408  -0.02594620  -0.34378949  1.0
  H  H10  1  0.34378949  0.50082592  0.02594620  1.0
  H  H11  1  1.02594620  0.34378949  -0.49917408  1.0
  H  H12  1  0.50082592  1.02594620  -0.65621051  1.0
  H  H13  1  0.65621051  -0.50082592  -0.02594620  1.0
  H  H14  1  0.97405380  -0.34378949  -0.50082592  1.0
  N  N15  1  1.06026259  -0.20891491  -0.63235362  1.0
  N  N16  1  0.63235362  -0.06026259  0.20891491  1.0
  N  N17  1  1.20891491  -0.36764638  -0.06026259  1.0
  N  N18  1  0.93973741  0.20891491  -0.36764638  1.0
  N  N19  1  0.36764638  0.06026259  -0.20891491  1.0
  N  N20  1  0.79108509  -0.63235362  0.06026259  1.0
