# generated using pymatgen
data_Cs2H5O4
_symmetry_space_group_name_H-M   'P 1'
_cell_length_a   8.48071726
_cell_length_b   8.48071726
_cell_length_c   8.48071726
_cell_angle_alpha   129.77448939
_cell_angle_beta   129.77448939
_cell_angle_gamma   73.76753853
_symmetry_Int_Tables_number   1
_chemical_formula_structural   Cs2H5O4
_chemical_formula_sum   'Cs4 H10 O8'
_cell_volume   351.49704174
_cell_formula_units_Z   2
loop_
 _symmetry_equiv_pos_site_id
 _symmetry_equiv_pos_as_xyz
  1  'x, y, z'
loop_
 _atom_site_type_symbol
 _atom_site_label
 _atom_site_symmetry_multiplicity
 _atom_site_fract_x
 _atom_site_fract_y
 _atom_site_fract_z
 _atom_site_occupancy
  Cs  Cs0  1  0.37500000  0.12500000  0.25000000  1.0
  Cs  Cs1  1  0.87500000  0.12500000  0.75000000  1.0
  Cs  Cs2  1  0.87500000  1.12500000  1.25000000  1.0
  Cs  Cs3  1  0.87500000  0.62500000  0.75000000  1.0
  H  H4  1  0.50000000  0.50000000  1.00000000  1.0
  H  H5  1  0.25000000  0.75000000  0.50000000  1.0
  H  H6  1  1.29242347  0.40688724  0.88553624  1.0
  H  H7  1  1.22864900  0.84311276  1.38553624  1.0
  H  H8  1  0.52135100  0.40688724  0.11446376  1.0
  H  H9  1  0.45757653  0.84311276  0.61446376  1.0
  H  H10  1  0.59311276  0.47864900  0.88553624  1.0
  H  H11  1  0.15688724  0.54242347  0.38553624  1.0
  H  H12  1  0.59311276  0.70757653  1.11446376  1.0
  H  H13  1  0.15688724  0.77135100  0.61446376  1.0
  O  O14  1  1.20487587  0.33205097  0.87282490  1.0
  O  O15  1  1.29077394  0.91794903  1.37282490  1.0
  O  O16  1  0.45922606  0.33205097  0.12717510  1.0
  O  O17  1  0.54512413  0.91794903  0.62717510  1.0
  O  O18  1  0.66794903  0.54077394  0.87282490  1.0
  O  O19  1  0.08205097  0.45487587  0.37282490  1.0
  O  O20  1  0.66794903  0.79512413  1.12717510  1.0
  O  O21  1  0.08205097  0.70922606  0.62717510  1.0
