# generated using pymatgen
data_CuSeO3
_symmetry_space_group_name_H-M   'P 1'
_cell_length_a   6.27688057
_cell_length_b   7.25139465
_cell_length_c   5.59833984
_cell_angle_alpha   90.00000000
_cell_angle_beta   90.00000000
_cell_angle_gamma   90.00000000
_symmetry_Int_Tables_number   1
_chemical_formula_structural   CuSeO3
_chemical_formula_sum   'Cu4 Se4 O12'
_cell_volume   254.81480970
_cell_formula_units_Z   4
loop_
 _symmetry_equiv_pos_site_id
 _symmetry_equiv_pos_as_xyz
  1  'x, y, z'
loop_
 _atom_site_type_symbol
 _atom_site_label
 _atom_site_symmetry_multiplicity
 _atom_site_fract_x
 _atom_site_fract_y
 _atom_site_fract_z
 _atom_site_occupancy
  Cu  Cu0  1  0.50000000  -0.00000000  0.50000000  1.0
  Cu  Cu1  1  0.50000000  0.50000000  0.50000000  1.0
  Cu  Cu2  1  -0.00000000  0.00000000  -0.00000000  1.0
  Cu  Cu3  1  -0.00000000  0.50000000  0.00000000  1.0
  O  O4  1  0.29098771  0.93466116  0.06610046  1.0
  O  O5  1  0.29098771  0.56533884  0.06610046  1.0
  O  O6  1  0.79098771  0.93466116  0.43389954  1.0
  O  O7  1  0.79098771  0.56533884  0.43389954  1.0
  O  O8  1  0.70901229  0.43466116  0.93389954  1.0
  O  O9  1  0.70901229  0.06533884  0.93389954  1.0
  O  O10  1  0.20901229  0.43466116  0.56610046  1.0
  O  O11  1  0.20901229  0.06533884  0.56610046  1.0
  O  O12  1  0.42899049  0.75000000  0.66150553  1.0
  O  O13  1  0.92899049  0.75000000  0.83849447  1.0
  O  O14  1  0.57100951  0.25000000  0.33849447  1.0
  O  O15  1  0.07100951  0.25000000  0.16150553  1.0
  Se  Se16  1  0.44680202  0.75000000  0.98145915  1.0
  Se  Se17  1  0.94680202  0.75000000  0.51854085  1.0
  Se  Se18  1  0.55319798  0.25000000  0.01854085  1.0
  Se  Se19  1  0.05319798  0.25000000  0.48145915  1.0
