# generated using pymatgen
data_Bi6P4PbO20
_symmetry_space_group_name_H-M   'P 1'
_cell_length_a   7.09198872
_cell_length_b   9.32770613
_cell_length_c   7.77448221
_cell_angle_alpha   107.12323108
_cell_angle_beta   111.92176612
_cell_angle_gamma   93.04359000
_symmetry_Int_Tables_number   1
_chemical_formula_structural   Bi6P4PbO20
_chemical_formula_sum   'Bi6 P4 Pb1 O20'
_cell_volume   448.18814314
_cell_formula_units_Z   1
loop_
 _symmetry_equiv_pos_site_id
 _symmetry_equiv_pos_as_xyz
  1  'x, y, z'
loop_
 _atom_site_type_symbol
 _atom_site_label
 _atom_site_symmetry_multiplicity
 _atom_site_fract_x
 _atom_site_fract_y
 _atom_site_fract_z
 _atom_site_occupancy
  Bi  Bi0  1  -0.66921439  -0.48934600  -0.87610097  1.0
  Bi  Bi1  1  -0.33078561  -0.51065400  -0.12389903  1.0
  Bi  Bi2  1  -0.55862020  -0.91000111  -0.20362718  1.0
  Bi  Bi3  1  -0.44137980  -0.08999889  -0.79637282  1.0
  Bi  Bi4  1  -0.19701184  -0.67618827  -0.69453991  1.0
  Bi  Bi5  1  -0.80298816  -0.32381173  -0.30546009  1.0
  P  P6  1  -0.95511066  -0.24505565  -0.73297401  1.0
  P  P7  1  -0.04488934  -0.75494435  -0.26702599  1.0
  P  P8  1  -0.65166678  -0.74317170  -0.60189156  1.0
  P  P9  1  -0.34833322  -0.25682830  -0.39810844  1.0
  Pb  Pb10  1  0.00000000  0.00000000  0.00000000  1.0
  O  O11  1  -0.94815372  -0.58310932  -0.20785731  1.0
  O  O12  1  -0.05184628  -0.41689068  -0.79214269  1.0
  O  O13  1  -0.87594770  -0.84368230  -0.17603554  1.0
  O  O14  1  -0.12405230  -0.15631770  -0.82396446  1.0
  O  O15  1  -0.86904824  -0.71845096  -0.72856498  1.0
  O  O16  1  -0.13095176  -0.28154904  -0.27143502  1.0
  O  O17  1  -0.85207827  -0.17199688  -0.50352635  1.0
  O  O18  1  -0.14792173  -0.82800312  -0.49647365  1.0
  O  O19  1  -0.79256953  -0.24359804  -0.82522033  1.0
  O  O20  1  -0.20743047  -0.75640196  -0.17477967  1.0
  O  O21  1  -0.64468499  -0.91610470  -0.67729346  1.0
  O  O22  1  -0.35531501  -0.08389530  -0.32270654  1.0
  O  O23  1  -0.61504200  -0.69060288  -0.37997196  1.0
  O  O24  1  -0.38495800  -0.30939712  -0.62002804  1.0
  O  O25  1  -0.48509026  -0.64512291  -0.62848059  1.0
  O  O26  1  -0.51490974  -0.35487709  -0.37151941  1.0
  O  O27  1  -0.44656664  -0.63647813  -0.97316612  1.0
  O  O28  1  -0.55343336  -0.36352187  -0.02683388  1.0
  O  O29  1  -0.32539642  -0.90112222  -0.90384292  1.0
  O  O30  1  -0.67460358  -0.09887778  -0.09615708  1.0
