# generated using pymatgen
data_Rb2Sr(PO3)4
_symmetry_space_group_name_H-M   'P 1'
_cell_length_a   7.59099072
_cell_length_b   7.59099072
_cell_length_c   7.59099072
_cell_angle_alpha   118.48624394
_cell_angle_beta   118.48624394
_cell_angle_gamma   92.64252971
_symmetry_Int_Tables_number   1
_chemical_formula_structural   Rb2Sr(PO3)4
_chemical_formula_sum   'Rb2 Sr1 P4 O12'
_cell_volume   316.01365825
_cell_formula_units_Z   1
loop_
 _symmetry_equiv_pos_site_id
 _symmetry_equiv_pos_as_xyz
  1  'x, y, z'
loop_
 _atom_site_type_symbol
 _atom_site_label
 _atom_site_symmetry_multiplicity
 _atom_site_fract_x
 _atom_site_fract_y
 _atom_site_fract_z
 _atom_site_occupancy
  Rb  Rb0  1  0.42616258  0.92616258  0.50000000  1.0
  Rb  Rb1  1  0.07383742  0.57383742  0.50000000  1.0
  Sr  Sr2  1  0.00000000  0.00000000  0.00000000  1.0
  P  P3  1  0.55993201  1.01461448  1.12902135  1.0
  P  P4  1  0.56908934  0.44006799  0.45468247  1.0
  P  P5  1  0.88559313  0.43091066  0.87097865  1.0
  P  P6  1  0.98538552  1.11440687  1.54531753  1.0
  O  O7  1  0.61203170  0.93722491  0.94334244  1.0
  O  O8  1  1.33131074  1.38796830  1.32519321  1.0
  O  O9  1  0.99388247  1.66868926  1.05665756  1.0
  O  O10  1  1.06277509  1.00611753  1.67480679  1.0
  O  O11  1  0.34019485  0.91564719  1.05764168  1.0
  O  O12  1  0.71744683  0.65980515  0.57545234  1.0
  O  O13  1  0.85800551  1.28255317  0.94235832  1.0
  O  O14  1  1.08435281  1.14199449  0.42454766  1.0
  O  O15  1  0.62634875  1.27512640  1.26845310  1.0
  O  O16  1  1.64210435  1.37365125  1.64877765  1.0
  O  O17  1  1.00667330  1.35789565  0.73154690  1.0
  O  O18  1  0.72487360  0.99332670  1.35122235  1.0
