# generated using pymatgen
data_SmCuP2
_symmetry_space_group_name_H-M   'P 1'
_cell_length_a   3.77679172
_cell_length_b   3.77679172
_cell_length_c   10.00351816
_cell_angle_alpha   90.00000000
_cell_angle_beta   90.00000000
_cell_angle_gamma   90.00000000
_symmetry_Int_Tables_number   1
_chemical_formula_structural   SmCuP2
_chemical_formula_sum   'Sm2 Cu2 P4'
_cell_volume   142.69174066
_cell_formula_units_Z   2
loop_
 _symmetry_equiv_pos_site_id
 _symmetry_equiv_pos_as_xyz
  1  'x, y, z'
loop_
 _atom_site_type_symbol
 _atom_site_label
 _atom_site_symmetry_multiplicity
 _atom_site_fract_x
 _atom_site_fract_y
 _atom_site_fract_z
 _atom_site_occupancy
  Sm  Sm0  1  0.50000000  0.00000000  0.23186350  1.0
  Sm  Sm1  1  0.00000000  0.50000000  0.76813650  1.0
  Cu  Cu2  1  0.00000000  0.00000000  0.50000000  1.0
  Cu  Cu3  1  0.50000000  0.50000000  0.50000000  1.0
  P  P4  1  0.50000000  0.00000000  0.64427471  1.0
  P  P5  1  0.00000000  0.50000000  0.35572529  1.0
  P  P6  1  0.00000000  0.00000000  0.00000000  1.0
  P  P7  1  0.50000000  0.50000000  0.00000000  1.0
