# generated using pymatgen
data_LiPF6
_symmetry_space_group_name_H-M   'P 1'
_cell_length_a   5.20778845
_cell_length_b   5.20778845
_cell_length_c   5.20778845
_cell_angle_alpha   59.03686374
_cell_angle_beta   59.03686374
_cell_angle_gamma   59.03686374
_symmetry_Int_Tables_number   1
_chemical_formula_structural   LiPF6
_chemical_formula_sum   'Li1 P1 F6'
_cell_volume   97.67860877
_cell_formula_units_Z   1
loop_
 _symmetry_equiv_pos_site_id
 _symmetry_equiv_pos_as_xyz
  1  'x, y, z'
loop_
 _atom_site_type_symbol
 _atom_site_label
 _atom_site_symmetry_multiplicity
 _atom_site_fract_x
 _atom_site_fract_y
 _atom_site_fract_z
 _atom_site_occupancy
  Li  Li0  1  0.50000000  0.50000000  -0.50000000  1.0
  P  P1  1  -0.00000000  0.00000000  -0.00000000  1.0
  F  F2  1  0.16058569  0.78023070  -0.71972960  1.0
  F  F3  1  0.71972960  -0.16058569  0.21976930  1.0
  F  F4  1  1.21976930  -0.28027040  -0.16058569  1.0
  F  F5  1  0.83941431  0.21976930  -0.28027040  1.0
  F  F6  1  0.28027040  0.16058569  -0.21976930  1.0
  F  F7  1  0.78023070  0.28027040  -0.83941431  1.0
