# generated using pymatgen
data_Cs2BeCl4
_symmetry_space_group_name_H-M   'P 1'
_cell_length_a   9.86551395
_cell_length_b   7.29021147
_cell_length_c   12.74571694
_cell_angle_alpha   90.00000000
_cell_angle_beta   90.00000000
_cell_angle_gamma   90.00000000
_symmetry_Int_Tables_number   1
_chemical_formula_structural   Cs2BeCl4
_chemical_formula_sum   'Cs8 Be4 Cl16'
_cell_volume   916.69341300
_cell_formula_units_Z   4
loop_
 _symmetry_equiv_pos_site_id
 _symmetry_equiv_pos_as_xyz
  1  'x, y, z'
loop_
 _atom_site_type_symbol
 _atom_site_label
 _atom_site_symmetry_multiplicity
 _atom_site_fract_x
 _atom_site_fract_y
 _atom_site_fract_z
 _atom_site_occupancy
  Cs  Cs0  1  0.85271218  0.75000000  0.39878167  1.0
  Cs  Cs1  1  0.35271218  0.75000000  0.10121833  1.0
  Cs  Cs2  1  0.14728782  0.25000000  0.60121833  1.0
  Cs  Cs3  1  0.64728782  0.25000000  0.89878167  1.0
  Cs  Cs4  1  0.52302851  0.75000000  0.67475878  1.0
  Cs  Cs5  1  0.02302851  0.75000000  0.82524122  1.0
  Cs  Cs6  1  0.47697149  0.25000000  0.32524122  1.0
  Cs  Cs7  1  0.97697149  0.25000000  0.17475878  1.0
  Be  Be8  1  0.75554374  0.75000000  0.08097560  1.0
  Be  Be9  1  0.25554374  0.75000000  0.41902440  1.0
  Be  Be10  1  0.24445626  0.25000000  0.91902440  1.0
  Be  Be11  1  0.74445626  0.25000000  0.58097560  1.0
  Cl  Cl12  1  0.67760093  0.97927576  0.15031550  1.0
  Cl  Cl13  1  0.67760093  0.52072424  0.15031550  1.0
  Cl  Cl14  1  0.17760093  0.97927576  0.34968450  1.0
  Cl  Cl15  1  0.17760093  0.52072424  0.34968450  1.0
  Cl  Cl16  1  0.32239907  0.47927576  0.84968450  1.0
  Cl  Cl17  1  0.32239907  0.02072424  0.84968450  1.0
  Cl  Cl18  1  0.82239907  0.47927576  0.65031550  1.0
  Cl  Cl19  1  0.82239907  0.02072424  0.65031550  1.0
  Cl  Cl20  1  0.96117007  0.75000000  0.09820514  1.0
  Cl  Cl21  1  0.46117007  0.75000000  0.40179486  1.0
  Cl  Cl22  1  0.03882993  0.25000000  0.90179486  1.0
  Cl  Cl23  1  0.53882993  0.25000000  0.59820514  1.0
  Cl  Cl24  1  0.19690908  0.75000000  0.57319988  1.0
  Cl  Cl25  1  0.69690908  0.75000000  0.92680012  1.0
  Cl  Cl26  1  0.80309092  0.25000000  0.42680012  1.0
  Cl  Cl27  1  0.30309092  0.25000000  0.07319988  1.0
