# generated using pymatgen
data_LiGe2(PO4)3
_symmetry_space_group_name_H-M   'P 1'
_cell_length_a   8.44354295
_cell_length_b   8.44354295
_cell_length_c   8.44354295
_cell_angle_alpha   59.68462360
_cell_angle_beta   59.68462360
_cell_angle_gamma   59.68462360
_symmetry_Int_Tables_number   1
_chemical_formula_structural   LiGe2(PO4)3
_chemical_formula_sum   'Li2 Ge4 P6 O24'
_cell_volume   422.60680484
_cell_formula_units_Z   2
loop_
 _symmetry_equiv_pos_site_id
 _symmetry_equiv_pos_as_xyz
  1  'x, y, z'
loop_
 _atom_site_type_symbol
 _atom_site_label
 _atom_site_symmetry_multiplicity
 _atom_site_fract_x
 _atom_site_fract_y
 _atom_site_fract_z
 _atom_site_occupancy
  Li  Li0  1  1.00000000  0.00000000  -0.00000000  1.0
  Li  Li1  1  0.50000000  0.50000000  0.50000000  1.0
  Ge  Ge2  1  0.85902710  -0.14097290  -0.14097290  1.0
  Ge  Ge3  1  0.35902710  0.35902710  0.35902710  1.0
  Ge  Ge4  1  0.64097290  0.64097290  -0.35902710  1.0
  Ge  Ge5  1  1.14097290  0.14097290  0.14097290  1.0
  P  P6  1  0.46161001  0.75000000  0.03838999  1.0
  P  P7  1  0.96161001  -0.46161001  0.25000000  1.0
  P  P8  1  0.25000000  0.96161001  -0.46161001  1.0
  P  P9  1  0.75000000  1.03838999  -0.53838999  1.0
  P  P10  1  0.53838999  0.25000000  -0.03838999  1.0
  P  P11  1  1.03838999  0.46161001  -0.25000000  1.0
  O  O12  1  0.79798944  1.00831763  -0.36987130  1.0
  O  O13  1  1.29798944  0.13012870  -0.49168237  1.0
  O  O14  1  0.86987130  0.49168237  -0.29798944  1.0
  O  O15  1  0.36987130  0.20201056  -0.00831763  1.0
  O  O16  1  0.99168237  0.36987130  -0.79798944  1.0
  O  O17  1  0.49168237  0.70201056  -0.13012870  1.0
  O  O18  1  0.20201056  0.99168237  -0.63012870  1.0
  O  O19  1  0.70201056  0.86987130  -0.50831763  1.0
  O  O20  1  0.63012870  0.79798944  0.00831763  1.0
  O  O21  1  1.13012870  -0.49168237  0.29798944  1.0
  O  O22  1  0.50831763  0.29798944  0.13012870  1.0
  O  O23  1  1.00831763  0.63012870  -0.20201056  1.0
  O  O24  1  0.73463471  0.07752520  -0.05627057  1.0
  O  O25  1  1.23463471  0.44372943  -0.42247480  1.0
  O  O26  1  0.55627057  0.42247480  -0.23463471  1.0
  O  O27  1  1.05627057  0.26536529  -0.07752520  1.0
  O  O28  1  0.92247480  0.05627057  0.26536529  1.0
  O  O29  1  0.42247480  0.76536529  -0.44372943  1.0
  O  O30  1  1.26536529  -0.07752520  0.05627057  1.0
  O  O31  1  0.76536529  0.55627057  -0.57752520  1.0
  O  O32  1  0.94372943  -0.26536529  0.07752520  1.0
  O  O33  1  0.44372943  0.57752520  0.23463471  1.0
  O  O34  1  0.57752520  1.23463471  -0.55627057  1.0
  O  O35  1  1.07752520  -0.05627057  -0.26536529  1.0
