# generated using pymatgen
data_BeAlSiHO5
_symmetry_space_group_name_H-M   'P 1'
_cell_length_a   4.67718125
_cell_length_b   14.48059848
_cell_length_c   4.82743018
_cell_angle_alpha   90.00000000
_cell_angle_beta   100.32693259
_cell_angle_gamma   90.00000000
_symmetry_Int_Tables_number   1
_chemical_formula_structural   BeAlSiHO5
_chemical_formula_sum   'Be4 Al4 Si4 H4 O20'
_cell_volume   321.65767618
_cell_formula_units_Z   4
loop_
 _symmetry_equiv_pos_site_id
 _symmetry_equiv_pos_as_xyz
  1  'x, y, z'
loop_
 _atom_site_type_symbol
 _atom_site_label
 _atom_site_symmetry_multiplicity
 _atom_site_fract_x
 _atom_site_fract_y
 _atom_site_fract_z
 _atom_site_occupancy
  Be  Be0  1  0.45634862  0.19894968  0.17361743  1.0
  Be  Be1  1  0.45634862  0.30105032  0.67361743  1.0
  Be  Be2  1  0.54365138  0.69894968  0.32638257  1.0
  Be  Be3  1  0.54365138  0.80105032  0.82638257  1.0
  Al  Al4  1  0.95769785  0.05526530  0.24894021  1.0
  Al  Al5  1  0.95769785  0.44473470  0.74894021  1.0
  Al  Al6  1  0.04230215  0.55526530  0.25105979  1.0
  Al  Al7  1  0.04230215  0.94473470  0.75105979  1.0
  Si  Si8  1  0.53685727  0.39958263  0.17667300  1.0
  Si  Si9  1  0.53685727  0.10041737  0.67667300  1.0
  Si  Si10  1  0.46314273  0.89958263  0.32332700  1.0
  Si  Si11  1  0.46314273  0.60041737  0.82332700  1.0
  H  H12  1  1.01314853  0.70387531  0.47613955  1.0
  H  H13  1  1.01314853  0.79612469  0.97613955  1.0
  H  H14  1  -0.01314853  0.20387531  0.02386045  1.0
  H  H15  1  -0.01314853  0.29612469  0.52386045  1.0
  O  O16  1  0.87800957  0.66797318  0.34057845  1.0
  O  O17  1  0.87800957  0.83202682  0.84057845  1.0
  O  O18  1  0.12199043  0.16797318  0.15942155  1.0
  O  O19  1  0.12199043  0.33202682  0.65942155  1.0
  O  O20  1  0.78784499  0.94734435  0.39959498  1.0
  O  O21  1  0.78784499  0.55265565  0.89959498  1.0
  O  O22  1  0.21215501  0.44734435  0.10040502  1.0
  O  O23  1  0.21215501  0.05265565  0.60040502  1.0
  O  O24  1  0.76456714  0.46714557  0.38170186  1.0
  O  O25  1  0.76456714  0.03285443  0.88170186  1.0
  O  O26  1  0.23543286  0.96714557  0.11829814  1.0
  O  O27  1  0.23543286  0.53285443  0.61829814  1.0
  O  O28  1  0.65207857  0.12359306  0.37901656  1.0
  O  O29  1  0.65207857  0.37640694  0.87901656  1.0
  O  O30  1  0.34792143  0.62359306  0.12098344  1.0
  O  O31  1  0.34792143  0.87640694  0.62098344  1.0
  O  O32  1  0.52546258  0.29984752  0.34357496  1.0
  O  O33  1  0.52546258  0.20015248  0.84357496  1.0
  O  O34  1  0.47453742  0.79984752  0.15642504  1.0
  O  O35  1  0.47453742  0.70015248  0.65642504  1.0
