# generated using pymatgen
data_Tl2Hg3S4
_symmetry_space_group_name_H-M   'P 1'
_cell_length_a   6.92207446
_cell_length_b   6.92207446
_cell_length_c   13.83946583
_cell_angle_alpha   72.66272637
_cell_angle_beta   107.33727363
_cell_angle_gamma   121.67047281
_symmetry_Int_Tables_number   1
_chemical_formula_structural   Tl2Hg3S4
_chemical_formula_sum   'Tl4 Hg6 S8'
_cell_volume   530.48929777
_cell_formula_units_Z   2
loop_
 _symmetry_equiv_pos_site_id
 _symmetry_equiv_pos_as_xyz
  1  'x, y, z'
loop_
 _atom_site_type_symbol
 _atom_site_label
 _atom_site_symmetry_multiplicity
 _atom_site_fract_x
 _atom_site_fract_y
 _atom_site_fract_z
 _atom_site_occupancy
  Tl  Tl0  1  1.74472159  0.14827439  0.43187886  1.0
  Tl  Tl1  1  0.85172561  0.25527841  0.93187886  1.0
  Tl  Tl2  1  1.14827439  0.74472159  0.06812114  1.0
  Tl  Tl3  1  1.25527841  -0.14827439  0.56812114  1.0
  Hg  Hg4  1  1.48157826  0.35929536  0.15431330  1.0
  Hg  Hg5  1  0.64070464  0.51842174  0.65431330  1.0
  Hg  Hg6  1  1.35929536  0.48157826  0.34568670  1.0
  Hg  Hg7  1  1.51842174  -0.35929536  0.84568670  1.0
  Hg  Hg8  1  0.91017691  0.91017691  0.25000000  1.0
  Hg  Hg9  1  1.08982309  0.08982309  0.75000000  1.0
  S  S10  1  0.63117765  -0.24471901  0.08376918  1.0
  S  S11  1  1.24471901  -0.63117765  0.58376918  1.0
  S  S12  1  0.75528099  -0.36882235  0.41623082  1.0
  S  S13  1  0.36882235  0.24471901  0.91623082  1.0
  S  S14  1  0.32107097  -0.02220482  0.24640992  1.0
  S  S15  1  1.02220482  0.67892903  0.74640992  1.0
  S  S16  1  0.97779518  0.32107097  0.25359008  1.0
  S  S17  1  0.67892903  0.02220482  0.75359008  1.0
