# generated using pymatgen
data_Na6PbO5
_symmetry_space_group_name_H-M   'P 1'
_cell_length_a   6.15656983
_cell_length_b   6.15656983
_cell_length_c   11.05867761
_cell_angle_alpha   90.00000000
_cell_angle_beta   90.00000000
_cell_angle_gamma   56.23151283
_symmetry_Int_Tables_number   1
_chemical_formula_structural   Na6PbO5
_chemical_formula_sum   'Na12 Pb2 O10'
_cell_volume   348.44443582
_cell_formula_units_Z   2
loop_
 _symmetry_equiv_pos_site_id
 _symmetry_equiv_pos_as_xyz
  1  'x, y, z'
loop_
 _atom_site_type_symbol
 _atom_site_label
 _atom_site_symmetry_multiplicity
 _atom_site_fract_x
 _atom_site_fract_y
 _atom_site_fract_z
 _atom_site_occupancy
  Na  Na0  1  -0.07154312  0.66877321  0.75000000  1.0
  Na  Na1  1  -0.33122679  0.92845688  0.25000000  1.0
  Na  Na2  1  -0.66877321  1.07154312  0.75000000  1.0
  Na  Na3  1  0.07154312  0.33122679  0.25000000  1.0
  Na  Na4  1  -0.81742182  0.81742182  0.94122294  1.0
  Na  Na5  1  -0.81742182  0.81742182  0.55877706  1.0
  Na  Na6  1  -0.18257818  0.18257818  0.44122294  1.0
  Na  Na7  1  -0.18257818  0.18257818  0.05877706  1.0
  Na  Na8  1  -0.27965494  0.72034506  0.00000000  1.0
  Na  Na9  1  -0.27965494  0.72034506  0.50000000  1.0
  Na  Na10  1  0.27965494  0.27965494  0.00000000  1.0
  Na  Na11  1  0.27965494  0.27965494  0.50000000  1.0
  Pb  Pb12  1  -0.29520314  0.29520314  0.75000000  1.0
  Pb  Pb13  1  -0.70479686  0.70479686  0.25000000  1.0
  O  O14  1  -0.05735546  0.33658343  0.88623337  1.0
  O  O15  1  -0.05735546  0.33658343  0.61376663  1.0
  O  O16  1  -0.66341657  0.94264454  0.38623337  1.0
  O  O17  1  -0.66341657  0.94264454  0.11376663  1.0
  O  O18  1  -0.33658343  1.05735546  0.88623337  1.0
  O  O19  1  -0.33658343  1.05735546  0.61376663  1.0
  O  O20  1  0.05735546  0.66341657  0.38623337  1.0
  O  O21  1  0.05735546  0.66341657  0.11376663  1.0
  O  O22  1  -0.66695948  0.66695948  0.75000000  1.0
  O  O23  1  -0.33304052  0.33304052  0.25000000  1.0
