# generated using pymatgen
data_Y3Ga5
_symmetry_space_group_name_H-M   'P 1'
_cell_length_a   11.48686646
_cell_length_b   9.69767138
_cell_length_c   6.12534529
_cell_angle_alpha   90.00000000
_cell_angle_beta   90.00000000
_cell_angle_gamma   90.00000000
_symmetry_Int_Tables_number   1
_chemical_formula_structural   Y3Ga5
_chemical_formula_sum   'Y12 Ga20'
_cell_volume   682.33808278
_cell_formula_units_Z   4
loop_
 _symmetry_equiv_pos_site_id
 _symmetry_equiv_pos_as_xyz
  1  'x, y, z'
loop_
 _atom_site_type_symbol
 _atom_site_label
 _atom_site_symmetry_multiplicity
 _atom_site_fract_x
 _atom_site_fract_y
 _atom_site_fract_z
 _atom_site_occupancy
  Y  Y0  1  0.64852336  0.48986071  0.11122799  1.0
  Y  Y1  1  0.64852336  0.01013929  0.11122799  1.0
  Y  Y2  1  0.14852336  0.48986071  0.38877201  1.0
  Y  Y3  1  0.14852336  0.01013929  0.38877201  1.0
  Y  Y4  1  0.35147664  0.98986071  0.88877201  1.0
  Y  Y5  1  0.35147664  0.51013929  0.88877201  1.0
  Y  Y6  1  0.85147664  0.98986071  0.61122799  1.0
  Y  Y7  1  0.85147664  0.51013929  0.61122799  1.0
  Y  Y8  1  0.92434666  0.25000000  0.15129976  1.0
  Y  Y9  1  0.42434666  0.25000000  0.34870024  1.0
  Y  Y10  1  0.07565334  0.75000000  0.84870024  1.0
  Y  Y11  1  0.57565334  0.75000000  0.65129976  1.0
  Ga  Ga12  1  0.91017893  0.94685459  0.12730997  1.0
  Ga  Ga13  1  0.91017893  0.55314541  0.12730997  1.0
  Ga  Ga14  1  0.41017893  0.94685459  0.37269003  1.0
  Ga  Ga15  1  0.41017893  0.55314541  0.37269003  1.0
  Ga  Ga16  1  0.08982107  0.44685459  0.87269003  1.0
  Ga  Ga17  1  0.08982107  0.05314541  0.87269003  1.0
  Ga  Ga18  1  0.58982107  0.44685459  0.62730997  1.0
  Ga  Ga19  1  0.58982107  0.05314541  0.62730997  1.0
  Ga  Ga20  1  0.99440579  0.25000000  0.62871222  1.0
  Ga  Ga21  1  0.49440579  0.25000000  0.87128778  1.0
  Ga  Ga22  1  0.00559421  0.75000000  0.37128778  1.0
  Ga  Ga23  1  0.50559421  0.75000000  0.12871222  1.0
  Ga  Ga24  1  0.74683816  0.25000000  0.82496269  1.0
  Ga  Ga25  1  0.24683816  0.25000000  0.67503731  1.0
  Ga  Ga26  1  0.25316184  0.75000000  0.17503731  1.0
  Ga  Ga27  1  0.75316184  0.75000000  0.32496269  1.0
  Ga  Ga28  1  0.69856562  0.25000000  0.40110029  1.0
  Ga  Ga29  1  0.19856562  0.25000000  0.09889971  1.0
  Ga  Ga30  1  0.30143438  0.75000000  0.59889971  1.0
  Ga  Ga31  1  0.80143438  0.75000000  0.90110029  1.0
