# generated using pymatgen
data_Cr3B7IO13
_symmetry_space_group_name_H-M   'P 1'
_cell_length_a   8.66953062
_cell_length_b   8.66953062
_cell_length_c   8.66953062
_cell_angle_alpha   60.00000000
_cell_angle_beta   60.00000000
_cell_angle_gamma   60.00000000
_symmetry_Int_Tables_number   1
_chemical_formula_structural   Cr3B7IO13
_chemical_formula_sum   'Cr6 B14 I2 O26'
_cell_volume   460.75680422
_cell_formula_units_Z   2
loop_
 _symmetry_equiv_pos_site_id
 _symmetry_equiv_pos_as_xyz
  1  'x, y, z'
loop_
 _atom_site_type_symbol
 _atom_site_label
 _atom_site_symmetry_multiplicity
 _atom_site_fract_x
 _atom_site_fract_y
 _atom_site_fract_z
 _atom_site_occupancy
  Cr  Cr0  1  0.50000000  -0.00000000  0.00000000  1.0
  Cr  Cr1  1  1.00000000  0.50000000  -0.50000000  1.0
  Cr  Cr2  1  -0.50000000  0.50000000  1.00000000  1.0
  Cr  Cr3  1  -0.00000000  0.50000000  0.00000000  1.0
  Cr  Cr4  1  -0.00000000  0.00000000  0.50000000  1.0
  Cr  Cr5  1  0.50000000  1.00000000  -0.50000000  1.0
  B  B6  1  0.91983946  0.91983946  -0.08016054  1.0
  B  B7  1  0.41983946  1.41983946  0.41983946  1.0
  B  B8  1  0.24048161  0.91983946  -0.08016054  1.0
  B  B9  1  -0.25951839  0.41983946  0.41983946  1.0
  B  B10  1  0.91983946  0.91983946  -0.75951839  1.0
  B  B11  1  0.41983946  1.41983946  -0.25951839  1.0
  B  B12  1  0.91983946  0.24048161  -0.08016054  1.0
  B  B13  1  0.41983946  -0.25951839  0.41983946  1.0
  B  B14  1  -0.75000000  0.75000000  0.75000000  1.0
  B  B15  1  -0.25000000  0.25000000  0.25000000  1.0
  B  B16  1  0.25000000  1.25000000  -0.25000000  1.0
  B  B17  1  -0.25000000  0.25000000  0.75000000  1.0
  B  B18  1  -0.25000000  0.75000000  0.25000000  1.0
  B  B19  1  0.25000000  -0.25000000  0.25000000  1.0
  I  I20  1  0.75000000  0.75000000  -0.25000000  1.0
  I  I21  1  0.25000000  0.25000000  0.25000000  1.0
  O  O22  1  0.74363264  1.06421506  -0.10343498  1.0
  O  O23  1  0.24363264  1.39656502  0.56421506  1.0
  O  O24  1  -0.70441273  0.89656502  1.06421506  1.0
  O  O25  1  -0.20441273  0.56421506  0.39656502  1.0
  O  O26  1  0.39656502  1.56421506  0.24363264  1.0
  O  O27  1  -0.10343498  0.74363264  1.06421506  1.0
  O  O28  1  -0.20441273  0.24363264  0.56421506  1.0
  O  O29  1  0.29558727  1.06421506  -0.25636736  1.0
  O  O30  1  1.06421506  0.89656502  -0.25636736  1.0
  O  O31  1  0.56421506  1.24363264  0.39656502  1.0
  O  O32  1  -0.70441273  0.74363264  0.89656502  1.0
  O  O33  1  -0.20441273  0.39656502  0.24363264  1.0
  O  O34  1  1.06421506  0.74363264  -0.70441273  1.0
  O  O35  1  0.39656502  1.24363264  -0.20441273  1.0
  O  O36  1  -0.10343498  0.29558727  0.74363264  1.0
  O  O37  1  0.56421506  -0.20441273  0.24363264  1.0
  O  O38  1  0.56421506  1.39656502  -0.20441273  1.0
  O  O39  1  -0.25636736  0.89656502  0.29558727  1.0
  O  O40  1  0.24363264  -0.20441273  0.39656502  1.0
  O  O41  1  1.06421506  0.29558727  -0.10343498  1.0
  O  O42  1  0.89656502  1.06421506  -0.70441273  1.0
  O  O43  1  0.24363264  1.56421506  -0.20441273  1.0
  O  O44  1  -0.25636736  0.29558727  1.06421506  1.0
  O  O45  1  0.39656502  -0.20441273  0.56421506  1.0
  O  O46  1  0.00000000  0.00000000  0.00000000  1.0
  O  O47  1  -0.50000000  0.50000000  0.50000000  1.0
