# generated using pymatgen
data_SiO2
_symmetry_space_group_name_H-M   'P 1'
_cell_length_a   4.53094909
_cell_length_b   8.22662293
_cell_length_c   9.49229279
_cell_angle_alpha   90.00000000
_cell_angle_beta   90.00000000
_cell_angle_gamma   90.00000000
_symmetry_Int_Tables_number   1
_chemical_formula_structural   SiO2
_chemical_formula_sum   'Si8 O16'
_cell_volume   353.81960972
_cell_formula_units_Z   8
loop_
 _symmetry_equiv_pos_site_id
 _symmetry_equiv_pos_as_xyz
  1  'x, y, z'
loop_
 _atom_site_type_symbol
 _atom_site_label
 _atom_site_symmetry_multiplicity
 _atom_site_fract_x
 _atom_site_fract_y
 _atom_site_fract_z
 _atom_site_occupancy
  Si  Si0  1  0.70152886  0.66651750  0.40143915  1.0
  Si  Si1  1  0.29847114  0.66651750  0.59856085  1.0
  Si  Si2  1  0.70152886  0.33348250  0.59856085  1.0
  Si  Si3  1  0.29847114  0.33348250  0.40143915  1.0
  Si  Si4  1  0.79847114  0.83348250  0.09856085  1.0
  Si  Si5  1  0.20152886  0.83348250  0.90143915  1.0
  Si  Si6  1  0.79847114  0.16651750  0.90143915  1.0
  Si  Si7  1  0.20152886  0.16651750  0.09856085  1.0
  O  O8  1  0.50000000  0.78543341  0.50000000  1.0
  O  O9  1  0.50000000  0.21456659  0.50000000  1.0
  O  O10  1  0.00000000  0.71456659  0.00000000  1.0
  O  O11  1  0.00000000  0.28543341  0.00000000  1.0
  O  O12  1  0.50000000  0.50000000  0.36398025  1.0
  O  O13  1  0.50000000  0.50000000  0.63601975  1.0
  O  O14  1  0.00000000  0.00000000  0.13601975  1.0
  O  O15  1  0.00000000  0.00000000  0.86398025  1.0
  O  O16  1  0.00000000  0.64990200  0.50000000  1.0
  O  O17  1  0.00000000  0.35009800  0.50000000  1.0
  O  O18  1  0.50000000  0.85009800  0.00000000  1.0
  O  O19  1  0.50000000  0.14990200  0.00000000  1.0
  O  O20  1  0.75000000  0.75000000  0.25000000  1.0
  O  O21  1  0.25000000  0.75000000  0.75000000  1.0
  O  O22  1  0.75000000  0.25000000  0.75000000  1.0
  O  O23  1  0.25000000  0.25000000  0.25000000  1.0
