# generated using pymatgen
data_CrBiO3
_symmetry_space_group_name_H-M   'P 1'
_cell_length_a   5.56866550
_cell_length_b   5.56866550
_cell_length_c   5.56866551
_cell_angle_alpha   60.03004234
_cell_angle_beta   60.03004234
_cell_angle_gamma   60.03004234
_symmetry_Int_Tables_number   1
_chemical_formula_structural   CrBiO3
_chemical_formula_sum   'Cr2 Bi2 O6'
_cell_volume   122.18954675
_cell_formula_units_Z   2
loop_
 _symmetry_equiv_pos_site_id
 _symmetry_equiv_pos_as_xyz
  1  'x, y, z'
loop_
 _atom_site_type_symbol
 _atom_site_label
 _atom_site_symmetry_multiplicity
 _atom_site_fract_x
 _atom_site_fract_y
 _atom_site_fract_z
 _atom_site_occupancy
  Cr  Cr0  1  1.27083610  1.27083610  0.27083610  1.0
  Cr  Cr1  1  0.77083610  0.77083610  -0.22916390  1.0
  Bi  Bi2  1  0.49617105  0.49617105  -0.50382895  1.0
  Bi  Bi3  1  -0.00382895  -0.00382895  -0.00382895  1.0
  O  O4  1  0.55049863  0.09496787  -0.04547365  1.0
  O  O5  1  0.45452635  0.59496787  -0.94950137  1.0
  O  O6  1  1.09496787  -0.04547365  -0.44950137  1.0
  O  O7  1  0.59496787  0.05049863  -0.54547365  1.0
  O  O8  1  0.95452635  -0.44950137  0.09496787  1.0
  O  O9  1  0.05049863  0.45452635  -0.40503213  1.0
