# generated using pymatgen
data_NiPClO3
_symmetry_space_group_name_H-M   'P 1'
_cell_length_a   6.00483658
_cell_length_b   10.93912946
_cell_length_c   12.53135285
_cell_angle_alpha   90.00000000
_cell_angle_beta   90.00000000
_cell_angle_gamma   90.00000000
_symmetry_Int_Tables_number   1
_chemical_formula_structural   NiPClO3
_chemical_formula_sum   'Ni8 P8 Cl8 O24'
_cell_volume   823.15555568
_cell_formula_units_Z   8
loop_
 _symmetry_equiv_pos_site_id
 _symmetry_equiv_pos_as_xyz
  1  'x, y, z'
loop_
 _atom_site_type_symbol
 _atom_site_label
 _atom_site_symmetry_multiplicity
 _atom_site_fract_x
 _atom_site_fract_y
 _atom_site_fract_z
 _atom_site_occupancy
  Cl  Cl0  1  0.44579778  0.13049912  0.34593847  1.0
  Cl  Cl1  1  0.44579778  0.36950088  0.84593847  1.0
  Cl  Cl2  1  0.94579778  0.13049912  0.15406153  1.0
  Cl  Cl3  1  0.94579778  0.36950088  0.65406153  1.0
  Cl  Cl4  1  0.55420222  0.63049912  0.15406153  1.0
  Cl  Cl5  1  0.55420222  0.86950088  0.65406153  1.0
  Cl  Cl6  1  0.05420222  0.63049912  0.34593847  1.0
  Cl  Cl7  1  0.05420222  0.86950088  0.84593847  1.0
  Ni  Ni8  1  0.32778298  0.47783905  0.40402538  1.0
  Ni  Ni9  1  0.32778298  0.02216095  0.90402538  1.0
  Ni  Ni10  1  0.82778298  0.47783905  0.09597462  1.0
  Ni  Ni11  1  0.82778298  0.02216095  0.59597462  1.0
  Ni  Ni12  1  0.67221702  0.97783905  0.09597462  1.0
  Ni  Ni13  1  0.67221702  0.52216095  0.59597462  1.0
  Ni  Ni14  1  0.17221702  0.97783905  0.40402538  1.0
  Ni  Ni15  1  0.17221702  0.52216095  0.90402538  1.0
  O  O16  1  0.04342655  0.38817134  0.42251299  1.0
  O  O17  1  0.04342655  0.11182866  0.92251299  1.0
  O  O18  1  0.54342655  0.38817134  0.07748701  1.0
  O  O19  1  0.54342655  0.11182866  0.57748701  1.0
  O  O20  1  0.95657345  0.88817134  0.07748701  1.0
  O  O21  1  0.95657345  0.61182866  0.57748701  1.0
  O  O22  1  0.45657345  0.88817134  0.42251299  1.0
  O  O23  1  0.45657345  0.61182866  0.92251299  1.0
  O  O24  1  0.15955513  0.48875630  0.07166140  1.0
  O  O25  1  0.15955513  0.01124370  0.57166140  1.0
  O  O26  1  0.65955513  0.48875630  0.42833860  1.0
  O  O27  1  0.65955513  0.01124370  0.92833860  1.0
  O  O28  1  0.84044487  0.98875630  0.42833860  1.0
  O  O29  1  0.84044487  0.51124370  0.92833860  1.0
  O  O30  1  0.34044487  0.98875630  0.07166140  1.0
  O  O31  1  0.34044487  0.51124370  0.57166140  1.0
  O  O32  1  0.32641681  0.42150393  0.25304435  1.0
  O  O33  1  0.32641681  0.07849607  0.75304435  1.0
  O  O34  1  0.82641681  0.42150393  0.24695565  1.0
  O  O35  1  0.82641681  0.07849607  0.74695565  1.0
  O  O36  1  0.67358319  0.92150393  0.24695565  1.0
  O  O37  1  0.67358319  0.57849607  0.74695565  1.0
  O  O38  1  0.17358319  0.92150393  0.25304435  1.0
  O  O39  1  0.17358319  0.57849607  0.75304435  1.0
  P  P40  1  0.37181281  0.46168513  0.14018025  1.0
  P  P41  1  0.37181281  0.03831487  0.64018025  1.0
  P  P42  1  0.87181281  0.46168513  0.35981975  1.0
  P  P43  1  0.87181281  0.03831487  0.85981975  1.0
  P  P44  1  0.62818719  0.96168513  0.35981975  1.0
  P  P45  1  0.62818719  0.53831487  0.85981975  1.0
  P  P46  1  0.12818719  0.96168513  0.14018025  1.0
  P  P47  1  0.12818719  0.53831487  0.64018025  1.0
