# generated using pymatgen
data_SnSe
_symmetry_space_group_name_H-M   'P 1'
_cell_length_a   11.78253749
_cell_length_b   4.20985062
_cell_length_c   4.56051144
_cell_angle_alpha   90.00000000
_cell_angle_beta   90.00000000
_cell_angle_gamma   90.00000000
_symmetry_Int_Tables_number   1
_chemical_formula_structural   SnSe
_chemical_formula_sum   'Sn4 Se4'
_cell_volume   226.21378465
_cell_formula_units_Z   4
loop_
 _symmetry_equiv_pos_site_id
 _symmetry_equiv_pos_as_xyz
  1  'x, y, z'
loop_
 _atom_site_type_symbol
 _atom_site_label
 _atom_site_symmetry_multiplicity
 _atom_site_fract_x
 _atom_site_fract_y
 _atom_site_fract_z
 _atom_site_occupancy
  Sn  Sn0  1  0.37888276  0.75000000  0.88440640  1.0
  Sn  Sn1  1  0.87888276  0.75000000  0.61559360  1.0
  Sn  Sn2  1  0.62111724  0.25000000  0.11559360  1.0
  Sn  Sn3  1  0.12111724  0.25000000  0.38440640  1.0
  Se  Se4  1  0.14500088  0.75000000  0.97577292  1.0
  Se  Se5  1  0.64500088  0.75000000  0.52422708  1.0
  Se  Se6  1  0.85499912  0.25000000  0.02422708  1.0
  Se  Se7  1  0.35499912  0.25000000  0.47577292  1.0
