# generated using pymatgen
data_BN
_symmetry_space_group_name_H-M   'P 1'
_cell_length_a   4.12963791
_cell_length_b   4.93249408
_cell_length_c   4.93323761
_cell_angle_alpha   90.00000000
_cell_angle_beta   110.60459003
_cell_angle_gamma   90.00000000
_symmetry_Int_Tables_number   1
_chemical_formula_structural   BN
_chemical_formula_sum   'B4 N4'
_cell_volume   94.05913336
_cell_formula_units_Z   4
loop_
 _symmetry_equiv_pos_site_id
 _symmetry_equiv_pos_as_xyz
  1  'x, y, z'
loop_
 _atom_site_type_symbol
 _atom_site_label
 _atom_site_symmetry_multiplicity
 _atom_site_fract_x
 _atom_site_fract_y
 _atom_site_fract_z
 _atom_site_occupancy
  B  B0  1  0.50008729  0.14197823  0.14183765  1.0
  B  B1  1  0.49991271  0.64197823  0.35816235  1.0
  B  B2  1  0.49991271  0.85802177  0.85816235  1.0
  B  B3  1  0.50008729  0.35802177  0.64183765  1.0
  N  N4  1  0.49960816  0.65679181  0.65683998  1.0
  N  N5  1  0.50039184  0.15679181  0.84316002  1.0
  N  N6  1  0.50039184  0.34320819  0.34316002  1.0
  N  N7  1  0.49960816  0.84320819  0.15683998  1.0
