# generated using pymatgen
data_K2ZnCu3P3O12F
_symmetry_space_group_name_H-M   'P 1'
_cell_length_a   4.98439820
_cell_length_b   14.77637844
_cell_length_c   8.12464549
_cell_angle_alpha   90.00000000
_cell_angle_beta   90.95769553
_cell_angle_gamma   90.00000000
_symmetry_Int_Tables_number   1
_chemical_formula_structural   K2ZnCu3P3O12F
_chemical_formula_sum   'K4 Zn2 Cu6 P6 O24 F2'
_cell_volume   598.30755182
_cell_formula_units_Z   2
loop_
 _symmetry_equiv_pos_site_id
 _symmetry_equiv_pos_as_xyz
  1  'x, y, z'
loop_
 _atom_site_type_symbol
 _atom_site_label
 _atom_site_symmetry_multiplicity
 _atom_site_fract_x
 _atom_site_fract_y
 _atom_site_fract_z
 _atom_site_occupancy
  K  K0  1  0.54733898  0.75000000  0.87429330  1.0
  K  K1  1  0.45266102  0.25000000  0.12570670  1.0
  K  K2  1  0.50000000  0.00000000  0.50000000  1.0
  K  K3  1  0.50000000  0.50000000  0.50000000  1.0
  Zn  Zn4  1  0.02185872  0.75000000  0.55814559  1.0
  Zn  Zn5  1  0.97814128  0.25000000  0.44185441  1.0
  F  F6  1  0.05551758  0.75000000  0.02807534  1.0
  F  F7  1  0.94448242  0.25000000  0.97192466  1.0
  P  P8  1  -0.00197545  0.93080082  0.80483655  1.0
  P  P9  1  -0.00197545  0.56919918  0.80483655  1.0
  P  P10  1  1.00197545  0.43080082  0.19516345  1.0
  P  P11  1  1.00197545  0.06919918  0.19516345  1.0
  P  P12  1  0.51090471  0.75000000  0.34127104  1.0
  P  P13  1  0.48909529  0.25000000  0.65872896  1.0
  O  O14  1  0.07044332  0.97613159  0.27493119  1.0
  O  O15  1  0.07044332  0.52386841  0.27493119  1.0
  O  O16  1  0.92955668  0.47613159  0.72506881  1.0
  O  O17  1  0.92955668  0.02386841  0.72506881  1.0
  O  O18  1  0.09065852  0.35680115  0.31698538  1.0
  O  O19  1  0.09065852  0.14319885  0.31698538  1.0
  O  O20  1  0.90934148  0.85680115  0.68301462  1.0
  O  O21  1  0.90934148  0.64319885  0.68301462  1.0
  O  O22  1  0.30309483  0.92180591  0.84868197  1.0
  O  O23  1  0.30309483  0.57819409  0.84868197  1.0
  O  O24  1  0.69690516  0.42180591  0.15131803  1.0
  O  O25  1  0.69690516  0.07819409  0.15131803  1.0
  O  O26  1  0.42188720  0.83752676  0.24789978  1.0
  O  O27  1  0.42188720  0.66247324  0.24789978  1.0
  O  O28  1  0.57811280  0.33752676  0.75210022  1.0
  O  O29  1  0.57811280  0.16247324  0.75210022  1.0
  O  O30  1  0.40532640  0.75000000  0.52104914  1.0
  O  O31  1  0.59467360  0.25000000  0.47895086  1.0
  O  O32  1  0.82521273  0.75000000  0.34727854  1.0
  O  O33  1  0.17478727  0.25000000  0.65272146  1.0
  O  O34  1  0.16816199  0.41964445  0.02877927  1.0
  O  O35  1  0.16816199  0.08035555  0.02877927  1.0
  O  O36  1  0.83183801  0.91964445  0.97122073  1.0
  O  O37  1  0.83183801  0.58035555  0.97122073  1.0
  Cu  Cu38  1  0.07391728  0.86525171  0.14900167  1.0
  Cu  Cu39  1  0.07391728  0.63474829  0.14900167  1.0
  Cu  Cu40  1  0.92608272  0.36525171  0.85099833  1.0
  Cu  Cu41  1  0.92608272  0.13474829  0.85099833  1.0
  Cu  Cu42  1  0.50000000  0.00000000  0.00000000  1.0
  Cu  Cu43  1  0.50000000  0.50000000  0.00000000  1.0
