# generated using pymatgen
data_AgC4N3
_symmetry_space_group_name_H-M   'P 1'
_cell_length_a   7.72938650
_cell_length_b   7.72938650
_cell_length_c   7.72938650
_cell_angle_alpha   116.92375146
_cell_angle_beta   81.87412310
_cell_angle_gamma   133.51496342
_symmetry_Int_Tables_number   1
_chemical_formula_structural   AgC4N3
_chemical_formula_sum   'Ag2 C8 N6'
_cell_volume   288.02411416
_cell_formula_units_Z   2
loop_
 _symmetry_equiv_pos_site_id
 _symmetry_equiv_pos_as_xyz
  1  'x, y, z'
loop_
 _atom_site_type_symbol
 _atom_site_label
 _atom_site_symmetry_multiplicity
 _atom_site_fract_x
 _atom_site_fract_y
 _atom_site_fract_z
 _atom_site_occupancy
  Ag  Ag0  1  1.31325419  1.19011090  1.62314329  1.0
  Ag  Ag1  1  0.56696761  0.69011090  0.37685671  1.0
  C  C2  1  0.57437960  0.81419895  0.95962443  1.0
  C  C3  1  0.85457452  1.31419895  0.73981935  1.0
  C  C4  1  1.57437960  1.11475517  1.26018065  1.0
  C  C5  1  0.85457452  0.61475517  1.04037557  1.0
  C  C6  1  0.96085637  0.25038100  1.21047537  1.0
  C  C7  1  0.03990564  0.75038100  0.78952463  1.0
  C  C8  1  1.70363100  1.06236915  1.14126185  1.0
  C  C9  1  0.92110729  1.56236915  0.85873815  1.0
  N  N10  1  1.46754861  1.15950591  1.36018340  1.0
  N  N11  1  0.79932251  0.65950591  1.19195730  1.0
  N  N12  1  0.46754861  0.60736521  0.80804270  1.0
  N  N13  1  0.79932251  1.10736521  0.63981660  1.0
  N  N14  1  1.13477337  0.90461371  1.73015966  1.0
  N  N15  1  0.17445404  0.40461371  0.26984034  1.0
