# generated using pymatgen
data_NaZnF3
_symmetry_space_group_name_H-M   'P 1'
_cell_length_a   5.68247740
_cell_length_b   7.89460386
_cell_length_c   5.49465487
_cell_angle_alpha   90.00000000
_cell_angle_beta   90.00000000
_cell_angle_gamma   90.00000000
_symmetry_Int_Tables_number   1
_chemical_formula_structural   NaZnF3
_chemical_formula_sum   'Na4 Zn4 F12'
_cell_volume   246.49520637
_cell_formula_units_Z   4
loop_
 _symmetry_equiv_pos_site_id
 _symmetry_equiv_pos_as_xyz
  1  'x, y, z'
loop_
 _atom_site_type_symbol
 _atom_site_label
 _atom_site_symmetry_multiplicity
 _atom_site_fract_x
 _atom_site_fract_y
 _atom_site_fract_z
 _atom_site_occupancy
  Na  Na0  1  0.05577020  0.75000000  0.51527302  1.0
  Na  Na1  1  0.55577020  0.75000000  0.98472698  1.0
  Na  Na2  1  0.94422980  0.25000000  0.48472698  1.0
  Na  Na3  1  0.44422980  0.25000000  0.01527302  1.0
  Zn  Zn4  1  0.50000000  0.00000000  0.50000000  1.0
  Zn  Zn5  1  0.50000000  0.50000000  0.50000000  1.0
  Zn  Zn6  1  0.00000000  0.00000000  0.00000000  1.0
  Zn  Zn7  1  0.00000000  0.50000000  0.00000000  1.0
  F  F8  1  0.29893345  0.94469211  0.80250543  1.0
  F  F9  1  0.29893345  0.55530789  0.80250543  1.0
  F  F10  1  0.79893345  0.94469211  0.69749457  1.0
  F  F11  1  0.79893345  0.55530789  0.69749457  1.0
  F  F12  1  0.70106655  0.44469211  0.19749457  1.0
  F  F13  1  0.70106655  0.05530789  0.19749457  1.0
  F  F14  1  0.20106655  0.44469211  0.30250543  1.0
  F  F15  1  0.20106655  0.05530789  0.30250543  1.0
  F  F16  1  0.96111971  0.75000000  0.10533798  1.0
  F  F17  1  0.46111971  0.75000000  0.39466202  1.0
  F  F18  1  0.03888029  0.25000000  0.89466202  1.0
  F  F19  1  0.53888029  0.25000000  0.60533798  1.0
