# generated using pymatgen
data_Al2Si2H4O9
_symmetry_space_group_name_H-M   'P 1'
_cell_length_a   7.46832329
_cell_length_b   5.23425551
_cell_length_c   5.21530317
_cell_angle_alpha   59.88259537
_cell_angle_beta   75.26194010
_cell_angle_gamma   81.35637023
_symmetry_Int_Tables_number   1
_chemical_formula_structural   Al2Si2H4O9
_chemical_formula_sum   'Al2 Si2 H4 O9'
_cell_volume   170.48456736
_cell_formula_units_Z   1
loop_
 _symmetry_equiv_pos_site_id
 _symmetry_equiv_pos_as_xyz
  1  'x, y, z'
loop_
 _atom_site_type_symbol
 _atom_site_label
 _atom_site_symmetry_multiplicity
 _atom_site_fract_x
 _atom_site_fract_y
 _atom_site_fract_z
 _atom_site_occupancy
  Al  Al0  1  0.13633385  -0.06016865  0.28355453  1.0
  Al  Al1  1  0.13391233  -0.73208978  1.62695750  1.0
  Si  Si2  1  0.51943826  -0.04026203  0.48089897  1.0
  Si  Si3  1  0.51803489  -0.38339189  1.16672294  1.0
  H  H4  1  0.28534167  -0.59666489  0.90242545  1.0
  H  H5  1  0.88074818  -0.37934575  0.71082775  1.0
  H  H6  1  0.88132485  -0.71642138  1.36415984  1.0
  H  H7  1  0.88042117  -0.08434710  1.05190010  1.0
  O  O8  1  0.00152719  -0.00586572  0.00196535  1.0
  O  O9  1  0.61327757  -0.18699238  0.26037863  1.0
  O  O10  1  0.28518540  -0.78258658  0.90268830  1.0
  O  O11  1  0.00804585  -0.38859703  0.61068335  1.0
  O  O12  1  0.29624448  -0.01184354  0.51863448  1.0
  O  O13  1  0.58965667  -0.25340854  0.79993297  1.0
  O  O14  1  0.00804187  -0.77820306  1.38703189  1.0
  O  O15  1  0.61374286  -0.71676191  1.32270197  1.0
  O  O16  1  0.29512292  -0.39324976  1.28103598  1.0
