# generated using pymatgen
data_SrLiSb
_symmetry_space_group_name_H-M   'P 1'
_cell_length_a   8.06811470
_cell_length_b   4.83495917
_cell_length_c   8.50449985
_cell_angle_alpha   90.00000000
_cell_angle_beta   90.00000000
_cell_angle_gamma   90.00000000
_symmetry_Int_Tables_number   1
_chemical_formula_structural   SrLiSb
_chemical_formula_sum   'Sr4 Li4 Sb4'
_cell_volume   331.75207880
_cell_formula_units_Z   4
loop_
 _symmetry_equiv_pos_site_id
 _symmetry_equiv_pos_as_xyz
  1  'x, y, z'
loop_
 _atom_site_type_symbol
 _atom_site_label
 _atom_site_symmetry_multiplicity
 _atom_site_fract_x
 _atom_site_fract_y
 _atom_site_fract_z
 _atom_site_occupancy
  Sr  Sr0  1  0.99618855  0.75000000  0.70658931  1.0
  Sr  Sr1  1  0.49618855  0.75000000  0.79341069  1.0
  Sr  Sr2  1  0.00381145  0.25000000  0.29341069  1.0
  Sr  Sr3  1  0.50381145  0.25000000  0.20658931  1.0
  Li  Li4  1  0.84220998  0.75000000  0.07477536  1.0
  Li  Li5  1  0.34220998  0.75000000  0.42522464  1.0
  Li  Li6  1  0.15779002  0.25000000  0.92522464  1.0
  Li  Li7  1  0.65779002  0.25000000  0.57477536  1.0
  Sb  Sb8  1  0.72278724  0.75000000  0.40576309  1.0
  Sb  Sb9  1  0.22278724  0.75000000  0.09423691  1.0
  Sb  Sb10  1  0.27721276  0.25000000  0.59423691  1.0
  Sb  Sb11  1  0.77721276  0.25000000  0.90576309  1.0
