# generated using pymatgen
data_Y(GeRu)2
_symmetry_space_group_name_H-M   'P 1'
_cell_length_a   5.78634459
_cell_length_b   5.78634459
_cell_length_c   5.78634459
_cell_angle_alpha   136.80037034
_cell_angle_beta   136.80037034
_cell_angle_gamma   62.74534743
_symmetry_Int_Tables_number   1
_chemical_formula_structural   Y(GeRu)2
_chemical_formula_sum   'Y1 Ge2 Ru2'
_cell_volume   89.66254999
_cell_formula_units_Z   1
loop_
 _symmetry_equiv_pos_site_id
 _symmetry_equiv_pos_as_xyz
  1  'x, y, z'
loop_
 _atom_site_type_symbol
 _atom_site_label
 _atom_site_symmetry_multiplicity
 _atom_site_fract_x
 _atom_site_fract_y
 _atom_site_fract_z
 _atom_site_occupancy
  Y  Y0  1  0.00000000  0.00000000  0.00000000  1.0
  Ge  Ge1  1  0.63049438  0.63049438  1.00000000  1.0
  Ge  Ge2  1  0.36950562  0.36950562  -0.00000000  1.0
  Ru  Ru3  1  0.25000000  0.75000000  0.50000000  1.0
  Ru  Ru4  1  0.75000000  0.25000000  0.50000000  1.0
