# generated using pymatgen
data_SbBr(OF3)2
_symmetry_space_group_name_H-M   'P 1'
_cell_length_a   7.38396935
_cell_length_b   6.25255675
_cell_length_c   10.74433914
_cell_angle_alpha   90.00000000
_cell_angle_beta   132.95877125
_cell_angle_gamma   90.00000000
_symmetry_Int_Tables_number   1
_chemical_formula_structural   SbBr(OF3)2
_chemical_formula_sum   'Sb2 Br2 O4 F12'
_cell_volume   363.03283637
_cell_formula_units_Z   2
loop_
 _symmetry_equiv_pos_site_id
 _symmetry_equiv_pos_as_xyz
  1  'x, y, z'
loop_
 _atom_site_type_symbol
 _atom_site_label
 _atom_site_symmetry_multiplicity
 _atom_site_fract_x
 _atom_site_fract_y
 _atom_site_fract_z
 _atom_site_occupancy
  Br  Br0  1  0.50000000  0.31873172  0.25000000  1.0
  Br  Br1  1  0.50000000  0.68126828  0.75000000  1.0
  Sb  Sb2  1  -0.00000000  0.99138291  0.25000000  1.0
  Sb  Sb3  1  -0.00000000  0.00861709  0.75000000  1.0
  O  O4  1  0.66625203  0.46426740  0.42109330  1.0
  O  O5  1  0.66625203  0.53573260  0.92109330  1.0
  O  O6  1  0.33374797  0.46426740  0.07890670  1.0
  O  O7  1  0.33374797  0.53573260  0.57890670  1.0
  F  F8  1  0.82571059  0.77567111  0.75571990  1.0
  F  F9  1  0.82571059  0.22432889  0.25571990  1.0
  F  F10  1  0.17428941  0.77567111  0.74428010  1.0
  F  F11  1  0.17428941  0.22432889  0.24428010  1.0
  F  F12  1  0.74894478  1.00351275  1.00554116  1.0
  F  F13  1  0.74894478  -0.00351275  0.50554116  1.0
  F  F14  1  0.25105522  1.00351275  0.49445884  1.0
  F  F15  1  0.25105522  -0.00351275  -0.00554116  1.0
  F  F16  1  0.81655040  0.78510931  0.25614657  1.0
  F  F17  1  0.81655040  0.21489069  0.75614657  1.0
  F  F18  1  0.18344960  0.78510931  0.24385343  1.0
  F  F19  1  0.18344960  0.21489069  0.74385343  1.0
