# generated using pymatgen
data_TePb
_symmetry_space_group_name_H-M   'P 1'
_cell_length_a   13.11435216
_cell_length_b   4.63170061
_cell_length_c   4.63418070
_cell_angle_alpha   90.00000000
_cell_angle_beta   90.00000000
_cell_angle_gamma   90.00000000
_symmetry_Int_Tables_number   1
_chemical_formula_structural   TePb
_chemical_formula_sum   'Te4 Pb4'
_cell_volume   281.48825855
_cell_formula_units_Z   4
loop_
 _symmetry_equiv_pos_site_id
 _symmetry_equiv_pos_as_xyz
  1  'x, y, z'
loop_
 _atom_site_type_symbol
 _atom_site_label
 _atom_site_symmetry_multiplicity
 _atom_site_fract_x
 _atom_site_fract_y
 _atom_site_fract_z
 _atom_site_occupancy
  Te  Te0  1  0.12503071  0.75000000  -0.25025627  1.0
  Te  Te1  1  0.62503071  0.75000000  0.75025627  1.0
  Te  Te2  1  0.87496929  0.25000000  1.25025627  1.0
  Te  Te3  1  0.37496929  0.25000000  0.24974373  1.0
  Pb  Pb4  1  0.37496952  0.75000000  0.74976831  1.0
  Pb  Pb5  1  0.87496952  0.75000000  0.75023169  1.0
  Pb  Pb6  1  0.62503048  0.25000000  0.25023169  1.0
  Pb  Pb7  1  0.12503048  0.25000000  0.24976831  1.0
