# generated using pymatgen
data_Er2Al4FeGe2
_symmetry_space_group_name_H-M   'P 1'
_cell_length_a   10.30573732
_cell_length_b   10.30573732
_cell_length_c   10.30573732
_cell_angle_alpha   156.88951076
_cell_angle_beta   156.88951076
_cell_angle_gamma   32.91271408
_symmetry_Int_Tables_number   1
_chemical_formula_structural   Er2Al4FeGe2
_chemical_formula_sum   'Er2 Al4 Fe1 Ge2'
_cell_volume   168.48022003
_cell_formula_units_Z   1
loop_
 _symmetry_equiv_pos_site_id
 _symmetry_equiv_pos_as_xyz
  1  'x, y, z'
loop_
 _atom_site_type_symbol
 _atom_site_label
 _atom_site_symmetry_multiplicity
 _atom_site_fract_x
 _atom_site_fract_y
 _atom_site_fract_z
 _atom_site_occupancy
  Er  Er0  1  0.81731481  0.81731481  1.00000000  1.0
  Er  Er1  1  0.18268519  0.18268519  -0.00000000  1.0
  Al  Al2  1  0.43419149  0.93419149  0.50000000  1.0
  Al  Al3  1  0.56580851  0.06580851  0.50000000  1.0
  Al  Al4  1  0.93419149  0.43419149  0.50000000  1.0
  Al  Al5  1  0.06580851  0.56580851  0.50000000  1.0
  Fe  Fe6  1  0.00000000  0.00000000  0.00000000  1.0
  Ge  Ge7  1  0.66273031  0.66273031  1.00000000  1.0
  Ge  Ge8  1  0.33726969  0.33726969  -0.00000000  1.0
