# generated using pymatgen
data_RbP(OF)2
_symmetry_space_group_name_H-M   'P 1'
_cell_length_a   8.69410956
_cell_length_b   6.46569474
_cell_length_c   8.04117007
_cell_angle_alpha   90.00000000
_cell_angle_beta   90.00000000
_cell_angle_gamma   90.00000000
_symmetry_Int_Tables_number   1
_chemical_formula_structural   RbP(OF)2
_chemical_formula_sum   'Rb4 P4 O8 F8'
_cell_volume   452.02198010
_cell_formula_units_Z   4
loop_
 _symmetry_equiv_pos_site_id
 _symmetry_equiv_pos_as_xyz
  1  'x, y, z'
loop_
 _atom_site_type_symbol
 _atom_site_label
 _atom_site_symmetry_multiplicity
 _atom_site_fract_x
 _atom_site_fract_y
 _atom_site_fract_z
 _atom_site_occupancy
  Rb  Rb0  1  0.34422482  0.75000000  0.14741237  1.0
  Rb  Rb1  1  0.84422482  0.75000000  0.35258763  1.0
  Rb  Rb2  1  0.65577518  0.25000000  0.85258763  1.0
  Rb  Rb3  1  0.15577518  0.25000000  0.64741237  1.0
  P  P4  1  0.41404514  0.75000000  0.69710832  1.0
  P  P5  1  0.91404514  0.75000000  0.80289168  1.0
  P  P6  1  0.58595486  0.25000000  0.30289168  1.0
  P  P7  1  0.08595486  0.25000000  0.19710832  1.0
  O  O8  1  0.40563512  0.95318061  0.78507349  1.0
  O  O9  1  0.40563512  0.54681939  0.78507349  1.0
  O  O10  1  0.90563512  0.95318061  0.71492651  1.0
  O  O11  1  0.90563512  0.54681939  0.71492651  1.0
  O  O12  1  0.59436488  0.45318061  0.21492651  1.0
  O  O13  1  0.59436488  0.04681939  0.21492651  1.0
  O  O14  1  0.09436488  0.45318061  0.28507349  1.0
  O  O15  1  0.09436488  0.04681939  0.28507349  1.0
  F  F16  1  0.28850417  0.75000000  0.54995744  1.0
  F  F17  1  0.78850417  0.75000000  0.95004256  1.0
  F  F18  1  0.71149583  0.25000000  0.45004256  1.0
  F  F19  1  0.21149583  0.25000000  0.04995744  1.0
  F  F20  1  0.06310942  0.75000000  0.92124521  1.0
  F  F21  1  0.56310942  0.75000000  0.57875479  1.0
  F  F22  1  0.93689058  0.25000000  0.07875479  1.0
  F  F23  1  0.43689058  0.25000000  0.42124521  1.0
