# generated using pymatgen
data_Ga5Ir3
_symmetry_space_group_name_H-M   'P 1'
_cell_length_a   5.88152401
_cell_length_b   5.88152401
_cell_length_c   15.13776710
_cell_angle_alpha   90.00000000
_cell_angle_beta   90.00000000
_cell_angle_gamma   90.00000000
_symmetry_Int_Tables_number   1
_chemical_formula_structural   Ga5Ir3
_chemical_formula_sum   'Ga20 Ir12'
_cell_volume   523.65055437
_cell_formula_units_Z   4
loop_
 _symmetry_equiv_pos_site_id
 _symmetry_equiv_pos_as_xyz
  1  'x, y, z'
loop_
 _atom_site_type_symbol
 _atom_site_label
 _atom_site_symmetry_multiplicity
 _atom_site_fract_x
 _atom_site_fract_y
 _atom_site_fract_z
 _atom_site_occupancy
  Ga  Ga0  1  0.76267792  0.65692568  0.05685679  1.0
  Ga  Ga1  1  0.65692568  0.23732208  0.94314321  1.0
  Ga  Ga2  1  0.23732208  0.34307432  0.05685679  1.0
  Ga  Ga3  1  0.34307432  0.76267792  0.94314321  1.0
  Ga  Ga4  1  0.26267792  0.84307432  0.55685679  1.0
  Ga  Ga5  1  0.84307432  0.73732208  0.44314321  1.0
  Ga  Ga6  1  0.73732208  0.15692568  0.55685679  1.0
  Ga  Ga7  1  0.15692568  0.26267792  0.44314321  1.0
  Ga  Ga8  1  0.81353835  0.68646165  0.25000000  1.0
  Ga  Ga9  1  0.68646165  0.18646165  0.75000000  1.0
  Ga  Ga10  1  0.18646165  0.31353835  0.25000000  1.0
  Ga  Ga11  1  0.31353835  0.81353835  0.75000000  1.0
  Ga  Ga12  1  0.81504568  0.17069157  0.15382878  1.0
  Ga  Ga13  1  0.17069157  0.18495432  0.84617122  1.0
  Ga  Ga14  1  0.18495432  0.82930843  0.15382878  1.0
  Ga  Ga15  1  0.82930843  0.81504568  0.84617122  1.0
  Ga  Ga16  1  0.31504568  0.32930843  0.65382878  1.0
  Ga  Ga17  1  0.32930843  0.68495432  0.34617122  1.0
  Ga  Ga18  1  0.68495432  0.67069157  0.65382878  1.0
  Ga  Ga19  1  0.67069157  0.31504568  0.34617122  1.0
  Ir  Ir20  1  0.00000000  0.00000000  0.32628422  1.0
  Ir  Ir21  1  0.00000000  0.00000000  0.67371578  1.0
  Ir  Ir22  1  0.50000000  0.50000000  0.82628422  1.0
  Ir  Ir23  1  0.50000000  0.50000000  0.17371578  1.0
  Ir  Ir24  1  0.50000000  0.00000000  0.06219228  1.0
  Ir  Ir25  1  0.00000000  0.50000000  0.93780772  1.0
  Ir  Ir26  1  0.00000000  0.50000000  0.56219228  1.0
  Ir  Ir27  1  0.50000000  0.00000000  0.43780772  1.0
  Ir  Ir28  1  0.00000000  0.00000000  0.00000000  1.0
  Ir  Ir29  1  0.50000000  0.50000000  0.50000000  1.0
  Ir  Ir30  1  0.50000000  0.00000000  0.25000000  1.0
  Ir  Ir31  1  0.00000000  0.50000000  0.75000000  1.0
