# generated using pymatgen
data_ReO2F3
_symmetry_space_group_name_H-M   'P 1'
_cell_length_a   8.05435547
_cell_length_b   8.05435547
_cell_length_c   14.28695315
_cell_angle_alpha   90.00000000
_cell_angle_beta   90.00000000
_cell_angle_gamma   85.64917024
_symmetry_Int_Tables_number   1
_chemical_formula_structural   ReO2F3
_chemical_formula_sum   'Re8 O16 F24'
_cell_volume   924.16147422
_cell_formula_units_Z   8
loop_
 _symmetry_equiv_pos_site_id
 _symmetry_equiv_pos_as_xyz
  1  'x, y, z'
loop_
 _atom_site_type_symbol
 _atom_site_label
 _atom_site_symmetry_multiplicity
 _atom_site_fract_x
 _atom_site_fract_y
 _atom_site_fract_z
 _atom_site_occupancy
  Re  Re0  1  -0.34347562  1.34347562  0.32886865  1.0
  Re  Re1  1  0.15652438  0.84347562  0.17113135  1.0
  Re  Re2  1  0.34347562  0.65652438  0.67113135  1.0
  Re  Re3  1  -0.15652438  1.15652438  0.82886865  1.0
  Re  Re4  1  0.24767772  1.24767772  0.50000000  1.0
  Re  Re5  1  -0.25232228  0.74767772  0.00000000  1.0
  Re  Re6  1  -0.24767772  0.75232228  0.50000000  1.0
  Re  Re7  1  0.25232228  1.25232228  0.00000000  1.0
  O  O8  1  -0.39397381  1.17038470  0.27159423  1.0
  O  O9  1  0.10602619  0.67038470  0.22840577  1.0
  O  O10  1  0.17038470  0.60602619  0.72840577  1.0
  O  O11  1  -0.32961530  1.10602619  0.77159423  1.0
  O  O12  1  -0.17038470  1.39397381  0.27159423  1.0
  O  O13  1  0.32961530  0.89397381  0.22840577  1.0
  O  O14  1  0.39397381  0.82961530  0.72840577  1.0
  O  O15  1  -0.10602619  1.32961530  0.77159423  1.0
  O  O16  1  0.21774844  1.09797010  0.41978758  1.0
  O  O17  1  -0.28225156  0.59797010  0.08021242  1.0
  O  O18  1  0.09797010  1.21774844  0.58021242  1.0
  O  O19  1  -0.40202990  0.71774844  0.91978758  1.0
  O  O20  1  -0.09797010  0.78225156  0.41978758  1.0
  O  O21  1  0.40202990  1.28225156  0.08021242  1.0
  O  O22  1  -0.21774844  0.90202990  0.58021242  1.0
  O  O23  1  0.28225156  1.40202990  0.91978758  1.0
  F  F24  1  0.44866819  1.32728128  0.41944307  1.0
  F  F25  1  -0.05133181  0.82728128  0.08055693  1.0
  F  F26  1  0.32728128  1.44866819  0.58055693  1.0
  F  F27  1  -0.17271872  0.94866819  0.91944307  1.0
  F  F28  1  -0.32728128  0.55133181  0.41944307  1.0
  F  F29  1  0.17271872  1.05133181  0.08055693  1.0
  F  F30  1  -0.44866819  0.67271872  0.58055693  1.0
  F  F31  1  0.05133181  1.17271872  0.91944307  1.0
  F  F32  1  -0.42590532  0.86047234  0.43627094  1.0
  F  F33  1  0.07409468  1.36047234  0.06372906  1.0
  F  F34  1  -0.13952766  0.57409468  0.56372906  1.0
  F  F35  1  0.36047234  1.07409468  0.93627094  1.0
  F  F36  1  0.13952766  1.42590532  0.43627094  1.0
  F  F37  1  -0.36047234  0.92590532  0.06372906  1.0
  F  F38  1  0.42590532  1.13952766  0.56372906  1.0
  F  F39  1  -0.07409468  0.63952766  0.93627094  1.0
  F  F40  1  -0.49593717  1.49593717  0.27144962  1.0
  F  F41  1  0.00406283  0.99593717  0.22855038  1.0
  F  F42  1  0.49593717  0.50406283  0.72855038  1.0
  F  F43  1  -0.00406283  1.00406283  0.77144962  1.0
  F  F44  1  -0.23784790  1.23784790  0.43128248  1.0
  F  F45  1  0.26215210  0.73784790  0.06871752  1.0
  F  F46  1  0.23784790  0.76215210  0.56871752  1.0
  F  F47  1  -0.26215210  1.26215210  0.93128248  1.0
