# generated using pymatgen
data_SbClO
_symmetry_space_group_name_H-M   'P 1'
_cell_length_a   8.15042688
_cell_length_b   11.70123434
_cell_length_c   9.62838748
_cell_angle_alpha   90.00000000
_cell_angle_beta   104.18990958
_cell_angle_gamma   90.00000000
_symmetry_Int_Tables_number   1
_chemical_formula_structural   SbClO
_chemical_formula_sum   'Sb12 Cl12 O12'
_cell_volume   890.24239007
_cell_formula_units_Z   12
loop_
 _symmetry_equiv_pos_site_id
 _symmetry_equiv_pos_as_xyz
  1  'x, y, z'
loop_
 _atom_site_type_symbol
 _atom_site_label
 _atom_site_symmetry_multiplicity
 _atom_site_fract_x
 _atom_site_fract_y
 _atom_site_fract_z
 _atom_site_occupancy
  Sb  Sb0  1  0.28450569  0.53406214  0.92048323  1.0
  Sb  Sb1  1  0.71549431  0.03406214  0.57951677  1.0
  Sb  Sb2  1  0.71549431  0.46593786  0.07951677  1.0
  Sb  Sb3  1  0.28450569  0.96593786  0.42048323  1.0
  Sb  Sb4  1  0.09877699  0.74509211  0.59077294  1.0
  Sb  Sb5  1  0.90122301  0.24509211  0.90922706  1.0
  Sb  Sb6  1  0.90122301  0.25490789  0.40922706  1.0
  Sb  Sb7  1  0.09877699  0.75490789  0.09077294  1.0
  Sb  Sb8  1  0.53923860  0.66870268  0.74036881  1.0
  Sb  Sb9  1  0.46076140  0.16870268  0.75963119  1.0
  Sb  Sb10  1  0.46076140  0.33129732  0.25963119  1.0
  Sb  Sb11  1  0.53923860  0.83129732  0.24036881  1.0
  Cl  Cl12  1  0.11138846  0.89381886  0.90481673  1.0
  Cl  Cl13  1  0.88861154  0.39381886  0.59518327  1.0
  Cl  Cl14  1  0.88861154  0.10618114  0.09518327  1.0
  Cl  Cl15  1  0.11138846  0.60618114  0.40481673  1.0
  Cl  Cl16  1  0.60567862  0.84376683  0.87750328  1.0
  Cl  Cl17  1  0.39432138  0.34376683  0.62249672  1.0
  Cl  Cl18  1  0.39432138  0.15623317  0.12249672  1.0
  Cl  Cl19  1  0.60567862  0.65623317  0.37750328  1.0
  Cl  Cl20  1  0.89702735  0.61109209  0.85186369  1.0
  Cl  Cl21  1  0.10297265  0.11109209  0.64813631  1.0
  Cl  Cl22  1  0.10297265  0.38890791  0.14813631  1.0
  Cl  Cl23  1  0.89702735  0.88890791  0.35186369  1.0
  O  O24  1  0.53403432  0.56581889  0.90921952  1.0
  O  O25  1  0.46596568  0.06581889  0.59078048  1.0
  O  O26  1  0.46596568  0.43418111  0.09078048  1.0
  O  O27  1  0.53403432  0.93418111  0.40921952  1.0
  O  O28  1  0.28412878  0.66006490  0.73934817  1.0
  O  O29  1  0.71587122  0.16006490  0.76065183  1.0
  O  O30  1  0.71587122  0.33993510  0.26065183  1.0
  O  O31  1  0.28412878  0.83993510  0.23934817  1.0
  O  O32  1  0.29123742  0.83787572  0.55765159  1.0
  O  O33  1  0.70876258  0.33787572  0.94234841  1.0
  O  O34  1  0.70876258  0.16212428  0.44234841  1.0
  O  O35  1  0.29123742  0.66212428  0.05765159  1.0
