# generated using pymatgen
data_KBC4NF9
_symmetry_space_group_name_H-M   'P 1'
_cell_length_a   9.78423963
_cell_length_b   10.92080732
_cell_length_c   9.72604702
_cell_angle_alpha   90.00000000
_cell_angle_beta   90.00000000
_cell_angle_gamma   90.00000000
_symmetry_Int_Tables_number   1
_chemical_formula_structural   KBC4NF9
_chemical_formula_sum   'K4 B4 C16 N4 F36'
_cell_volume   1039.24558947
_cell_formula_units_Z   4
loop_
 _symmetry_equiv_pos_site_id
 _symmetry_equiv_pos_as_xyz
  1  'x, y, z'
loop_
 _atom_site_type_symbol
 _atom_site_label
 _atom_site_symmetry_multiplicity
 _atom_site_fract_x
 _atom_site_fract_y
 _atom_site_fract_z
 _atom_site_occupancy
  K  K0  1  0.21465330  0.75000000  0.98877799  1.0
  K  K1  1  0.71465330  0.75000000  0.51122201  1.0
  K  K2  1  0.78534670  0.25000000  0.01122201  1.0
  K  K3  1  0.28534670  0.25000000  0.48877799  1.0
  B  B4  1  0.27384036  0.75000000  0.51782304  1.0
  B  B5  1  0.77384036  0.75000000  0.98217696  1.0
  B  B6  1  0.72615964  0.25000000  0.48217696  1.0
  B  B7  1  0.22615964  0.25000000  0.01782304  1.0
  C  C8  1  0.32491009  0.87325030  0.60010790  1.0
  C  C9  1  0.32491009  0.62674970  0.60010790  1.0
  C  C10  1  0.82491009  0.87325030  0.89989210  1.0
  C  C11  1  0.82491009  0.62674970  0.89989210  1.0
  C  C12  1  0.67508991  0.37325030  0.39989210  1.0
  C  C13  1  0.67508991  0.12674970  0.39989210  1.0
  C  C14  1  0.17508991  0.37325030  0.10010790  1.0
  C  C15  1  0.17508991  0.12674970  0.10010790  1.0
  C  C16  1  0.33245391  0.75000000  0.35955072  1.0
  C  C17  1  0.83245391  0.75000000  0.14044928  1.0
  C  C18  1  0.66754609  0.25000000  0.64044928  1.0
  C  C19  1  0.16754609  0.25000000  0.85955072  1.0
  C  C20  1  0.11308303  0.75000000  0.51352401  1.0
  C  C21  1  0.61308303  0.75000000  0.98647599  1.0
  C  C22  1  0.88691697  0.25000000  0.48647599  1.0
  C  C23  1  0.38691697  0.25000000  0.01352401  1.0
  N  N24  1  -0.00565897  0.75000000  0.51145767  1.0
  N  N25  1  0.49434103  0.75000000  0.98854233  1.0
  N  N26  1  1.00565897  0.25000000  0.48854233  1.0
  N  N27  1  0.50565897  0.25000000  0.01145767  1.0
  F  F28  1  0.46507838  0.88267182  0.61261799  1.0
  F  F29  1  0.46507838  0.61732818  0.61261799  1.0
  F  F30  1  0.96507838  0.88267182  0.88738201  1.0
  F  F31  1  0.96507838  0.61732818  0.88738201  1.0
  F  F32  1  0.53492162  0.38267182  0.38738201  1.0
  F  F33  1  0.53492162  0.11732818  0.38738201  1.0
  F  F34  1  0.03492162  0.38267182  0.11261799  1.0
  F  F35  1  0.03492162  0.11732818  0.11261799  1.0
  F  F36  1  0.28379552  0.98051450  0.53797046  1.0
  F  F37  1  0.28379552  0.51948550  0.53797046  1.0
  F  F38  1  0.78379552  0.98051450  0.96202954  1.0
  F  F39  1  0.78379552  0.51948550  0.96202954  1.0
  F  F40  1  0.71620448  0.48051450  0.46202954  1.0
  F  F41  1  0.71620448  0.01948550  0.46202954  1.0
  F  F42  1  0.21620448  0.48051450  0.03797046  1.0
  F  F43  1  0.21620448  0.01948550  0.03797046  1.0
  F  F44  1  0.27519612  0.87993948  0.73262357  1.0
  F  F45  1  0.27519612  0.62006052  0.73262357  1.0
  F  F46  1  0.77519612  0.87993948  0.76737643  1.0
  F  F47  1  0.77519612  0.62006052  0.76737643  1.0
  F  F48  1  0.72480388  0.37993948  0.26737643  1.0
  F  F49  1  0.72480388  0.12006052  0.26737643  1.0
  F  F50  1  0.22480388  0.37993948  0.23262357  1.0
  F  F51  1  0.22480388  0.12006052  0.23262357  1.0
  F  F52  1  0.20846236  0.34992954  0.78406167  1.0
  F  F53  1  0.20846236  0.15007046  0.78406167  1.0
  F  F54  1  0.70846236  0.34992954  0.71593833  1.0
  F  F55  1  0.70846236  0.15007046  0.71593833  1.0
  F  F56  1  0.79153764  0.84992954  0.21593833  1.0
  F  F57  1  0.79153764  0.65007046  0.21593833  1.0
  F  F58  1  0.29153764  0.84992954  0.28406167  1.0
  F  F59  1  0.29153764  0.65007046  0.28406167  1.0
  F  F60  1  0.97413803  0.75000000  0.14777642  1.0
  F  F61  1  0.47413803  0.75000000  0.35222358  1.0
  F  F62  1  0.02586197  0.25000000  0.85222358  1.0
  F  F63  1  0.52586197  0.25000000  0.64777642  1.0
