# generated using pymatgen
data_NaCaH6Ir
_symmetry_space_group_name_H-M   'P 1'
_cell_length_a   5.10657129
_cell_length_b   5.10657129
_cell_length_c   5.10657129
_cell_angle_alpha   60.00000000
_cell_angle_beta   60.00000000
_cell_angle_gamma   60.00000000
_symmetry_Int_Tables_number   1
_chemical_formula_structural   NaCaH6Ir
_chemical_formula_sum   'Na1 Ca1 H6 Ir1'
_cell_volume   94.16146364
_cell_formula_units_Z   1
loop_
 _symmetry_equiv_pos_site_id
 _symmetry_equiv_pos_as_xyz
  1  'x, y, z'
loop_
 _atom_site_type_symbol
 _atom_site_label
 _atom_site_symmetry_multiplicity
 _atom_site_fract_x
 _atom_site_fract_y
 _atom_site_fract_z
 _atom_site_occupancy
  Na  Na0  1  0.00000000  0.00000000  0.00000000  1.0
  Ca  Ca1  1  -0.50000000  0.50000000  0.50000000  1.0
  H  H2  1  0.51745834  0.98254166  -0.01745834  1.0
  H  H3  1  0.98254166  0.98254166  -0.48254166  1.0
  H  H4  1  0.98254166  0.51745834  -0.01745834  1.0
  H  H5  1  0.51745834  0.51745834  -0.01745834  1.0
  H  H6  1  0.51745834  0.98254166  -0.48254166  1.0
  H  H7  1  0.98254166  0.51745834  -0.48254166  1.0
  Ir  Ir8  1  0.75000000  0.75000000  -0.25000000  1.0
