# generated using pymatgen
data_NaSrPO4
_symmetry_space_group_name_H-M   'P 1'
_cell_length_a   7.14617772
_cell_length_b   5.52173447
_cell_length_c   9.79862826
_cell_angle_alpha   90.00000000
_cell_angle_beta   90.00000000
_cell_angle_gamma   90.00000000
_symmetry_Int_Tables_number   1
_chemical_formula_structural   NaSrPO4
_chemical_formula_sum   'Na4 Sr4 P4 O16'
_cell_volume   386.64697194
_cell_formula_units_Z   4
loop_
 _symmetry_equiv_pos_site_id
 _symmetry_equiv_pos_as_xyz
  1  'x, y, z'
loop_
 _atom_site_type_symbol
 _atom_site_label
 _atom_site_symmetry_multiplicity
 _atom_site_fract_x
 _atom_site_fract_y
 _atom_site_fract_z
 _atom_site_occupancy
  Na  Na0  1  0.82934172  0.75000000  0.44408778  1.0
  Na  Na1  1  0.32934172  0.75000000  0.05591222  1.0
  Na  Na2  1  0.17065828  0.25000000  0.55591222  1.0
  Na  Na3  1  0.67065828  0.25000000  0.94408778  1.0
  Sr  Sr4  1  0.49718519  0.75000000  0.69903692  1.0
  Sr  Sr5  1  -0.00281481  0.75000000  0.80096308  1.0
  Sr  Sr6  1  0.50281481  0.25000000  0.30096308  1.0
  Sr  Sr7  1  1.00281481  0.25000000  0.19903692  1.0
  P  P8  1  0.77611679  0.75000000  0.08254418  1.0
  P  P9  1  0.27611679  0.75000000  0.41745582  1.0
  P  P10  1  0.22388321  0.25000000  0.91745582  1.0
  P  P11  1  0.72388321  0.25000000  0.58254418  1.0
  O  O12  1  0.71135523  0.98252923  0.15951412  1.0
  O  O13  1  0.71135523  0.51747077  0.15951412  1.0
  O  O14  1  0.21135523  0.98252923  0.34048588  1.0
  O  O15  1  0.21135523  0.51747077  0.34048588  1.0
  O  O16  1  0.28864477  0.48252923  0.84048588  1.0
  O  O17  1  0.28864477  0.01747077  0.84048588  1.0
  O  O18  1  0.78864477  0.48252923  0.65951412  1.0
  O  O19  1  0.78864477  0.01747077  0.65951412  1.0
  O  O20  1  0.99341377  0.75000000  0.07007379  1.0
  O  O21  1  0.49341377  0.75000000  0.42992621  1.0
  O  O22  1  0.00658623  0.25000000  0.92992621  1.0
  O  O23  1  0.50658623  0.25000000  0.57007379  1.0
  O  O24  1  0.18484150  0.75000000  0.56353639  1.0
  O  O25  1  0.68484150  0.75000000  0.93646361  1.0
  O  O26  1  0.81515850  0.25000000  0.43646361  1.0
  O  O27  1  0.31515850  0.25000000  0.06353639  1.0
