# generated using pymatgen
data_Ru(OF3)2
_symmetry_space_group_name_H-M   'P 1'
_cell_length_a   9.43663956
_cell_length_b   9.43663956
_cell_length_c   9.43663956
_cell_angle_alpha   109.47122063
_cell_angle_beta   109.47122063
_cell_angle_gamma   109.47122063
_symmetry_Int_Tables_number   1
_chemical_formula_structural   Ru(OF3)2
_chemical_formula_sum   'Ru4 O8 F24'
_cell_volume   646.88966285
_cell_formula_units_Z   4
loop_
 _symmetry_equiv_pos_site_id
 _symmetry_equiv_pos_as_xyz
  1  'x, y, z'
loop_
 _atom_site_type_symbol
 _atom_site_label
 _atom_site_symmetry_multiplicity
 _atom_site_fract_x
 _atom_site_fract_y
 _atom_site_fract_z
 _atom_site_occupancy
  Ru  Ru0  1  1.00000000  0.50000000  1.00000000  1.0
  Ru  Ru1  1  0.50000000  0.50000000  0.50000000  1.0
  Ru  Ru2  1  1.00000000  1.00000000  1.50000000  1.0
  Ru  Ru3  1  1.50000000  1.00000000  1.00000000  1.0
  O  O4  1  0.56264436  1.50000000  1.00000000  1.0
  O  O5  1  1.06264436  1.06264436  1.06264436  1.0
  O  O6  1  1.00000000  0.56264436  1.50000000  1.0
  O  O7  1  1.50000000  1.00000000  1.43735564  1.0
  O  O8  1  1.00000000  1.43735564  1.50000000  1.0
  O  O9  1  0.50000000  1.00000000  0.56264436  1.0
  O  O10  1  1.43735564  0.50000000  1.00000000  1.0
  O  O11  1  0.93735564  0.93735564  0.93735564  1.0
  F  F12  1  0.53726142  0.57929053  0.72536362  1.0
  F  F13  1  1.03726142  0.31189780  0.95797089  1.0
  F  F14  1  0.35392692  0.81189780  0.77463638  1.0
  F  F15  1  0.85392692  1.07929053  0.54202911  1.0
  F  F16  1  0.45797089  1.14607308  0.92070947  1.0
  F  F17  1  0.95797089  1.03726142  0.31189780  1.0
  F  F18  1  0.72536362  0.53726142  0.57929053  1.0
  F  F19  1  1.22536362  0.64607308  1.18810220  1.0
  F  F20  1  0.81189780  0.77463638  0.35392692  1.0
  F  F21  1  1.31189780  0.95797089  1.03726142  1.0
  F  F22  1  0.92070947  0.45797089  1.14607308  1.0
  F  F23  1  1.42070947  1.27463638  1.46273858  1.0
  F  F24  1  1.64607308  1.18810220  1.22536362  1.0
  F  F25  1  1.14607308  0.92070947  1.45797089  1.0
  F  F26  1  1.46273858  1.42070947  1.27463638  1.0
  F  F27  1  0.96273858  1.68810220  1.04202911  1.0
  F  F28  1  1.27463638  1.46273858  1.42070947  1.0
  F  F29  1  0.77463638  1.35392692  0.81189780  1.0
  F  F30  1  1.54202911  0.85392692  1.07929053  1.0
  F  F31  1  1.04202911  0.96273858  1.68810220  1.0
  F  F32  1  1.07929053  1.54202911  0.85392692  1.0
  F  F33  1  0.57929053  0.72536362  0.53726142  1.0
  F  F34  1  1.18810220  1.22536362  1.64607308  1.0
  F  F35  1  0.68810220  1.04202911  0.96273858  1.0
