# generated using pymatgen
data_NbCo2
_symmetry_space_group_name_H-M   'P 1'
_cell_length_a   4.76371560
_cell_length_b   4.76371560
_cell_length_c   15.49723601
_cell_angle_alpha   90.00000000
_cell_angle_beta   90.00000000
_cell_angle_gamma   120.00000000
_symmetry_Int_Tables_number   1
_chemical_formula_structural   NbCo2
_chemical_formula_sum   'Nb8 Co16'
_cell_volume   304.56257115
_cell_formula_units_Z   8
loop_
 _symmetry_equiv_pos_site_id
 _symmetry_equiv_pos_as_xyz
  1  'x, y, z'
loop_
 _atom_site_type_symbol
 _atom_site_label
 _atom_site_symmetry_multiplicity
 _atom_site_fract_x
 _atom_site_fract_y
 _atom_site_fract_z
 _atom_site_occupancy
  Nb  Nb0  1  0.33333333  0.66666667  0.84479805  1.0
  Nb  Nb1  1  0.33333333  0.66666667  0.65520195  1.0
  Nb  Nb2  1  0.66666667  0.33333333  0.34479805  1.0
  Nb  Nb3  1  0.66666667  0.33333333  0.15520195  1.0
  Nb  Nb4  1  0.00000000  0.00000000  0.40821808  1.0
  Nb  Nb5  1  0.00000000  0.00000000  0.09178192  1.0
  Nb  Nb6  1  0.00000000  0.00000000  0.90821808  1.0
  Nb  Nb7  1  0.00000000  0.00000000  0.59178192  1.0
  Co  Co8  1  0.16404740  0.83595260  0.25000000  1.0
  Co  Co9  1  0.16404740  0.32809480  0.25000000  1.0
  Co  Co10  1  0.83595260  0.16404740  0.75000000  1.0
  Co  Co11  1  0.83595260  0.67190520  0.75000000  1.0
  Co  Co12  1  0.67190520  0.83595260  0.25000000  1.0
  Co  Co13  1  0.32809480  0.16404740  0.75000000  1.0
  Co  Co14  1  0.50000000  0.50000000  0.50000000  1.0
  Co  Co15  1  0.50000000  0.50000000  0.00000000  1.0
  Co  Co16  1  0.50000000  0.00000000  0.50000000  1.0
  Co  Co17  1  0.50000000  0.00000000  0.00000000  1.0
  Co  Co18  1  -0.00000000  0.50000000  0.50000000  1.0
  Co  Co19  1  -0.00000000  0.50000000  0.00000000  1.0
  Co  Co20  1  0.33333333  0.66666667  0.37374574  1.0
  Co  Co21  1  0.33333333  0.66666667  0.12625426  1.0
  Co  Co22  1  0.66666667  0.33333333  0.87374574  1.0
  Co  Co23  1  0.66666667  0.33333333  0.62625426  1.0
