# generated using pymatgen
data_Tb3(SbPd2)4
_symmetry_space_group_name_H-M   'P 1'
_cell_length_a   9.39974569
_cell_length_b   9.39974569
_cell_length_c   9.39974569
_cell_angle_alpha   60.00000000
_cell_angle_beta   60.00000000
_cell_angle_gamma   60.00000000
_symmetry_Int_Tables_number   1
_chemical_formula_structural   Tb3(SbPd2)4
_chemical_formula_sum   'Tb6 Sb8 Pd16'
_cell_volume   587.26391231
_cell_formula_units_Z   2
loop_
 _symmetry_equiv_pos_site_id
 _symmetry_equiv_pos_as_xyz
  1  'x, y, z'
loop_
 _atom_site_type_symbol
 _atom_site_label
 _atom_site_symmetry_multiplicity
 _atom_site_fract_x
 _atom_site_fract_y
 _atom_site_fract_z
 _atom_site_occupancy
  Tb  Tb0  1  -0.72537935  0.72537935  0.72537935  1.0
  Tb  Tb1  1  -0.27462065  0.27462065  0.72537935  1.0
  Tb  Tb2  1  0.72537935  0.72537935  -0.72537935  1.0
  Tb  Tb3  1  0.27462065  1.27462065  -0.27462065  1.0
  Tb  Tb4  1  0.27462065  -0.27462065  1.27462065  1.0
  Tb  Tb5  1  -0.27462065  0.27462065  0.27462065  1.0
  Sb  Sb6  1  -0.50000000  0.50000000  0.50000000  1.0
  Sb  Sb7  1  1.50000000  0.00000000  -0.00000000  1.0
  Sb  Sb8  1  1.00000000  0.50000000  -0.50000000  1.0
  Sb  Sb9  1  0.00000000  1.50000000  -0.00000000  1.0
  Sb  Sb10  1  0.50000000  1.00000000  -0.50000000  1.0
  Sb  Sb11  1  0.00000000  0.00000000  0.50000000  1.0
  Sb  Sb12  1  0.50000000  -0.50000000  1.00000000  1.0
  Sb  Sb13  1  -0.00000000  0.00000000  -0.00000000  1.0
  Pd  Pd14  1  0.88109631  0.88109631  -0.11890369  1.0
  Pd  Pd15  1  1.11890369  0.11890369  0.64328894  1.0
  Pd  Pd16  1  1.11890369  0.64328894  0.11890369  1.0
  Pd  Pd17  1  0.35671106  0.88109631  -0.11890369  1.0
  Pd  Pd18  1  1.64328894  0.11890369  0.11890369  1.0
  Pd  Pd19  1  0.88109631  0.35671106  -0.11890369  1.0
  Pd  Pd20  1  0.88109631  0.88109631  -0.64328894  1.0
  Pd  Pd21  1  1.11890369  0.11890369  0.11890369  1.0
  Pd  Pd22  1  0.66812951  0.66812951  -0.33187049  1.0
  Pd  Pd23  1  0.33187049  1.33187049  0.00438853  1.0
  Pd  Pd24  1  1.33187049  0.00438853  0.33187049  1.0
  Pd  Pd25  1  0.99561147  0.66812951  0.66812951  1.0
  Pd  Pd26  1  0.00438853  1.33187049  0.33187049  1.0
  Pd  Pd27  1  0.66812951  0.99561147  -0.33187049  1.0
  Pd  Pd28  1  0.66812951  0.66812951  0.99561147  1.0
  Pd  Pd29  1  1.33187049  0.33187049  0.33187049  1.0
