# generated using pymatgen
data_RbInS2
_symmetry_space_group_name_H-M   'P 1'
_cell_length_a   7.98481584
_cell_length_b   7.98481584
_cell_length_c   15.88005415
_cell_angle_alpha   82.75897830
_cell_angle_beta   97.24102170
_cell_angle_gamma   90.00121327
_symmetry_Int_Tables_number   1
_chemical_formula_structural   RbInS2
_chemical_formula_sum   'Rb8 In8 S16'
_cell_volume   996.25456129
_cell_formula_units_Z   8
loop_
 _symmetry_equiv_pos_site_id
 _symmetry_equiv_pos_as_xyz
  1  'x, y, z'
loop_
 _atom_site_type_symbol
 _atom_site_label
 _atom_site_symmetry_multiplicity
 _atom_site_fract_x
 _atom_site_fract_y
 _atom_site_fract_z
 _atom_site_occupancy
  Rb  Rb0  1  0.65363938  0.22215050  0.61245232  1.0
  Rb  Rb1  1  0.77784950  0.34636062  0.11245232  1.0
  Rb  Rb2  1  1.22215050  -0.34636062  0.88754768  1.0
  Rb  Rb3  1  1.34636062  -0.22215050  0.38754768  1.0
  Rb  Rb4  1  0.22291761  0.15233668  0.88819550  1.0
  Rb  Rb5  1  0.84766332  0.77708239  0.38819550  1.0
  Rb  Rb6  1  1.15233668  -0.77708239  0.61180450  1.0
  Rb  Rb7  1  1.77708239  -0.15233668  0.11180450  1.0
  In  In8  1  1.70980644  -0.08734287  0.83961063  1.0
  In  In9  1  1.08734287  -0.70980644  0.33961063  1.0
  In  In10  1  0.91265713  0.70980644  0.66038937  1.0
  In  In11  1  0.29019356  0.08734287  0.16038937  1.0
  In  In12  1  1.41757601  -0.29009646  0.66000056  1.0
  In  In13  1  1.29009646  -0.41757601  0.16000056  1.0
  In  In14  1  0.70990354  0.41757601  0.83999944  1.0
  In  In15  1  0.58242399  0.29009646  0.33999944  1.0
  S  S16  1  1.64098842  -0.26597623  0.56284502  1.0
  S  S17  1  1.26597623  -0.64098842  0.06284502  1.0
  S  S18  1  0.73402377  0.64098842  0.93715498  1.0
  S  S19  1  0.35901158  0.26597623  0.43715498  1.0
  S  S20  1  0.73274006  0.14105969  0.93471237  1.0
  S  S21  1  0.85894031  0.26725994  0.43471237  1.0
  S  S22  1  1.14105969  -0.26725994  0.56528763  1.0
  S  S23  1  1.26725994  -0.14105969  0.06528763  1.0
  S  S24  1  1.42933705  -0.05428711  0.74966294  1.0
  S  S25  1  1.05428711  -0.42933705  0.24966294  1.0
  S  S26  1  0.94571289  0.42933705  0.75033706  1.0
  S  S27  1  0.57066295  0.05428711  0.25033706  1.0
  S  S28  1  0.94569222  0.94569222  0.75000000  1.0
  S  S29  1  0.05430778  0.05430778  0.25000000  1.0
  S  S30  1  0.42947959  0.42947959  0.75000000  1.0
  S  S31  1  0.57052041  0.57052041  0.25000000  1.0
