# generated using pymatgen
data_KNiPH2O5
_symmetry_space_group_name_H-M   'P 1'
_cell_length_a   5.60884325
_cell_length_b   8.34110775
_cell_length_c   4.76489802
_cell_angle_alpha   90.00000000
_cell_angle_beta   90.00000000
_cell_angle_gamma   90.00000000
_symmetry_Int_Tables_number   1
_chemical_formula_structural   KNiPH2O5
_chemical_formula_sum   'K2 Ni2 P2 H4 O10'
_cell_volume   222.92082653
_cell_formula_units_Z   2
loop_
 _symmetry_equiv_pos_site_id
 _symmetry_equiv_pos_as_xyz
  1  'x, y, z'
loop_
 _atom_site_type_symbol
 _atom_site_label
 _atom_site_symmetry_multiplicity
 _atom_site_fract_x
 _atom_site_fract_y
 _atom_site_fract_z
 _atom_site_occupancy
  K  K0  1  0.50000000  0.04504048  0.13049303  1.0
  K  K1  1  0.00000000  0.95495952  0.63049303  1.0
  H  H2  1  0.36000663  0.31281265  0.58483138  1.0
  H  H3  1  0.86000663  0.68718735  0.08483138  1.0
  H  H4  1  0.63999337  0.31281265  0.58483138  1.0
  H  H5  1  0.13999337  0.68718735  0.08483138  1.0
  Ni  Ni6  1  0.50000000  0.48457757  1.00205258  1.0
  Ni  Ni7  1  0.00000000  0.51542243  0.50205258  1.0
  P  P8  1  0.50000000  0.70853906  0.57657862  1.0
  P  P9  1  0.00000000  0.29146094  0.07657862  1.0
  O  O10  1  0.50000000  0.88951402  0.63657730  1.0
  O  O11  1  0.00000000  0.11048598  0.13657730  1.0
  O  O12  1  0.50000000  0.29366026  0.70640240  1.0
  O  O13  1  0.00000000  0.70633974  0.20640240  1.0
  O  O14  1  0.27732485  0.62375254  0.72310657  1.0
  O  O15  1  0.77732485  0.37624746  0.22310657  1.0
  O  O16  1  0.72267515  0.62375254  0.72310657  1.0
  O  O17  1  0.22267515  0.37624746  0.22310657  1.0
  O  O18  1  0.50000000  0.67990770  0.25602019  1.0
  O  O19  1  0.00000000  0.32009230  0.75602019  1.0
