# generated using pymatgen
data_Si2Ag2O5
_symmetry_space_group_name_H-M   'P 1'
_cell_length_a   6.70880954
_cell_length_b   5.00624825
_cell_length_c   15.87608589
_cell_angle_alpha   90.00000000
_cell_angle_beta   90.00000000
_cell_angle_gamma   90.00000000
_symmetry_Int_Tables_number   1
_chemical_formula_structural   Si2Ag2O5
_chemical_formula_sum   'Si8 Ag8 O20'
_cell_volume   533.21368115
_cell_formula_units_Z   4
loop_
 _symmetry_equiv_pos_site_id
 _symmetry_equiv_pos_as_xyz
  1  'x, y, z'
loop_
 _atom_site_type_symbol
 _atom_site_label
 _atom_site_symmetry_multiplicity
 _atom_site_fract_x
 _atom_site_fract_y
 _atom_site_fract_z
 _atom_site_occupancy
  Si  Si0  1  0.88689331  0.71422097  0.33874328  1.0
  Si  Si1  1  0.88689331  0.28577903  0.83874328  1.0
  Si  Si2  1  0.38689331  0.21422097  0.16125672  1.0
  Si  Si3  1  0.38689331  0.78577903  0.66125672  1.0
  Si  Si4  1  0.11310669  0.71422097  0.16125672  1.0
  Si  Si5  1  0.11310669  0.28577903  0.66125672  1.0
  Si  Si6  1  0.61310669  0.21422097  0.33874328  1.0
  Si  Si7  1  0.61310669  0.78577903  0.83874328  1.0
  Ag  Ag8  1  0.63973070  0.74339195  0.04626535  1.0
  Ag  Ag9  1  0.63973070  0.25660805  0.54626535  1.0
  Ag  Ag10  1  0.13973070  0.24339195  0.45373465  1.0
  Ag  Ag11  1  0.13973070  0.75660805  0.95373465  1.0
  Ag  Ag12  1  0.36026930  0.74339195  0.45373465  1.0
  Ag  Ag13  1  0.36026930  0.25660805  0.95373465  1.0
  Ag  Ag14  1  0.86026930  0.24339195  0.04626535  1.0
  Ag  Ag15  1  0.86026930  0.75660805  0.54626535  1.0
  O  O16  1  0.97107517  0.77580099  0.08088581  1.0
  O  O17  1  0.97107517  0.22419901  0.58088581  1.0
  O  O18  1  0.47107517  0.27580099  0.41911419  1.0
  O  O19  1  0.47107517  0.72419901  0.91911419  1.0
  O  O20  1  0.02892483  0.77580099  0.41911419  1.0
  O  O21  1  0.02892483  0.22419901  0.91911419  1.0
  O  O22  1  0.52892483  0.27580099  0.08088581  1.0
  O  O23  1  0.52892483  0.72419901  0.58088581  1.0
  O  O24  1  0.68265206  0.89804140  0.34159381  1.0
  O  O25  1  0.68265206  0.10195860  0.84159381  1.0
  O  O26  1  0.18265206  0.39804140  0.15840619  1.0
  O  O27  1  0.18265206  0.60195860  0.65840619  1.0
  O  O28  1  0.31734794  0.89804140  0.15840619  1.0
  O  O29  1  0.31734794  0.10195860  0.65840619  1.0
  O  O30  1  0.81734794  0.39804140  0.34159381  1.0
  O  O31  1  0.81734794  0.60195860  0.84159381  1.0
  O  O32  1  0.00000000  0.77367758  0.25000000  1.0
  O  O33  1  0.00000000  0.22632242  0.75000000  1.0
  O  O34  1  0.50000000  0.27367758  0.25000000  1.0
  O  O35  1  0.50000000  0.72632242  0.75000000  1.0
