# generated using pymatgen
data_Tl2O3
_symmetry_space_group_name_H-M   'P 1'
_cell_length_a   6.09958583
_cell_length_b   6.09958583
_cell_length_c   6.09958583
_cell_angle_alpha   57.32647765
_cell_angle_beta   57.32647765
_cell_angle_gamma   57.32647765
_symmetry_Int_Tables_number   1
_chemical_formula_structural   Tl2O3
_chemical_formula_sum   'Tl4 O6'
_cell_volume   150.59127062
_cell_formula_units_Z   2
loop_
 _symmetry_equiv_pos_site_id
 _symmetry_equiv_pos_as_xyz
  1  'x, y, z'
loop_
 _atom_site_type_symbol
 _atom_site_label
 _atom_site_symmetry_multiplicity
 _atom_site_fract_x
 _atom_site_fract_y
 _atom_site_fract_z
 _atom_site_occupancy
  Tl  Tl0  1  0.86100098  -0.13899902  -0.13899902  1.0
  Tl  Tl1  1  0.36100098  0.36100098  0.36100098  1.0
  Tl  Tl2  1  0.63899902  0.63899902  -0.36100098  1.0
  Tl  Tl3  1  1.13899902  0.13899902  0.13899902  1.0
  O  O4  1  0.45717585  0.75000000  0.04282415  1.0
  O  O5  1  0.95717585  -0.45717585  0.25000000  1.0
  O  O6  1  0.25000000  0.95717585  -0.45717585  1.0
  O  O7  1  0.75000000  1.04282415  -0.54282415  1.0
  O  O8  1  0.54282415  0.25000000  -0.04282415  1.0
  O  O9  1  1.04282415  0.45717585  -0.25000000  1.0
