# generated using pymatgen
data_MnP2(H4O5)2
_symmetry_space_group_name_H-M   'P 1'
_cell_length_a   5.42945114
_cell_length_b   10.26605842
_cell_length_c   8.75341799
_cell_angle_alpha   90.00000000
_cell_angle_beta   123.85529054
_cell_angle_gamma   90.00000000
_symmetry_Int_Tables_number   1
_chemical_formula_structural   MnP2(H4O5)2
_chemical_formula_sum   'Mn2 P4 H16 O20'
_cell_volume   405.18128948
_cell_formula_units_Z   2
loop_
 _symmetry_equiv_pos_site_id
 _symmetry_equiv_pos_as_xyz
  1  'x, y, z'
loop_
 _atom_site_type_symbol
 _atom_site_label
 _atom_site_symmetry_multiplicity
 _atom_site_fract_x
 _atom_site_fract_y
 _atom_site_fract_z
 _atom_site_occupancy
  Mn  Mn0  1  -0.00000000  0.50000000  0.50000000  1.0
  Mn  Mn1  1  0.00000000  0.00000000  0.00000000  1.0
  P  P2  1  0.90832911  0.71659087  0.16288189  1.0
  P  P3  1  0.90832911  0.78340913  0.66288189  1.0
  P  P4  1  0.09167089  0.21659087  0.33711811  1.0
  P  P5  1  0.09167089  0.28340913  0.83711811  1.0
  H  H6  1  0.88100766  0.22462081  0.48912342  1.0
  H  H7  1  0.88100766  0.27537919  0.98912342  1.0
  H  H8  1  0.11899234  0.72462081  0.01087658  1.0
  H  H9  1  0.11899234  0.77537919  0.51087658  1.0
  H  H10  1  0.38998631  0.42388965  0.32552567  1.0
  H  H11  1  0.38998631  0.07611035  0.82552567  1.0
  H  H12  1  0.61001369  0.92388965  0.17447433  1.0
  H  H13  1  0.61001369  0.57611035  0.67447433  1.0
  H  H14  1  0.59882364  0.04783219  0.27488925  1.0
  H  H15  1  0.59882364  0.45216781  0.77488925  1.0
  H  H16  1  0.40117636  0.54783219  0.22511075  1.0
  H  H17  1  0.40117636  0.95216781  0.72511075  1.0
  H  H18  1  0.43286810  0.39148564  0.09246259  1.0
  H  H19  1  0.43286810  0.10851436  0.59246259  1.0
  H  H20  1  0.56713190  0.89148564  0.40753741  1.0
  H  H21  1  0.56713190  0.60851436  0.90753741  1.0
  O  O22  1  0.50925533  0.46504735  0.28253334  1.0
  O  O23  1  0.50925533  0.03495265  0.78253334  1.0
  O  O24  1  0.49074467  0.96504735  0.21746666  1.0
  O  O25  1  0.49074467  0.53495265  0.71746666  1.0
  O  O26  1  0.85643370  0.17177411  0.38220045  1.0
  O  O27  1  0.85643370  0.32822589  0.88220045  1.0
  O  O28  1  0.14356630  0.67177411  0.11779955  1.0
  O  O29  1  0.14356630  0.82822589  0.61779955  1.0
  O  O30  1  0.97983308  0.17003521  0.14228858  1.0
  O  O31  1  0.97983308  0.32996479  0.64228858  1.0
  O  O32  1  0.02016692  0.67003521  0.35771142  1.0
  O  O33  1  0.02016692  0.82996479  0.85771142  1.0
  O  O34  1  0.39234660  0.14172684  0.47194279  1.0
  O  O35  1  0.39234660  0.35827316  0.97194279  1.0
  O  O36  1  0.60765340  0.64172684  0.02805721  1.0
  O  O37  1  0.60765340  0.85827316  0.52805721  1.0
  O  O38  1  0.86439689  0.86453686  0.13613433  1.0
  O  O39  1  0.86439689  0.63546314  0.63613433  1.0
  O  O40  1  0.13560311  0.36453686  0.36386567  1.0
  O  O41  1  0.13560311  0.13546314  0.86386567  1.0
