# generated using pymatgen
data_SiO2
_symmetry_space_group_name_H-M   'P 1'
_cell_length_a   16.32668714
_cell_length_b   16.32668714
_cell_length_c   7.45949589
_cell_angle_alpha   89.35205610
_cell_angle_beta   90.64794390
_cell_angle_gamma   34.60498809
_symmetry_Int_Tables_number   1
_chemical_formula_structural   SiO2
_chemical_formula_sum   'Si22 O44'
_cell_volume   1128.43126309
_cell_formula_units_Z   22
loop_
 _symmetry_equiv_pos_site_id
 _symmetry_equiv_pos_as_xyz
  1  'x, y, z'
loop_
 _atom_site_type_symbol
 _atom_site_label
 _atom_site_symmetry_multiplicity
 _atom_site_fract_x
 _atom_site_fract_y
 _atom_site_fract_z
 _atom_site_occupancy
  Si  Si0  1  0.71767493  0.03859611  0.97995910  1.0
  Si  Si1  1  0.96140389  -0.71767493  0.97995910  1.0
  Si  Si2  1  1.03859611  -0.28232507  0.02004090  1.0
  Si  Si3  1  0.28232507  -0.03859611  0.02004090  1.0
  Si  Si4  1  0.45672636  -0.15390757  0.66125264  1.0
  Si  Si5  1  1.15390757  -0.45672636  0.66125264  1.0
  Si  Si6  1  0.84609243  -0.54327364  0.33874736  1.0
  Si  Si7  1  0.54327364  0.15390757  0.33874736  1.0
  Si  Si8  1  0.60227882  0.00184008  0.68684535  1.0
  Si  Si9  1  0.99815992  -0.60227882  0.68684535  1.0
  Si  Si10  1  1.00184008  -0.39772118  0.31315465  1.0
  Si  Si11  1  0.39772118  -0.00184008  0.31315465  1.0
  Si  Si12  1  0.57258164  0.32913597  0.86866103  1.0
  Si  Si13  1  0.67086403  -0.57258164  0.86866103  1.0
  Si  Si14  1  1.32913597  -0.42741836  0.13133897  1.0
  Si  Si15  1  0.42741836  -0.32913597  0.13133897  1.0
  Si  Si16  1  0.27511282  0.26815599  0.78570500  1.0
  Si  Si17  1  0.73184401  -0.27511282  0.78570500  1.0
  Si  Si18  1  1.26815599  -0.72488718  0.21429500  1.0
  Si  Si19  1  0.72488718  -0.26815599  0.21429500  1.0
  Si  Si20  1  0.58054824  -0.41945176  0.50000000  1.0
  Si  Si21  1  0.41945176  0.41945176  0.50000000  1.0
  O  O22  1  0.69890988  -0.16060947  0.68720506  1.0
  O  O23  1  1.16060947  -0.69890988  0.68720506  1.0
  O  O24  1  0.83939053  -0.30109012  0.31279494  1.0
  O  O25  1  0.30109012  0.16060947  0.31279494  1.0
  O  O26  1  0.61064324  -0.24377509  0.73398718  1.0
  O  O27  1  1.24377509  -0.61064324  0.73398718  1.0
  O  O28  1  0.75622491  -0.38935676  0.26601282  1.0
  O  O29  1  0.38935676  0.24377509  0.26601282  1.0
  O  O30  1  0.48538820  -0.26633385  0.57482069  1.0
  O  O31  1  1.26633385  -0.48538820  0.57482069  1.0
  O  O32  1  0.73366615  -0.51461180  0.42517931  1.0
  O  O33  1  0.51461180  0.26633385  0.42517931  1.0
  O  O34  1  0.65958945  0.01609415  0.84316256  1.0
  O  O35  1  0.98390585  -0.65958945  0.84316256  1.0
  O  O36  1  1.01609415  -0.34041055  0.15683744  1.0
  O  O37  1  0.34041055  -0.01609415  0.15683744  1.0
  O  O38  1  0.61670251  0.03317038  0.49090155  1.0
  O  O39  1  0.96682962  -0.61670251  0.49090155  1.0
  O  O40  1  1.03317038  -0.38329749  0.50909845  1.0
  O  O41  1  0.38329749  -0.03317038  0.50909845  1.0
  O  O42  1  0.67107690  0.16681899  0.90191134  1.0
  O  O43  1  0.83318101  -0.67107690  0.90191134  1.0
  O  O44  1  1.16681899  -0.32892310  0.09808866  1.0
  O  O45  1  0.32892310  -0.16681899  0.09808866  1.0
  O  O46  1  0.34741768  -0.07435548  0.82413470  1.0
  O  O47  1  1.07435548  -0.34741768  0.82413470  1.0
  O  O48  1  0.92564452  -0.65258232  0.17586530  1.0
  O  O49  1  0.65258232  0.07435548  0.17586530  1.0
  O  O50  1  0.43569534  0.11278235  0.72213362  1.0
  O  O51  1  0.88721765  -0.43569534  0.72213362  1.0
  O  O52  1  1.11278235  -0.56430466  0.27786638  1.0
  O  O53  1  0.56430466  -0.11278235  0.27786638  1.0
  O  O54  1  0.51406327  0.38452289  0.66059009  1.0
  O  O55  1  0.61547711  -0.51406327  0.66059009  1.0
  O  O56  1  1.38452289  -0.48593673  0.33940991  1.0
  O  O57  1  0.48593673  -0.38452289  0.33940991  1.0
  O  O58  1  0.66947420  -0.66947420  0.91402849  1.0
  O  O59  1  0.33052580  -0.33052580  0.08597151  1.0
  O  O60  1  0.89258109  -0.10741891  0.00000000  1.0
  O  O61  1  0.10741891  0.10741891  0.00000000  1.0
  O  O62  1  0.73590867  -0.26409133  0.00000000  1.0
  O  O63  1  0.26409133  0.26409133  0.00000000  1.0
  O  O64  1  0.56421144  -0.43578856  0.00000000  1.0
  O  O65  1  0.43578856  0.43578856  0.00000000  1.0
