# generated using pymatgen
data_CuSe2Cl
_symmetry_space_group_name_H-M   'P 1'
_cell_length_a   7.72601840
_cell_length_b   4.99104472
_cell_length_c   12.38517532
_cell_angle_alpha   90.00000000
_cell_angle_beta   113.94076758
_cell_angle_gamma   90.00000000
_symmetry_Int_Tables_number   1
_chemical_formula_structural   CuSe2Cl
_chemical_formula_sum   'Cu4 Se8 Cl4'
_cell_volume   436.49486497
_cell_formula_units_Z   4
loop_
 _symmetry_equiv_pos_site_id
 _symmetry_equiv_pos_as_xyz
  1  'x, y, z'
loop_
 _atom_site_type_symbol
 _atom_site_label
 _atom_site_symmetry_multiplicity
 _atom_site_fract_x
 _atom_site_fract_y
 _atom_site_fract_z
 _atom_site_occupancy
  Cu  Cu0  1  0.82570114  0.14135965  0.25163833  1.0
  Cu  Cu1  1  0.82570114  0.35864035  0.75163833  1.0
  Cu  Cu2  1  0.17429886  0.64135965  0.24836167  1.0
  Cu  Cu3  1  0.17429886  0.85864035  0.74836167  1.0
  Se  Se4  1  0.69590691  0.46801512  0.33856488  1.0
  Se  Se5  1  0.69590691  0.03198488  0.83856488  1.0
  Se  Se6  1  0.30409309  0.96801512  0.16143512  1.0
  Se  Se7  1  0.30409309  0.53198488  0.66143512  1.0
  Se  Se8  1  0.41521923  0.31199925  0.33540512  1.0
  Se  Se9  1  0.41521923  0.18800075  0.83540512  1.0
  Se  Se10  1  0.58478077  0.81199925  0.16459488  1.0
  Se  Se11  1  0.58478077  0.68800075  0.66459488  1.0
  Cl  Cl12  1  0.91819525  0.38914749  0.12621807  1.0
  Cl  Cl13  1  0.91819525  0.11085251  0.62621807  1.0
  Cl  Cl14  1  0.08180475  0.88914749  0.37378193  1.0
  Cl  Cl15  1  0.08180475  0.61085251  0.87378193  1.0
