# generated using pymatgen
data_MgWO4
_symmetry_space_group_name_H-M   'P 1'
_cell_length_a   4.73383142
_cell_length_b   5.75037976
_cell_length_c   4.97426295
_cell_angle_alpha   90.00000000
_cell_angle_beta   90.66265338
_cell_angle_gamma   90.00000000
_symmetry_Int_Tables_number   1
_chemical_formula_structural   MgWO4
_chemical_formula_sum   'Mg2 W2 O8'
_cell_volume   135.39698942
_cell_formula_units_Z   2
loop_
 _symmetry_equiv_pos_site_id
 _symmetry_equiv_pos_as_xyz
  1  'x, y, z'
loop_
 _atom_site_type_symbol
 _atom_site_label
 _atom_site_symmetry_multiplicity
 _atom_site_fract_x
 _atom_site_fract_y
 _atom_site_fract_z
 _atom_site_occupancy
  Mg  Mg0  1  -0.00000000  0.82842947  0.25000000  1.0
  Mg  Mg1  1  0.00000000  0.17157053  0.75000000  1.0
  W  W2  1  0.50000000  0.31908810  0.25000000  1.0
  W  W3  1  0.50000000  0.68091190  0.75000000  1.0
  O  O4  1  0.75772522  0.87578251  0.89985465  1.0
  O  O5  1  0.75772522  0.12421749  0.39985465  1.0
  O  O6  1  0.24227478  0.87578251  0.60014535  1.0
  O  O7  1  0.24227478  0.12421749  0.10014535  1.0
  O  O8  1  0.71520472  0.60784699  0.43612731  1.0
  O  O9  1  0.71520472  0.39215301  0.93612731  1.0
  O  O10  1  0.28479528  0.60784699  0.06387269  1.0
  O  O11  1  0.28479528  0.39215301  0.56387269  1.0
