# generated using pymatgen
data_Zr5Si3
_symmetry_space_group_name_H-M   'P 1'
_cell_length_a   8.00114444
_cell_length_b   8.00114444
_cell_length_c   5.57167046
_cell_angle_alpha   90.00000000
_cell_angle_beta   90.00000000
_cell_angle_gamma   120.00000000
_symmetry_Int_Tables_number   1
_chemical_formula_structural   Zr5Si3
_chemical_formula_sum   'Zr10 Si6'
_cell_volume   308.90168348
_cell_formula_units_Z   2
loop_
 _symmetry_equiv_pos_site_id
 _symmetry_equiv_pos_as_xyz
  1  'x, y, z'
loop_
 _atom_site_type_symbol
 _atom_site_label
 _atom_site_symmetry_multiplicity
 _atom_site_fract_x
 _atom_site_fract_y
 _atom_site_fract_z
 _atom_site_occupancy
  Zr  Zr0  1  0.74622630  0.74622630  0.25000000  1.0
  Zr  Zr1  1  0.74622630  0.00000000  0.75000000  1.0
  Zr  Zr2  1  -0.00000000  0.74622630  0.75000000  1.0
  Zr  Zr3  1  0.00000000  0.25377370  0.25000000  1.0
  Zr  Zr4  1  0.25377370  0.25377370  0.75000000  1.0
  Zr  Zr5  1  0.25377370  0.00000000  0.25000000  1.0
  Zr  Zr6  1  0.33333333  0.66666667  0.50000000  1.0
  Zr  Zr7  1  0.33333333  0.66666667  0.00000000  1.0
  Zr  Zr8  1  0.66666667  0.33333333  0.50000000  1.0
  Zr  Zr9  1  0.66666667  0.33333333  0.00000000  1.0
  Si  Si10  1  0.38913594  0.38913594  0.25000000  1.0
  Si  Si11  1  0.38913594  0.00000000  0.75000000  1.0
  Si  Si12  1  0.00000000  0.38913594  0.75000000  1.0
  Si  Si13  1  -0.00000000  0.61086406  0.25000000  1.0
  Si  Si14  1  0.61086406  0.61086406  0.75000000  1.0
  Si  Si15  1  0.61086406  0.00000000  0.25000000  1.0
