# generated using pymatgen
data_Co2GeO4
_symmetry_space_group_name_H-M   'P 1'
_cell_length_a   5.90581018
_cell_length_b   5.90581018
_cell_length_c   5.90581018
_cell_angle_alpha   60.00000000
_cell_angle_beta   60.00000000
_cell_angle_gamma   60.00000000
_symmetry_Int_Tables_number   1
_chemical_formula_structural   Co2GeO4
_chemical_formula_sum   'Co4 Ge2 O8'
_cell_volume   145.65434833
_cell_formula_units_Z   2
loop_
 _symmetry_equiv_pos_site_id
 _symmetry_equiv_pos_as_xyz
  1  'x, y, z'
loop_
 _atom_site_type_symbol
 _atom_site_label
 _atom_site_symmetry_multiplicity
 _atom_site_fract_x
 _atom_site_fract_y
 _atom_site_fract_z
 _atom_site_occupancy
  Co  Co0  1  0.12500000  0.12500000  1.62500000  1.0
  Co  Co1  1  0.12500000  0.62500000  0.12500000  1.0
  Co  Co2  1  0.62500000  0.12500000  1.12500000  1.0
  Co  Co3  1  0.12500000  0.12500000  0.12500000  1.0
  Ge  Ge4  1  0.75000000  -0.25000000  0.75000000  1.0
  Ge  Ge5  1  0.50000000  0.50000000  -0.50000000  1.0
  O  O6  1  0.37546610  0.37546610  -0.12639830  1.0
  O  O7  1  0.37546610  -0.12639830  0.37546610  1.0
  O  O8  1  -0.12639830  0.37546610  0.37546610  1.0
  O  O9  1  0.37546610  0.37546610  0.37546610  1.0
  O  O10  1  -0.12546610  0.87453390  0.37639830  1.0
  O  O11  1  0.87453390  -0.62360170  0.87453390  1.0
  O  O12  1  -0.62360170  0.87453390  0.87453390  1.0
  O  O13  1  0.87453390  -0.12546610  0.87453390  1.0
