# generated using pymatgen
data_ZnHNO4
_symmetry_space_group_name_H-M   'P 1'
_cell_length_a   9.39530235
_cell_length_b   7.88795995
_cell_length_c   5.01193932
_cell_angle_alpha   90.00000000
_cell_angle_beta   90.00000000
_cell_angle_gamma   90.00000000
_symmetry_Int_Tables_number   1
_chemical_formula_structural   ZnHNO4
_chemical_formula_sum   'Zn4 H4 N4 O16'
_cell_volume   371.43366358
_cell_formula_units_Z   4
loop_
 _symmetry_equiv_pos_site_id
 _symmetry_equiv_pos_as_xyz
  1  'x, y, z'
loop_
 _atom_site_type_symbol
 _atom_site_label
 _atom_site_symmetry_multiplicity
 _atom_site_fract_x
 _atom_site_fract_y
 _atom_site_fract_z
 _atom_site_occupancy
  Zn  Zn0  1  0.38206310  0.23514648  0.09378884  1.0
  Zn  Zn1  1  0.88206310  0.26485352  0.09378884  1.0
  Zn  Zn2  1  0.61793690  0.76485352  0.59378884  1.0
  Zn  Zn3  1  0.11793690  0.73514648  0.59378884  1.0
  H  H4  1  0.49490254  0.48724968  1.05409241  1.0
  H  H5  1  0.99490254  0.01275032  1.05409241  1.0
  H  H6  1  0.50509746  0.51275032  0.55409241  1.0
  H  H7  1  0.00509746  0.98724968  0.55409241  1.0
  N  N8  1  0.12791244  0.39487813  0.36874755  1.0
  N  N9  1  0.62791244  0.10512187  0.36874755  1.0
  N  N10  1  0.87208756  0.60512187  0.86874755  1.0
  N  N11  1  0.37208756  0.89487813  0.86874755  1.0
  O  O12  1  0.49313022  0.09037800  0.37938253  1.0
  O  O13  1  0.99313022  0.40962200  0.37938253  1.0
  O  O14  1  0.50686978  0.90962200  0.87938253  1.0
  O  O15  1  0.00686978  0.59037800  0.87938253  1.0
  O  O16  1  0.45334337  0.41631642  0.91193468  1.0
  O  O17  1  0.95334337  0.08368358  0.91193468  1.0
  O  O18  1  0.54665663  0.58368358  0.41193468  1.0
  O  O19  1  0.04665663  0.91631642  0.41193468  1.0
  O  O20  1  0.20660102  0.51470695  0.44709784  1.0
  O  O21  1  0.70660102  -0.01470695  0.44709784  1.0
  O  O22  1  0.79339898  0.48529305  -0.05290216  1.0
  O  O23  1  0.29339898  1.01470695  -0.05290216  1.0
  O  O24  1  0.18154884  0.26059816  0.28065614  1.0
  O  O25  1  0.68154884  0.23940184  0.28065614  1.0
  O  O26  1  0.81845116  0.73940184  0.78065614  1.0
  O  O27  1  0.31845116  0.76059816  0.78065614  1.0
