# generated using pymatgen
data_Tl2TeS3
_symmetry_space_group_name_H-M   'P 1'
_cell_length_a   8.74435888
_cell_length_b   13.40493665
_cell_length_c   6.25469474
_cell_angle_alpha   90.00000000
_cell_angle_beta   90.00000000
_cell_angle_gamma   90.00000000
_symmetry_Int_Tables_number   1
_chemical_formula_structural   Tl2TeS3
_chemical_formula_sum   'Tl8 Te4 S12'
_cell_volume   733.16016159
_cell_formula_units_Z   4
loop_
 _symmetry_equiv_pos_site_id
 _symmetry_equiv_pos_as_xyz
  1  'x, y, z'
loop_
 _atom_site_type_symbol
 _atom_site_label
 _atom_site_symmetry_multiplicity
 _atom_site_fract_x
 _atom_site_fract_y
 _atom_site_fract_z
 _atom_site_occupancy
  Tl  Tl0  1  0.15722330  0.92099142  0.73613548  1.0
  Tl  Tl1  1  0.15722330  0.57900858  0.73613548  1.0
  Tl  Tl2  1  0.65722330  0.92099142  0.76386452  1.0
  Tl  Tl3  1  0.65722330  0.57900858  0.76386452  1.0
  Tl  Tl4  1  0.84277670  0.42099142  0.26386452  1.0
  Tl  Tl5  1  0.84277670  0.07900858  0.26386452  1.0
  Tl  Tl6  1  0.34277670  0.42099142  0.23613548  1.0
  Tl  Tl7  1  0.34277670  0.07900858  0.23613548  1.0
  Te  Te8  1  0.42620025  0.75000000  0.21331044  1.0
  Te  Te9  1  0.92620025  0.75000000  0.28668956  1.0
  Te  Te10  1  0.57379975  0.25000000  0.78668956  1.0
  Te  Te11  1  0.07379975  0.25000000  0.71331044  1.0
  S  S12  1  0.40956758  0.39190593  0.71872390  1.0
  S  S13  1  0.40956758  0.10809407  0.71872390  1.0
  S  S14  1  0.90956758  0.39190593  0.78127610  1.0
  S  S15  1  0.90956758  0.10809407  0.78127610  1.0
  S  S16  1  0.59043242  0.89190593  0.28127610  1.0
  S  S17  1  0.59043242  0.60809407  0.28127610  1.0
  S  S18  1  0.09043242  0.89190593  0.21872390  1.0
  S  S19  1  0.09043242  0.60809407  0.21872390  1.0
  S  S20  1  0.42034557  0.75000000  0.82468734  1.0
  S  S21  1  0.92034557  0.75000000  0.67531266  1.0
  S  S22  1  0.57965443  0.25000000  0.17531266  1.0
  S  S23  1  0.07965443  0.25000000  0.32468734  1.0
