# generated using pymatgen
data_CsLi2N3
_symmetry_space_group_name_H-M   'P 1'
_cell_length_a   7.06377750
_cell_length_b   7.06377750
_cell_length_c   5.15673812
_cell_angle_alpha   90.00000000
_cell_angle_beta   90.00000000
_cell_angle_gamma   104.26037097
_symmetry_Int_Tables_number   1
_chemical_formula_structural   CsLi2N3
_chemical_formula_sum   'Cs2 Li4 N6'
_cell_volume   249.37699174
_cell_formula_units_Z   2
loop_
 _symmetry_equiv_pos_site_id
 _symmetry_equiv_pos_as_xyz
  1  'x, y, z'
loop_
 _atom_site_type_symbol
 _atom_site_label
 _atom_site_symmetry_multiplicity
 _atom_site_fract_x
 _atom_site_fract_y
 _atom_site_fract_z
 _atom_site_occupancy
  Cs  Cs0  1  -0.30043955  1.30043955  0.25000000  1.0
  Cs  Cs1  1  0.30043955  0.69956045  0.75000000  1.0
  Li  Li2  1  0.84881080  0.84881080  0.50000000  1.0
  Li  Li3  1  0.84881080  0.84881080  -0.00000000  1.0
  Li  Li4  1  0.15118920  0.15118920  0.50000000  1.0
  Li  Li5  1  0.15118920  0.15118920  0.00000000  1.0
  N  N6  1  0.18410587  0.38575641  0.25000000  1.0
  N  N7  1  -0.61424359  1.18410587  0.75000000  1.0
  N  N8  1  0.61424359  0.81589413  0.25000000  1.0
  N  N9  1  -0.18410587  1.61424359  0.75000000  1.0
  N  N10  1  0.06650001  0.93349999  0.25000000  1.0
  N  N11  1  -0.06650001  1.06650001  0.75000000  1.0
