# generated using pymatgen
data_Nb3SiNi2
_symmetry_space_group_name_H-M   'P 1'
_cell_length_a   7.92284530
_cell_length_b   7.92284530
_cell_length_c   7.92284530
_cell_angle_alpha   60.00000000
_cell_angle_beta   60.00000000
_cell_angle_gamma   60.00000000
_symmetry_Int_Tables_number   1
_chemical_formula_structural   Nb3SiNi2
_chemical_formula_sum   'Nb12 Si4 Ni8'
_cell_volume   351.66450037
_cell_formula_units_Z   4
loop_
 _symmetry_equiv_pos_site_id
 _symmetry_equiv_pos_as_xyz
  1  'x, y, z'
loop_
 _atom_site_type_symbol
 _atom_site_label
 _atom_site_symmetry_multiplicity
 _atom_site_fract_x
 _atom_site_fract_y
 _atom_site_fract_z
 _atom_site_occupancy
  Nb  Nb0  1  0.79703865  0.79703865  -0.79703865  1.0
  Nb  Nb1  1  0.20296135  1.20296135  -0.20296135  1.0
  Nb  Nb2  1  0.79703865  -0.79703865  0.79703865  1.0
  Nb  Nb3  1  0.20296135  -0.20296135  0.20296135  1.0
  Nb  Nb4  1  -0.79703865  0.79703865  0.79703865  1.0
  Nb  Nb5  1  -0.20296135  0.20296135  0.20296135  1.0
  Nb  Nb6  1  0.45296135  1.45296135  0.04703865  1.0
  Nb  Nb7  1  0.04703865  0.04703865  0.45296135  1.0
  Nb  Nb8  1  0.45296135  1.04703865  0.45296135  1.0
  Nb  Nb9  1  0.04703865  1.45296135  0.04703865  1.0
  Nb  Nb10  1  0.04703865  1.45296135  0.45296135  1.0
  Nb  Nb11  1  0.45296135  1.04703865  0.04703865  1.0
  Si  Si12  1  1.12500000  0.62500000  0.62500000  1.0
  Si  Si13  1  0.62500000  1.12500000  -0.37500000  1.0
  Si  Si14  1  -0.37500000  0.62500000  1.12500000  1.0
  Si  Si15  1  -0.37500000  0.62500000  0.62500000  1.0
  Ni  Ni16  1  -0.25188012  0.41729337  0.41729337  1.0
  Ni  Ni17  1  0.41729337  -0.25188012  0.41729337  1.0
  Ni  Ni18  1  0.41729337  1.41729337  -0.25188012  1.0
  Ni  Ni19  1  0.41729337  1.41729337  0.41729337  1.0
  Ni  Ni20  1  0.50188012  0.83270663  -0.16729337  1.0
  Ni  Ni21  1  0.83270663  0.50188012  0.83270663  1.0
  Ni  Ni22  1  0.83270663  0.83270663  -0.49811988  1.0
  Ni  Ni23  1  0.83270663  0.83270663  0.83270663  1.0
