# generated using pymatgen
data_Ce2Ga12Rh
_symmetry_space_group_name_H-M   'P 1'
_cell_length_a   6.08195420
_cell_length_b   6.08195420
_cell_length_c   15.65635178
_cell_angle_alpha   90.00000000
_cell_angle_beta   90.00000000
_cell_angle_gamma   90.00000000
_symmetry_Int_Tables_number   1
_chemical_formula_structural   Ce2Ga12Rh
_chemical_formula_sum   'Ce4 Ga24 Rh2'
_cell_volume   579.13106456
_cell_formula_units_Z   2
loop_
 _symmetry_equiv_pos_site_id
 _symmetry_equiv_pos_as_xyz
  1  'x, y, z'
loop_
 _atom_site_type_symbol
 _atom_site_label
 _atom_site_symmetry_multiplicity
 _atom_site_fract_x
 _atom_site_fract_y
 _atom_site_fract_z
 _atom_site_occupancy
  Ce  Ce0  1  0.50000000  0.00000000  0.24199651  1.0
  Ce  Ce1  1  0.50000000  0.00000000  0.75800349  1.0
  Ce  Ce2  1  0.00000000  0.50000000  0.75800349  1.0
  Ce  Ce3  1  0.00000000  0.50000000  0.24199651  1.0
  Ga  Ga4  1  0.82751550  0.67248450  0.42890839  1.0
  Ga  Ga5  1  0.82751550  0.32751550  0.57109161  1.0
  Ga  Ga6  1  0.32751550  0.17248450  0.57109161  1.0
  Ga  Ga7  1  0.32751550  0.82751550  0.42890839  1.0
  Ga  Ga8  1  0.67248450  0.82751550  0.57109161  1.0
  Ga  Ga9  1  0.67248450  0.17248450  0.42890839  1.0
  Ga  Ga10  1  0.17248450  0.32751550  0.42890839  1.0
  Ga  Ga11  1  0.17248450  0.67248450  0.57109161  1.0
  Ga  Ga12  1  0.74981734  0.75018266  0.08724080  1.0
  Ga  Ga13  1  0.74981734  0.24981734  0.91275920  1.0
  Ga  Ga14  1  0.24981734  0.25018266  0.91275920  1.0
  Ga  Ga15  1  0.24981734  0.74981734  0.08724080  1.0
  Ga  Ga16  1  0.75018266  0.74981734  0.91275920  1.0
  Ga  Ga17  1  0.75018266  0.25018266  0.08724080  1.0
  Ga  Ga18  1  0.25018266  0.24981734  0.08724080  1.0
  Ga  Ga19  1  0.25018266  0.75018266  0.91275920  1.0
  Ga  Ga20  1  0.00000000  0.00000000  0.18685070  1.0
  Ga  Ga21  1  0.00000000  0.00000000  0.81314930  1.0
  Ga  Ga22  1  0.50000000  0.50000000  0.81314930  1.0
  Ga  Ga23  1  0.50000000  0.50000000  0.18685070  1.0
  Ga  Ga24  1  0.00000000  0.00000000  0.34246708  1.0
  Ga  Ga25  1  0.00000000  0.00000000  0.65753292  1.0
  Ga  Ga26  1  0.50000000  0.50000000  0.65753292  1.0
  Ga  Ga27  1  0.50000000  0.50000000  0.34246708  1.0
  Rh  Rh28  1  0.50000000  0.00000000  0.00000000  1.0
  Rh  Rh29  1  0.00000000  0.50000000  0.00000000  1.0
