# generated using pymatgen
data_MnZnGeO4
_symmetry_space_group_name_H-M   'P 1'
_cell_length_a   10.80313491
_cell_length_b   6.23959861
_cell_length_c   5.02442728
_cell_angle_alpha   90.00000000
_cell_angle_beta   90.00000000
_cell_angle_gamma   90.00000000
_symmetry_Int_Tables_number   1
_chemical_formula_structural   MnZnGeO4
_chemical_formula_sum   'Mn4 Zn4 Ge4 O16'
_cell_volume   338.68270343
_cell_formula_units_Z   4
loop_
 _symmetry_equiv_pos_site_id
 _symmetry_equiv_pos_as_xyz
  1  'x, y, z'
loop_
 _atom_site_type_symbol
 _atom_site_label
 _atom_site_symmetry_multiplicity
 _atom_site_fract_x
 _atom_site_fract_y
 _atom_site_fract_z
 _atom_site_occupancy
  Mn  Mn0  1  0.77826965  0.25000000  0.51015174  1.0
  Mn  Mn1  1  0.27826965  0.25000000  0.98984826  1.0
  Mn  Mn2  1  0.22173035  0.75000000  0.48984826  1.0
  Mn  Mn3  1  0.72173035  0.75000000  0.01015174  1.0
  Zn  Zn4  1  0.00000000  0.50000000  0.00000000  1.0
  Zn  Zn5  1  0.00000000  0.00000000  0.00000000  1.0
  Zn  Zn6  1  0.50000000  0.50000000  0.50000000  1.0
  Zn  Zn7  1  0.50000000  0.00000000  0.50000000  1.0
  Ge  Ge8  1  0.59230545  0.25000000  0.06704571  1.0
  Ge  Ge9  1  0.09230545  0.25000000  0.43295429  1.0
  Ge  Ge10  1  0.40769455  0.75000000  0.93295429  1.0
  Ge  Ge11  1  0.90769455  0.75000000  0.56704571  1.0
  O  O12  1  0.66179847  0.47574430  0.22834586  1.0
  O  O13  1  0.66179847  0.02425570  0.22834586  1.0
  O  O14  1  0.16179847  0.47574430  0.27165414  1.0
  O  O15  1  0.16179847  0.02425570  0.27165414  1.0
  O  O16  1  0.33820153  0.97574430  0.77165414  1.0
  O  O17  1  0.33820153  0.52425570  0.77165414  1.0
  O  O18  1  0.83820153  0.97574430  0.72834586  1.0
  O  O19  1  0.83820153  0.52425570  0.72834586  1.0
  O  O20  1  0.94297926  0.25000000  0.26644019  1.0
  O  O21  1  0.44297926  0.25000000  0.23355981  1.0
  O  O22  1  0.05702074  0.75000000  0.73355981  1.0
  O  O23  1  0.55702074  0.75000000  0.76644019  1.0
  O  O24  1  0.59041717  0.25000000  0.71597150  1.0
  O  O25  1  0.09041717  0.25000000  0.78402850  1.0
  O  O26  1  0.40958283  0.75000000  0.28402850  1.0
  O  O27  1  0.90958283  0.75000000  0.21597150  1.0
