# generated using pymatgen
data_HS7N
_symmetry_space_group_name_H-M   'P 1'
_cell_length_a   8.57096341
_cell_length_b   14.19601646
_cell_length_c   8.46917504
_cell_angle_alpha   90.00000000
_cell_angle_beta   90.00000000
_cell_angle_gamma   90.00000000
_symmetry_Int_Tables_number   1
_chemical_formula_structural   HS7N
_chemical_formula_sum   'H4 S28 N4'
_cell_volume   1030.47448818
_cell_formula_units_Z   4
loop_
 _symmetry_equiv_pos_site_id
 _symmetry_equiv_pos_as_xyz
  1  'x, y, z'
loop_
 _atom_site_type_symbol
 _atom_site_label
 _atom_site_symmetry_multiplicity
 _atom_site_fract_x
 _atom_site_fract_y
 _atom_site_fract_z
 _atom_site_occupancy
  H  H0  1  0.14104066  0.75000000  0.78283691  1.0
  H  H1  1  0.64104066  0.75000000  0.71716309  1.0
  H  H2  1  0.85895934  0.25000000  0.21716309  1.0
  H  H3  1  0.35895934  0.25000000  0.28283691  1.0
  S  S4  1  0.34593884  0.85527140  0.73583270  1.0
  S  S5  1  0.34593884  0.64472860  0.73583270  1.0
  S  S6  1  0.84593884  0.85527140  0.76416730  1.0
  S  S7  1  0.84593884  0.64472860  0.76416730  1.0
  S  S8  1  0.65406116  0.35527140  0.26416730  1.0
  S  S9  1  0.65406116  0.14472860  0.26416730  1.0
  S  S10  1  0.15406116  0.35527140  0.23583270  1.0
  S  S11  1  0.15406116  0.14472860  0.23583270  1.0
  S  S12  1  0.29381875  0.90798203  0.51422669  1.0
  S  S13  1  0.29381875  0.59201797  0.51422669  1.0
  S  S14  1  0.79381875  0.90798203  0.98577331  1.0
  S  S15  1  0.79381875  0.59201797  0.98577331  1.0
  S  S16  1  0.70618125  0.40798203  0.48577331  1.0
  S  S17  1  0.70618125  0.09201797  0.48577331  1.0
  S  S18  1  0.20618125  0.40798203  0.01422669  1.0
  S  S19  1  0.20618125  0.09201797  0.01422669  1.0
  S  S20  1  0.03497121  0.36793991  0.85303604  1.0
  S  S21  1  0.03497121  0.13206009  0.85303604  1.0
  S  S22  1  0.53497121  0.36793991  0.64696396  1.0
  S  S23  1  0.53497121  0.13206009  0.64696396  1.0
  S  S24  1  0.96502879  0.86793991  0.14696396  1.0
  S  S25  1  0.96502879  0.63206009  0.14696396  1.0
  S  S26  1  0.46502879  0.86793991  0.35303604  1.0
  S  S27  1  0.46502879  0.63206009  0.35303604  1.0
  S  S28  1  0.38642276  0.75000000  0.23478552  1.0
  S  S29  1  0.88642276  0.75000000  0.26521448  1.0
  S  S30  1  0.61357724  0.25000000  0.76521448  1.0
  S  S31  1  0.11357724  0.25000000  0.73478552  1.0
  N  N32  1  0.25975712  0.75000000  0.76765059  1.0
  N  N33  1  0.75975712  0.75000000  0.73234941  1.0
  N  N34  1  0.74024288  0.25000000  0.23234941  1.0
  N  N35  1  0.24024288  0.25000000  0.26765059  1.0
