# generated using pymatgen
data_Bi(BO2)3
_symmetry_space_group_name_H-M   'P 1'
_cell_length_a   18.63504475
_cell_length_b   4.51155728
_cell_length_c   4.32722625
_cell_angle_alpha   90.00000000
_cell_angle_beta   90.00000000
_cell_angle_gamma   90.00000000
_symmetry_Int_Tables_number   1
_chemical_formula_structural   Bi(BO2)3
_chemical_formula_sum   'Bi4 B12 O24'
_cell_volume   363.80320314
_cell_formula_units_Z   4
loop_
 _symmetry_equiv_pos_site_id
 _symmetry_equiv_pos_as_xyz
  1  'x, y, z'
loop_
 _atom_site_type_symbol
 _atom_site_label
 _atom_site_symmetry_multiplicity
 _atom_site_fract_x
 _atom_site_fract_y
 _atom_site_fract_z
 _atom_site_occupancy
  Bi  Bi0  1  0.16259172  0.35073482  0.53204239  1.0
  Bi  Bi1  1  0.66259172  0.64926518  0.53204239  1.0
  Bi  Bi2  1  0.83740828  0.64926518  0.03204239  1.0
  Bi  Bi3  1  0.33740828  0.35073482  0.03204239  1.0
  B  B4  1  0.42776650  0.82863797  0.47579895  1.0
  B  B5  1  0.92776650  0.17136203  0.47579895  1.0
  B  B6  1  0.57223350  0.17136203  0.97579895  1.0
  B  B7  1  0.07223350  0.82863797  0.97579895  1.0
  B  B8  1  0.28721144  0.87050740  0.50193222  1.0
  B  B9  1  0.78721144  0.12949260  0.50193222  1.0
  B  B10  1  0.71278856  0.12949260  0.00193222  1.0
  B  B11  1  0.21278856  0.87050740  0.00193222  1.0
  B  B12  1  0.00154809  0.67491898  0.44626499  1.0
  B  B13  1  0.50154809  0.32508102  0.44626499  1.0
  B  B14  1  0.99845191  0.32508102  0.94626499  1.0
  B  B15  1  0.49845191  0.67491898  0.94626499  1.0
  O  O16  1  0.48107033  0.62588377  0.30014774  1.0
  O  O17  1  0.98107033  0.37411623  0.30014774  1.0
  O  O18  1  0.51892967  0.37411623  0.80014774  1.0
  O  O19  1  0.01892967  0.62588377  0.80014774  1.0
  O  O20  1  0.35398159  0.74843680  0.36938600  1.0
  O  O21  1  0.85398159  0.25156320  0.36938600  1.0
  O  O22  1  0.64601841  0.25156320  0.86938600  1.0
  O  O23  1  0.14601841  0.74843680  0.86938600  1.0
  O  O24  1  0.22477049  0.75833519  0.31912612  1.0
  O  O25  1  0.72477049  0.24166481  0.31912612  1.0
  O  O26  1  0.77522951  0.24166481  0.81912612  1.0
  O  O27  1  0.27522951  0.75833519  0.81912612  1.0
  O  O28  1  0.06765450  0.76049782  0.30367332  1.0
  O  O29  1  0.56765450  0.23950218  0.30367332  1.0
  O  O30  1  0.93234550  0.23950218  0.80367332  1.0
  O  O31  1  0.43234550  0.76049782  0.80367332  1.0
  O  O32  1  0.94028641  0.86296057  0.40183512  1.0
  O  O33  1  0.44028641  0.13703943  0.40183512  1.0
  O  O34  1  0.05971359  0.13703943  0.90183512  1.0
  O  O35  1  0.55971359  0.86296057  0.90183512  1.0
  O  O36  1  0.78865075  0.80623448  0.49769314  1.0
  O  O37  1  0.28865075  0.19376552  0.49769314  1.0
  O  O38  1  0.21134925  0.19376552  0.99769314  1.0
  O  O39  1  0.71134925  0.80623448  0.99769314  1.0
