# generated using pymatgen
data_Cl2O7
_symmetry_space_group_name_H-M   'P 1'
_cell_length_a   7.78070105
_cell_length_b   7.78070105
_cell_length_c   9.63941817
_cell_angle_alpha   70.24225524
_cell_angle_beta   109.75774476
_cell_angle_gamma   141.29472514
_symmetry_Int_Tables_number   1
_chemical_formula_structural   Cl2O7
_chemical_formula_sum   'Cl4 O14'
_cell_volume   340.68478166
_cell_formula_units_Z   2
loop_
 _symmetry_equiv_pos_site_id
 _symmetry_equiv_pos_as_xyz
  1  'x, y, z'
loop_
 _atom_site_type_symbol
 _atom_site_label
 _atom_site_symmetry_multiplicity
 _atom_site_fract_x
 _atom_site_fract_y
 _atom_site_fract_z
 _atom_site_occupancy
  Cl  Cl0  1  0.21674456  0.00059782  0.27394425  1.0
  Cl  Cl1  1  0.99940218  0.78325544  0.77394425  1.0
  Cl  Cl2  1  1.00059782  0.21674456  0.22605575  1.0
  Cl  Cl3  1  0.78325544  -0.00059782  0.72605575  1.0
  O  O4  1  0.93353813  0.93353813  0.25000000  1.0
  O  O5  1  0.06646187  0.06646187  0.75000000  1.0
  O  O6  1  0.33860823  0.16156407  0.13844596  1.0
  O  O7  1  0.83843593  0.66139177  0.63844596  1.0
  O  O8  1  1.16156407  0.33860823  0.36155404  1.0
  O  O9  1  0.66139177  -0.16156407  0.86155404  1.0
  O  O10  1  0.71803201  0.06014463  0.20645086  1.0
  O  O11  1  0.93985537  0.28196799  0.70645086  1.0
  O  O12  1  1.06014463  0.71803201  0.29354914  1.0
  O  O13  1  0.28196799  -0.06014463  0.79354914  1.0
  O  O14  1  0.39000081  0.14105760  0.40330111  1.0
  O  O15  1  0.85894240  0.60999919  0.90330111  1.0
  O  O16  1  1.14105760  0.39000081  0.09669889  1.0
  O  O17  1  0.60999919  -0.14105760  0.59669889  1.0
