# generated using pymatgen
data_La3Ge
_symmetry_space_group_name_H-M   'P 1'
_cell_length_a   8.08055149
_cell_length_b   9.77480076
_cell_length_c   6.55198591
_cell_angle_alpha   90.00000000
_cell_angle_beta   90.00000000
_cell_angle_gamma   90.00000000
_symmetry_Int_Tables_number   1
_chemical_formula_structural   La3Ge
_chemical_formula_sum   'La12 Ge4'
_cell_volume   517.51372269
_cell_formula_units_Z   4
loop_
 _symmetry_equiv_pos_site_id
 _symmetry_equiv_pos_as_xyz
  1  'x, y, z'
loop_
 _atom_site_type_symbol
 _atom_site_label
 _atom_site_symmetry_multiplicity
 _atom_site_fract_x
 _atom_site_fract_y
 _atom_site_fract_z
 _atom_site_occupancy
  La  La0  1  0.31451335  0.94907392  0.61930623  1.0
  La  La1  1  0.31451335  0.55092608  0.61930623  1.0
  La  La2  1  0.81451335  0.94907392  0.88069377  1.0
  La  La3  1  0.81451335  0.55092608  0.88069377  1.0
  La  La4  1  0.68548665  0.44907392  0.38069377  1.0
  La  La5  1  0.68548665  0.05092608  0.38069377  1.0
  La  La6  1  0.18548665  0.44907392  0.11930623  1.0
  La  La7  1  0.18548665  0.05092608  0.11930623  1.0
  La  La8  1  0.47207121  0.75000000  0.13004193  1.0
  La  La9  1  0.97207121  0.75000000  0.36995807  1.0
  La  La10  1  0.52792879  0.25000000  0.86995807  1.0
  La  La11  1  0.02792879  0.25000000  0.63004193  1.0
  Ge  Ge12  1  0.12035693  0.75000000  0.91565199  1.0
  Ge  Ge13  1  0.62035693  0.75000000  0.58434801  1.0
  Ge  Ge14  1  0.87964307  0.25000000  0.08434801  1.0
  Ge  Ge15  1  0.37964307  0.25000000  0.41565199  1.0
