# generated using pymatgen
data_KSbF6
_symmetry_space_group_name_H-M   'P 1'
_cell_length_a   9.08093248
_cell_length_b   9.08093248
_cell_length_c   9.08093248
_cell_angle_alpha   109.47122063
_cell_angle_beta   109.47122063
_cell_angle_gamma   109.47122063
_symmetry_Int_Tables_number   1
_chemical_formula_structural   KSbF6
_chemical_formula_sum   'K4 Sb4 F24'
_cell_volume   576.46036069
_cell_formula_units_Z   4
loop_
 _symmetry_equiv_pos_site_id
 _symmetry_equiv_pos_as_xyz
  1  'x, y, z'
loop_
 _atom_site_type_symbol
 _atom_site_label
 _atom_site_symmetry_multiplicity
 _atom_site_fract_x
 _atom_site_fract_y
 _atom_site_fract_z
 _atom_site_occupancy
  K  K0  1  1.00000000  0.50000000  1.00000000  1.0
  K  K1  1  0.50000000  0.50000000  0.50000000  1.0
  K  K2  1  1.00000000  1.00000000  1.50000000  1.0
  K  K3  1  1.50000000  1.00000000  1.00000000  1.0
  Sb  Sb4  1  0.50000000  0.50000000  -0.00000000  1.0
  Sb  Sb5  1  1.00000000  1.00000000  1.00000000  1.0
  Sb  Sb6  1  0.00000000  0.50000000  0.50000000  1.0
  Sb  Sb7  1  0.50000000  1.00000000  0.50000000  1.0
  F  F8  1  0.74505636  0.69311245  0.17139174  1.0
  F  F9  1  1.24505636  1.07366461  1.05194391  1.0
  F  F10  1  1.02172070  0.57366461  1.32860826  1.0
  F  F11  1  1.52172070  1.19311245  1.44805609  1.0
  F  F12  1  1.55194391  1.47827930  1.80688755  1.0
  F  F13  1  1.05194391  1.24505636  1.07366461  1.0
  F  F14  1  0.17139174  0.74505636  0.69311245  1.0
  F  F15  1  0.67139174  0.97827930  0.42633539  1.0
  F  F16  1  1.57366461  1.32860826  1.02172070  1.0
  F  F17  1  1.07366461  1.05194391  1.24505636  1.0
  F  F18  1  0.80688755  0.55194391  0.47827930  1.0
  F  F19  1  1.30688755  0.82860826  1.25494364  1.0
  F  F20  1  0.97827930  1.42633539  0.67139174  1.0
  F  F21  1  0.47827930  0.80688755  0.55194391  1.0
  F  F22  1  1.25494364  1.30688755  1.82860826  1.0
  F  F23  1  0.75494364  0.92633539  0.94805609  1.0
  F  F24  1  1.82860826  1.25494364  1.30688755  1.0
  F  F25  1  1.32860826  1.02172070  1.57366461  1.0
  F  F26  1  0.44805609  0.52172070  0.19311245  1.0
  F  F27  1  0.94805609  0.75494364  0.92633539  1.0
  F  F28  1  1.19311245  1.44805609  1.52172070  1.0
  F  F29  1  0.69311245  1.17139174  0.74505636  1.0
  F  F30  1  0.42633539  0.67139174  0.97827930  1.0
  F  F31  1  0.92633539  0.94805609  0.75494364  1.0
