# generated using pymatgen
data_SiO2
_symmetry_space_group_name_H-M   'P 1'
_cell_length_a   11.01247861
_cell_length_b   11.01247861
_cell_length_c   11.01247861
_cell_angle_alpha   103.12165223
_cell_angle_beta   103.12165223
_cell_angle_gamma   123.09037872
_symmetry_Int_Tables_number   1
_chemical_formula_structural   SiO2
_chemical_formula_sum   'Si16 O32'
_cell_volume   983.75124148
_cell_formula_units_Z   16
loop_
 _symmetry_equiv_pos_site_id
 _symmetry_equiv_pos_as_xyz
  1  'x, y, z'
loop_
 _atom_site_type_symbol
 _atom_site_label
 _atom_site_symmetry_multiplicity
 _atom_site_fract_x
 _atom_site_fract_y
 _atom_site_fract_z
 _atom_site_occupancy
  Si  Si0  1  1.54735443  1.04745967  0.88000827  1.0
  Si  Si1  1  1.16745141  1.66734616  1.11999173  1.0
  Si  Si2  1  1.04745967  1.16745141  1.50010525  1.0
  Si  Si3  1  0.66734616  0.54735443  0.49989475  1.0
  Si  Si4  1  0.45264557  0.95254033  1.11999173  1.0
  Si  Si5  1  0.83254859  0.33265384  0.88000827  1.0
  Si  Si6  1  0.95254033  0.83254859  0.49989475  1.0
  Si  Si7  1  1.33265384  1.45264557  1.50010525  1.0
  Si  Si8  1  1.24994177  0.89597037  0.64600214  1.0
  Si  Si9  1  1.24996822  1.60393962  1.35399786  1.0
  Si  Si10  1  0.89597037  0.24996822  0.64602860  1.0
  Si  Si11  1  0.60393962  0.24994177  0.35397140  1.0
  Si  Si12  1  0.75005823  1.10402963  1.35399786  1.0
  Si  Si13  1  0.75003178  0.39606038  0.64600214  1.0
  Si  Si14  1  1.10402963  0.75003178  0.35397140  1.0
  Si  Si15  1  1.39606038  0.75005823  0.64602860  1.0
  O  O16  1  0.27648658  0.77629285  1.05277943  1.0
  O  O17  1  0.72351342  0.22370715  0.94722057  1.0
  O  O18  1  0.77629285  0.72351342  0.49980627  1.0
  O  O19  1  1.22370715  1.27648658  1.50019373  1.0
  O  O20  1  1.00000000  1.50000000  1.00000000  1.0
  O  O21  1  0.50000000  1.00000000  1.00000000  1.0
  O  O22  1  0.50000000  0.50000000  0.50000000  1.0
  O  O23  1  1.00000000  1.00000000  0.50000000  1.0
  O  O24  1  1.13003322  1.76953593  1.21706247  1.0
  O  O25  1  1.55247346  0.91297075  0.78293753  1.0
  O  O26  1  0.76953593  0.55247346  0.63950271  1.0
  O  O27  1  0.91297075  1.13003322  1.36049729  1.0
  O  O28  1  0.86996678  0.23046407  0.78293753  1.0
  O  O29  1  0.44752654  1.08702925  1.21706247  1.0
  O  O30  1  1.23046407  1.44752654  1.36049729  1.0
  O  O31  1  1.08702925  0.86996678  0.63950271  1.0
  O  O32  1  1.26943119  1.62969574  1.21699839  1.0
  O  O33  1  1.41269735  1.05243280  0.78300161  1.0
  O  O34  1  0.62969574  0.41269735  0.36026455  1.0
  O  O35  1  1.05243280  1.26943119  1.63973545  1.0
  O  O36  1  0.73056881  0.37030426  0.78300161  1.0
  O  O37  1  0.58730265  0.94756720  1.21699839  1.0
  O  O38  1  1.37030426  1.58730265  1.63973545  1.0
  O  O39  1  0.94756720  0.73056881  0.36026455  1.0
  O  O40  1  1.09274821  1.59276420  1.34985987  1.0
  O  O41  1  1.24290433  0.74288834  0.65014013  1.0
  O  O42  1  0.59276420  0.24290433  0.50001599  1.0
  O  O43  1  0.74288834  1.09274821  1.49998401  1.0
  O  O44  1  0.90725179  0.40723580  0.65014013  1.0
  O  O45  1  0.75709567  1.25711166  1.34985987  1.0
  O  O46  1  1.40723580  1.75709567  1.49998401  1.0
  O  O47  1  1.25711166  0.90725179  0.50001599  1.0
