# generated using pymatgen
data_SnAsF7
_symmetry_space_group_name_H-M   'P 1'
_cell_length_a   7.96557229
_cell_length_b   7.96557229
_cell_length_c   7.96557229
_cell_angle_alpha   73.35379979
_cell_angle_beta   73.35379979
_cell_angle_gamma   73.35379979
_symmetry_Int_Tables_number   1
_chemical_formula_structural   SnAsF7
_chemical_formula_sum   'Sn3 As3 F21'
_cell_volume   452.29548653
_cell_formula_units_Z   3
loop_
 _symmetry_equiv_pos_site_id
 _symmetry_equiv_pos_as_xyz
  1  'x, y, z'
loop_
 _atom_site_type_symbol
 _atom_site_label
 _atom_site_symmetry_multiplicity
 _atom_site_fract_x
 _atom_site_fract_y
 _atom_site_fract_z
 _atom_site_occupancy
  Sn  Sn0  1  0.75340117  0.50000000  -0.75340117  1.0
  Sn  Sn1  1  0.50000000  0.24659883  -0.24659883  1.0
  Sn  Sn2  1  0.24659883  0.75340117  -0.50000000  1.0
  As  As3  1  0.69921967  0.69921967  -0.30078033  1.0
  As  As4  1  1.30078033  1.30078033  0.30078033  1.0
  As  As5  1  0.00000000  0.00000000  -0.00000000  1.0
  F  F6  1  0.84975242  0.11763607  -0.14841703  1.0
  F  F7  1  0.14841703  0.88236393  -0.84975242  1.0
  F  F8  1  0.88236393  0.15024758  -0.85158297  1.0
  F  F9  1  0.15024758  0.14841703  -0.11763607  1.0
  F  F10  1  0.85158297  -0.15024758  0.11763607  1.0
  F  F11  1  1.11763607  -0.14841703  -0.15024758  1.0
  F  F12  1  0.48241074  0.79263410  -0.36134289  1.0
  F  F13  1  0.36134289  0.20736590  -0.48241074  1.0
  F  F14  1  0.20736590  0.51758926  -0.63865711  1.0
  F  F15  1  0.51758926  0.36134289  -0.79263410  1.0
  F  F16  1  0.63865711  0.48241074  -0.20736590  1.0
  F  F17  1  0.79263410  0.63865711  -0.51758926  1.0
  F  F18  1  0.60472618  0.75243990  -0.08562302  1.0
  F  F19  1  1.08562302  1.24756010  0.39527382  1.0
  F  F20  1  1.24756010  1.39527382  0.08562302  1.0
  F  F21  1  1.39527382  1.08562302  0.24756010  1.0
  F  F22  1  0.91437698  0.60472618  -0.24756010  1.0
  F  F23  1  0.75243990  0.91437698  -0.39527382  1.0
  F  F24  1  0.32271226  0.50000000  -0.32271226  1.0
  F  F25  1  0.50000000  0.67728774  -0.67728774  1.0
  F  F26  1  0.67728774  0.32271226  -0.50000000  1.0
