# generated using pymatgen
data_V2FeAg3O8
_symmetry_space_group_name_H-M   'P 1'
_cell_length_a   5.56700405
_cell_length_b   5.56700405
_cell_length_c   15.00973825
_cell_angle_alpha   82.89420922
_cell_angle_beta   97.10579078
_cell_angle_gamma   125.75577413
_symmetry_Int_Tables_number   1
_chemical_formula_structural   V2FeAg3O8
_chemical_formula_sum   'V4 Fe2 Ag6 O16'
_cell_volume   373.83259068
_cell_formula_units_Z   2
loop_
 _symmetry_equiv_pos_site_id
 _symmetry_equiv_pos_as_xyz
  1  'x, y, z'
loop_
 _atom_site_type_symbol
 _atom_site_label
 _atom_site_symmetry_multiplicity
 _atom_site_fract_x
 _atom_site_fract_y
 _atom_site_fract_z
 _atom_site_occupancy
  V  V0  1  0.62956447  0.30770916  0.89784838  1.0
  V  V1  1  0.69229084  0.37043553  0.39784838  1.0
  V  V2  1  1.30770916  0.62956447  0.60215162  1.0
  V  V3  1  0.37043553  -0.30770916  0.10215162  1.0
  Fe  Fe4  1  0.00000000  0.00000000  0.00000000  1.0
  Fe  Fe5  1  -0.00000000  0.00000000  0.50000000  1.0
  Ag  Ag6  1  0.63008006  0.29344416  0.65263776  1.0
  Ag  Ag7  1  0.70655584  0.36991994  0.15263776  1.0
  Ag  Ag8  1  1.29344416  0.63008006  0.84736224  1.0
  Ag  Ag9  1  0.36991994  -0.29344416  0.34736224  1.0
  Ag  Ag10  1  0.98037930  0.98037930  0.75000000  1.0
  Ag  Ag11  1  0.01962070  0.01962070  0.25000000  1.0
  O  O12  1  0.57990016  -0.20652466  0.52839825  1.0
  O  O13  1  1.20652466  0.42009984  0.02839825  1.0
  O  O14  1  0.79347534  0.57990016  0.97160175  1.0
  O  O15  1  0.42009984  0.20652466  0.47160175  1.0
  O  O16  1  0.47390656  -0.20736994  0.70195941  1.0
  O  O17  1  1.20736994  0.52609344  0.20195941  1.0
  O  O18  1  0.79263006  0.47390656  0.79804059  1.0
  O  O19  1  0.52609344  0.20736994  0.29804059  1.0
  O  O20  1  0.68443277  0.02799141  0.92974477  1.0
  O  O21  1  0.97200859  0.31556723  0.42974477  1.0
  O  O22  1  1.02799141  0.68443277  0.57025523  1.0
  O  O23  1  0.31556723  -0.02799141  0.07025523  1.0
  O  O24  1  0.24603074  0.15819071  0.88507717  1.0
  O  O25  1  0.84180929  0.75396926  0.38507717  1.0
  O  O26  1  1.15819071  0.24603074  0.61492283  1.0
  O  O27  1  0.75396926  -0.15819071  0.11492283  1.0
