# generated using pymatgen
data_Cs2Pd3S4
_symmetry_space_group_name_H-M   'P 1'
_cell_length_a   7.94776198
_cell_length_b   7.94776198
_cell_length_c   6.25987876
_cell_angle_alpha   78.05305203
_cell_angle_beta   101.94694797
_cell_angle_gamma   47.65162890
_symmetry_Int_Tables_number   1
_chemical_formula_structural   Cs2Pd3S4
_chemical_formula_sum   'Cs2 Pd3 S4'
_cell_volume   250.95078192
_cell_formula_units_Z   1
loop_
 _symmetry_equiv_pos_site_id
 _symmetry_equiv_pos_as_xyz
  1  'x, y, z'
loop_
 _atom_site_type_symbol
 _atom_site_label
 _atom_site_symmetry_multiplicity
 _atom_site_fract_x
 _atom_site_fract_y
 _atom_site_fract_z
 _atom_site_occupancy
  Cs  Cs0  1  0.65944601  0.65944601  -0.00000000  1.0
  Cs  Cs1  1  1.34055399  0.34055399  0.00000000  1.0
  Pd  Pd2  1  0.50000000  -0.50000000  0.50000000  1.0
  Pd  Pd3  1  -0.00000000  0.00000000  0.50000000  1.0
  Pd  Pd4  1  0.00000000  0.00000000  0.00000000  1.0
  S  S5  1  1.72668927  0.06490338  0.66193333  1.0
  S  S6  1  0.93509662  0.27331073  0.66193333  1.0
  S  S7  1  1.06490338  0.72668927  0.33806667  1.0
  S  S8  1  1.27331073  -0.06490338  0.33806667  1.0
