# generated using pymatgen
data_CaAl7Au3
_symmetry_space_group_name_H-M   'P 1'
_cell_length_a   8.52069356
_cell_length_b   8.52069356
_cell_length_c   8.52069356
_cell_angle_alpha   56.68342185
_cell_angle_beta   56.68342185
_cell_angle_gamma   56.68342185
_symmetry_Int_Tables_number   1
_chemical_formula_structural   CaAl7Au3
_chemical_formula_sum   'Ca2 Al14 Au6'
_cell_volume   403.92803197
_cell_formula_units_Z   2
loop_
 _symmetry_equiv_pos_site_id
 _symmetry_equiv_pos_as_xyz
  1  'x, y, z'
loop_
 _atom_site_type_symbol
 _atom_site_label
 _atom_site_symmetry_multiplicity
 _atom_site_fract_x
 _atom_site_fract_y
 _atom_site_fract_z
 _atom_site_occupancy
  Ca  Ca0  1  1.00000000  -0.00000000  -0.00000000  1.0
  Ca  Ca1  1  0.50000000  0.50000000  0.50000000  1.0
  Al  Al2  1  0.85241554  0.06939119  -0.33383508  1.0
  Al  Al3  1  1.35241554  0.16616492  -0.43060881  1.0
  Al  Al4  1  0.83383508  0.43060881  -0.35241554  1.0
  Al  Al5  1  1.33383508  0.14758446  -0.06939119  1.0
  Al  Al6  1  0.93060881  0.33383508  0.14758446  1.0
  Al  Al7  1  0.43060881  0.64758446  -0.16616492  1.0
  Al  Al8  1  1.14758446  -0.06939119  0.33383508  1.0
  Al  Al9  1  0.64758446  0.83383508  -0.56939119  1.0
  Al  Al10  1  0.66616492  -0.14758446  0.06939119  1.0
  Al  Al11  1  1.16616492  -0.43060881  0.35241554  1.0
  Al  Al12  1  0.56939119  0.35241554  0.16616492  1.0
  Al  Al13  1  1.06939119  -0.33383508  -0.14758446  1.0
  Al  Al14  1  0.75000000  0.75000000  -0.25000000  1.0
  Al  Al15  1  0.25000000  0.25000000  0.25000000  1.0
  Au  Au16  1  0.42562252  0.75000000  0.07437748  1.0
  Au  Au17  1  0.92562252  -0.42562252  0.25000000  1.0
  Au  Au18  1  0.25000000  0.92562252  -0.42562252  1.0
  Au  Au19  1  0.75000000  1.07437748  -0.57437748  1.0
  Au  Au20  1  0.57437748  0.25000000  -0.07437748  1.0
  Au  Au21  1  1.07437748  0.42562252  -0.25000000  1.0
