# generated using pymatgen
data_K3Mo2BrO7
_symmetry_space_group_name_H-M   'P 1'
_cell_length_a   6.13531892
_cell_length_b   6.13531892
_cell_length_c   15.80322394
_cell_angle_alpha   90.00000000
_cell_angle_beta   90.00000000
_cell_angle_gamma   120.00000000
_symmetry_Int_Tables_number   1
_chemical_formula_structural   K3Mo2BrO7
_chemical_formula_sum   'K6 Mo4 Br2 O14'
_cell_volume   515.17005548
_cell_formula_units_Z   2
loop_
 _symmetry_equiv_pos_site_id
 _symmetry_equiv_pos_as_xyz
  1  'x, y, z'
loop_
 _atom_site_type_symbol
 _atom_site_label
 _atom_site_symmetry_multiplicity
 _atom_site_fract_x
 _atom_site_fract_y
 _atom_site_fract_z
 _atom_site_occupancy
  K  K0  1  0.33333333  0.66666667  0.25000000  1.0
  K  K1  1  0.66666667  0.33333333  0.75000000  1.0
  K  K2  1  0.33333333  0.66666667  0.95888528  1.0
  K  K3  1  0.33333333  0.66666667  0.54111472  1.0
  K  K4  1  0.66666667  0.33333333  0.45888528  1.0
  K  K5  1  0.66666667  0.33333333  0.04111472  1.0
  Mo  Mo6  1  -0.00000000  -0.00000000  0.36953019  1.0
  Mo  Mo7  1  -0.00000000  -0.00000000  0.13046981  1.0
  Mo  Mo8  1  0.00000000  0.00000000  0.86953019  1.0
  Mo  Mo9  1  0.00000000  0.00000000  0.63046981  1.0
  Br  Br10  1  0.33333333  0.66666667  0.75000000  1.0
  Br  Br11  1  0.66666667  0.33333333  0.25000000  1.0
  O  O12  1  -0.00000000  0.00000000  0.25000000  1.0
  O  O13  1  0.00000000  0.00000000  0.75000000  1.0
  O  O14  1  0.15456907  0.84543093  0.40771079  1.0
  O  O15  1  0.15456907  0.84543093  0.09228921  1.0
  O  O16  1  0.15456907  0.30913813  0.40771079  1.0
  O  O17  1  0.15456907  0.30913813  0.09228921  1.0
  O  O18  1  0.84543093  0.15456907  0.90771079  1.0
  O  O19  1  0.84543093  0.15456907  0.59228921  1.0
  O  O20  1  0.84543093  0.69086187  0.90771079  1.0
  O  O21  1  0.84543093  0.69086187  0.59228921  1.0
  O  O22  1  0.69086187  0.84543093  0.40771079  1.0
  O  O23  1  0.69086187  0.84543093  0.09228921  1.0
  O  O24  1  0.30913813  0.15456907  0.90771079  1.0
  O  O25  1  0.30913813  0.15456907  0.59228921  1.0
