# generated using pymatgen
data_La4Ni3O10
_symmetry_space_group_name_H-M   'P 1'
_cell_length_a   14.22888427
_cell_length_b   14.22887150
_cell_length_c   3.85237593
_cell_angle_alpha   82.22007177
_cell_angle_beta   82.21969546
_cell_angle_gamma   15.56023278
_symmetry_Int_Tables_number   1
_chemical_formula_structural   La4Ni3O10
_chemical_formula_sum   'La4 Ni3 O10'
_cell_volume   207.26205298
_cell_formula_units_Z   1
loop_
 _symmetry_equiv_pos_site_id
 _symmetry_equiv_pos_as_xyz
  1  'x, y, z'
loop_
 _atom_site_type_symbol
 _atom_site_label
 _atom_site_symmetry_multiplicity
 _atom_site_fract_x
 _atom_site_fract_y
 _atom_site_fract_z
 _atom_site_occupancy
  La  La0  1  -0.43329657  0.56670343  0.43329657  1.0
  La  La1  1  0.43329657  0.43329657  -0.43329657  1.0
  La  La2  1  -0.30198512  0.69801488  0.30198512  1.0
  La  La3  1  0.30198512  0.30198512  -0.30198512  1.0
  Ni  Ni4  1  0.00000000  0.00000000  0.00000000  1.0
  Ni  Ni5  1  -0.13973563  0.86026437  0.13973563  1.0
  Ni  Ni6  1  0.13973563  0.13973563  -0.13973563  1.0
  O  O7  1  0.00000000  -0.00000000  1.50000000  1.0
  O  O8  1  -0.50000000  0.50000000  1.00000000  1.0
  O  O9  1  -0.07074122  0.92925878  0.07074122  1.0
  O  O10  1  0.07074122  0.07074122  -0.07074122  1.0
  O  O11  1  -0.13951902  0.86048098  0.63951902  1.0
  O  O12  1  -0.36048098  0.63951902  0.86048098  1.0
  O  O13  1  0.13951902  0.13951902  1.36048098  1.0
  O  O14  1  0.36048098  0.36048098  1.13951902  1.0
  O  O15  1  -0.21597702  0.78402298  0.21597702  1.0
  O  O16  1  0.21597702  0.21597702  -0.21597702  1.0
