# generated using pymatgen
data_La2CuSnO6
_symmetry_space_group_name_H-M   'P 1'
_cell_length_a   7.86483976
_cell_length_b   7.85300380
_cell_length_c   8.72466826
_cell_angle_alpha   90.00000000
_cell_angle_beta   91.90652970
_cell_angle_gamma   90.00000000
_symmetry_Int_Tables_number   1
_chemical_formula_structural   La2CuSnO6
_chemical_formula_sum   'La8 Cu4 Sn4 O24'
_cell_volume   538.56004427
_cell_formula_units_Z   4
loop_
 _symmetry_equiv_pos_site_id
 _symmetry_equiv_pos_as_xyz
  1  'x, y, z'
loop_
 _atom_site_type_symbol
 _atom_site_label
 _atom_site_symmetry_multiplicity
 _atom_site_fract_x
 _atom_site_fract_y
 _atom_site_fract_z
 _atom_site_occupancy
  La  La0  1  0.79680326  0.25000000  0.25424982  1.0
  La  La1  1  0.20319674  0.75000000  0.74575018  1.0
  La  La2  1  0.77105028  0.25000000  0.69382512  1.0
  La  La3  1  0.22894972  0.75000000  0.30617488  1.0
  La  La4  1  0.28566839  0.25000000  0.71069161  1.0
  La  La5  1  0.71433161  0.75000000  0.28930839  1.0
  La  La6  1  0.28473861  0.25000000  0.27335838  1.0
  La  La7  1  0.71526139  0.75000000  0.72664162  1.0
  Cu  Cu8  1  0.50000000  0.50000000  0.50000000  1.0
  Cu  Cu9  1  0.50000000  0.00000000  0.50000000  1.0
  Cu  Cu10  1  -0.00000000  0.50000000  0.50000000  1.0
  Cu  Cu11  1  -0.00000000  0.00000000  0.50000000  1.0
  Sn  Sn12  1  0.50000000  0.50000000  0.00000000  1.0
  Sn  Sn13  1  0.50000000  0.00000000  0.00000000  1.0
  Sn  Sn14  1  0.00000000  0.50000000  0.00000000  1.0
  Sn  Sn15  1  0.00000000  0.00000000  0.00000000  1.0
  O  O16  1  0.94406371  0.94321179  0.77319287  1.0
  O  O17  1  0.94406371  0.55678821  0.77319287  1.0
  O  O18  1  0.05593629  0.44321179  0.22680713  1.0
  O  O19  1  0.05593629  0.05678821  0.22680713  1.0
  O  O20  1  0.75131717  0.46455588  0.46102865  1.0
  O  O21  1  0.75131717  0.03544412  0.46102865  1.0
  O  O22  1  0.24868283  0.96455588  0.53897135  1.0
  O  O23  1  0.24868283  0.53544412  0.53897135  1.0
  O  O24  1  0.56133880  0.44607203  0.77669830  1.0
  O  O25  1  0.56133880  0.05392797  0.77669830  1.0
  O  O26  1  0.43866120  0.94607203  0.22330170  1.0
  O  O27  1  0.43866120  0.55392797  0.22330170  1.0
  O  O28  1  0.24771399  0.45889211  0.91827664  1.0
  O  O29  1  0.24771399  0.04110789  0.91827664  1.0
  O  O30  1  0.75228601  0.95889211  0.08172336  1.0
  O  O31  1  0.75228601  0.54110789  0.08172336  1.0
  O  O32  1  0.92060642  0.25000000  0.95479471  1.0
  O  O33  1  0.07939358  0.75000000  0.04520529  1.0
  O  O34  1  0.52208760  0.25000000  0.08836949  1.0
  O  O35  1  0.47791240  0.75000000  0.91163051  1.0
  O  O36  1  0.47032085  0.25000000  0.49303599  1.0
  O  O37  1  0.52967915  0.75000000  0.50696401  1.0
  O  O38  1  0.03510578  0.25000000  0.52985935  1.0
  O  O39  1  0.96489422  0.75000000  0.47014065  1.0
