# generated using pymatgen
data_Eu2O3
_symmetry_space_group_name_H-M   'P 1'
_cell_length_a   9.50195188
_cell_length_b   9.50195188
_cell_length_c   9.50195188
_cell_angle_alpha   109.47122063
_cell_angle_beta   109.47122063
_cell_angle_gamma   109.47122063
_symmetry_Int_Tables_number   1
_chemical_formula_structural   Eu2O3
_chemical_formula_sum   'Eu16 O24'
_cell_volume   660.41448448
_cell_formula_units_Z   8
loop_
 _symmetry_equiv_pos_site_id
 _symmetry_equiv_pos_as_xyz
  1  'x, y, z'
loop_
 _atom_site_type_symbol
 _atom_site_label
 _atom_site_symmetry_multiplicity
 _atom_site_fract_x
 _atom_site_fract_y
 _atom_site_fract_z
 _atom_site_occupancy
  Eu  Eu0  1  1.71887556  1.46887556  1.25000000  1.0
  Eu  Eu1  1  1.21887556  0.96887556  1.25000000  1.0
  Eu  Eu2  1  0.75000000  0.78112444  0.03112444  1.0
  Eu  Eu3  1  0.25000000  1.21887556  0.96887556  1.0
  Eu  Eu4  1  0.25000000  0.71887556  0.46887556  1.0
  Eu  Eu5  1  0.75000000  1.28112444  0.53112444  1.0
  Eu  Eu6  1  1.46887556  1.25000000  1.71887556  1.0
  Eu  Eu7  1  0.96887556  0.25000000  1.21887556  1.0
  Eu  Eu8  1  0.03112444  0.75000000  0.78112444  1.0
  Eu  Eu9  1  0.53112444  0.75000000  0.28112444  1.0
  Eu  Eu10  1  0.28112444  0.53112444  0.75000000  1.0
  Eu  Eu11  1  0.78112444  1.03112444  0.75000000  1.0
  Eu  Eu12  1  1.00000000  0.50000000  1.00000000  1.0
  Eu  Eu13  1  0.50000000  0.50000000  0.50000000  1.0
  Eu  Eu14  1  1.00000000  1.00000000  1.50000000  1.0
  Eu  Eu15  1  1.50000000  1.00000000  1.00000000  1.0
  O  O16  1  0.53946158  0.53210467  0.76949380  1.0
  O  O17  1  1.03946158  0.26996778  1.00735690  1.0
  O  O18  1  0.26261087  0.76996778  0.73050620  1.0
  O  O19  1  0.76261087  1.03210467  0.49264310  1.0
  O  O20  1  0.50735690  1.23738913  0.96789533  1.0
  O  O21  1  1.00735690  1.03946158  0.26996778  1.0
  O  O22  1  0.76949380  0.53946158  0.53210467  1.0
  O  O23  1  1.26949380  0.73738913  1.23003222  1.0
  O  O24  1  0.76996778  0.73050620  0.26261087  1.0
  O  O25  1  1.26996778  1.00735690  1.03946158  1.0
  O  O26  1  0.96789533  0.50735690  1.23738913  1.0
  O  O27  1  1.46789533  1.23050620  1.46053842  1.0
  O  O28  1  1.73738913  1.23003222  1.26949380  1.0
  O  O29  1  1.23738913  0.96789533  1.50735690  1.0
  O  O30  1  1.46053842  1.46789533  1.23050620  1.0
  O  O31  1  0.96053842  1.73003222  0.99264310  1.0
  O  O32  1  1.23050620  1.46053842  1.46789533  1.0
  O  O33  1  0.73050620  1.26261087  0.76996778  1.0
  O  O34  1  1.49264310  0.76261087  1.03210467  1.0
  O  O35  1  0.99264310  0.96053842  1.73003222  1.0
  O  O36  1  1.03210467  1.49264310  0.76261087  1.0
  O  O37  1  0.53210467  0.76949380  0.53946158  1.0
  O  O38  1  1.23003222  1.26949380  1.73738913  1.0
  O  O39  1  0.73003222  0.99264310  0.96053842  1.0
