# generated using pymatgen
data_TiAl2O5
_symmetry_space_group_name_H-M   'P 1'
_cell_length_a   5.05938643
_cell_length_b   5.05938643
_cell_length_c   9.75748068
_cell_angle_alpha   90.00000000
_cell_angle_beta   90.00000000
_cell_angle_gamma   138.00492586
_symmetry_Int_Tables_number   1
_chemical_formula_structural   TiAl2O5
_chemical_formula_sum   'Ti2 Al4 O10'
_cell_volume   167.11014940
_cell_formula_units_Z   2
loop_
 _symmetry_equiv_pos_site_id
 _symmetry_equiv_pos_as_xyz
  1  'x, y, z'
loop_
 _atom_site_type_symbol
 _atom_site_label
 _atom_site_symmetry_multiplicity
 _atom_site_fract_x
 _atom_site_fract_y
 _atom_site_fract_z
 _atom_site_occupancy
  Ti  Ti0  1  0.18264084  0.81735916  0.75000000  1.0
  Ti  Ti1  1  -0.18264084  0.18264084  0.25000000  1.0
  Al  Al2  1  0.14116706  0.85883294  0.44408595  1.0
  Al  Al3  1  0.14116706  0.85883294  0.05591405  1.0
  Al  Al4  1  -0.14116706  0.14116706  0.94408595  1.0
  Al  Al5  1  -0.14116706  0.14116706  0.55591405  1.0
  O  O6  1  0.04400014  0.95599986  0.88260016  1.0
  O  O7  1  0.04400014  0.95599986  0.61739984  1.0
  O  O8  1  -0.04400014  0.04400014  0.38260016  1.0
  O  O9  1  -0.04400014  0.04400014  0.11739984  1.0
  O  O10  1  0.31181381  0.68818619  0.93322610  1.0
  O  O11  1  0.31181381  0.68818619  0.56677390  1.0
  O  O12  1  -0.31181381  0.31181381  0.43322610  1.0
  O  O13  1  -0.31181381  0.31181381  0.06677390  1.0
  O  O14  1  -0.23751530  0.23751530  0.75000000  1.0
  O  O15  1  0.23751530  0.76248470  0.25000000  1.0
