# generated using pymatgen
data_SiBr4
_symmetry_space_group_name_H-M   'P 1'
_cell_length_a   12.06955323
_cell_length_b   12.06955323
_cell_length_c   12.06955323
_cell_angle_alpha   90.00000000
_cell_angle_beta   90.00000000
_cell_angle_gamma   90.00000000
_symmetry_Int_Tables_number   1
_chemical_formula_structural   SiBr4
_chemical_formula_sum   'Si8 Br32'
_cell_volume   1758.22148896
_cell_formula_units_Z   8
loop_
 _symmetry_equiv_pos_site_id
 _symmetry_equiv_pos_as_xyz
  1  'x, y, z'
loop_
 _atom_site_type_symbol
 _atom_site_label
 _atom_site_symmetry_multiplicity
 _atom_site_fract_x
 _atom_site_fract_y
 _atom_site_fract_z
 _atom_site_occupancy
  Si  Si0  1  0.36616231  0.86616231  0.63383769  1.0
  Si  Si1  1  0.36616231  0.63383769  0.13383769  1.0
  Si  Si2  1  0.86616231  0.86616231  0.86616231  1.0
  Si  Si3  1  0.86616231  0.63383769  0.36616231  1.0
  Si  Si4  1  0.63383769  0.36616231  0.86616231  1.0
  Si  Si5  1  0.63383769  0.13383769  0.36616231  1.0
  Si  Si6  1  0.13383769  0.36616231  0.63383769  1.0
  Si  Si7  1  0.13383769  0.13383769  0.13383769  1.0
  Br  Br8  1  0.53655127  0.48068657  0.76063947  1.0
  Br  Br9  1  0.53655127  0.01931343  0.26063947  1.0
  Br  Br10  1  0.03655127  0.48068657  0.73936053  1.0
  Br  Br11  1  0.03655127  0.01931343  0.23936053  1.0
  Br  Br12  1  0.98068657  0.73936053  0.46344873  1.0
  Br  Br13  1  0.98068657  0.76063947  0.96344873  1.0
  Br  Br14  1  0.48068657  0.73936053  0.03655127  1.0
  Br  Br15  1  0.48068657  0.76063947  0.53655127  1.0
  Br  Br16  1  0.23936053  0.03655127  0.01931343  1.0
  Br  Br17  1  0.23936053  0.46344873  0.51931343  1.0
  Br  Br18  1  0.73936053  0.03655127  0.48068657  1.0
  Br  Br19  1  0.73936053  0.46344873  0.98068657  1.0
  Br  Br20  1  0.46344873  0.98068657  0.73936053  1.0
  Br  Br21  1  0.46344873  0.51931343  0.23936053  1.0
  Br  Br22  1  0.96344873  0.98068657  0.76063947  1.0
  Br  Br23  1  0.96344873  0.51931343  0.26063947  1.0
  Br  Br24  1  0.01931343  0.23936053  0.03655127  1.0
  Br  Br25  1  0.01931343  0.26063947  0.53655127  1.0
  Br  Br26  1  0.51931343  0.23936053  0.46344873  1.0
  Br  Br27  1  0.51931343  0.26063947  0.96344873  1.0
  Br  Br28  1  0.76063947  0.53655127  0.48068657  1.0
  Br  Br29  1  0.76063947  0.96344873  0.98068657  1.0
  Br  Br30  1  0.26063947  0.53655127  0.01931343  1.0
  Br  Br31  1  0.26063947  0.96344873  0.51931343  1.0
  Br  Br32  1  0.26033359  0.76033359  0.73966641  1.0
  Br  Br33  1  0.26033359  0.73966641  0.23966641  1.0
  Br  Br34  1  0.76033359  0.76033359  0.76033359  1.0
  Br  Br35  1  0.76033359  0.73966641  0.26033359  1.0
  Br  Br36  1  0.73966641  0.26033359  0.76033359  1.0
  Br  Br37  1  0.73966641  0.23966641  0.26033359  1.0
  Br  Br38  1  0.23966641  0.26033359  0.73966641  1.0
  Br  Br39  1  0.23966641  0.23966641  0.23966641  1.0
