# generated using pymatgen
data_Cu3C
_symmetry_space_group_name_H-M   'P 1'
_cell_length_a   5.37328075
_cell_length_b   6.73017271
_cell_length_c   4.72894961
_cell_angle_alpha   90.00000000
_cell_angle_beta   90.00000000
_cell_angle_gamma   90.00000000
_symmetry_Int_Tables_number   1
_chemical_formula_structural   Cu3C
_chemical_formula_sum   'Cu12 C4'
_cell_volume   171.01351299
_cell_formula_units_Z   4
loop_
 _symmetry_equiv_pos_site_id
 _symmetry_equiv_pos_as_xyz
  1  'x, y, z'
loop_
 _atom_site_type_symbol
 _atom_site_label
 _atom_site_symmetry_multiplicity
 _atom_site_fract_x
 _atom_site_fract_y
 _atom_site_fract_z
 _atom_site_occupancy
  Cu  Cu0  1  0.58860208  0.25000000  0.71193829  1.0
  Cu  Cu1  1  0.08860208  0.25000000  0.78806171  1.0
  Cu  Cu2  1  0.41139792  0.75000000  0.28806171  1.0
  Cu  Cu3  1  0.91139792  0.75000000  0.21193829  1.0
  Cu  Cu4  1  0.65364804  0.06726848  0.19278940  1.0
  Cu  Cu5  1  0.15364804  0.43273152  0.30721060  1.0
  Cu  Cu6  1  0.34635196  0.56726848  0.80721060  1.0
  Cu  Cu7  1  0.84635196  0.93273152  0.69278940  1.0
  Cu  Cu8  1  0.34635196  0.93273152  0.80721060  1.0
  Cu  Cu9  1  0.84635196  0.56726848  0.69278940  1.0
  Cu  Cu10  1  0.65364804  0.43273152  0.19278940  1.0
  Cu  Cu11  1  0.15364804  0.06726848  0.30721060  1.0
  C  C12  1  0.86364494  0.25000000  0.45058834  1.0
  C  C13  1  0.36364494  0.25000000  0.04941166  1.0
  C  C14  1  0.13635506  0.75000000  0.54941166  1.0
  C  C15  1  0.63635506  0.75000000  0.95058834  1.0
