# generated using pymatgen
data_Y2Ge5Rh3
_symmetry_space_group_name_H-M   'P 1'
_cell_length_a   8.33998379
_cell_length_b   8.33998379
_cell_length_c   5.89863103
_cell_angle_alpha   71.15867572
_cell_angle_beta   108.84132428
_cell_angle_gamma   85.94925892
_symmetry_Int_Tables_number   1
_chemical_formula_structural   Y2Ge5Rh3
_chemical_formula_sum   'Y4 Ge10 Rh6'
_cell_volume   360.41374483
_cell_formula_units_Z   2
loop_
 _symmetry_equiv_pos_site_id
 _symmetry_equiv_pos_as_xyz
  1  'x, y, z'
loop_
 _atom_site_type_symbol
 _atom_site_label
 _atom_site_symmetry_multiplicity
 _atom_site_fract_x
 _atom_site_fract_y
 _atom_site_fract_z
 _atom_site_occupancy
  Y  Y0  1  1.59278905  0.13047601  0.73628073  1.0
  Y  Y1  1  0.86952399  -0.59278905  0.23628073  1.0
  Y  Y2  1  1.13047601  0.59278905  0.76371927  1.0
  Y  Y3  1  0.40721095  -0.13047601  0.26371927  1.0
  Ge  Ge4  1  0.26428663  -0.07377122  0.66849885  1.0
  Ge  Ge5  1  1.07377122  0.73571337  0.16849885  1.0
  Ge  Ge6  1  0.92622878  -0.73571337  0.83150115  1.0
  Ge  Ge7  1  1.73571337  0.07377122  0.33150115  1.0
  Ge  Ge8  1  0.79158199  -0.20841801  0.75000000  1.0
  Ge  Ge9  1  1.20841801  0.20841801  0.25000000  1.0
  Ge  Ge10  1  1.48733018  0.48733018  0.75000000  1.0
  Ge  Ge11  1  0.51266982  -0.48733018  0.25000000  1.0
  Ge  Ge12  1  1.22310322  0.22310322  0.75000000  1.0
  Ge  Ge13  1  0.77689678  -0.22310322  0.25000000  1.0
  Rh  Rh14  1  0.54409609  -0.26118576  0.87549970  1.0
  Rh  Rh15  1  1.26118576  0.45590391  0.37549970  1.0
  Rh  Rh16  1  0.73881424  -0.45590391  0.62450030  1.0
  Rh  Rh17  1  1.45590391  0.26118576  0.12450030  1.0
  Rh  Rh18  1  0.99744282  -0.00255718  0.75000000  1.0
  Rh  Rh19  1  1.00255718  0.00255718  0.25000000  1.0
