# generated using pymatgen
data_Sr6YAl(BO3)6
_symmetry_space_group_name_H-M   'P 1'
_cell_length_a   7.73372126
_cell_length_b   7.73372126
_cell_length_c   7.73372126
_cell_angle_alpha   105.45605974
_cell_angle_beta   105.45605974
_cell_angle_gamma   105.45605974
_symmetry_Int_Tables_number   1
_chemical_formula_structural   Sr6YAl(BO3)6
_chemical_formula_sum   'Sr6 Y1 Al1 B6 O18'
_cell_volume   400.34056609
_cell_formula_units_Z   1
loop_
 _symmetry_equiv_pos_site_id
 _symmetry_equiv_pos_as_xyz
  1  'x, y, z'
loop_
 _atom_site_type_symbol
 _atom_site_label
 _atom_site_symmetry_multiplicity
 _atom_site_fract_x
 _atom_site_fract_y
 _atom_site_fract_z
 _atom_site_occupancy
  Sr  Sr0  1  0.76711469  0.66530103  0.15201246  1.0
  Sr  Sr1  1  1.33469897  -0.15201246  0.23288531  1.0
  Sr  Sr2  1  0.84798754  0.23288531  0.33469897  1.0
  Sr  Sr3  1  1.23288531  0.33469897  -0.15201246  1.0
  Sr  Sr4  1  0.66530103  1.15201246  -0.23288531  1.0
  Sr  Sr5  1  1.15201246  0.76711469  -0.33469897  1.0
  Y  Y6  1  0.50000000  0.50000000  0.50000000  1.0
  Al  Al7  1  0.00000000  0.00000000  0.00000000  1.0
  B  B8  1  1.55452525  0.79815371  -0.12011545  1.0
  B  B9  1  1.20184629  0.12011545  -0.55452525  1.0
  B  B10  1  1.12011545  -0.55452525  0.20184629  1.0
  B  B11  1  0.44547475  0.20184629  0.12011545  1.0
  B  B12  1  0.79815371  0.87988455  0.55452525  1.0
  B  B13  1  0.87988455  1.55452525  -0.20184629  1.0
  O  O14  1  0.73953138  0.92755303  -0.00159150  1.0
  O  O15  1  1.07244697  0.00159150  -0.73953138  1.0
  O  O16  1  1.00159150  -0.73953138  0.07244697  1.0
  O  O17  1  0.26046862  0.07244697  0.00159150  1.0
  O  O18  1  0.92755303  0.99840850  -0.26046862  1.0
  O  O19  1  0.99840850  0.73953138  -0.07244697  1.0
  O  O20  1  1.48697316  0.77610367  -0.31396654  1.0
  O  O21  1  1.22389633  0.31396654  -0.48697316  1.0
  O  O22  1  1.31396654  -0.48697316  0.22389633  1.0
  O  O23  1  0.51302684  0.22389633  0.31396654  1.0
  O  O24  1  0.77610367  0.68603346  0.48697316  1.0
  O  O25  1  0.68603346  1.48697316  -0.22389633  1.0
  O  O26  1  0.56375374  0.29902640  0.04490312  1.0
  O  O27  1  0.70097360  0.95509688  0.43624626  1.0
  O  O28  1  0.95509688  1.43624626  -0.29902640  1.0
  O  O29  1  1.43624626  0.70097360  -0.04490312  1.0
  O  O30  1  1.29902640  0.04490312  -0.43624626  1.0
  O  O31  1  1.04490312  -0.43624626  0.29902640  1.0
