# generated using pymatgen
data_Sn15Ru3O14
_symmetry_space_group_name_H-M   'P 1'
_cell_length_a   7.25062236
_cell_length_b   7.25062236
_cell_length_c   13.13441056
_cell_angle_alpha   73.99373145
_cell_angle_beta   106.00626855
_cell_angle_gamma   120.43142286
_symmetry_Int_Tables_number   1
_chemical_formula_structural   Sn15Ru3O14
_chemical_formula_sum   'Sn15 Ru3 O14'
_cell_volume   564.52279266
_cell_formula_units_Z   1
loop_
 _symmetry_equiv_pos_site_id
 _symmetry_equiv_pos_as_xyz
  1  'x, y, z'
loop_
 _atom_site_type_symbol
 _atom_site_label
 _atom_site_symmetry_multiplicity
 _atom_site_fract_x
 _atom_site_fract_y
 _atom_site_fract_z
 _atom_site_occupancy
  Sn  Sn0  1  0.78809279  0.73961287  0.85639214  1.0
  Sn  Sn1  1  0.26038713  0.21190721  0.85639214  1.0
  Sn  Sn2  1  1.02519904  0.45317553  0.60744794  1.0
  Sn  Sn3  1  0.54682447  -0.02519904  0.60744794  1.0
  Sn  Sn4  1  1.11877400  -0.60470334  0.34247187  1.0
  Sn  Sn5  1  1.60470334  -0.11877400  0.34247187  1.0
  Sn  Sn6  1  1.21147413  -0.69441678  0.11556511  1.0
  Sn  Sn7  1  1.69441678  -0.21147413  0.11556511  1.0
  Sn  Sn8  1  0.01743756  -0.01743756  0.59034047  1.0
  Sn  Sn9  1  0.13078539  -0.13078539  0.38755682  1.0
  Sn  Sn10  1  1.21128967  -0.21128967  0.10831247  1.0
  Sn  Sn11  1  0.26753914  -0.26753914  0.84897522  1.0
  Sn  Sn12  1  0.55922307  0.44077693  0.64306736  1.0
  Sn  Sn13  1  0.60309390  0.39690610  0.34893439  1.0
  Sn  Sn14  1  0.79611188  0.20388812  0.88094387  1.0
  Ru  Ru15  1  0.00029764  -0.00029764  -0.00035343  1.0
  Ru  Ru16  1  1.40492494  -0.40492494  0.73387796  1.0
  Ru  Ru17  1  0.81362722  -0.81362722  0.46300414  1.0
  O  O18  1  0.81124418  0.76115612  0.30156638  1.0
  O  O19  1  0.23884388  0.18875582  0.30156638  1.0
  O  O20  1  0.86025317  0.64758773  0.58549109  1.0
  O  O21  1  0.35241227  0.13974683  0.58549109  1.0
  O  O22  1  0.93324633  0.53116748  0.88287707  1.0
  O  O23  1  0.46883252  0.06675367  0.88287707  1.0
  O  O24  1  1.09193530  -0.54134191  0.17455016  1.0
  O  O25  1  1.54134191  -0.09193530  0.17455016  1.0
  O  O26  1  0.07227348  -0.07227348  0.75887112  1.0
  O  O27  1  1.23788741  -0.23788741  0.29348048  1.0
  O  O28  1  1.34140710  -0.34140710  0.01994352  1.0
  O  O29  1  1.45920586  -0.45920586  0.40017602  1.0
  O  O30  1  0.54092917  0.45907083  0.17979991  1.0
  O  O31  1  0.74118533  0.25881467  0.71134618  1.0
