# generated using pymatgen
data_Sc2SeO5
_symmetry_space_group_name_H-M   'P 1'
_cell_length_a   8.00257169
_cell_length_b   5.33238293
_cell_length_c   11.33406382
_cell_angle_alpha   90.00000000
_cell_angle_beta   113.20098867
_cell_angle_gamma   90.00000000
_symmetry_Int_Tables_number   1
_chemical_formula_structural   Sc2SeO5
_chemical_formula_sum   'Sc8 Se4 O20'
_cell_volume   444.54201033
_cell_formula_units_Z   4
loop_
 _symmetry_equiv_pos_site_id
 _symmetry_equiv_pos_as_xyz
  1  'x, y, z'
loop_
 _atom_site_type_symbol
 _atom_site_label
 _atom_site_symmetry_multiplicity
 _atom_site_fract_x
 _atom_site_fract_y
 _atom_site_fract_z
 _atom_site_occupancy
  Sc  Sc0  1  0.98138839  0.45631074  0.34937568  1.0
  Sc  Sc1  1  0.98138839  0.04368926  0.84937568  1.0
  Sc  Sc2  1  0.01861161  0.54368926  0.65062432  1.0
  Sc  Sc3  1  0.01861161  0.95631074  0.15062432  1.0
  Sc  Sc4  1  0.80378509  0.48098316  0.00162294  1.0
  Sc  Sc5  1  0.80378509  0.01901684  0.50162294  1.0
  Sc  Sc6  1  0.19621491  0.51901684  0.99837706  1.0
  Sc  Sc7  1  0.19621491  0.98098316  0.49837706  1.0
  Se  Se8  1  0.59528402  0.38454933  0.66614592  1.0
  Se  Se9  1  0.59528402  0.11545067  0.16614592  1.0
  Se  Se10  1  0.40471598  0.61545067  0.33385408  1.0
  Se  Se11  1  0.40471598  0.88454933  0.83385408  1.0
  O  O12  1  0.10939060  0.13914780  0.32097895  1.0
  O  O13  1  0.10939060  0.36085220  0.82097895  1.0
  O  O14  1  0.89060940  0.86085220  0.67902105  1.0
  O  O15  1  0.89060940  0.63914780  0.17902105  1.0
  O  O16  1  0.03602360  0.24981884  0.03241681  1.0
  O  O17  1  0.03602360  0.25018116  0.53241681  1.0
  O  O18  1  0.96397640  0.75018116  0.96758319  1.0
  O  O19  1  0.96397640  0.74981884  0.46758319  1.0
  O  O20  1  0.45131316  0.14216112  0.60147175  1.0
  O  O21  1  0.45131316  0.35783888  0.10147175  1.0
  O  O22  1  0.54868684  0.85783888  0.39852825  1.0
  O  O23  1  0.54868684  0.64216112  0.89852825  1.0
  O  O24  1  0.73364329  0.25886763  0.81433382  1.0
  O  O25  1  0.73364329  0.24113237  0.31433382  1.0
  O  O26  1  0.26635671  0.74113237  0.18566618  1.0
  O  O27  1  0.26635671  0.75886763  0.68566618  1.0
  O  O28  1  0.74116177  0.14302430  0.08537879  1.0
  O  O29  1  0.74116177  0.35697570  0.58537879  1.0
  O  O30  1  0.25883823  0.85697570  0.91462121  1.0
  O  O31  1  0.25883823  0.64302430  0.41462121  1.0
