# generated using pymatgen
data_SbI(ClF3)2
_symmetry_space_group_name_H-M   'P 1'
_cell_length_a   8.45724076
_cell_length_b   8.45724076
_cell_length_c   13.23023720
_cell_angle_alpha   90.00000000
_cell_angle_beta   90.00000000
_cell_angle_gamma   98.42501920
_symmetry_Int_Tables_number   1
_chemical_formula_structural   SbI(ClF3)2
_chemical_formula_sum   'Sb4 I4 Cl8 F24'
_cell_volume   936.07971837
_cell_formula_units_Z   4
loop_
 _symmetry_equiv_pos_site_id
 _symmetry_equiv_pos_as_xyz
  1  'x, y, z'
loop_
 _atom_site_type_symbol
 _atom_site_label
 _atom_site_symmetry_multiplicity
 _atom_site_fract_x
 _atom_site_fract_y
 _atom_site_fract_z
 _atom_site_occupancy
  Sb  Sb0  1  -0.28552600  1.28552600  0.06115651  1.0
  Sb  Sb1  1  0.21447400  0.78552600  0.43884349  1.0
  Sb  Sb2  1  0.28552600  0.71447400  0.93884349  1.0
  Sb  Sb3  1  -0.21447400  1.21447400  0.56115651  1.0
  I  I4  1  -0.34349417  0.84349417  0.25000000  1.0
  I  I5  1  0.15650583  1.34349417  0.25000000  1.0
  I  I6  1  -0.15650583  0.65650583  0.75000000  1.0
  I  I7  1  0.34349417  1.15650583  0.75000000  1.0
  Cl  Cl8  1  0.36583759  1.31267614  0.35860526  1.0
  Cl  Cl9  1  -0.13416241  0.81267614  0.14139474  1.0
  Cl  Cl10  1  0.31267614  1.36583759  0.64139474  1.0
  Cl  Cl11  1  -0.18732386  0.86583759  0.85860526  1.0
  Cl  Cl12  1  -0.31267614  0.63416241  0.35860526  1.0
  Cl  Cl13  1  0.18732386  1.13416241  0.14139474  1.0
  Cl  Cl14  1  -0.36583759  0.68732386  0.64139474  1.0
  Cl  Cl15  1  0.13416241  1.18732386  0.85860526  1.0
  F  F16  1  -0.35541052  1.10854729  0.15573454  1.0
  F  F17  1  0.14458948  0.60854729  0.34426546  1.0
  F  F18  1  0.10854729  0.64458948  0.84426546  1.0
  F  F19  1  -0.39145271  1.14458948  0.65573454  1.0
  F  F20  1  -0.10854729  1.35541052  0.15573454  1.0
  F  F21  1  0.39145271  0.85541052  0.34426546  1.0
  F  F22  1  0.35541052  0.89145271  0.84426546  1.0
  F  F23  1  -0.14458948  1.39145271  0.65573454  1.0
  F  F24  1  -0.29183910  1.04110275  0.47305818  1.0
  F  F25  1  0.20816090  0.54110275  0.02694182  1.0
  F  F26  1  0.04110275  0.70816090  0.52694182  1.0
  F  F27  1  -0.45889725  1.20816090  0.97305818  1.0
  F  F28  1  -0.04110275  1.29183910  0.47305818  1.0
  F  F29  1  0.45889725  0.79183910  0.02694182  1.0
  F  F30  1  0.29183910  0.95889725  0.52694182  1.0
  F  F31  1  -0.20816090  1.45889725  0.97305818  1.0
  F  F32  1  -0.41315239  1.41315239  0.13590348  1.0
  F  F33  1  0.08684761  0.91315239  0.36409652  1.0
  F  F34  1  0.41315239  0.58684761  0.86409652  1.0
  F  F35  1  -0.08684761  1.08684761  0.63590348  1.0
  F  F36  1  -0.34889949  1.34889949  0.49661620  1.0
  F  F37  1  0.15110051  0.84889949  0.00338380  1.0
  F  F38  1  0.34889949  0.65110051  0.50338380  1.0
  F  F39  1  -0.15110051  1.15110051  0.99661620  1.0
