# generated using pymatgen
data_LaSCl
_symmetry_space_group_name_H-M   'P 1'
_cell_length_a   6.96665084
_cell_length_b   13.82425035
_cell_length_c   7.07038738
_cell_angle_alpha   90.00000000
_cell_angle_beta   90.00000000
_cell_angle_gamma   90.00000000
_symmetry_Int_Tables_number   1
_chemical_formula_structural   LaSCl
_chemical_formula_sum   'La8 S8 Cl8'
_cell_volume   680.93999707
_cell_formula_units_Z   8
loop_
 _symmetry_equiv_pos_site_id
 _symmetry_equiv_pos_as_xyz
  1  'x, y, z'
loop_
 _atom_site_type_symbol
 _atom_site_label
 _atom_site_symmetry_multiplicity
 _atom_site_fract_x
 _atom_site_fract_y
 _atom_site_fract_z
 _atom_site_occupancy
  La  La0  1  0.24434628  0.09935733  0.46667653  1.0
  La  La1  1  0.24434628  0.40064267  0.96667653  1.0
  La  La2  1  0.74434628  0.09935733  0.03332347  1.0
  La  La3  1  0.74434628  0.40064267  0.53332347  1.0
  La  La4  1  0.75565372  0.59935733  0.03332347  1.0
  La  La5  1  0.75565372  0.90064267  0.53332347  1.0
  La  La6  1  0.25565372  0.59935733  0.46667653  1.0
  La  La7  1  0.25565372  0.90064267  0.96667653  1.0
  S  S8  1  0.50047963  0.47818734  0.24369465  1.0
  S  S9  1  0.50047963  0.02181266  0.74369465  1.0
  S  S10  1  1.00047963  0.47818734  0.25630535  1.0
  S  S11  1  1.00047963  0.02181266  0.75630535  1.0
  S  S12  1  0.49952037  0.97818734  0.25630535  1.0
  S  S13  1  0.49952037  0.52181266  0.75630535  1.0
  S  S14  1  -0.00047963  0.97818734  0.24369465  1.0
  S  S15  1  -0.00047963  0.52181266  0.74369465  1.0
  Cl  Cl16  1  0.37855178  0.21495598  0.12995735  1.0
  Cl  Cl17  1  0.37855178  0.28504402  0.62995735  1.0
  Cl  Cl18  1  0.87855178  0.21495598  0.37004265  1.0
  Cl  Cl19  1  0.87855178  0.28504402  0.87004265  1.0
  Cl  Cl20  1  0.62144822  0.71495598  0.37004265  1.0
  Cl  Cl21  1  0.62144822  0.78504402  0.87004265  1.0
  Cl  Cl22  1  0.12144822  0.71495598  0.12995735  1.0
  Cl  Cl23  1  0.12144822  0.78504402  0.62995735  1.0
