# generated using pymatgen
data_K3VO8
_symmetry_space_group_name_H-M   'P 1'
_cell_length_a   6.19899302
_cell_length_b   6.19899302
_cell_length_c   6.19899302
_cell_angle_alpha   113.71944838
_cell_angle_beta   113.71944838
_cell_angle_gamma   101.27293296
_symmetry_Int_Tables_number   1
_chemical_formula_structural   K3VO8
_chemical_formula_sum   'K3 V1 O8'
_cell_volume   180.61734307
_cell_formula_units_Z   1
loop_
 _symmetry_equiv_pos_site_id
 _symmetry_equiv_pos_as_xyz
  1  'x, y, z'
loop_
 _atom_site_type_symbol
 _atom_site_label
 _atom_site_symmetry_multiplicity
 _atom_site_fract_x
 _atom_site_fract_y
 _atom_site_fract_z
 _atom_site_occupancy
  K  K0  1  0.75000000  1.25000000  0.50000000  1.0
  K  K1  1  1.25000000  0.75000000  0.50000000  1.0
  K  K2  1  0.50000000  0.50000000  -0.00000000  1.0
  V  V3  1  0.00000000  0.00000000  0.00000000  1.0
  O  O4  1  1.04399353  1.04399353  0.72952254  1.0
  O  O5  1  0.95600647  1.68552901  1.00000000  1.0
  O  O6  1  1.68552901  0.95600647  1.00000000  1.0
  O  O7  1  0.31447099  0.31447099  0.27047746  1.0
  O  O8  1  0.80895311  0.80895311  0.59272456  1.0
  O  O9  1  1.19104689  0.78377144  1.00000000  1.0
  O  O10  1  0.78377144  1.19104689  1.00000000  1.0
  O  O11  1  0.21622856  0.21622856  0.40727544  1.0
