# generated using pymatgen
data_SINOF2
_symmetry_space_group_name_H-M   'P 1'
_cell_length_a   5.28272316
_cell_length_b   19.24010561
_cell_length_c   11.83302889
_cell_angle_alpha   90.00000000
_cell_angle_beta   103.42068629
_cell_angle_gamma   90.00000000
_symmetry_Int_Tables_number   1
_chemical_formula_structural   SINOF2
_chemical_formula_sum   'S8 I8 N8 O8 F16'
_cell_volume   1169.86739452
_cell_formula_units_Z   8
loop_
 _symmetry_equiv_pos_site_id
 _symmetry_equiv_pos_as_xyz
  1  'x, y, z'
loop_
 _atom_site_type_symbol
 _atom_site_label
 _atom_site_symmetry_multiplicity
 _atom_site_fract_x
 _atom_site_fract_y
 _atom_site_fract_z
 _atom_site_occupancy
  S  S0  1  0.39433920  0.09873903  0.11060228  1.0
  S  S1  1  0.39433920  0.40126097  0.61060228  1.0
  S  S2  1  0.60566080  0.59873903  0.38939772  1.0
  S  S3  1  0.60566080  0.90126097  0.88939772  1.0
  S  S4  1  0.81138874  0.40028114  0.15663885  1.0
  S  S5  1  0.81138874  0.09971886  0.65663885  1.0
  S  S6  1  0.18861126  0.90028114  0.34336115  1.0
  S  S7  1  0.18861126  0.59971886  0.84336115  1.0
  I  I8  1  0.89236211  0.74666993  0.36410487  1.0
  I  I9  1  0.89236211  0.75333007  0.86410487  1.0
  I  I10  1  0.10763789  0.24666993  0.13589513  1.0
  I  I11  1  0.10763789  0.25333007  0.63589513  1.0
  I  I12  1  0.60873950  0.15260060  0.38797810  1.0
  I  I13  1  0.60873950  0.34739940  0.88797810  1.0
  I  I14  1  0.39126050  0.65260060  0.11202190  1.0
  I  I15  1  0.39126050  0.84739940  0.61202190  1.0
  N  N16  1  0.82969249  0.34259618  0.07346140  1.0
  N  N17  1  0.82969249  0.15740382  0.57346140  1.0
  N  N18  1  0.17030751  0.84259618  0.42653860  1.0
  N  N19  1  0.17030751  0.65740382  0.92653860  1.0
  N  N20  1  0.36981770  0.15623253  0.19345942  1.0
  N  N21  1  0.36981770  0.34376747  0.69345942  1.0
  N  N22  1  0.63018230  0.65623253  0.30654058  1.0
  N  N23  1  0.63018230  0.84376747  0.80654058  1.0
  O  O24  1  0.94050996  0.39793209  0.27676383  1.0
  O  O25  1  0.94050996  0.10206791  0.77676383  1.0
  O  O26  1  0.05949004  0.89793209  0.22323617  1.0
  O  O27  1  0.05949004  0.60206791  0.72323617  1.0
  O  O28  1  0.56183481  0.04043103  0.14500487  1.0
  O  O29  1  0.56183481  0.45956897  0.64500487  1.0
  O  O30  1  0.43816519  0.54043103  0.35499513  1.0
  O  O31  1  0.43816519  0.95956897  0.85499513  1.0
  F  F32  1  0.44964044  0.37020126  0.49415066  1.0
  F  F33  1  0.44964044  0.12979874  0.99415066  1.0
  F  F34  1  0.55035956  0.87020126  0.00584934  1.0
  F  F35  1  0.55035956  0.62979874  0.50584934  1.0
  F  F36  1  0.51428553  0.42059663  0.14687276  1.0
  F  F37  1  0.51428553  0.07940337  0.64687276  1.0
  F  F38  1  0.48571447  0.92059663  0.35312724  1.0
  F  F39  1  0.48571447  0.57940337  0.85312724  1.0
  F  F40  1  0.88584224  0.92936883  0.95256285  1.0
  F  F41  1  0.88584224  0.57063117  0.45256285  1.0
  F  F42  1  0.11415776  0.42936883  0.54743715  1.0
  F  F43  1  0.11415776  0.07063117  0.04743715  1.0
  F  F44  1  0.87582843  0.47343585  0.10590478  1.0
  F  F45  1  0.87582843  0.02656415  0.60590478  1.0
  F  F46  1  0.12417157  0.97343585  0.39409522  1.0
  F  F47  1  0.12417157  0.52656415  0.89409522  1.0
