# generated using pymatgen
data_Sr2Si5N8
_symmetry_space_group_name_H-M   'P 1'
_cell_length_a   5.75048058
_cell_length_b   6.86993089
_cell_length_c   9.40929441
_cell_angle_alpha   90.00000000
_cell_angle_beta   90.00000000
_cell_angle_gamma   90.00000000
_symmetry_Int_Tables_number   1
_chemical_formula_structural   Sr2Si5N8
_chemical_formula_sum   'Sr4 Si10 N16'
_cell_volume   371.71797862
_cell_formula_units_Z   2
loop_
 _symmetry_equiv_pos_site_id
 _symmetry_equiv_pos_as_xyz
  1  'x, y, z'
loop_
 _atom_site_type_symbol
 _atom_site_label
 _atom_site_symmetry_multiplicity
 _atom_site_fract_x
 _atom_site_fract_y
 _atom_site_fract_z
 _atom_site_occupancy
  Sr  Sr0  1  0.50000000  0.38423657  0.65180897  1.0
  Sr  Sr1  1  -0.00000000  0.61576343  0.15180897  1.0
  Sr  Sr2  1  0.50000000  0.37392685  0.01994910  1.0
  Sr  Sr3  1  0.00000000  0.62607315  0.51994910  1.0
  Si  Si4  1  0.25188317  0.83243363  0.83710682  1.0
  Si  Si5  1  0.75188317  0.16756637  0.33710682  1.0
  Si  Si6  1  0.74811683  0.83243363  0.83710682  1.0
  Si  Si7  1  0.24811683  0.16756637  0.33710682  1.0
  Si  Si8  1  0.50000000  0.91970377  0.55908632  1.0
  Si  Si9  1  -0.00000000  0.08029623  0.05908632  1.0
  Si  Si10  1  0.50000000  0.90175384  0.11805023  1.0
  Si  Si11  1  0.00000000  0.09824616  0.61805023  1.0
  Si  Si12  1  0.50000000  0.55476851  0.34254965  1.0
  Si  Si13  1  0.00000000  0.44523149  0.84254965  1.0
  N  N14  1  0.25059185  0.94392352  0.00906595  1.0
  N  N15  1  0.75059185  0.05607648  0.50906595  1.0
  N  N16  1  0.74940815  0.94392352  0.00906595  1.0
  N  N17  1  0.24940815  0.05607648  0.50906595  1.0
  N  N18  1  0.24838244  0.58620196  0.84841078  1.0
  N  N19  1  0.74838244  0.41379804  0.34841078  1.0
  N  N20  1  0.75161756  0.58620196  0.84841078  1.0
  N  N21  1  0.25161756  0.41379804  0.34841078  1.0
  N  N22  1  0.50000000  0.92574494  0.74831230  1.0
  N  N23  1  -0.00000000  0.07425506  0.24831230  1.0
  N  N24  1  0.50000000  0.68972797  0.49856623  1.0
  N  N25  1  0.00000000  0.31027203  -0.00143377  1.0
  N  N26  1  0.50000000  0.67370339  0.18136968  1.0
  N  N27  1  0.00000000  0.32629661  0.68136968  1.0
  N  N28  1  0.50000000  0.08644861  0.24674041  1.0
  N  N29  1  0.00000000  0.91355139  0.74674041  1.0
