# generated using pymatgen
data_Ba2HfS4
_symmetry_space_group_name_H-M   'P 1'
_cell_length_a   8.64921846
_cell_length_b   8.64921846
_cell_length_c   8.64921846
_cell_angle_alpha   146.64610460
_cell_angle_beta   146.64610460
_cell_angle_gamma   47.88806943
_symmetry_Int_Tables_number   1
_chemical_formula_structural   Ba2HfS4
_chemical_formula_sum   'Ba2 Hf1 S4'
_cell_volume   194.80400953
_cell_formula_units_Z   1
loop_
 _symmetry_equiv_pos_site_id
 _symmetry_equiv_pos_as_xyz
  1  'x, y, z'
loop_
 _atom_site_type_symbol
 _atom_site_label
 _atom_site_symmetry_multiplicity
 _atom_site_fract_x
 _atom_site_fract_y
 _atom_site_fract_z
 _atom_site_occupancy
  Ba  Ba0  1  0.64216386  0.64216386  1.00000000  1.0
  Ba  Ba1  1  0.35783614  0.35783614  0.00000000  1.0
  Hf  Hf2  1  0.00000000  0.00000000  0.00000000  1.0
  S  S3  1  0.83754668  0.83754668  1.00000000  1.0
  S  S4  1  0.16245332  0.16245332  0.00000000  1.0
  S  S5  1  0.50000000  0.00000000  0.50000000  1.0
  S  S6  1  -0.00000000  0.50000000  0.50000000  1.0
