# generated using pymatgen
data_RbBF4
_symmetry_space_group_name_H-M   'P 1'
_cell_length_a   9.27991875
_cell_length_b   5.75716754
_cell_length_c   7.45707290
_cell_angle_alpha   90.00000000
_cell_angle_beta   90.00000000
_cell_angle_gamma   90.00000000
_symmetry_Int_Tables_number   1
_chemical_formula_structural   RbBF4
_chemical_formula_sum   'Rb4 B4 F16'
_cell_volume   398.40192668
_cell_formula_units_Z   4
loop_
 _symmetry_equiv_pos_site_id
 _symmetry_equiv_pos_as_xyz
  1  'x, y, z'
loop_
 _atom_site_type_symbol
 _atom_site_label
 _atom_site_symmetry_multiplicity
 _atom_site_fract_x
 _atom_site_fract_y
 _atom_site_fract_z
 _atom_site_occupancy
  Rb  Rb0  1  0.31267001  0.75000000  0.15996246  1.0
  Rb  Rb1  1  0.81267001  0.75000000  0.34003754  1.0
  Rb  Rb2  1  0.68732999  0.25000000  0.84003754  1.0
  Rb  Rb3  1  0.18732999  0.25000000  0.65996246  1.0
  B  B4  1  0.44219770  0.75000000  0.69316783  1.0
  B  B5  1  0.94219770  0.75000000  0.80683217  1.0
  B  B6  1  0.55780230  0.25000000  0.30683217  1.0
  B  B7  1  0.05780230  0.25000000  0.19316783  1.0
  F  F8  1  0.42424791  0.95096976  0.80288843  1.0
  F  F9  1  0.42424791  0.54903024  0.80288843  1.0
  F  F10  1  0.92424791  0.95096976  0.69711157  1.0
  F  F11  1  0.92424791  0.54903024  0.69711157  1.0
  F  F12  1  0.57575209  0.45096976  0.19711157  1.0
  F  F13  1  0.57575209  0.04903024  0.19711157  1.0
  F  F14  1  0.07575209  0.45096976  0.30288843  1.0
  F  F15  1  0.07575209  0.04903024  0.30288843  1.0
  F  F16  1  0.33568215  0.75000000  0.55764204  1.0
  F  F17  1  0.83568215  0.75000000  0.94235796  1.0
  F  F18  1  0.66431785  0.25000000  0.44235796  1.0
  F  F19  1  0.16431785  0.25000000  0.05764204  1.0
  F  F20  1  0.08155642  0.75000000  0.88126161  1.0
  F  F21  1  0.58155642  0.75000000  0.61873839  1.0
  F  F22  1  0.91844358  0.25000000  0.11873839  1.0
  F  F23  1  0.41844358  0.25000000  0.38126161  1.0
