# generated using pymatgen
data_HfCoSi
_symmetry_space_group_name_H-M   'P 1'
_cell_length_a   6.39027367
_cell_length_b   3.82904771
_cell_length_c   7.09277929
_cell_angle_alpha   90.00000000
_cell_angle_beta   90.00000000
_cell_angle_gamma   90.00000000
_symmetry_Int_Tables_number   1
_chemical_formula_structural   HfCoSi
_chemical_formula_sum   'Hf4 Co4 Si4'
_cell_volume   173.55082464
_cell_formula_units_Z   4
loop_
 _symmetry_equiv_pos_site_id
 _symmetry_equiv_pos_as_xyz
  1  'x, y, z'
loop_
 _atom_site_type_symbol
 _atom_site_label
 _atom_site_symmetry_multiplicity
 _atom_site_fract_x
 _atom_site_fract_y
 _atom_site_fract_z
 _atom_site_occupancy
  Hf  Hf0  1  0.99125655  0.75000000  0.69266578  1.0
  Hf  Hf1  1  0.49125655  0.75000000  0.80733422  1.0
  Hf  Hf2  1  0.00874345  0.25000000  0.30733422  1.0
  Hf  Hf3  1  0.50874345  0.25000000  0.19266578  1.0
  Co  Co4  1  0.85434025  0.75000000  0.06845557  1.0
  Co  Co5  1  0.35434025  0.75000000  0.43154443  1.0
  Co  Co6  1  0.14565975  0.25000000  0.93154443  1.0
  Co  Co7  1  0.64565975  0.25000000  0.56845557  1.0
  Si  Si8  1  0.71893609  0.75000000  0.39326437  1.0
  Si  Si9  1  0.21893609  0.75000000  0.10673563  1.0
  Si  Si10  1  0.28106391  0.25000000  0.60673563  1.0
  Si  Si11  1  0.78106391  0.25000000  0.89326437  1.0
