# generated using pymatgen
data_Fe5SiB2
_symmetry_space_group_name_H-M   'P 1'
_cell_length_a   6.46002160
_cell_length_b   6.46002160
_cell_length_c   6.46002160
_cell_angle_alpha   129.52925033
_cell_angle_beta   129.52925033
_cell_angle_gamma   74.16046511
_symmetry_Int_Tables_number   1
_chemical_formula_structural   Fe5SiB2
_chemical_formula_sum   'Fe10 Si2 B4'
_cell_volume   156.37213702
_cell_formula_units_Z   2
loop_
 _symmetry_equiv_pos_site_id
 _symmetry_equiv_pos_as_xyz
  1  'x, y, z'
loop_
 _atom_site_type_symbol
 _atom_site_label
 _atom_site_symmetry_multiplicity
 _atom_site_fract_x
 _atom_site_fract_y
 _atom_site_fract_z
 _atom_site_occupancy
  Fe  Fe0  1  1.19461604  0.69461604  1.16128015  1.0
  Fe  Fe1  1  0.46666411  0.96666411  1.16128015  1.0
  Fe  Fe2  1  1.03333589  1.19461604  1.50000000  1.0
  Fe  Fe3  1  0.30538396  0.46666411  0.50000000  1.0
  Fe  Fe4  1  0.69461604  0.53333589  0.50000000  1.0
  Fe  Fe5  1  0.96666411  0.80538396  1.50000000  1.0
  Fe  Fe6  1  0.53333589  1.03333589  0.83871985  1.0
  Fe  Fe7  1  0.80538396  0.30538396  0.83871985  1.0
  Fe  Fe8  1  0.00000000  0.00000000  0.00000000  1.0
  Fe  Fe9  1  0.50000000  0.50000000  1.00000000  1.0
  Si  Si10  1  0.75000000  0.75000000  1.00000000  1.0
  Si  Si11  1  0.25000000  0.25000000  -0.00000000  1.0
  B  B12  1  0.88114965  0.38114965  1.26229930  1.0
  B  B13  1  0.61885035  0.88114965  1.50000000  1.0
  B  B14  1  0.38114965  0.11885035  0.50000000  1.0
  B  B15  1  0.11885035  0.61885035  0.73770070  1.0
