# generated using pymatgen
data_Bi2WO6
_symmetry_space_group_name_H-M   'P 1'
_cell_length_a   5.55700258
_cell_length_b   16.86874087
_cell_length_c   5.60268628
_cell_angle_alpha   90.00000000
_cell_angle_beta   90.00000000
_cell_angle_gamma   90.00000000
_symmetry_Int_Tables_number   1
_chemical_formula_structural   Bi2WO6
_chemical_formula_sum   'Bi8 W4 O24'
_cell_volume   525.19377529
_cell_formula_units_Z   4
loop_
 _symmetry_equiv_pos_site_id
 _symmetry_equiv_pos_as_xyz
  1  'x, y, z'
loop_
 _atom_site_type_symbol
 _atom_site_label
 _atom_site_symmetry_multiplicity
 _atom_site_fract_x
 _atom_site_fract_y
 _atom_site_fract_z
 _atom_site_occupancy
  Bi  Bi0  1  0.47320985  0.07586730  0.48925816  1.0
  Bi  Bi1  1  0.97320985  0.92413270  0.48925816  1.0
  Bi  Bi2  1  0.52679015  0.92413270  -0.01074184  1.0
  Bi  Bi3  1  0.02679015  0.07586730  -0.01074184  1.0
  Bi  Bi4  1  0.02678136  0.57585134  0.48976811  1.0
  Bi  Bi5  1  0.52678136  0.42414866  0.48976811  1.0
  Bi  Bi6  1  0.97321864  0.42414866  -0.01023189  1.0
  Bi  Bi7  1  0.47321864  0.57585134  -0.01023189  1.0
  W  W8  1  1.00000151  0.25004027  0.53715014  1.0
  W  W9  1  0.50000151  0.74995973  0.53715014  1.0
  W  W10  1  -0.00000151  0.74995973  0.03715014  1.0
  W  W11  1  0.49999849  0.25004027  0.03715014  1.0
  O  O12  1  0.23526751  0.49980064  0.77539641  1.0
  O  O13  1  0.73526751  0.50019936  0.77539641  1.0
  O  O14  1  0.76473249  0.50019936  0.27539641  1.0
  O  O15  1  0.26473249  0.49980064  0.27539641  1.0
  O  O16  1  0.41217493  0.64512488  0.61384839  1.0
  O  O17  1  0.91217493  0.35487512  0.61384839  1.0
  O  O18  1  0.58782507  0.35487512  0.11384839  1.0
  O  O19  1  0.08782507  0.64512488  0.11384839  1.0
  O  O20  1  0.25932174  0.27335144  0.83082416  1.0
  O  O21  1  0.75932174  0.72664856  0.83082416  1.0
  O  O22  1  0.74067826  0.72664856  0.33082416  1.0
  O  O23  1  0.24067826  0.27335144  0.33082416  1.0
  O  O24  1  0.26481188  -0.00016790  0.77495310  1.0
  O  O25  1  0.76481188  1.00016790  0.77495310  1.0
  O  O26  1  0.73518812  1.00016790  0.27495310  1.0
  O  O27  1  0.23518812  -0.00016790  0.27495310  1.0
  O  O28  1  0.08791390  0.14519776  0.61371368  1.0
  O  O29  1  0.58791390  0.85480224  0.61371368  1.0
  O  O30  1  0.91208610  0.85480224  0.11371368  1.0
  O  O31  1  0.41208610  0.14519776  0.11371368  1.0
  O  O32  1  0.74074602  0.22674064  0.83088785  1.0
  O  O33  1  0.24074602  0.77325936  0.83088785  1.0
  O  O34  1  0.25925398  0.77325936  0.33088785  1.0
  O  O35  1  0.75925398  0.22674064  0.33088785  1.0
