# generated using pymatgen
data_LaYS3
_symmetry_space_group_name_H-M   'P 1'
_cell_length_a   11.13099149
_cell_length_b   4.02949296
_cell_length_c   21.79498657
_cell_angle_alpha   90.00000000
_cell_angle_beta   101.38065332
_cell_angle_gamma   90.00000000
_symmetry_Int_Tables_number   1
_chemical_formula_structural   LaYS3
_chemical_formula_sum   'La8 Y8 S24'
_cell_volume   958.33341756
_cell_formula_units_Z   8
loop_
 _symmetry_equiv_pos_site_id
 _symmetry_equiv_pos_as_xyz
  1  'x, y, z'
loop_
 _atom_site_type_symbol
 _atom_site_label
 _atom_site_symmetry_multiplicity
 _atom_site_fract_x
 _atom_site_fract_y
 _atom_site_fract_z
 _atom_site_occupancy
  La  La0  1  0.90798130  0.25000000  0.13587497  1.0
  La  La1  1  0.09201870  0.75000000  0.86412503  1.0
  La  La2  1  0.80012781  0.25000000  0.46306189  1.0
  La  La3  1  0.19987219  0.75000000  0.53693811  1.0
  La  La4  1  0.69070325  0.25000000  0.26675511  1.0
  La  La5  1  0.30929675  0.75000000  0.73324489  1.0
  La  La6  1  0.30169850  0.25000000  0.23280748  1.0
  La  La7  1  0.69830150  0.75000000  0.76719252  1.0
  Y  Y8  1  0.97036783  0.25000000  0.64976320  1.0
  Y  Y9  1  0.02963217  0.75000000  0.35023680  1.0
  Y  Y10  1  0.82062514  0.25000000  0.95364617  1.0
  Y  Y11  1  0.17937486  0.75000000  0.04635383  1.0
  Y  Y12  1  0.55323561  0.25000000  0.58352156  1.0
  Y  Y13  1  0.44676439  0.75000000  0.41647844  1.0
  Y  Y14  1  0.47720801  0.25000000  0.91259987  1.0
  Y  Y15  1  0.52279199  0.75000000  0.08740013  1.0
  S  S16  1  0.96183936  0.25000000  0.27044983  1.0
  S  S17  1  0.03816064  0.75000000  0.72955017  1.0
  S  S18  1  0.87569762  0.25000000  0.83688182  1.0
  S  S19  1  0.12430238  0.75000000  0.16311818  1.0
  S  S20  1  0.74517081  0.25000000  0.67715786  1.0
  S  S21  1  0.25482919  0.75000000  0.32284214  1.0
  S  S22  1  0.63656241  0.25000000  0.03575589  1.0
  S  S23  1  0.36343759  0.75000000  0.96424411  1.0
  S  S24  1  0.54745216  0.25000000  0.36622602  1.0
  S  S25  1  0.45254784  0.75000000  0.63377398  1.0
  S  S26  1  0.50651385  0.25000000  0.78011002  1.0
  S  S27  1  0.49348615  0.75000000  0.21988998  1.0
  S  S28  1  0.35558322  0.25000000  0.48612704  1.0
  S  S29  1  0.64441678  0.75000000  0.51387296  1.0
  S  S30  1  0.34209977  0.25000000  0.09840851  1.0
  S  S31  1  0.65790023  0.75000000  0.90159149  1.0
  S  S32  1  0.25190213  0.25000000  0.82660681  1.0
  S  S33  1  0.74809787  0.75000000  0.17339319  1.0
  S  S34  1  0.20564186  0.25000000  0.63500801  1.0
  S  S35  1  0.79435814  0.75000000  0.36499199  1.0
  S  S36  1  0.08571464  0.25000000  0.96347549  1.0
  S  S37  1  0.91428536  0.75000000  0.03652451  1.0
  S  S38  1  0.05794973  0.25000000  0.44362804  1.0
  S  S39  1  0.94205027  0.75000000  0.55637196  1.0
