# generated using pymatgen
data_Na2Si(H4O3)3
_symmetry_space_group_name_H-M   'P 1'
_cell_length_a   6.36644265
_cell_length_b   5.95900709
_cell_length_c   11.49039228
_cell_angle_alpha   90.00000000
_cell_angle_beta   101.69405668
_cell_angle_gamma   90.00000000
_symmetry_Int_Tables_number   1
_chemical_formula_structural   Na2Si(H4O3)3
_chemical_formula_sum   'Na4 Si2 H24 O18'
_cell_volume   426.87078960
_cell_formula_units_Z   2
loop_
 _symmetry_equiv_pos_site_id
 _symmetry_equiv_pos_as_xyz
  1  'x, y, z'
loop_
 _atom_site_type_symbol
 _atom_site_label
 _atom_site_symmetry_multiplicity
 _atom_site_fract_x
 _atom_site_fract_y
 _atom_site_fract_z
 _atom_site_occupancy
  Na  Na0  1  0.93024455  0.15963637  0.88566595  1.0
  Na  Na1  1  0.06975545  0.65963637  0.11433405  1.0
  Na  Na2  1  0.56681404  0.13503955  0.63923493  1.0
  Na  Na3  1  0.43318596  0.63503955  0.36076507  1.0
  Si  Si4  1  0.79484924  0.11538998  0.37169821  1.0
  Si  Si5  1  0.20515076  0.61538998  0.62830179  1.0
  H  H6  1  0.84293223  0.24036691  0.13401006  1.0
  H  H7  1  0.15706777  0.74036691  0.86598994  1.0
  H  H8  1  0.95333781  0.91776969  0.65992056  1.0
  H  H9  1  0.04666219  0.41776969  0.34007944  1.0
  H  H10  1  0.94779854  0.66183530  0.34406014  1.0
  H  H11  1  0.05220146  0.16183530  0.65593986  1.0
  H  H12  1  0.92584187  0.67578659  0.87268250  1.0
  H  H13  1  0.07415813  0.17578659  0.12731750  1.0
  H  H14  1  0.82479742  0.79025262  0.49082027  1.0
  H  H15  1  0.17520258  0.29025262  0.50917973  1.0
  H  H16  1  0.80299653  0.55306040  0.70614581  1.0
  H  H17  1  0.19700347  0.05306040  0.29385419  1.0
  H  H18  1  0.78910056  0.40209500  0.50500289  1.0
  H  H19  1  0.21089944  0.90209500  0.49499711  1.0
  H  H20  1  0.59608886  0.55206562  0.76879259  1.0
  H  H21  1  0.40391114  0.05206562  0.23120741  1.0
  H  H22  1  0.53176964  0.36664482  0.18216042  1.0
  H  H23  1  0.46823036  0.86664482  0.81783958  1.0
  H  H24  1  0.46094151  0.11000455  0.87718255  1.0
  H  H25  1  0.53905849  0.61000455  0.12281745  1.0
  H  H26  1  0.34826498  0.37036176  0.99741724  1.0
  H  H27  1  0.65173502  0.87036176  0.00258276  1.0
  H  H28  1  0.31320382  0.43274297  0.86032025  1.0
  H  H29  1  0.68679618  0.93274297  0.13967975  1.0
  O  O30  1  0.94602790  0.65386069  0.60349968  1.0
  O  O31  1  0.05397210  0.15386069  0.39650032  1.0
  O  O32  1  0.94184328  0.07720408  0.68562974  1.0
  O  O33  1  0.05815672  0.57720408  0.31437026  1.0
  O  O34  1  0.95270400  0.26875802  0.08574920  1.0
  O  O35  1  0.04729600  0.76875802  0.91425080  1.0
  O  O36  1  0.74309711  0.48888289  0.77319154  1.0
  O  O37  1  0.25690289  0.98888289  0.22680846  1.0
  O  O38  1  0.68496592  0.30420873  0.45312000  1.0
  O  O39  1  0.31503408  0.80420873  0.54688000  1.0
  O  O40  1  0.66693298  0.14012924  0.23474996  1.0
  O  O41  1  0.33306702  0.64012924  0.76525004  1.0
  O  O42  1  0.56038253  -0.00101340  0.85086477  1.0
  O  O43  1  0.43961747  0.49898660  0.14913523  1.0
  O  O44  1  0.30004550  0.30652035  0.91689670  1.0
  O  O45  1  0.69995450  0.80652035  0.08310330  1.0
  O  O46  1  0.25793223  0.35479726  0.58738934  1.0
  O  O47  1  0.74206777  0.85479726  0.41261066  1.0
