# generated using pymatgen
data_ZrCo2H3
_symmetry_space_group_name_H-M   'P 1'
_cell_length_a   10.02972423
_cell_length_b   10.02972423
_cell_length_c   4.22379837
_cell_angle_alpha   90.00000000
_cell_angle_beta   90.00000000
_cell_angle_gamma   90.00000000
_symmetry_Int_Tables_number   1
_chemical_formula_structural   ZrCo2H3
_chemical_formula_sum   'Zr8 Co16 H24'
_cell_volume   424.89455256
_cell_formula_units_Z   8
loop_
 _symmetry_equiv_pos_site_id
 _symmetry_equiv_pos_as_xyz
  1  'x, y, z'
loop_
 _atom_site_type_symbol
 _atom_site_label
 _atom_site_symmetry_multiplicity
 _atom_site_fract_x
 _atom_site_fract_y
 _atom_site_fract_z
 _atom_site_occupancy
  Zr  Zr0  1  0.13610126  0.86389874  0.75000000  1.0
  Zr  Zr1  1  0.13610126  0.13610126  0.25000000  1.0
  Zr  Zr2  1  0.63610126  0.36389874  0.25000000  1.0
  Zr  Zr3  1  0.63610126  0.63610126  0.75000000  1.0
  Zr  Zr4  1  0.86389874  0.13610126  0.75000000  1.0
  Zr  Zr5  1  0.86389874  0.86389874  0.25000000  1.0
  Zr  Zr6  1  0.36389874  0.63610126  0.25000000  1.0
  Zr  Zr7  1  0.36389874  0.36389874  0.75000000  1.0
  Co  Co8  1  0.07300512  0.33864050  0.76085928  1.0
  Co  Co9  1  0.07300512  0.66135950  0.26085928  1.0
  Co  Co10  1  0.57300512  0.83864050  0.23914072  1.0
  Co  Co11  1  0.57300512  0.16135950  0.73914072  1.0
  Co  Co12  1  0.33864050  0.07300512  0.73914072  1.0
  Co  Co13  1  0.33864050  0.92699488  0.23914072  1.0
  Co  Co14  1  0.83864050  0.57300512  0.26085928  1.0
  Co  Co15  1  0.83864050  0.42699488  0.76085928  1.0
  Co  Co16  1  0.92699488  0.33864050  0.26085928  1.0
  Co  Co17  1  0.92699488  0.66135950  0.76085928  1.0
  Co  Co18  1  0.42699488  0.83864050  0.73914072  1.0
  Co  Co19  1  0.42699488  0.16135950  0.23914072  1.0
  Co  Co20  1  0.66135950  0.07300512  0.23914072  1.0
  Co  Co21  1  0.66135950  0.92699488  0.73914072  1.0
  Co  Co22  1  0.16135950  0.57300512  0.76085928  1.0
  Co  Co23  1  0.16135950  0.42699488  0.26085928  1.0
  H  H24  1  0.50237346  0.26067817  0.99260328  1.0
  H  H25  1  0.50237346  0.73932183  0.49260328  1.0
  H  H26  1  1.00237346  0.76067817  0.00739672  1.0
  H  H27  1  1.00237346  0.23932183  0.50739672  1.0
  H  H28  1  0.26067817  0.50237346  0.50739672  1.0
  H  H29  1  0.26067817  0.49762654  0.00739672  1.0
  H  H30  1  0.76067817  1.00237346  0.49260328  1.0
  H  H31  1  0.76067817  -0.00237346  0.99260328  1.0
  H  H32  1  0.49762654  0.26067817  0.49260328  1.0
  H  H33  1  0.49762654  0.73932183  0.99260328  1.0
  H  H34  1  -0.00237346  0.76067817  0.50739672  1.0
  H  H35  1  -0.00237346  0.23932183  0.00739672  1.0
  H  H36  1  0.73932183  0.50237346  0.00739672  1.0
  H  H37  1  0.73932183  0.49762654  0.50739672  1.0
  H  H38  1  0.23932183  1.00237346  0.99260328  1.0
  H  H39  1  0.23932183  -0.00237346  0.49260328  1.0
  H  H40  1  0.75000000  0.25000000  -0.00000000  1.0
  H  H41  1  0.75000000  0.75000000  0.50000000  1.0
  H  H42  1  0.25000000  0.75000000  -0.00000000  1.0
  H  H43  1  0.25000000  0.25000000  0.50000000  1.0
  H  H44  1  0.25000000  0.75000000  0.50000000  1.0
  H  H45  1  0.25000000  0.25000000  0.00000000  1.0
  H  H46  1  0.75000000  0.25000000  0.50000000  1.0
  H  H47  1  0.75000000  0.75000000  0.00000000  1.0
