# generated using pymatgen
data_Eu(FeAs)2
_symmetry_space_group_name_H-M   'P 1'
_cell_length_a   6.78606877
_cell_length_b   6.78606877
_cell_length_c   6.78606877
_cell_angle_alpha   147.64869893
_cell_angle_beta   147.64869893
_cell_angle_gamma   46.40422826
_symmetry_Int_Tables_number   1
_chemical_formula_structural   Eu(FeAs)2
_chemical_formula_sum   'Eu1 Fe2 As2'
_cell_volume   89.16542945
_cell_formula_units_Z   1
loop_
 _symmetry_equiv_pos_site_id
 _symmetry_equiv_pos_as_xyz
  1  'x, y, z'
loop_
 _atom_site_type_symbol
 _atom_site_label
 _atom_site_symmetry_multiplicity
 _atom_site_fract_x
 _atom_site_fract_y
 _atom_site_fract_z
 _atom_site_occupancy
  Eu  Eu0  1  0.00000000  0.00000000  0.00000000  1.0
  Fe  Fe1  1  0.25000000  0.75000000  0.50000000  1.0
  Fe  Fe2  1  0.75000000  0.25000000  0.50000000  1.0
  As  As3  1  0.63160311  0.63160311  1.00000000  1.0
  As  As4  1  0.36839689  0.36839689  0.00000000  1.0
