# generated using pymatgen
data_SrHfF6
_symmetry_space_group_name_H-M   'P 1'
_cell_length_a   6.06794983
_cell_length_b   6.09078322
_cell_length_c   14.56913996
_cell_angle_alpha   90.00000000
_cell_angle_beta   99.49475176
_cell_angle_gamma   90.00000000
_symmetry_Int_Tables_number   1
_chemical_formula_structural   SrHfF6
_chemical_formula_sum   'Sr4 Hf4 F24'
_cell_volume   531.07809406
_cell_formula_units_Z   4
loop_
 _symmetry_equiv_pos_site_id
 _symmetry_equiv_pos_as_xyz
  1  'x, y, z'
loop_
 _atom_site_type_symbol
 _atom_site_label
 _atom_site_symmetry_multiplicity
 _atom_site_fract_x
 _atom_site_fract_y
 _atom_site_fract_z
 _atom_site_occupancy
  Sr  Sr0  1  0.64996382  0.09535943  0.63839196  1.0
  Sr  Sr1  1  0.35003618  0.59535943  0.86160804  1.0
  Sr  Sr2  1  0.35003618  0.90464057  0.36160804  1.0
  Sr  Sr3  1  0.64996382  0.40464057  0.13839196  1.0
  Hf  Hf4  1  0.82390478  0.13577028  0.90180951  1.0
  Hf  Hf5  1  0.17609522  0.63577028  0.59819049  1.0
  Hf  Hf6  1  0.17609522  0.86422972  0.09819049  1.0
  Hf  Hf7  1  0.82390478  0.36422972  0.40180951  1.0
  F  F8  1  0.63433564  0.35877718  0.96176124  1.0
  F  F9  1  0.36566436  0.85877718  0.53823876  1.0
  F  F10  1  0.36566436  0.64122282  0.03823876  1.0
  F  F11  1  0.63433564  0.14122282  0.46176124  1.0
  F  F12  1  0.08624905  0.89403702  0.94714278  1.0
  F  F13  1  0.91375095  0.39403702  0.55285722  1.0
  F  F14  1  0.91375095  0.10596298  0.05285722  1.0
  F  F15  1  0.08624905  0.60596298  0.44714278  1.0
  F  F16  1  0.90165515  1.00209535  0.78416944  1.0
  F  F17  1  0.09834485  0.50209535  0.71583056  1.0
  F  F18  1  0.09834485  -0.00209535  0.21583056  1.0
  F  F19  1  0.90165515  0.49790465  0.28416944  1.0
  F  F20  1  0.60840323  0.28832237  0.79387822  1.0
  F  F21  1  0.39159677  0.78832237  0.70612178  1.0
  F  F22  1  0.39159677  0.71167763  0.20612178  1.0
  F  F23  1  0.60840323  0.21167763  0.29387822  1.0
  F  F24  1  0.06764440  0.35570650  0.90593132  1.0
  F  F25  1  0.93235560  0.85570650  0.59406868  1.0
  F  F26  1  0.93235560  0.64429350  0.09406868  1.0
  F  F27  1  0.06764440  0.14429350  0.40593132  1.0
  F  F28  1  0.60353799  0.89527926  0.90816074  1.0
  F  F29  1  0.39646201  0.39527926  0.59183926  1.0
  F  F30  1  0.39646201  0.10472074  0.09183926  1.0
  F  F31  1  0.60353799  0.60472074  0.40816074  1.0
