# generated using pymatgen
data_NaCeS2O9
_symmetry_space_group_name_H-M   'P 1'
_cell_length_a   7.08921415
_cell_length_b   7.08921415
_cell_length_c   13.24837410
_cell_angle_alpha   90.00000000
_cell_angle_beta   90.00000000
_cell_angle_gamma   120.00000000
_symmetry_Int_Tables_number   1
_chemical_formula_structural   NaCeS2O9
_chemical_formula_sum   'Na3 Ce3 S6 O27'
_cell_volume   576.61960773
_cell_formula_units_Z   3
loop_
 _symmetry_equiv_pos_site_id
 _symmetry_equiv_pos_as_xyz
  1  'x, y, z'
loop_
 _atom_site_type_symbol
 _atom_site_label
 _atom_site_symmetry_multiplicity
 _atom_site_fract_x
 _atom_site_fract_y
 _atom_site_fract_z
 _atom_site_occupancy
  O  O0  1  0.28592452  0.87452488  0.15688236  1.0
  O  O1  1  0.87452488  0.28592452  0.84311764  1.0
  O  O2  1  0.58860037  0.71407548  0.82354903  1.0
  O  O3  1  0.12547512  0.41139963  0.49021569  1.0
  O  O4  1  0.71407548  0.58860037  0.17645097  1.0
  O  O5  1  0.41139963  0.12547512  0.50978431  1.0
  O  O6  1  0.13752298  0.66321368  0.83250478  1.0
  O  O7  1  0.66321368  0.13752298  0.16749522  1.0
  O  O8  1  0.52569069  0.86247702  0.49917145  1.0
  O  O9  1  0.33678632  0.47430931  0.16583812  1.0
  O  O10  1  0.86247702  0.52569069  0.50082855  1.0
  O  O11  1  0.47430931  0.33678632  0.83416188  1.0
  O  O12  1  0.73352102  0.55757848  0.70081455  1.0
  O  O13  1  0.55757848  0.73352102  0.29918545  1.0
  O  O14  1  0.82405745  0.26647898  0.36748122  1.0
  O  O15  1  0.44242152  0.17594255  0.03414789  1.0
  O  O16  1  0.26647898  0.82405745  0.63251878  1.0
  O  O17  1  0.17594255  0.44242152  0.96585211  1.0
  O  O18  1  0.88805218  0.52600354  0.98024101  1.0
  O  O19  1  0.52600354  0.88805218  0.01975899  1.0
  O  O20  1  0.63795136  0.11194782  0.64690768  1.0
  O  O21  1  0.47399646  0.36204864  0.31357435  1.0
  O  O22  1  0.11194782  0.63795136  0.35309232  1.0
  O  O23  1  0.36204864  0.47399646  0.68642565  1.0
  O  O24  1  0.84761087  0.84761087  0.00000000  1.0
  O  O25  1  -0.00000000  0.15238913  0.66666667  1.0
  O  O26  1  0.15238913  0.00000000  0.33333333  1.0
  S  S27  1  0.54011412  0.51998137  0.76073345  1.0
  S  S28  1  0.51998137  0.54011412  0.23926655  1.0
  S  S29  1  0.97986725  0.45988588  0.42740012  1.0
  S  S30  1  0.48001863  0.02013275  0.09406678  1.0
  S  S31  1  0.45988588  0.97986725  0.57259988  1.0
  S  S32  1  0.02013275  0.48001863  0.90593322  1.0
  Ce  Ce33  1  0.55640914  0.55640914  0.00000000  1.0
  Ce  Ce34  1  -0.00000000  0.44359086  0.66666667  1.0
  Ce  Ce35  1  0.44359086  0.00000000  0.33333333  1.0
  Na  Na36  1  0.50587250  0.50587250  0.50000000  1.0
  Na  Na37  1  0.00000000  0.49412750  0.16666667  1.0
  Na  Na38  1  0.49412750  0.00000000  0.83333333  1.0
