# generated using pymatgen
data_NaSn2Cl5
_symmetry_space_group_name_H-M   'P 1'
_cell_length_a   8.79785705
_cell_length_b   12.14897010
_cell_length_c   8.81538930
_cell_angle_alpha   90.00000000
_cell_angle_beta   90.00000000
_cell_angle_gamma   90.00000000
_symmetry_Int_Tables_number   1
_chemical_formula_structural   NaSn2Cl5
_chemical_formula_sum   'Na4 Sn8 Cl20'
_cell_volume   942.23202312
_cell_formula_units_Z   4
loop_
 _symmetry_equiv_pos_site_id
 _symmetry_equiv_pos_as_xyz
  1  'x, y, z'
loop_
 _atom_site_type_symbol
 _atom_site_label
 _atom_site_symmetry_multiplicity
 _atom_site_fract_x
 _atom_site_fract_y
 _atom_site_fract_z
 _atom_site_occupancy
  Na  Na0  1  0.50000000  0.00000000  0.24714612  1.0
  Na  Na1  1  0.50000000  0.00000000  0.75285388  1.0
  Na  Na2  1  0.00000000  0.50000000  0.74714612  1.0
  Na  Na3  1  0.00000000  0.50000000  0.25285388  1.0
  Sn  Sn4  1  0.43964963  0.66656279  0.50000000  1.0
  Sn  Sn5  1  0.93964963  0.83343721  0.00000000  1.0
  Sn  Sn6  1  0.56035037  0.33343721  0.50000000  1.0
  Sn  Sn7  1  0.06035037  0.16656279  0.00000000  1.0
  Sn  Sn8  1  0.93704741  0.82711697  0.50000000  1.0
  Sn  Sn9  1  0.43704741  0.67288303  0.00000000  1.0
  Sn  Sn10  1  0.06295259  0.17288303  0.50000000  1.0
  Sn  Sn11  1  0.56295259  0.32711697  0.00000000  1.0
  Cl  Cl12  1  0.33428128  0.79520967  0.22156369  1.0
  Cl  Cl13  1  0.33428128  0.79520967  0.77843631  1.0
  Cl  Cl14  1  0.83428128  0.70479033  0.72156369  1.0
  Cl  Cl15  1  0.83428128  0.70479033  0.27843631  1.0
  Cl  Cl16  1  0.66571872  0.20479033  0.22156369  1.0
  Cl  Cl17  1  0.66571872  0.20479033  0.77843631  1.0
  Cl  Cl18  1  0.16571872  0.29520967  0.72156369  1.0
  Cl  Cl19  1  0.16571872  0.29520967  0.27843631  1.0
  Cl  Cl20  1  0.32344877  0.07264367  0.50000000  1.0
  Cl  Cl21  1  0.82344877  0.42735633  0.00000000  1.0
  Cl  Cl22  1  0.67655123  0.92735633  0.50000000  1.0
  Cl  Cl23  1  0.17655123  0.57264367  0.00000000  1.0
  Cl  Cl24  1  0.16071764  0.60317419  0.50000000  1.0
  Cl  Cl25  1  0.66071764  0.89682581  0.00000000  1.0
  Cl  Cl26  1  0.83928236  0.39682581  0.50000000  1.0
  Cl  Cl27  1  0.33928236  0.10317419  0.00000000  1.0
  Cl  Cl28  1  0.50000000  0.50000000  0.29607374  1.0
  Cl  Cl29  1  0.50000000  0.50000000  0.70392626  1.0
  Cl  Cl30  1  0.00000000  0.00000000  0.79607374  1.0
  Cl  Cl31  1  0.00000000  0.00000000  0.20392626  1.0
