# generated using pymatgen
data_Sr2ScFePO3
_symmetry_space_group_name_H-M   'P 1'
_cell_length_a   4.00965776
_cell_length_b   4.00965776
_cell_length_c   15.57315040
_cell_angle_alpha   90.00000000
_cell_angle_beta   90.00000000
_cell_angle_gamma   90.00000000
_symmetry_Int_Tables_number   1
_chemical_formula_structural   Sr2ScFePO3
_chemical_formula_sum   'Sr4 Sc2 Fe2 P2 O6'
_cell_volume   250.37507276
_cell_formula_units_Z   2
loop_
 _symmetry_equiv_pos_site_id
 _symmetry_equiv_pos_as_xyz
  1  'x, y, z'
loop_
 _atom_site_type_symbol
 _atom_site_label
 _atom_site_symmetry_multiplicity
 _atom_site_fract_x
 _atom_site_fract_y
 _atom_site_fract_z
 _atom_site_occupancy
  Sr  Sr0  1  0.50000000  0.00000000  0.58741602  1.0
  Sr  Sr1  1  0.00000000  0.50000000  0.41258398  1.0
  Sr  Sr2  1  0.50000000  0.00000000  0.82238397  1.0
  Sr  Sr3  1  0.00000000  0.50000000  0.17761603  1.0
  Sc  Sc4  1  0.50000000  0.00000000  0.30279817  1.0
  Sc  Sc5  1  0.00000000  0.50000000  0.69720183  1.0
  Fe  Fe6  1  0.00000000  0.00000000  0.00000000  1.0
  Fe  Fe7  1  0.50000000  0.50000000  0.00000000  1.0
  P  P8  1  0.50000000  0.00000000  0.06648243  1.0
  P  P9  1  0.00000000  0.50000000  0.93351757  1.0
  O  O10  1  0.00000000  0.00000000  0.27917493  1.0
  O  O11  1  0.50000000  0.50000000  0.72082507  1.0
  O  O12  1  0.50000000  0.50000000  0.27917493  1.0
  O  O13  1  0.00000000  0.00000000  0.72082507  1.0
  O  O14  1  0.50000000  0.00000000  0.43159043  1.0
  O  O15  1  0.00000000  0.50000000  0.56840957  1.0
