# generated using pymatgen
data_Zr4Cr4Si7
_symmetry_space_group_name_H-M   'P 1'
_cell_length_a   9.76261692
_cell_length_b   9.76261692
_cell_length_c   9.76261692
_cell_angle_alpha   93.86395325
_cell_angle_beta   93.86395325
_cell_angle_gamma   149.90838446
_symmetry_Int_Tables_number   1
_chemical_formula_structural   Zr4Cr4Si7
_chemical_formula_sum   'Zr8 Cr8 Si14'
_cell_volume   450.52606230
_cell_formula_units_Z   2
loop_
 _symmetry_equiv_pos_site_id
 _symmetry_equiv_pos_as_xyz
  1  'x, y, z'
loop_
 _atom_site_type_symbol
 _atom_site_label
 _atom_site_symmetry_multiplicity
 _atom_site_fract_x
 _atom_site_fract_y
 _atom_site_fract_z
 _atom_site_occupancy
  Zr  Zr0  1  0.00000000  0.80269283  0.80269283  1.0
  Zr  Zr1  1  0.80269283  1.00000000  0.80269283  1.0
  Zr  Zr2  1  1.19730717  1.00000000  1.19730717  1.0
  Zr  Zr3  1  0.00000000  0.19730717  0.19730717  1.0
  Zr  Zr4  1  0.63852661  0.63852661  0.27705323  1.0
  Zr  Zr5  1  1.36147339  0.63852661  1.00000000  1.0
  Zr  Zr6  1  0.63852661  0.36147339  1.00000000  1.0
  Zr  Zr7  1  0.36147339  0.36147339  0.72294677  1.0
  Cr  Cr8  1  1.10252948  0.60252948  1.20505896  1.0
  Cr  Cr9  1  1.60252948  1.10252948  1.20505896  1.0
  Cr  Cr10  1  0.39747052  0.60252948  0.50000000  1.0
  Cr  Cr11  1  0.89747052  1.10252948  0.50000000  1.0
  Cr  Cr12  1  1.10252948  0.89747052  1.50000000  1.0
  Cr  Cr13  1  1.60252948  1.39747052  1.50000000  1.0
  Cr  Cr14  1  0.39747052  0.89747052  0.79494104  1.0
  Cr  Cr15  1  0.89747052  1.39747052  0.79494104  1.0
  Si  Si16  1  0.50000000  0.79385714  0.29385714  1.0
  Si  Si17  1  0.79385714  0.50000000  1.29385714  1.0
  Si  Si18  1  0.20614286  0.50000000  0.70614286  1.0
  Si  Si19  1  0.50000000  1.20614286  0.70614286  1.0
  Si  Si20  1  0.00000000  0.59073250  0.59073250  1.0
  Si  Si21  1  0.59073250  1.00000000  0.59073250  1.0
  Si  Si22  1  1.40926750  1.00000000  1.40926750  1.0
  Si  Si23  1  0.00000000  0.40926750  0.40926750  1.0
  Si  Si24  1  0.79075004  0.79075004  0.58150008  1.0
  Si  Si25  1  1.20924996  0.79075004  1.00000000  1.0
  Si  Si26  1  0.79075004  0.20924996  1.00000000  1.0
  Si  Si27  1  0.20924996  0.20924996  0.41849992  1.0
  Si  Si28  1  0.75070491  0.75070491  0.00000000  1.0
  Si  Si29  1  0.24929509  0.24929509  0.00000000  1.0
