# generated using pymatgen
data_Zr13Pd4N
_symmetry_space_group_name_H-M   'P 1'
_cell_length_a   11.09205486
_cell_length_b   11.09205486
_cell_length_c   11.09205486
_cell_angle_alpha   60.00000000
_cell_angle_beta   60.00000000
_cell_angle_gamma   60.00000000
_symmetry_Int_Tables_number   1
_chemical_formula_structural   Zr13Pd4N
_chemical_formula_sum   'Zr26 Pd8 N2'
_cell_volume   964.98603708
_cell_formula_units_Z   2
loop_
 _symmetry_equiv_pos_site_id
 _symmetry_equiv_pos_as_xyz
  1  'x, y, z'
loop_
 _atom_site_type_symbol
 _atom_site_label
 _atom_site_symmetry_multiplicity
 _atom_site_fract_x
 _atom_site_fract_y
 _atom_site_fract_z
 _atom_site_occupancy
  Zr  Zr0  1  0.95297468  -0.59876280  0.69281345  1.0
  Zr  Zr1  1  -0.04702532  0.69281345  0.40123720  1.0
  Zr  Zr2  1  -0.15123720  0.29702532  0.29702532  1.0
  Zr  Zr3  1  0.55718655  0.29702532  0.29702532  1.0
  Zr  Zr4  1  -0.59876280  0.95297468  0.69281345  1.0
  Zr  Zr5  1  0.95297468  -0.04702532  0.69281345  1.0
  Zr  Zr6  1  0.95297468  -0.30718655  0.95297468  1.0
  Zr  Zr7  1  -0.59876280  0.69281345  0.95297468  1.0
  Zr  Zr8  1  0.29702532  -0.15123720  0.29702532  1.0
  Zr  Zr9  1  0.29702532  0.29702532  -0.15123720  1.0
  Zr  Zr10  1  0.55718655  0.29702532  -0.15123720  1.0
  Zr  Zr11  1  0.55718655  -0.15123720  0.29702532  1.0
  Zr  Zr12  1  0.69281345  -0.04702532  0.95297468  1.0
  Zr  Zr13  1  -0.59876280  0.95297468  0.95297468  1.0
  Zr  Zr14  1  0.29702532  0.55718655  -0.15123720  1.0
  Zr  Zr15  1  0.29702532  -0.15123720  0.55718655  1.0
  Zr  Zr16  1  -0.30718655  0.95297468  0.40123720  1.0
  Zr  Zr17  1  0.69281345  -0.59876280  0.95297468  1.0
  Zr  Zr18  1  0.95297468  -0.59876280  0.95297468  1.0
  Zr  Zr19  1  -0.04702532  0.95297468  0.40123720  1.0
  Zr  Zr20  1  0.29702532  0.55718655  0.29702532  1.0
  Zr  Zr21  1  -0.15123720  0.55718655  0.29702532  1.0
  Zr  Zr22  1  -0.15123720  0.29702532  0.55718655  1.0
  Zr  Zr23  1  0.29702532  0.29702532  0.55718655  1.0
  Zr  Zr24  1  0.50000000  0.50000000  -0.50000000  1.0
  Zr  Zr25  1  0.75000000  -0.25000000  0.75000000  1.0
  Pd  Pd26  1  0.66639423  -0.33360577  1.00081730  1.0
  Pd  Pd27  1  0.66639423  0.00081730  0.66639423  1.0
  Pd  Pd28  1  0.58360577  -0.41639423  0.58360577  1.0
  Pd  Pd29  1  1.24918270  -0.41639423  0.58360577  1.0
  Pd  Pd30  1  1.00081730  -0.33360577  0.66639423  1.0
  Pd  Pd31  1  0.66639423  -0.33360577  0.66639423  1.0
  Pd  Pd32  1  0.58360577  0.24918270  0.58360577  1.0
  Pd  Pd33  1  0.58360577  -0.41639423  1.24918270  1.0
  N  N34  1  -0.00000000  1.00000000  0.00000000  1.0
  N  N35  1  0.25000000  0.25000000  0.25000000  1.0
