# generated using pymatgen
data_Cs3Tl2Br9
_symmetry_space_group_name_H-M   'P 1'
_cell_length_a   7.98916294
_cell_length_b   7.98916294
_cell_length_c   9.87697407
_cell_angle_alpha   90.00000000
_cell_angle_beta   90.00000000
_cell_angle_gamma   120.00000000
_symmetry_Int_Tables_number   1
_chemical_formula_structural   Cs3Tl2Br9
_chemical_formula_sum   'Cs3 Tl2 Br9'
_cell_volume   545.95532124
_cell_formula_units_Z   1
loop_
 _symmetry_equiv_pos_site_id
 _symmetry_equiv_pos_as_xyz
  1  'x, y, z'
loop_
 _atom_site_type_symbol
 _atom_site_label
 _atom_site_symmetry_multiplicity
 _atom_site_fract_x
 _atom_site_fract_y
 _atom_site_fract_z
 _atom_site_occupancy
  Cs  Cs0  1  0.33333333  0.66666667  0.66395958  1.0
  Cs  Cs1  1  0.66666667  0.33333333  0.33604042  1.0
  Cs  Cs2  1  0.00000000  0.00000000  0.00000000  1.0
  Tl  Tl3  1  0.33333333  0.66666667  0.19011693  1.0
  Tl  Tl4  1  0.66666667  0.33333333  0.80988307  1.0
  Br  Br5  1  0.67057345  0.83528672  0.32581159  1.0
  Br  Br6  1  0.83528672  0.67057345  0.67418841  1.0
  Br  Br7  1  0.83528672  0.16471328  0.67418841  1.0
  Br  Br8  1  0.16471328  0.83528672  0.32581159  1.0
  Br  Br9  1  0.16471328  0.32942655  0.32581159  1.0
  Br  Br10  1  0.32942655  0.16471328  0.67418841  1.0
  Br  Br11  1  0.50000000  0.50000000  0.00000000  1.0
  Br  Br12  1  0.50000000  0.00000000  0.00000000  1.0
  Br  Br13  1  -0.00000000  0.50000000  0.00000000  1.0
