# generated using pymatgen
data_SrMo2(AsO6)2
_symmetry_space_group_name_H-M   'P 1'
_cell_length_a   6.66277318
_cell_length_b   7.03450662
_cell_length_c   10.76053200
_cell_angle_alpha   90.00000000
_cell_angle_beta   91.12442658
_cell_angle_gamma   90.00000000
_symmetry_Int_Tables_number   1
_chemical_formula_structural   SrMo2(AsO6)2
_chemical_formula_sum   'Sr2 Mo4 As4 O24'
_cell_volume   504.24172256
_cell_formula_units_Z   2
loop_
 _symmetry_equiv_pos_site_id
 _symmetry_equiv_pos_as_xyz
  1  'x, y, z'
loop_
 _atom_site_type_symbol
 _atom_site_label
 _atom_site_symmetry_multiplicity
 _atom_site_fract_x
 _atom_site_fract_y
 _atom_site_fract_z
 _atom_site_occupancy
  Sr  Sr0  1  -0.00000000  0.00000000  -0.00000000  1.0
  Sr  Sr1  1  0.00000000  0.50000000  0.50000000  1.0
  Mo  Mo2  1  0.75079907  0.54522486  0.83536655  1.0
  Mo  Mo3  1  0.75079907  0.95477514  0.33536655  1.0
  Mo  Mo4  1  0.24920093  0.04522486  0.66463345  1.0
  Mo  Mo5  1  0.24920093  0.45477514  0.16463345  1.0
  As  As6  1  0.75658089  0.95471178  0.65404646  1.0
  As  As7  1  0.75658089  0.54528822  0.15404646  1.0
  As  As8  1  0.24341911  0.45471178  0.84595354  1.0
  As  As9  1  0.24341911  0.04528822  0.34595354  1.0
  O  O10  1  0.95181216  0.11999997  0.65696753  1.0
  O  O11  1  0.95181216  0.38000003  0.15696753  1.0
  O  O12  1  0.04818784  0.61999997  0.84303247  1.0
  O  O13  1  0.04818784  0.88000003  0.34303247  1.0
  O  O14  1  0.77296383  0.81032978  0.52512000  1.0
  O  O15  1  0.77296383  0.68967022  0.02512000  1.0
  O  O16  1  0.22703617  0.31032978  0.97488000  1.0
  O  O17  1  0.22703617  0.18967022  0.47488000  1.0
  O  O18  1  0.78836884  0.32495303  0.90324840  1.0
  O  O19  1  0.78836884  0.17504697  0.40324840  1.0
  O  O20  1  0.21163116  0.82495303  0.59675160  1.0
  O  O21  1  0.21163116  0.67504697  0.09675160  1.0
  O  O22  1  0.75894180  0.84955439  0.79975215  1.0
  O  O23  1  0.75894180  0.65044561  0.29975215  1.0
  O  O24  1  0.24105820  0.34955439  0.70024785  1.0
  O  O25  1  0.24105820  0.15044561  0.20024785  1.0
  O  O26  1  0.46509057  0.58836265  0.85807234  1.0
  O  O27  1  0.46509057  0.91163735  0.35807234  1.0
  O  O28  1  0.53490943  0.08836265  0.64192766  1.0
  O  O29  1  0.53490943  0.41163735  0.14192766  1.0
  O  O30  1  0.24822324  0.99101939  0.82041457  1.0
  O  O31  1  0.24822324  0.50898061  0.32041457  1.0
  O  O32  1  0.75177676  0.49101939  0.67958543  1.0
  O  O33  1  0.75177676  0.00898061  0.17958543  1.0
