# generated using pymatgen
data_La(SeO4)3
_symmetry_space_group_name_H-M   'P 1'
_cell_length_a   10.03958584
_cell_length_b   10.03958584
_cell_length_c   6.46034310
_cell_angle_alpha   90.00000000
_cell_angle_beta   90.00000000
_cell_angle_gamma   120.00000000
_symmetry_Int_Tables_number   1
_chemical_formula_structural   La(SeO4)3
_chemical_formula_sum   'La2 Se6 O24'
_cell_volume   563.92040557
_cell_formula_units_Z   2
loop_
 _symmetry_equiv_pos_site_id
 _symmetry_equiv_pos_as_xyz
  1  'x, y, z'
loop_
 _atom_site_type_symbol
 _atom_site_label
 _atom_site_symmetry_multiplicity
 _atom_site_fract_x
 _atom_site_fract_y
 _atom_site_fract_z
 _atom_site_occupancy
  La  La0  1  0.33333333  0.66666667  0.25000000  1.0
  La  La1  1  0.66666667  0.33333333  0.75000000  1.0
  O  O2  1  0.42916191  0.95158443  0.25000000  1.0
  O  O3  1  0.95158443  0.52242252  0.75000000  1.0
  O  O4  1  0.52242252  0.57083809  0.25000000  1.0
  O  O5  1  0.04841557  0.47757748  0.25000000  1.0
  O  O6  1  0.57083809  0.04841557  0.75000000  1.0
  O  O7  1  0.47757748  0.42916191  0.75000000  1.0
  O  O8  1  0.83346402  0.79294962  0.25000000  1.0
  O  O9  1  0.79294962  0.95948560  0.75000000  1.0
  O  O10  1  0.95948560  0.16653598  0.25000000  1.0
  O  O11  1  0.20705038  0.04051440  0.25000000  1.0
  O  O12  1  0.16653598  0.20705038  0.75000000  1.0
  O  O13  1  0.04051440  0.83346402  0.75000000  1.0
  O  O14  1  0.73342945  0.52798867  0.45905344  1.0
  O  O15  1  0.73342945  0.52798867  0.04094656  1.0
  O  O16  1  0.52798867  0.79455922  0.95905344  1.0
  O  O17  1  0.52798867  0.79455922  0.54094656  1.0
  O  O18  1  0.79455922  0.26657055  0.45905344  1.0
  O  O19  1  0.79455922  0.26657055  0.04094656  1.0
  O  O20  1  0.47201133  0.20544078  0.45905344  1.0
  O  O21  1  0.47201133  0.20544078  0.04094656  1.0
  O  O22  1  0.26657055  0.47201133  0.95905344  1.0
  O  O23  1  0.26657055  0.47201133  0.54094656  1.0
  O  O24  1  0.20544078  0.73342945  0.95905344  1.0
  O  O25  1  0.20544078  0.73342945  0.54094656  1.0
  Se  Se26  1  0.70287128  0.60696518  0.25000000  1.0
  Se  Se27  1  0.60696518  0.90409390  0.75000000  1.0
  Se  Se28  1  0.90409390  0.29712872  0.25000000  1.0
  Se  Se29  1  0.39303482  0.09590610  0.25000000  1.0
  Se  Se30  1  0.29712872  0.39303482  0.75000000  1.0
  Se  Se31  1  0.09590610  0.70287128  0.75000000  1.0
