# generated using pymatgen
data_Zr6Al16Ir7
_symmetry_space_group_name_H-M   'P 1'
_cell_length_a   8.73303333
_cell_length_b   8.73303333
_cell_length_c   8.73303333
_cell_angle_alpha   60.00000000
_cell_angle_beta   60.00000000
_cell_angle_gamma   60.00000000
_symmetry_Int_Tables_number   1
_chemical_formula_structural   Zr6Al16Ir7
_chemical_formula_sum   'Zr6 Al16 Ir7'
_cell_volume   470.95602247
_cell_formula_units_Z   1
loop_
 _symmetry_equiv_pos_site_id
 _symmetry_equiv_pos_as_xyz
  1  'x, y, z'
loop_
 _atom_site_type_symbol
 _atom_site_label
 _atom_site_symmetry_multiplicity
 _atom_site_fract_x
 _atom_site_fract_y
 _atom_site_fract_z
 _atom_site_occupancy
  Zr  Zr0  1  -0.68878099  0.68878099  0.68878099  1.0
  Zr  Zr1  1  -0.31121901  0.31121901  0.68878099  1.0
  Zr  Zr2  1  0.68878099  0.68878099  -0.68878099  1.0
  Zr  Zr3  1  0.31121901  1.31121901  -0.31121901  1.0
  Zr  Zr4  1  0.31121901  -0.31121901  1.31121901  1.0
  Zr  Zr5  1  -0.31121901  0.31121901  0.31121901  1.0
  Al  Al6  1  0.66207742  0.66207742  -0.33792258  1.0
  Al  Al7  1  1.33792258  0.33792258  -0.01376775  1.0
  Al  Al8  1  1.33792258  -0.01376775  0.33792258  1.0
  Al  Al9  1  1.01376775  0.66207742  -0.33792258  1.0
  Al  Al10  1  0.98623225  0.33792258  0.33792258  1.0
  Al  Al11  1  0.66207742  1.01376775  -0.33792258  1.0
  Al  Al12  1  0.66207742  0.66207742  0.01376775  1.0
  Al  Al13  1  1.33792258  0.33792258  0.33792258  1.0
  Al  Al14  1  0.88008568  0.88008568  -0.11991432  1.0
  Al  Al15  1  1.11991432  0.11991432  0.64025705  1.0
  Al  Al16  1  1.11991432  0.64025705  0.11991432  1.0
  Al  Al17  1  0.35974295  0.88008568  -0.11991432  1.0
  Al  Al18  1  1.64025705  0.11991432  0.11991432  1.0
  Al  Al19  1  0.88008568  0.35974295  -0.11991432  1.0
  Al  Al20  1  0.88008568  0.88008568  -0.64025705  1.0
  Al  Al21  1  1.11991432  0.11991432  0.11991432  1.0
  Ir  Ir22  1  1.50000000  -0.00000000  0.00000000  1.0
  Ir  Ir23  1  1.00000000  0.50000000  -0.50000000  1.0
  Ir  Ir24  1  -0.00000000  1.50000000  0.00000000  1.0
  Ir  Ir25  1  0.50000000  1.00000000  -0.50000000  1.0
  Ir  Ir26  1  0.00000000  0.00000000  0.50000000  1.0
  Ir  Ir27  1  0.50000000  -0.50000000  1.00000000  1.0
  Ir  Ir28  1  0.00000000  0.00000000  0.00000000  1.0
