# generated using pymatgen
data_Hf2Co
_symmetry_space_group_name_H-M   'P 1'
_cell_length_a   8.49950918
_cell_length_b   8.49950918
_cell_length_c   8.49950918
_cell_angle_alpha   60.00000000
_cell_angle_beta   60.00000000
_cell_angle_gamma   60.00000000
_symmetry_Int_Tables_number   1
_chemical_formula_structural   Hf2Co
_chemical_formula_sum   'Hf16 Co8'
_cell_volume   434.17673049
_cell_formula_units_Z   8
loop_
 _symmetry_equiv_pos_site_id
 _symmetry_equiv_pos_as_xyz
  1  'x, y, z'
loop_
 _atom_site_type_symbol
 _atom_site_label
 _atom_site_symmetry_multiplicity
 _atom_site_fract_x
 _atom_site_fract_y
 _atom_site_fract_z
 _atom_site_occupancy
  Hf  Hf0  1  1.12500000  0.62500000  0.62500000  1.0
  Hf  Hf1  1  0.62500000  1.12500000  -0.37500000  1.0
  Hf  Hf2  1  -0.37500000  0.62500000  1.12500000  1.0
  Hf  Hf3  1  -0.37500000  0.62500000  0.62500000  1.0
  Hf  Hf4  1  0.81220584  0.81220584  -0.81220584  1.0
  Hf  Hf5  1  0.18779416  1.18779416  -0.18779416  1.0
  Hf  Hf6  1  0.81220584  -0.81220584  0.81220584  1.0
  Hf  Hf7  1  0.18779416  -0.18779416  0.18779416  1.0
  Hf  Hf8  1  -0.81220584  0.81220584  0.81220584  1.0
  Hf  Hf9  1  -0.18779416  0.18779416  0.18779416  1.0
  Hf  Hf10  1  0.43779416  1.43779416  0.06220584  1.0
  Hf  Hf11  1  0.06220584  0.06220584  0.43779416  1.0
  Hf  Hf12  1  0.43779416  1.06220584  0.43779416  1.0
  Hf  Hf13  1  0.06220584  1.43779416  0.06220584  1.0
  Hf  Hf14  1  0.06220584  1.43779416  0.43779416  1.0
  Hf  Hf15  1  0.43779416  1.06220584  0.06220584  1.0
  Co  Co16  1  -0.20874080  0.40291360  0.40291360  1.0
  Co  Co17  1  0.40291360  -0.20874080  0.40291360  1.0
  Co  Co18  1  0.40291360  1.40291360  -0.20874080  1.0
  Co  Co19  1  0.40291360  1.40291360  0.40291360  1.0
  Co  Co20  1  0.45874080  0.84708640  -0.15291360  1.0
  Co  Co21  1  0.84708640  0.45874080  0.84708640  1.0
  Co  Co22  1  0.84708640  0.84708640  -0.54125920  1.0
  Co  Co23  1  0.84708640  0.84708640  0.84708640  1.0
