# generated using pymatgen
data_Na2Cd3Si3O10
_symmetry_space_group_name_H-M   'P 1'
_cell_length_a   8.79187246
_cell_length_b   8.79187246
_cell_length_c   11.13765173
_cell_angle_alpha   85.81643767
_cell_angle_beta   94.18356233
_cell_angle_gamma   145.69623684
_symmetry_Int_Tables_number   1
_chemical_formula_structural   Na2Cd3Si3O10
_chemical_formula_sum   'Na4 Cd6 Si6 O20'
_cell_volume   483.77426087
_cell_formula_units_Z   2
loop_
 _symmetry_equiv_pos_site_id
 _symmetry_equiv_pos_as_xyz
  1  'x, y, z'
loop_
 _atom_site_type_symbol
 _atom_site_label
 _atom_site_symmetry_multiplicity
 _atom_site_fract_x
 _atom_site_fract_y
 _atom_site_fract_z
 _atom_site_occupancy
  Na  Na0  1  0.31027810  0.21457572  0.96831407  1.0
  Na  Na1  1  0.78542428  0.68972190  0.46831407  1.0
  Na  Na2  1  1.21457572  0.31027810  0.53168593  1.0
  Na  Na3  1  0.68972190  -0.21457572  0.03168593  1.0
  Cd  Cd4  1  0.44679969  0.12904081  0.70516302  1.0
  Cd  Cd5  1  0.87095919  0.55320031  0.20516302  1.0
  Cd  Cd6  1  1.12904081  0.44679969  0.79483698  1.0
  Cd  Cd7  1  0.55320031  -0.12904081  0.29483698  1.0
  Cd  Cd8  1  0.50000000  0.00000000  -0.00000000  1.0
  Cd  Cd9  1  1.00000000  0.50000000  0.50000000  1.0
  Si  Si10  1  0.65661474  -0.04221694  0.60139474  1.0
  Si  Si11  1  1.04221694  0.34338526  0.10139474  1.0
  Si  Si12  1  0.95778306  0.65661474  0.89860526  1.0
  Si  Si13  1  0.34338526  0.04221694  0.39860526  1.0
  Si  Si14  1  0.67873638  0.67873638  0.75000000  1.0
  Si  Si15  1  0.32126362  0.32126362  0.25000000  1.0
  O  O16  1  0.46586559  -0.44184804  0.84733439  1.0
  O  O17  1  1.44184804  0.53413441  0.34733439  1.0
  O  O18  1  0.55815196  0.46586559  0.65266561  1.0
  O  O19  1  0.53413441  0.44184804  0.15266561  1.0
  O  O20  1  0.82324827  -0.05343293  0.67226978  1.0
  O  O21  1  1.05343293  0.17675173  0.17226978  1.0
  O  O22  1  0.94656707  0.82324827  0.82773022  1.0
  O  O23  1  0.17675173  0.05343293  0.32773022  1.0
  O  O24  1  0.79039986  0.08774939  0.46749886  1.0
  O  O25  1  0.91225061  0.20960014  0.96749886  1.0
  O  O26  1  1.08774939  0.79039986  0.03250114  1.0
  O  O27  1  0.20960014  -0.08774939  0.53250114  1.0
  O  O28  1  0.74640495  0.18434641  0.67190002  1.0
  O  O29  1  0.81565359  0.25359505  0.17190002  1.0
  O  O30  1  1.18434641  0.74640495  0.82809998  1.0
  O  O31  1  0.25359505  -0.18434641  0.32809998  1.0
  O  O32  1  0.65100754  0.33525812  0.89625155  1.0
  O  O33  1  0.66474188  0.34899246  0.39625155  1.0
  O  O34  1  1.33525812  0.65100754  0.60374845  1.0
  O  O35  1  0.34899246  -0.33525812  0.10374845  1.0
