# generated using pymatgen
data_Hg3(SeF)2
_symmetry_space_group_name_H-M   'P 1'
_cell_length_a   7.50595413
_cell_length_b   7.50595413
_cell_length_c   7.50595413
_cell_angle_alpha   109.47122063
_cell_angle_beta   109.47122063
_cell_angle_gamma   109.47122063
_symmetry_Int_Tables_number   1
_chemical_formula_structural   Hg3(SeF)2
_chemical_formula_sum   'Hg6 Se4 F4'
_cell_volume   325.53360501
_cell_formula_units_Z   2
loop_
 _symmetry_equiv_pos_site_id
 _symmetry_equiv_pos_as_xyz
  1  'x, y, z'
loop_
 _atom_site_type_symbol
 _atom_site_label
 _atom_site_symmetry_multiplicity
 _atom_site_fract_x
 _atom_site_fract_y
 _atom_site_fract_z
 _atom_site_occupancy
  Hg  Hg0  1  1.16027193  0.91027193  1.25000000  1.0
  Hg  Hg1  1  0.25000000  1.16027193  0.91027193  1.0
  Hg  Hg2  1  0.75000000  1.33972807  0.58972807  1.0
  Hg  Hg3  1  0.91027193  0.25000000  1.16027193  1.0
  Hg  Hg4  1  0.58972807  0.75000000  0.33972807  1.0
  Hg  Hg5  1  0.33972807  0.58972807  0.75000000  1.0
  Se  Se6  1  0.92784288  0.92784288  0.92784288  1.0
  Se  Se7  1  0.50000000  1.00000000  0.57215712  1.0
  Se  Se8  1  1.00000000  0.57215712  1.50000000  1.0
  Se  Se9  1  0.57215712  1.50000000  1.00000000  1.0
  F  F10  1  1.50366627  1.50366627  1.50366627  1.0
  F  F11  1  1.50000000  1.00000000  0.99633373  1.0
  F  F12  1  1.00000000  0.99633373  1.50000000  1.0
  F  F13  1  0.99633373  0.50000000  1.00000000  1.0
