# generated using pymatgen
data_Mn(BH4)2
_symmetry_space_group_name_H-M   'P 1'
_cell_length_a   5.60871071
_cell_length_b   5.60871071
_cell_length_c   5.86099868
_cell_angle_alpha   90.00000000
_cell_angle_beta   90.00000000
_cell_angle_gamma   90.00000000
_symmetry_Int_Tables_number   1
_chemical_formula_structural   Mn(BH4)2
_chemical_formula_sum   'Mn2 B4 H16'
_cell_volume   184.37316198
_cell_formula_units_Z   2
loop_
 _symmetry_equiv_pos_site_id
 _symmetry_equiv_pos_as_xyz
  1  'x, y, z'
loop_
 _atom_site_type_symbol
 _atom_site_label
 _atom_site_symmetry_multiplicity
 _atom_site_fract_x
 _atom_site_fract_y
 _atom_site_fract_z
 _atom_site_occupancy
  Mn  Mn0  1  0.50000000  0.50000000  0.50000000  1.0
  Mn  Mn1  1  0.00000000  0.00000000  0.00000000  1.0
  B  B2  1  0.25121309  0.24878691  0.75000000  1.0
  B  B3  1  0.24878691  0.74878691  0.25000000  1.0
  B  B4  1  0.75121309  0.25121309  0.25000000  1.0
  B  B5  1  0.74878691  0.75121309  0.75000000  1.0
  H  H6  1  0.28181114  0.46259875  0.78575704  1.0
  H  H7  1  0.21818886  0.96259875  0.28575704  1.0
  H  H8  1  0.53740125  0.28181114  0.21424296  1.0
  H  H9  1  0.96259875  0.78181114  0.71424296  1.0
  H  H10  1  0.71818886  0.53740125  0.78575704  1.0
  H  H11  1  0.78181114  0.03740125  0.28575704  1.0
  H  H12  1  0.46259875  0.71818886  0.21424296  1.0
  H  H13  1  0.03740125  0.21818886  0.71424296  1.0
  H  H14  1  0.35957296  0.17178145  0.58265824  1.0
  H  H15  1  0.14042704  0.67178145  0.08265824  1.0
  H  H16  1  0.82821855  0.35957296  0.41734176  1.0
  H  H17  1  0.67178145  0.85957296  0.91734176  1.0
  H  H18  1  0.64042704  0.82821855  0.58265824  1.0
  H  H19  1  0.85957296  0.32821855  0.08265824  1.0
  H  H20  1  0.17178145  0.64042704  0.41734176  1.0
  H  H21  1  0.32821855  0.14042704  0.91734176  1.0
