# generated using pymatgen
data_ZrCoAs
_symmetry_space_group_name_H-M   'P 1'
_cell_length_a   6.53381616
_cell_length_b   3.84594622
_cell_length_c   7.29880288
_cell_angle_alpha   90.00000000
_cell_angle_beta   90.00000000
_cell_angle_gamma   90.00000000
_symmetry_Int_Tables_number   1
_chemical_formula_structural   ZrCoAs
_chemical_formula_sum   'Zr4 Co4 As4'
_cell_volume   183.40946884
_cell_formula_units_Z   4
loop_
 _symmetry_equiv_pos_site_id
 _symmetry_equiv_pos_as_xyz
  1  'x, y, z'
loop_
 _atom_site_type_symbol
 _atom_site_label
 _atom_site_symmetry_multiplicity
 _atom_site_fract_x
 _atom_site_fract_y
 _atom_site_fract_z
 _atom_site_occupancy
  Zr  Zr0  1  1.01864094  0.75000000  0.68723950  1.0
  Zr  Zr1  1  0.51864094  0.75000000  0.81276050  1.0
  Zr  Zr2  1  -0.01864094  0.25000000  0.31276050  1.0
  Zr  Zr3  1  0.48135906  0.25000000  0.18723950  1.0
  Co  Co4  1  0.63748252  0.75000000  0.43720987  1.0
  Co  Co5  1  0.13748252  0.75000000  0.06279013  1.0
  Co  Co6  1  0.36251748  0.25000000  0.56279013  1.0
  Co  Co7  1  0.86251748  0.25000000  0.93720987  1.0
  As  As8  1  0.76951527  0.75000000  0.11462438  1.0
  As  As9  1  0.26951527  0.75000000  0.38537562  1.0
  As  As10  1  0.23048473  0.25000000  0.88537562  1.0
  As  As11  1  0.73048473  0.25000000  0.61462438  1.0
