# generated using pymatgen
data_Dy(BRu)4
_symmetry_space_group_name_H-M   'P 1'
_cell_length_a   9.18143718
_cell_length_b   9.18143718
_cell_length_c   9.18143718
_cell_angle_alpha   131.96836691
_cell_angle_beta   131.96836691
_cell_angle_gamma   70.27899250
_symmetry_Int_Tables_number   1
_chemical_formula_structural   Dy(BRu)4
_chemical_formula_sum   'Dy4 B16 Ru16'
_cell_volume   419.35242699
_cell_formula_units_Z   4
loop_
 _symmetry_equiv_pos_site_id
 _symmetry_equiv_pos_as_xyz
  1  'x, y, z'
loop_
 _atom_site_type_symbol
 _atom_site_label
 _atom_site_symmetry_multiplicity
 _atom_site_fract_x
 _atom_site_fract_y
 _atom_site_fract_z
 _atom_site_occupancy
  Dy  Dy0  1  0.75000000  0.75000000  0.00000000  1.0
  Dy  Dy1  1  1.25000000  1.25000000  1.00000000  1.0
  Dy  Dy2  1  0.00000000  0.50000000  0.50000000  1.0
  Dy  Dy3  1  0.50000000  0.00000000  0.50000000  1.0
  B  B4  1  0.72171469  0.41349020  0.97203981  1.0
  B  B5  1  0.22171469  0.24967488  0.30822450  1.0
  B  B6  1  1.66349020  1.47171469  1.47203981  1.0
  B  B7  1  1.16349020  1.69145038  1.19177550  1.0
  B  B8  1  1.02828531  0.83650980  0.52796019  1.0
  B  B9  1  1.52828531  1.00032512  1.19177550  1.0
  B  B10  1  1.08650980  1.77828531  1.02796019  1.0
  B  B11  1  1.58650980  1.55854962  1.30822450  1.0
  B  B12  1  0.94145038  0.91349020  1.69177550  1.0
  B  B13  1  0.44145038  0.74967488  1.02796019  1.0
  B  B14  1  1.49967488  0.97171469  0.80822450  1.0
  B  B15  1  0.99967488  1.19145038  0.52796019  1.0
  B  B16  1  0.80854962  1.33650980  0.80822450  1.0
  B  B17  1  1.30854962  1.50032512  1.47203981  1.0
  B  B18  1  1.25032512  1.27828531  0.69177550  1.0
  B  B19  1  1.75032512  1.05854962  0.97203981  1.0
  Ru  Ru20  1  1.03899773  1.57345950  1.23626449  1.0
  Ru  Ru21  1  1.53899773  1.30273324  1.46553822  1.0
  Ru  Ru22  1  1.82345950  1.78899773  1.73626449  1.0
  Ru  Ru23  1  1.32345950  1.58719502  1.03446178  1.0
  Ru  Ru24  1  0.71100227  0.67654050  1.26373551  1.0
  Ru  Ru25  1  0.21100227  0.94726676  1.03446178  1.0
  Ru  Ru26  1  0.92654050  1.46100227  0.76373551  1.0
  Ru  Ru27  1  1.42654050  1.66280498  1.46553822  1.0
  Ru  Ru28  1  0.83719502  1.07345950  0.53446178  1.0
  Ru  Ru29  1  1.33719502  0.80273324  0.76373551  1.0
  Ru  Ru30  1  1.55273324  1.28899773  0.96553822  1.0
  Ru  Ru31  1  1.05273324  1.08719502  0.26373551  1.0
  Ru  Ru32  1  0.91280498  0.17654050  0.96553822  1.0
  Ru  Ru33  1  0.41280498  0.44726676  0.73626449  1.0
  Ru  Ru34  1  1.19726676  0.96100227  0.53446178  1.0
  Ru  Ru35  1  1.69726676  1.16280498  1.23626449  1.0
