# generated using pymatgen
data_InP3
_symmetry_space_group_name_H-M   'P 1'
_cell_length_a   5.50812069
_cell_length_b   5.50812069
_cell_length_c   5.50812069
_cell_angle_alpha   86.19879239
_cell_angle_beta   86.19879239
_cell_angle_gamma   86.19879239
_symmetry_Int_Tables_number   1
_chemical_formula_structural   InP3
_chemical_formula_sum   'In2 P6'
_cell_volume   166.05669683
_cell_formula_units_Z   2
loop_
 _symmetry_equiv_pos_site_id
 _symmetry_equiv_pos_as_xyz
  1  'x, y, z'
loop_
 _atom_site_type_symbol
 _atom_site_label
 _atom_site_symmetry_multiplicity
 _atom_site_fract_x
 _atom_site_fract_y
 _atom_site_fract_z
 _atom_site_occupancy
  In  In0  1  0.77257731  0.77257731  -0.22742269  1.0
  In  In1  1  1.22742269  1.22742269  0.22742269  1.0
  P  P2  1  0.29788762  0.29788762  -0.25710082  1.0
  P  P3  1  0.29788762  0.74289918  -0.70211238  1.0
  P  P4  1  0.25710082  0.70211238  -0.29788762  1.0
  P  P5  1  0.70211238  0.25710082  -0.29788762  1.0
  P  P6  1  0.70211238  0.70211238  -0.74289918  1.0
  P  P7  1  0.74289918  0.29788762  -0.70211238  1.0
