# generated using pymatgen
data_Li2HN
_symmetry_space_group_name_H-M   'P 1'
_cell_length_a   7.74759589
_cell_length_b   3.59577259
_cell_length_c   4.86596738
_cell_angle_alpha   90.00000000
_cell_angle_beta   90.00000000
_cell_angle_gamma   90.00000000
_symmetry_Int_Tables_number   1
_chemical_formula_structural   Li2HN
_chemical_formula_sum   'Li8 H4 N4'
_cell_volume   135.55900458
_cell_formula_units_Z   4
loop_
 _symmetry_equiv_pos_site_id
 _symmetry_equiv_pos_as_xyz
  1  'x, y, z'
loop_
 _atom_site_type_symbol
 _atom_site_label
 _atom_site_symmetry_multiplicity
 _atom_site_fract_x
 _atom_site_fract_y
 _atom_site_fract_z
 _atom_site_occupancy
  Li  Li0  1  0.60183649  0.25000000  0.03698182  1.0
  Li  Li1  1  0.10183649  0.25000000  0.46301818  1.0
  Li  Li2  1  0.39816351  0.75000000  0.96301818  1.0
  Li  Li3  1  0.89816351  0.75000000  0.53698182  1.0
  Li  Li4  1  0.70195226  0.25000000  0.58750391  1.0
  Li  Li5  1  0.20195226  0.25000000  0.91249609  1.0
  Li  Li6  1  0.29804774  0.75000000  0.41249609  1.0
  Li  Li7  1  0.79804774  0.75000000  0.08750391  1.0
  H  H8  1  0.92293593  0.25000000  0.10175162  1.0
  H  H9  1  0.42293593  0.25000000  0.39824838  1.0
  H  H10  1  0.07706407  0.75000000  0.89824838  1.0
  H  H11  1  0.57706407  0.75000000  0.60175162  1.0
  N  N12  1  0.85305192  0.25000000  0.28344227  1.0
  N  N13  1  0.35305192  0.25000000  0.21655773  1.0
  N  N14  1  0.14694808  0.75000000  0.71655773  1.0
  N  N15  1  0.64694808  0.75000000  0.78344227  1.0
