# generated using pymatgen
data_Co2AsHO5
_symmetry_space_group_name_H-M   'P 1'
_cell_length_a   8.19433612
_cell_length_b   8.77310598
_cell_length_c   6.04471316
_cell_angle_alpha   90.00000000
_cell_angle_beta   90.00000000
_cell_angle_gamma   90.00000000
_symmetry_Int_Tables_number   1
_chemical_formula_structural   Co2AsHO5
_chemical_formula_sum   'Co8 As4 H4 O20'
_cell_volume   434.55309470
_cell_formula_units_Z   4
loop_
 _symmetry_equiv_pos_site_id
 _symmetry_equiv_pos_as_xyz
  1  'x, y, z'
loop_
 _atom_site_type_symbol
 _atom_site_label
 _atom_site_symmetry_multiplicity
 _atom_site_fract_x
 _atom_site_fract_y
 _atom_site_fract_z
 _atom_site_occupancy
  Co  Co0  1  0.86287943  0.63050321  0.50000000  1.0
  Co  Co1  1  0.36287943  0.86949679  0.00000000  1.0
  Co  Co2  1  0.13712057  0.36949679  0.50000000  1.0
  Co  Co3  1  0.63712057  0.13050321  0.00000000  1.0
  Co  Co4  1  0.50000000  0.50000000  0.23492277  1.0
  Co  Co5  1  0.50000000  0.50000000  0.76507723  1.0
  Co  Co6  1  0.00000000  0.00000000  0.73492277  1.0
  Co  Co7  1  0.00000000  0.00000000  0.26507723  1.0
  As  As8  1  0.25342354  0.74605573  0.50000000  1.0
  As  As9  1  0.75342354  0.75394427  0.00000000  1.0
  As  As10  1  0.74657646  0.25394427  0.50000000  1.0
  As  As11  1  0.24657646  0.24605573  0.00000000  1.0
  H  H12  1  0.77403670  0.91094563  0.50000000  1.0
  H  H13  1  0.27403670  0.58905437  0.00000000  1.0
  H  H14  1  0.22596330  0.08905437  0.50000000  1.0
  H  H15  1  0.72596330  0.41094563  0.00000000  1.0
  O  O16  1  0.23387110  0.87134774  0.27364465  1.0
  O  O17  1  0.23387110  0.87134774  0.72635535  1.0
  O  O18  1  0.73387110  0.62865226  0.77364465  1.0
  O  O19  1  0.73387110  0.62865226  0.22635535  1.0
  O  O20  1  0.76612890  0.12865226  0.27364465  1.0
  O  O21  1  0.76612890  0.12865226  0.72635535  1.0
  O  O22  1  0.26612890  0.37134774  0.77364465  1.0
  O  O23  1  0.26612890  0.37134774  0.22635535  1.0
  O  O24  1  0.43703665  0.64544656  0.50000000  1.0
  O  O25  1  0.93703665  0.85455344  0.00000000  1.0
  O  O26  1  0.56296335  0.35455344  0.50000000  1.0
  O  O27  1  0.06296335  0.14544656  0.00000000  1.0
  O  O28  1  0.09954681  0.60704450  0.50000000  1.0
  O  O29  1  0.59954681  0.89295550  0.00000000  1.0
  O  O30  1  0.90045319  0.39295550  0.50000000  1.0
  O  O31  1  0.40045319  0.10704450  0.00000000  1.0
  O  O32  1  0.88393323  0.86798820  0.50000000  1.0
  O  O33  1  0.38393323  0.63201180  0.00000000  1.0
  O  O34  1  0.11606677  0.13201180  0.50000000  1.0
  O  O35  1  0.61606677  0.36798820  0.00000000  1.0
