# generated using pymatgen
data_Zn3NiTe4
_symmetry_space_group_name_H-M   'P 1'
_cell_length_a   6.08677042
_cell_length_b   6.08677042
_cell_length_c   6.08677042
_cell_angle_alpha   90.00000000
_cell_angle_beta   90.00000000
_cell_angle_gamma   90.00000000
_symmetry_Int_Tables_number   1
_chemical_formula_structural   Zn3NiTe4
_chemical_formula_sum   'Zn3 Ni1 Te4'
_cell_volume   225.50738223
_cell_formula_units_Z   1
loop_
 _symmetry_equiv_pos_site_id
 _symmetry_equiv_pos_as_xyz
  1  'x, y, z'
loop_
 _atom_site_type_symbol
 _atom_site_label
 _atom_site_symmetry_multiplicity
 _atom_site_fract_x
 _atom_site_fract_y
 _atom_site_fract_z
 _atom_site_occupancy
  Zn  Zn0  1  0.50000000  0.50000000  0.00000000  1.0
  Zn  Zn1  1  0.50000000  0.00000000  0.50000000  1.0
  Zn  Zn2  1  0.00000000  0.50000000  0.50000000  1.0
  Ni  Ni3  1  0.00000000  0.00000000  0.00000000  1.0
  Te  Te4  1  0.75872865  0.75872865  0.24127135  1.0
  Te  Te5  1  0.75872865  0.24127135  0.75872865  1.0
  Te  Te6  1  0.24127135  0.75872865  0.75872865  1.0
  Te  Te7  1  0.24127135  0.24127135  0.24127135  1.0
