# generated using pymatgen
data_Hf3Zn3C
_symmetry_space_group_name_H-M   'P 1'
_cell_length_a   8.55326796
_cell_length_b   8.55326796
_cell_length_c   8.55326796
_cell_angle_alpha   60.00000000
_cell_angle_beta   60.00000000
_cell_angle_gamma   60.00000000
_symmetry_Int_Tables_number   1
_chemical_formula_structural   Hf3Zn3C
_chemical_formula_sum   'Hf12 Zn12 C4'
_cell_volume   442.46735626
_cell_formula_units_Z   4
loop_
 _symmetry_equiv_pos_site_id
 _symmetry_equiv_pos_as_xyz
  1  'x, y, z'
loop_
 _atom_site_type_symbol
 _atom_site_label
 _atom_site_symmetry_multiplicity
 _atom_site_fract_x
 _atom_site_fract_y
 _atom_site_fract_z
 _atom_site_occupancy
  Hf  Hf0  1  1.43921989  0.43921989  0.06078011  1.0
  Hf  Hf1  1  1.06078011  0.43921989  0.06078011  1.0
  Hf  Hf2  1  1.43921989  0.06078011  0.06078011  1.0
  Hf  Hf3  1  1.06078011  0.06078011  0.43921989  1.0
  Hf  Hf4  1  1.43921989  0.06078011  0.43921989  1.0
  Hf  Hf5  1  1.06078011  0.43921989  0.43921989  1.0
  Hf  Hf6  1  0.81078011  0.81078011  -0.81078011  1.0
  Hf  Hf7  1  1.18921989  -0.18921989  0.18921989  1.0
  Hf  Hf8  1  -0.18921989  0.18921989  0.18921989  1.0
  Hf  Hf9  1  0.18921989  0.18921989  -0.18921989  1.0
  Hf  Hf10  1  0.81078011  -0.81078011  0.81078011  1.0
  Hf  Hf11  1  -0.81078011  0.81078011  0.81078011  1.0
  Zn  Zn12  1  0.83168372  -0.16831628  0.50494884  1.0
  Zn  Zn13  1  0.83168372  -0.49505116  0.83168372  1.0
  Zn  Zn14  1  0.50494884  0.83168372  0.83168372  1.0
  Zn  Zn15  1  0.83168372  0.83168372  0.83168372  1.0
  Zn  Zn16  1  1.41831628  0.41831628  -0.25494884  1.0
  Zn  Zn17  1  1.41831628  -0.25494884  0.41831628  1.0
  Zn  Zn18  1  0.74505116  0.41831628  0.41831628  1.0
  Zn  Zn19  1  1.41831628  0.41831628  0.41831628  1.0
  Zn  Zn20  1  0.62500000  0.62500000  1.12500000  1.0
  Zn  Zn21  1  0.62500000  1.12500000  0.62500000  1.0
  Zn  Zn22  1  1.12500000  0.62500000  0.62500000  1.0
  Zn  Zn23  1  0.62500000  0.62500000  0.62500000  1.0
  C  C24  1  0.12500000  0.12500000  1.62500000  1.0
  C  C25  1  0.12500000  0.62500000  1.12500000  1.0
  C  C26  1  1.62500000  0.12500000  0.12500000  1.0
  C  C27  1  1.12500000  0.12500000  0.12500000  1.0
