# generated using pymatgen
data_Lu2N3
_symmetry_space_group_name_H-M   'P 1'
_cell_length_a   9.14142827
_cell_length_b   9.14142827
_cell_length_c   9.14142827
_cell_angle_alpha   109.47122063
_cell_angle_beta   109.47122063
_cell_angle_gamma   109.47122063
_symmetry_Int_Tables_number   1
_chemical_formula_structural   Lu2N3
_chemical_formula_sum   'Lu16 N24'
_cell_volume   588.05815483
_cell_formula_units_Z   8
loop_
 _symmetry_equiv_pos_site_id
 _symmetry_equiv_pos_as_xyz
  1  'x, y, z'
loop_
 _atom_site_type_symbol
 _atom_site_label
 _atom_site_symmetry_multiplicity
 _atom_site_fract_x
 _atom_site_fract_y
 _atom_site_fract_z
 _atom_site_occupancy
  Lu  Lu0  1  1.71967599  1.46967599  1.25000000  1.0
  Lu  Lu1  1  1.21967599  0.96967599  1.25000000  1.0
  Lu  Lu2  1  0.75000000  0.78032401  0.03032401  1.0
  Lu  Lu3  1  0.25000000  1.21967599  0.96967599  1.0
  Lu  Lu4  1  0.25000000  0.71967599  0.46967599  1.0
  Lu  Lu5  1  0.75000000  1.28032401  0.53032401  1.0
  Lu  Lu6  1  1.46967599  1.25000000  1.71967599  1.0
  Lu  Lu7  1  0.96967599  0.25000000  1.21967599  1.0
  Lu  Lu8  1  0.03032401  0.75000000  0.78032401  1.0
  Lu  Lu9  1  0.53032401  0.75000000  0.28032401  1.0
  Lu  Lu10  1  0.28032401  0.53032401  0.75000000  1.0
  Lu  Lu11  1  0.78032401  1.03032401  0.75000000  1.0
  Lu  Lu12  1  1.00000000  0.50000000  1.00000000  1.0
  Lu  Lu13  1  0.50000000  0.50000000  0.50000000  1.0
  Lu  Lu14  1  1.00000000  1.00000000  1.50000000  1.0
  Lu  Lu15  1  1.50000000  1.00000000  1.00000000  1.0
  N  N16  1  0.53948845  0.53189342  0.77000011  1.0
  N  N17  1  1.03948845  0.26948833  1.00759503  1.0
  N  N18  1  0.26189330  0.76948833  0.72999989  1.0
  N  N19  1  0.76189330  1.03189342  0.49240497  1.0
  N  N20  1  0.50759503  1.23810670  0.96810658  1.0
  N  N21  1  1.00759503  1.03948845  0.26948833  1.0
  N  N22  1  0.77000011  0.53948845  0.53189342  1.0
  N  N23  1  1.27000011  0.73810670  1.23051167  1.0
  N  N24  1  0.76948833  0.72999989  0.26189330  1.0
  N  N25  1  1.26948833  1.00759503  1.03948845  1.0
  N  N26  1  0.96810658  0.50759503  1.23810670  1.0
  N  N27  1  1.46810658  1.22999989  1.46051155  1.0
  N  N28  1  1.73810670  1.23051167  1.27000011  1.0
  N  N29  1  1.23810670  0.96810658  1.50759503  1.0
  N  N30  1  1.46051155  1.46810658  1.22999989  1.0
  N  N31  1  0.96051155  1.73051167  0.99240497  1.0
  N  N32  1  1.22999989  1.46051155  1.46810658  1.0
  N  N33  1  0.72999989  1.26189330  0.76948833  1.0
  N  N34  1  1.49240497  0.76189330  1.03189342  1.0
  N  N35  1  0.99240497  0.96051155  1.73051167  1.0
  N  N36  1  1.03189342  1.49240497  0.76189330  1.0
  N  N37  1  0.53189342  0.77000011  0.53948845  1.0
  N  N38  1  1.23051167  1.27000011  1.73810670  1.0
  N  N39  1  0.73051167  0.99240497  0.96051155  1.0
