# generated using pymatgen
data_BaC2S2(OF)6
_symmetry_space_group_name_H-M   'P 1'
_cell_length_a   11.83358558
_cell_length_b   11.83358558
_cell_length_c   9.83478673
_cell_angle_alpha   78.13781849
_cell_angle_beta   101.86218151
_cell_angle_gamma   155.10867372
_symmetry_Int_Tables_number   1
_chemical_formula_structural   BaC2S2(OF)6
_chemical_formula_sum   'Ba2 C4 S4 O12 F12'
_cell_volume   566.67365383
_cell_formula_units_Z   2
loop_
 _symmetry_equiv_pos_site_id
 _symmetry_equiv_pos_as_xyz
  1  'x, y, z'
loop_
 _atom_site_type_symbol
 _atom_site_label
 _atom_site_symmetry_multiplicity
 _atom_site_fract_x
 _atom_site_fract_y
 _atom_site_fract_z
 _atom_site_occupancy
  Ba  Ba0  1  0.48233127  0.48233127  0.75000000  1.0
  Ba  Ba1  1  0.51766873  0.51766873  0.25000000  1.0
  C  C2  1  1.77238767  0.10216755  0.93500125  1.0
  C  C3  1  0.89783245  -0.77238767  0.43500125  1.0
  C  C4  1  1.10216755  -0.22761233  0.56499875  1.0
  C  C5  1  1.22761233  -0.10216755  0.06499875  1.0
  S  S6  1  1.93025312  0.09781457  0.96745984  1.0
  S  S7  1  0.90218543  -0.93025312  0.46745984  1.0
  S  S8  1  1.09781457  -0.06974688  0.53254016  1.0
  S  S9  1  1.06974688  -0.09781457  0.03254016  1.0
  O  O10  1  1.69929237  -0.19108287  0.97548231  1.0
  O  O11  1  1.19108287  -0.69929237  0.47548231  1.0
  O  O12  1  0.80891713  -0.30070763  0.52451769  1.0
  O  O13  1  1.30070763  0.19108287  0.02451769  1.0
  O  O14  1  1.77304652  -0.08349931  0.60063257  1.0
  O  O15  1  1.08349931  -0.77304652  0.10063257  1.0
  O  O16  1  0.91650069  -0.22695348  0.89936743  1.0
  O  O17  1  1.22695348  0.08349931  0.39936743  1.0
  O  O18  1  1.24822262  0.09383485  0.65309635  1.0
  O  O19  1  0.90616515  -0.24822262  0.15309635  1.0
  O  O20  1  1.09383485  -0.75177738  0.84690365  1.0
  O  O21  1  1.75177738  -0.09383485  0.34690365  1.0
  F  F22  1  1.62436216  -0.01315810  0.81400505  1.0
  F  F23  1  1.01315810  -0.62436216  0.31400505  1.0
  F  F24  1  0.98684190  -0.37563784  0.68599495  1.0
  F  F25  1  1.37563784  0.01315810  0.18599495  1.0
  F  F26  1  1.64269742  0.03550369  0.42809872  1.0
  F  F27  1  0.96449631  -0.64269742  0.92809872  1.0
  F  F28  1  1.03550369  -0.35730258  0.07190128  1.0
  F  F29  1  1.35730258  -0.03550369  0.57190128  1.0
  F  F30  1  1.38905824  0.03653084  0.96049955  1.0
  F  F31  1  0.96346916  -0.38905824  0.46049955  1.0
  F  F32  1  1.03653084  -0.61094176  0.53950045  1.0
  F  F33  1  1.61094176  -0.03653084  0.03950045  1.0
