# generated using pymatgen
data_KHCO3
_symmetry_space_group_name_H-M   'P 1'
_cell_length_a   5.58385059
_cell_length_b   5.58385059
_cell_length_c   11.13681689
_cell_angle_alpha   76.31329672
_cell_angle_beta   103.68670328
_cell_angle_gamma   106.84480382
_symmetry_Int_Tables_number   1
_chemical_formula_structural   KHCO3
_chemical_formula_sum   'K4 H4 C4 O12'
_cell_volume   317.58682906
_cell_formula_units_Z   4
loop_
 _symmetry_equiv_pos_site_id
 _symmetry_equiv_pos_as_xyz
  1  'x, y, z'
loop_
 _atom_site_type_symbol
 _atom_site_label
 _atom_site_symmetry_multiplicity
 _atom_site_fract_x
 _atom_site_fract_y
 _atom_site_fract_z
 _atom_site_occupancy
  K  K0  1  1.48151146  0.20490436  0.13212152  1.0
  K  K1  1  0.79509564  0.51848854  0.63212152  1.0
  K  K2  1  1.20490436  0.48151146  0.36787848  1.0
  K  K3  1  1.51848854  -0.20490436  0.86787848  1.0
  H  H4  1  1.87578308  -0.08070244  0.35189624  1.0
  H  H5  1  1.08070244  0.12421692  0.85189624  1.0
  H  H6  1  0.91929756  0.87578308  0.14810376  1.0
  H  H7  1  1.12421692  0.08070244  0.64810376  1.0
  C  C8  1  1.59000743  0.04092675  0.44975411  1.0
  C  C9  1  0.95907325  0.40999257  0.94975411  1.0
  C  C10  1  1.04092675  0.59000743  0.05024589  1.0
  C  C11  1  1.40999257  -0.04092675  0.55024589  1.0
  O  O12  1  0.95308326  0.03919792  0.18291346  1.0
  O  O13  1  0.96080208  0.04691674  0.68291346  1.0
  O  O14  1  0.03919792  -0.04691674  0.31708654  1.0
  O  O15  1  1.04691674  0.96080208  0.81708654  1.0
  O  O16  1  0.63745887  -0.14134073  0.41608298  1.0
  O  O17  1  1.14134073  0.36254113  0.91608298  1.0
  O  O18  1  0.85865927  0.63745887  0.08391702  1.0
  O  O19  1  0.36254113  0.14134073  0.58391702  1.0
  O  O20  1  1.67176272  0.27424970  0.40949004  1.0
  O  O21  1  0.72575030  0.32823728  0.90949004  1.0
  O  O22  1  1.27424970  0.67176272  0.09050996  1.0
  O  O23  1  1.32823728  -0.27424970  0.59050996  1.0
