# generated using pymatgen
data_ZnS
_symmetry_space_group_name_H-M   'P 1'
_cell_length_a   3.84883574
_cell_length_b   3.84883574
_cell_length_c   44.07563755
_cell_angle_alpha   90.00000000
_cell_angle_beta   90.00000000
_cell_angle_gamma   120.00000000
_symmetry_Int_Tables_number   1
_chemical_formula_structural   ZnS
_chemical_formula_sum   'Zn14 S14'
_cell_volume   565.44190168
_cell_formula_units_Z   14
loop_
 _symmetry_equiv_pos_site_id
 _symmetry_equiv_pos_as_xyz
  1  'x, y, z'
loop_
 _atom_site_type_symbol
 _atom_site_label
 _atom_site_symmetry_multiplicity
 _atom_site_fract_x
 _atom_site_fract_y
 _atom_site_fract_z
 _atom_site_occupancy
  Zn  Zn0  1  0.00000000  0.00000000  0.50011148  1.0
  Zn  Zn1  1  0.00000000  0.00000000  0.71427002  1.0
  Zn  Zn2  1  0.00000000  0.00000000  0.92844098  1.0
  Zn  Zn3  1  0.66666667  0.33333333  0.07119220  1.0
  Zn  Zn4  1  0.66666667  0.33333333  0.21426155  1.0
  Zn  Zn5  1  0.66666667  0.33333333  0.35734964  1.0
  Zn  Zn6  1  0.66666667  0.33333333  0.57146995  1.0
  Zn  Zn7  1  0.66666667  0.33333333  0.85708013  1.0
  Zn  Zn8  1  0.33333333  0.66666667  -0.00022630  1.0
  Zn  Zn9  1  0.33333333  0.66666667  0.14272393  1.0
  Zn  Zn10  1  0.33333333  0.66666667  0.28580428  1.0
  Zn  Zn11  1  0.33333333  0.66666667  0.42877247  1.0
  Zn  Zn12  1  0.33333333  0.66666667  0.64281596  1.0
  Zn  Zn13  1  0.33333333  0.66666667  0.78572305  1.0
  S  S14  1  0.00000000  0.00000000  0.44660343  1.0
  S  S15  1  0.00000000  0.00000000  0.66067286  1.0
  S  S16  1  0.00000000  0.00000000  0.87492731  1.0
  S  S17  1  0.66666667  0.33333333  0.01761344  1.0
  S  S18  1  0.66666667  0.33333333  0.16067985  1.0
  S  S19  1  0.66666667  0.33333333  0.30375498  1.0
  S  S20  1  0.66666667  0.33333333  0.51795597  1.0
  S  S21  1  0.66666667  0.33333333  0.80356568  1.0
  S  S22  1  0.33333333  0.66666667  0.08913963  1.0
  S  S23  1  0.33333333  0.66666667  0.23221796  1.0
  S  S24  1  0.33333333  0.66666667  0.37527421  1.0
  S  S25  1  0.33333333  0.66666667  0.58931321  1.0
  S  S26  1  0.33333333  0.66666667  0.73221221  1.0
  S  S27  1  0.33333333  0.66666667  0.94627989  1.0
