# generated using pymatgen
data_RbScCl3
_symmetry_space_group_name_H-M   'P 1'
_cell_length_a   7.43316298
_cell_length_b   7.43316298
_cell_length_c   5.96140303
_cell_angle_alpha   90.00000000
_cell_angle_beta   90.00000000
_cell_angle_gamma   120.00000000
_symmetry_Int_Tables_number   1
_chemical_formula_structural   RbScCl3
_chemical_formula_sum   'Rb2 Sc2 Cl6'
_cell_volume   285.25050730
_cell_formula_units_Z   2
loop_
 _symmetry_equiv_pos_site_id
 _symmetry_equiv_pos_as_xyz
  1  'x, y, z'
loop_
 _atom_site_type_symbol
 _atom_site_label
 _atom_site_symmetry_multiplicity
 _atom_site_fract_x
 _atom_site_fract_y
 _atom_site_fract_z
 _atom_site_occupancy
  Rb  Rb0  1  0.33333333  0.66666667  0.75000000  1.0
  Rb  Rb1  1  0.66666667  0.33333333  0.25000000  1.0
  Sc  Sc2  1  0.00000000  0.00000000  0.50000000  1.0
  Sc  Sc3  1  0.00000000  0.00000000  -0.00000000  1.0
  Cl  Cl4  1  0.16471664  0.83528336  0.25000000  1.0
  Cl  Cl5  1  0.16471664  0.32943328  0.25000000  1.0
  Cl  Cl6  1  0.83528336  0.16471664  0.75000000  1.0
  Cl  Cl7  1  0.83528336  0.67056672  0.75000000  1.0
  Cl  Cl8  1  0.67056672  0.83528336  0.25000000  1.0
  Cl  Cl9  1  0.32943328  0.16471664  0.75000000  1.0
