# generated using pymatgen
data_Yb2Ge6Pd
_symmetry_space_group_name_H-M   'P 1'
_cell_length_a   5.79031513
_cell_length_b   5.79031513
_cell_length_c   21.73708314
_cell_angle_alpha   90.00000000
_cell_angle_beta   90.00000000
_cell_angle_gamma   88.85123848
_symmetry_Int_Tables_number   1
_chemical_formula_structural   Yb2Ge6Pd
_chemical_formula_sum   'Yb8 Ge24 Pd4'
_cell_volume   728.64899378
_cell_formula_units_Z   4
loop_
 _symmetry_equiv_pos_site_id
 _symmetry_equiv_pos_as_xyz
  1  'x, y, z'
loop_
 _atom_site_type_symbol
 _atom_site_label
 _atom_site_symmetry_multiplicity
 _atom_site_fract_x
 _atom_site_fract_y
 _atom_site_fract_z
 _atom_site_occupancy
  Yb  Yb0  1  -0.37510765  0.87472399  0.41878875  1.0
  Yb  Yb1  1  0.12489235  1.37472399  0.08121125  1.0
  Yb  Yb2  1  -0.12527601  0.62489235  0.58121125  1.0
  Yb  Yb3  1  0.37472399  1.12489235  0.91878875  1.0
  Yb  Yb4  1  0.12527601  1.37510765  0.41878875  1.0
  Yb  Yb5  1  -0.37472399  0.87510765  0.08121125  1.0
  Yb  Yb6  1  0.37510765  1.12527601  0.58121125  1.0
  Yb  Yb7  1  -0.12489235  0.62527601  0.91878875  1.0
  Ge  Ge8  1  0.34943372  1.09762230  0.30730803  1.0
  Ge  Ge9  1  -0.15056628  0.59762230  0.19269197  1.0
  Ge  Ge10  1  0.09762230  1.34943372  0.69269197  1.0
  Ge  Ge11  1  -0.40237770  0.84943372  0.80730803  1.0
  Ge  Ge12  1  -0.09762230  0.65056628  0.30730803  1.0
  Ge  Ge13  1  0.40237770  1.15056628  0.19269197  1.0
  Ge  Ge14  1  -0.34943372  0.90237770  0.69269197  1.0
  Ge  Ge15  1  0.15056628  1.40237770  0.80730803  1.0
  Ge  Ge16  1  -0.38234438  1.38234438  0.04140144  1.0
  Ge  Ge17  1  0.11765562  0.88234438  0.45859856  1.0
  Ge  Ge18  1  0.38234438  0.61765562  0.95859856  1.0
  Ge  Ge19  1  -0.11765562  1.11765562  0.54140144  1.0
  Ge  Ge20  1  -0.36735447  1.36735447  0.47157702  1.0
  Ge  Ge21  1  0.13264553  0.86735447  0.02842298  1.0
  Ge  Ge22  1  0.36735447  0.63264553  0.52842298  1.0
  Ge  Ge23  1  -0.13264553  1.13264553  0.97157702  1.0
  Ge  Ge24  1  -0.15371475  1.15371475  0.19206667  1.0
  Ge  Ge25  1  0.34628525  0.65371475  0.30793333  1.0
  Ge  Ge26  1  0.15371475  0.84628525  0.80793333  1.0
  Ge  Ge27  1  -0.34628525  1.34628525  0.69206667  1.0
  Ge  Ge28  1  -0.09437151  1.09437151  0.30701050  1.0
  Ge  Ge29  1  0.40562849  0.59437151  0.19298950  1.0
  Ge  Ge30  1  0.09437151  0.90562849  0.69298950  1.0
  Ge  Ge31  1  -0.40562849  1.40562849  0.80701050  1.0
  Pd  Pd32  1  -0.37371084  1.37371084  0.35820205  1.0
  Pd  Pd33  1  0.12628916  0.87371084  0.14179795  1.0
  Pd  Pd34  1  0.37371084  0.62628916  0.64179795  1.0
  Pd  Pd35  1  -0.12628916  1.12628916  0.85820205  1.0
