# generated using pymatgen
data_Na5MoNO4
_symmetry_space_group_name_H-M   'P 1'
_cell_length_a   5.75451454
_cell_length_b   5.75451454
_cell_length_c   10.78677777
_cell_angle_alpha   90.00000000
_cell_angle_beta   90.00000000
_cell_angle_gamma   61.39737935
_symmetry_Int_Tables_number   1
_chemical_formula_structural   Na5MoNO4
_chemical_formula_sum   'Na10 Mo2 N2 O8'
_cell_volume   313.60601104
_cell_formula_units_Z   2
loop_
 _symmetry_equiv_pos_site_id
 _symmetry_equiv_pos_as_xyz
  1  'x, y, z'
loop_
 _atom_site_type_symbol
 _atom_site_label
 _atom_site_symmetry_multiplicity
 _atom_site_fract_x
 _atom_site_fract_y
 _atom_site_fract_z
 _atom_site_occupancy
  Na  Na0  1  0.04240494  0.33014394  0.25000000  1.0
  Na  Na1  1  -0.66985606  1.04240494  0.75000000  1.0
  Na  Na2  1  0.66985606  0.95759506  0.25000000  1.0
  Na  Na3  1  -0.04240494  1.66985606  0.75000000  1.0
  Na  Na4  1  0.68920092  0.68920092  0.50000000  1.0
  Na  Na5  1  0.68920092  0.68920092  0.00000000  1.0
  Na  Na6  1  0.31079908  0.31079908  0.50000000  1.0
  Na  Na7  1  0.31079908  0.31079908  0.00000000  1.0
  Na  Na8  1  0.00000000  0.00000000  0.50000000  1.0
  Na  Na9  1  0.00000000  0.00000000  0.00000000  1.0
  Mo  Mo10  1  0.29315998  0.70684002  0.25000000  1.0
  Mo  Mo11  1  -0.29315998  1.29315998  0.75000000  1.0
  N  N12  1  -0.41010897  1.41010897  0.25000000  1.0
  N  N13  1  0.41010897  0.58989103  0.75000000  1.0
  O  O14  1  0.06031696  0.66576549  0.37219882  1.0
  O  O15  1  0.06031696  0.66576549  0.12780118  1.0
  O  O16  1  -0.33423451  1.06031696  0.87219882  1.0
  O  O17  1  -0.33423451  1.06031696  0.62780118  1.0
  O  O18  1  0.33423451  0.93968304  0.37219882  1.0
  O  O19  1  0.33423451  0.93968304  0.12780118  1.0
  O  O20  1  -0.06031696  1.33423451  0.87219882  1.0
  O  O21  1  -0.06031696  1.33423451  0.62780118  1.0
