# generated using pymatgen
data_LuSnGe
_symmetry_space_group_name_H-M   'P 1'
_cell_length_a   8.95292550
_cell_length_b   8.95292550
_cell_length_c   3.97119463
_cell_angle_alpha   90.00000000
_cell_angle_beta   90.00000000
_cell_angle_gamma   154.03741251
_symmetry_Int_Tables_number   1
_chemical_formula_structural   LuSnGe
_chemical_formula_sum   'Lu2 Sn2 Ge2'
_cell_volume   139.35134476
_cell_formula_units_Z   2
loop_
 _symmetry_equiv_pos_site_id
 _symmetry_equiv_pos_as_xyz
  1  'x, y, z'
loop_
 _atom_site_type_symbol
 _atom_site_label
 _atom_site_symmetry_multiplicity
 _atom_site_fract_x
 _atom_site_fract_y
 _atom_site_fract_z
 _atom_site_occupancy
  Lu  Lu0  1  0.40614802  0.59385198  0.75000000  1.0
  Lu  Lu1  1  -0.40614802  0.40614802  0.25000000  1.0
  Sn  Sn2  1  0.21293820  0.78706180  0.75000000  1.0
  Sn  Sn3  1  -0.21293820  0.21293820  0.25000000  1.0
  Ge  Ge4  1  0.05128355  0.94871645  0.75000000  1.0
  Ge  Ge5  1  -0.05128355  0.05128355  0.25000000  1.0
