# generated using pymatgen
data_S2N2Cl
_symmetry_space_group_name_H-M   'P 1'
_cell_length_a   10.04045573
_cell_length_b   7.44043829
_cell_length_c   14.14990701
_cell_angle_alpha   90.00000000
_cell_angle_beta   114.54616198
_cell_angle_gamma   90.00000000
_symmetry_Int_Tables_number   1
_chemical_formula_structural   S2N2Cl
_chemical_formula_sum   'S16 N16 Cl8'
_cell_volume   961.54321935
_cell_formula_units_Z   8
loop_
 _symmetry_equiv_pos_site_id
 _symmetry_equiv_pos_as_xyz
  1  'x, y, z'
loop_
 _atom_site_type_symbol
 _atom_site_label
 _atom_site_symmetry_multiplicity
 _atom_site_fract_x
 _atom_site_fract_y
 _atom_site_fract_z
 _atom_site_occupancy
  S  S0  1  0.94449752  0.14542594  0.28609588  1.0
  S  S1  1  0.94449752  0.35457406  0.78609588  1.0
  S  S2  1  0.05550248  0.64542594  0.21390412  1.0
  S  S3  1  0.05550248  0.85457406  0.71390412  1.0
  S  S4  1  0.73417502  0.98229196  0.34253888  1.0
  S  S5  1  0.73417501  0.51770804  0.84253888  1.0
  S  S6  1  0.26582498  0.48229196  0.15746112  1.0
  S  S7  1  0.26582498  0.01770804  0.65746112  1.0
  S  S8  1  0.67448659  0.30479318  0.42309766  1.0
  S  S9  1  0.67448659  0.19520682  0.92309766  1.0
  S  S10  1  0.32551341  0.80479318  0.07690234  1.0
  S  S11  1  0.32551341  0.69520682  0.57690234  1.0
  S  S12  1  0.64777026  0.24692532  0.21836441  1.0
  S  S13  1  0.64777026  0.25307468  0.71836441  1.0
  S  S14  1  0.35222974  0.74692532  0.28163559  1.0
  S  S15  1  0.35222974  0.75307468  0.78163559  1.0
  N  N16  1  0.88842611  0.97792881  0.33190783  1.0
  N  N17  1  0.88842611  0.52207119  0.83190783  1.0
  N  N18  1  0.11157389  0.47792881  0.16809217  1.0
  N  N19  1  0.11157389  0.02207119  0.66809217  1.0
  N  N20  1  0.80055685  0.24825769  0.20560890  1.0
  N  N21  1  0.80055685  0.25174231  0.70560890  1.0
  N  N22  1  0.19944315  0.74825769  0.29439110  1.0
  N  N23  1  0.19944315  0.75174231  0.79439110  1.0
  N  N24  1  0.74274573  0.10777680  0.43917062  1.0
  N  N25  1  0.74274573  0.39222320  0.93917062  1.0
  N  N26  1  0.25725427  0.60777680  0.06082938  1.0
  N  N27  1  0.25725427  0.89222320  0.56082938  1.0
  N  N28  1  0.65216924  0.37932476  0.31139566  1.0
  N  N29  1  0.65216924  0.12067524  0.81139566  1.0
  N  N30  1  0.34783076  0.87932476  0.18860434  1.0
  N  N31  1  0.34783076  0.62067524  0.68860434  1.0
  Cl  Cl32  1  0.94859355  0.83229495  0.08390919  1.0
  Cl  Cl33  1  0.94859355  0.66770505  0.58390919  1.0
  Cl  Cl34  1  0.05140645  0.33229495  0.41609081  1.0
  Cl  Cl35  1  0.05140645  0.16770505  0.91609081  1.0
  Cl  Cl36  1  0.44289599  0.26085811  0.40721766  1.0
  Cl  Cl37  1  0.44289599  0.23914189  0.90721766  1.0
  Cl  Cl38  1  0.55710401  0.76085811  0.09278234  1.0
  Cl  Cl39  1  0.55710401  0.73914189  0.59278234  1.0
