# generated using pymatgen
data_BaH8(IO6)2
_symmetry_space_group_name_H-M   'P 1'
_cell_length_a   7.71619943
_cell_length_b   7.71619943
_cell_length_c   9.62291494
_cell_angle_alpha   85.45741222
_cell_angle_beta   94.54258778
_cell_angle_gamma   116.04097560
_symmetry_Int_Tables_number   1
_chemical_formula_structural   BaH8(IO6)2
_chemical_formula_sum   'Ba2 H16 I4 O24'
_cell_volume   512.53167653
_cell_formula_units_Z   2
loop_
 _symmetry_equiv_pos_site_id
 _symmetry_equiv_pos_as_xyz
  1  'x, y, z'
loop_
 _atom_site_type_symbol
 _atom_site_label
 _atom_site_symmetry_multiplicity
 _atom_site_fract_x
 _atom_site_fract_y
 _atom_site_fract_z
 _atom_site_occupancy
  Ba  Ba0  1  1.44107801  0.44107801  0.25000000  1.0
  Ba  Ba1  1  0.55892199  -0.44107801  0.75000000  1.0
  H  H2  1  0.77283293  -0.21810262  0.03295316  1.0
  H  H3  1  1.21810262  0.22716707  0.53295316  1.0
  H  H4  1  0.78189738  -0.22716707  0.46704684  1.0
  H  H5  1  1.22716707  0.21810262  0.96704684  1.0
  H  H6  1  0.58248860  -0.18695851  0.00195710  1.0
  H  H7  1  1.18695851  0.41751140  0.50195710  1.0
  H  H8  1  0.81304149  -0.41751140  0.49804290  1.0
  H  H9  1  1.41751140  0.18695851  0.99804290  1.0
  H  H10  1  1.87984989  0.12066046  0.39932838  1.0
  H  H11  1  0.87933954  -0.87984989  0.89932838  1.0
  H  H12  1  1.12066046  0.87984989  0.10067162  1.0
  H  H13  1  0.12015011  -0.12066046  0.60067162  1.0
  H  H14  1  0.55320524  -0.05038660  0.21720746  1.0
  H  H15  1  1.05038660  0.44679476  0.71720746  1.0
  H  H16  1  0.94961340  -0.44679476  0.28279254  1.0
  H  H17  1  1.44679476  0.05038660  0.78279254  1.0
  I  I18  1  0.31543391  -0.10904183  0.39465899  1.0
  I  I19  1  1.10904183  0.68456609  0.89465899  1.0
  I  I20  1  0.89095817  -0.68456609  0.10534101  1.0
  I  I21  1  1.68456609  0.10904183  0.60534101  1.0
  O  O22  1  0.63041010  -0.28506487  0.02519780  1.0
  O  O23  1  1.28506487  0.36958990  0.52519780  1.0
  O  O24  1  0.71493513  -0.36958990  0.47480220  1.0
  O  O25  1  1.36958990  0.28506487  0.97480220  1.0
  O  O26  1  1.83830087  0.03344189  0.48643574  1.0
  O  O27  1  0.96655811  -0.83830087  0.98643574  1.0
  O  O28  1  1.03344189  0.83830087  0.01356426  1.0
  O  O29  1  0.16169913  -0.03344189  0.51356426  1.0
  O  O30  1  0.49198658  -0.16714062  0.28379886  1.0
  O  O31  1  1.16714062  0.50801342  0.78379886  1.0
  O  O32  1  0.83285938  -0.50801342  0.21620114  1.0
  O  O33  1  1.50801342  0.16714062  0.71620114  1.0
  O  O34  1  1.63123256  0.13709823  0.10219133  1.0
  O  O35  1  0.86290177  -0.63123256  0.60219133  1.0
  O  O36  1  1.13709823  0.63123256  0.39780867  1.0
  O  O37  1  0.36876744  -0.13709823  0.89780867  1.0
  O  O38  1  1.54229814  0.15895554  0.42887057  1.0
  O  O39  1  0.84104446  -0.54229814  0.92887057  1.0
  O  O40  1  1.15895554  0.54229814  0.07112943  1.0
  O  O41  1  0.45770186  -0.15895554  0.57112943  1.0
  O  O42  1  1.24296192  0.01146698  0.23977264  1.0
  O  O43  1  0.98853302  -0.24296192  0.73977264  1.0
  O  O44  1  1.01146698  0.24296192  0.26022736  1.0
  O  O45  1  0.75703808  -0.01146698  0.76022736  1.0
