# generated using pymatgen
data_ZrNiH
_symmetry_space_group_name_H-M   'P 1'
_cell_length_a   5.50495897
_cell_length_b   5.50495897
_cell_length_c   3.93751603
_cell_angle_alpha   90.00000000
_cell_angle_beta   90.00000000
_cell_angle_gamma   144.28837802
_symmetry_Int_Tables_number   1
_chemical_formula_structural   ZrNiH
_chemical_formula_sum   'Zr2 Ni2 H2'
_cell_volume   69.65055941
_cell_formula_units_Z   2
loop_
 _symmetry_equiv_pos_site_id
 _symmetry_equiv_pos_as_xyz
  1  'x, y, z'
loop_
 _atom_site_type_symbol
 _atom_site_label
 _atom_site_symmetry_multiplicity
 _atom_site_fract_x
 _atom_site_fract_y
 _atom_site_fract_z
 _atom_site_occupancy
  Zr  Zr0  1  -0.64228769  0.64228769  0.25000000  1.0
  Zr  Zr1  1  -0.35771231  1.35771231  0.75000000  1.0
  Ni  Ni2  1  -0.93026276  0.93026276  0.25000000  1.0
  Ni  Ni3  1  -0.06973724  1.06973724  0.75000000  1.0
  H  H4  1  -0.26938296  1.26938296  0.25000000  1.0
  H  H5  1  -0.73061704  0.73061704  0.75000000  1.0
