# generated using pymatgen
data_Lu2Be2GeO7
_symmetry_space_group_name_H-M   'P 1'
_cell_length_a   7.38374707
_cell_length_b   7.38374707
_cell_length_c   4.79079403
_cell_angle_alpha   90.00000000
_cell_angle_beta   90.00000000
_cell_angle_gamma   90.00000000
_symmetry_Int_Tables_number   1
_chemical_formula_structural   Lu2Be2GeO7
_chemical_formula_sum   'Lu4 Be4 Ge2 O14'
_cell_volume   261.19275296
_cell_formula_units_Z   2
loop_
 _symmetry_equiv_pos_site_id
 _symmetry_equiv_pos_as_xyz
  1  'x, y, z'
loop_
 _atom_site_type_symbol
 _atom_site_label
 _atom_site_symmetry_multiplicity
 _atom_site_fract_x
 _atom_site_fract_y
 _atom_site_fract_z
 _atom_site_occupancy
  Lu  Lu0  1  0.84292929  0.34292929  0.49197233  1.0
  Lu  Lu1  1  0.65707071  0.84292929  0.50802767  1.0
  Lu  Lu2  1  0.15707071  0.65707071  0.49197233  1.0
  Lu  Lu3  1  0.34292929  0.15707071  0.50802767  1.0
  Be  Be4  1  0.36418727  0.86418727  0.05024815  1.0
  Be  Be5  1  0.13581273  0.36418727  0.94975185  1.0
  Be  Be6  1  0.63581273  0.13581273  0.05024815  1.0
  Be  Be7  1  0.86418727  0.63581273  0.94975185  1.0
  Ge  Ge8  1  0.50000000  0.50000000  0.00000000  1.0
  Ge  Ge9  1  0.00000000  0.00000000  0.00000000  1.0
  O  O10  1  0.32946240  0.41607614  0.77917497  1.0
  O  O11  1  0.17053760  0.91607614  0.22082503  1.0
  O  O12  1  0.58392386  0.32946240  0.22082503  1.0
  O  O13  1  0.91607614  0.82946240  0.77917497  1.0
  O  O14  1  0.67053760  0.58392386  0.77917497  1.0
  O  O15  1  0.82946240  0.08392386  0.22082503  1.0
  O  O16  1  0.41607614  0.67053760  0.22082503  1.0
  O  O17  1  0.08392386  0.17053760  0.77917497  1.0
  O  O18  1  0.35780683  0.85780683  0.71783657  1.0
  O  O19  1  0.14219317  0.35780683  0.28216343  1.0
  O  O20  1  0.64219317  0.14219317  0.71783657  1.0
  O  O21  1  0.85780683  0.64219317  0.28216343  1.0
  O  O22  1  0.00000000  0.50000000  0.80752099  1.0
  O  O23  1  0.50000000  0.00000000  0.19247901  1.0
