# generated using pymatgen
data_K3PSe16
_symmetry_space_group_name_H-M   'P 1'
_cell_length_a   11.88050241
_cell_length_b   11.88050241
_cell_length_c   11.88050241
_cell_angle_alpha   60.00000000
_cell_angle_beta   60.00000000
_cell_angle_gamma   60.00000000
_symmetry_Int_Tables_number   1
_chemical_formula_structural   K3PSe16
_chemical_formula_sum   'K6 P2 Se32'
_cell_volume   1185.73986718
_cell_formula_units_Z   2
loop_
 _symmetry_equiv_pos_site_id
 _symmetry_equiv_pos_as_xyz
  1  'x, y, z'
loop_
 _atom_site_type_symbol
 _atom_site_label
 _atom_site_symmetry_multiplicity
 _atom_site_fract_x
 _atom_site_fract_y
 _atom_site_fract_z
 _atom_site_occupancy
  K  K0  1  0.12500000  1.12500000  0.12500000  1.0
  K  K1  1  0.62500000  0.12500000  0.12500000  1.0
  K  K2  1  0.12500000  0.12500000  0.62500000  1.0
  K  K3  1  0.12500000  0.62500000  0.12500000  1.0
  K  K4  1  -0.25000000  0.75000000  0.75000000  1.0
  K  K5  1  0.50000000  0.50000000  0.50000000  1.0
  P  P6  1  0.00000000  0.00000000  1.00000000  1.0
  P  P7  1  0.25000000  1.25000000  0.25000000  1.0
  Se  Se8  1  -0.18352578  1.07257003  0.44962790  1.0
  Se  Se9  1  -0.33867215  0.44962790  1.07257003  1.0
  Se  Se10  1  0.07257003  0.81647422  0.66132785  1.0
  Se  Se11  1  -0.55037210  0.66132785  0.81647422  1.0
  Se  Se12  1  0.44962790  0.07257003  0.66132785  1.0
  Se  Se13  1  0.07257003  0.44962790  0.81647422  1.0
  Se  Se14  1  0.66132785  -0.18352578  0.44962790  1.0
  Se  Se15  1  -0.18352578  0.66132785  1.07257003  1.0
  Se  Se16  1  -0.33867215  1.07257003  0.81647422  1.0
  Se  Se17  1  -0.18352578  0.44962790  0.66132785  1.0
  Se  Se18  1  -0.55037210  0.81647422  1.07257003  1.0
  Se  Se19  1  0.07257003  0.66132785  0.44962790  1.0
  Se  Se20  1  0.43352578  0.17742997  0.80037210  1.0
  Se  Se21  1  0.58867215  0.80037210  0.17742997  1.0
  Se  Se22  1  0.17742997  0.43352578  0.58867215  1.0
  Se  Se23  1  0.80037210  0.58867215  0.43352578  1.0
  Se  Se24  1  -0.19962790  1.17742997  0.58867215  1.0
  Se  Se25  1  0.17742997  0.80037210  0.43352578  1.0
  Se  Se26  1  0.58867215  0.43352578  -0.19962790  1.0
  Se  Se27  1  0.43352578  0.58867215  0.17742997  1.0
  Se  Se28  1  0.58867215  0.17742997  0.43352578  1.0
  Se  Se29  1  0.43352578  0.80037210  0.58867215  1.0
  Se  Se30  1  0.80037210  0.43352578  0.17742997  1.0
  Se  Se31  1  0.17742997  0.58867215  0.80037210  1.0
  Se  Se32  1  0.92315546  -0.07684454  0.23053362  1.0
  Se  Se33  1  -0.07684454  0.23053362  0.92315546  1.0
  Se  Se34  1  -0.07684454  0.92315546  0.92315546  1.0
  Se  Se35  1  0.23053362  -0.07684454  0.92315546  1.0
  Se  Se36  1  0.32684454  0.32684454  0.01946638  1.0
  Se  Se37  1  0.32684454  1.01946638  0.32684454  1.0
  Se  Se38  1  0.32684454  0.32684454  0.32684454  1.0
  Se  Se39  1  0.01946638  1.32684454  0.32684454  1.0
