# generated using pymatgen
data_Ni2Te3O8
_symmetry_space_group_name_H-M   'P 1'
_cell_length_a   6.81087503
_cell_length_b   6.81087503
_cell_length_c   11.54181119
_cell_angle_alpha   82.25593584
_cell_angle_beta   97.74406416
_cell_angle_gamma   134.26817860
_symmetry_Int_Tables_number   1
_chemical_formula_structural   Ni2Te3O8
_chemical_formula_sum   'Ni4 Te6 O16'
_cell_volume   379.26896523
_cell_formula_units_Z   2
loop_
 _symmetry_equiv_pos_site_id
 _symmetry_equiv_pos_as_xyz
  1  'x, y, z'
loop_
 _atom_site_type_symbol
 _atom_site_label
 _atom_site_symmetry_multiplicity
 _atom_site_fract_x
 _atom_site_fract_y
 _atom_site_fract_z
 _atom_site_occupancy
  O  O0  1  0.72747354  -0.04791380  0.87170526  1.0
  O  O1  1  1.04791380  0.27252646  0.37170526  1.0
  O  O2  1  0.95208620  0.72747354  0.62829474  1.0
  O  O3  1  0.27252646  0.04791380  0.12829474  1.0
  O  O4  1  0.72406583  0.26453471  0.47479653  1.0
  O  O5  1  0.73546529  0.27593417  0.97479653  1.0
  O  O6  1  1.26453471  0.72406583  0.02520347  1.0
  O  O7  1  0.27593417  -0.26453471  0.52520347  1.0
  O  O8  1  0.12470752  -0.05025134  0.86071255  1.0
  O  O9  1  1.05025134  0.87529248  0.36071255  1.0
  O  O10  1  0.94974866  0.12470752  0.63928745  1.0
  O  O11  1  0.87529248  0.05025134  0.13928745  1.0
  O  O12  1  0.54799319  0.15361052  0.70189636  1.0
  O  O13  1  0.84638948  0.45200681  0.20189636  1.0
  O  O14  1  1.15361052  0.54799319  0.79810364  1.0
  O  O15  1  0.45200681  -0.15361052  0.29810364  1.0
  Ni  Ni16  1  0.41170017  -0.06325247  0.85472392  1.0
  Ni  Ni17  1  1.06325247  0.58829983  0.35472392  1.0
  Ni  Ni18  1  0.93674753  0.41170017  0.64527608  1.0
  Ni  Ni19  1  0.58829983  0.06325247  0.14527608  1.0
  Te  Te20  1  0.68088685  -0.05284910  0.44639118  1.0
  Te  Te21  1  1.05284910  0.31911315  0.94639118  1.0
  Te  Te22  1  0.94715090  0.68088685  0.05360882  1.0
  Te  Te23  1  0.31911315  0.05284910  0.55360882  1.0
  Te  Te24  1  0.80706115  0.80706115  0.75000000  1.0
  Te  Te25  1  0.19293885  0.19293885  0.25000000  1.0
