# generated using pymatgen
data_Sr2SiS4
_symmetry_space_group_name_H-M   'P 1'
_cell_length_a   6.64823108
_cell_length_b   6.69101948
_cell_length_c   8.28537175
_cell_angle_alpha   90.00000000
_cell_angle_beta   108.03919267
_cell_angle_gamma   90.00000000
_symmetry_Int_Tables_number   1
_chemical_formula_structural   Sr2SiS4
_chemical_formula_sum   'Sr4 Si2 S8'
_cell_volume   350.44517656
_cell_formula_units_Z   2
loop_
 _symmetry_equiv_pos_site_id
 _symmetry_equiv_pos_as_xyz
  1  'x, y, z'
loop_
 _atom_site_type_symbol
 _atom_site_label
 _atom_site_symmetry_multiplicity
 _atom_site_fract_x
 _atom_site_fract_y
 _atom_site_fract_z
 _atom_site_occupancy
  Sr  Sr0  1  0.78185859  0.75000000  0.45113780  1.0
  Sr  Sr1  1  0.21814141  0.25000000  0.54886220  1.0
  Sr  Sr2  1  0.72966417  0.75000000  0.93148154  1.0
  Sr  Sr3  1  0.27033583  0.25000000  0.06851846  1.0
  Si  Si4  1  0.22373233  0.75000000  0.29818580  1.0
  Si  Si5  1  0.77626767  0.25000000  0.70181420  1.0
  S  S6  1  0.98827163  1.00166025  0.76160665  1.0
  S  S7  1  0.98827163  0.49833975  0.76160665  1.0
  S  S8  1  0.01172837  0.50166025  0.23839335  1.0
  S  S9  1  0.01172837  -0.00166025  0.23839335  1.0
  S  S10  1  0.41862597  0.75000000  0.13510116  1.0
  S  S11  1  0.58137403  0.25000000  0.86489884  1.0
  S  S12  1  0.38873119  0.75000000  0.56328506  1.0
  S  S13  1  0.61126881  0.25000000  0.43671494  1.0
