# generated using pymatgen
data_Cs2Ga6Ge3Te14
_symmetry_space_group_name_H-M   'P 1'
_cell_length_a   8.41387260
_cell_length_b   8.41387260
_cell_length_c   14.73248132
_cell_angle_alpha   90.00000000
_cell_angle_beta   90.00000000
_cell_angle_gamma   120.00000000
_symmetry_Int_Tables_number   1
_chemical_formula_structural   Cs2Ga6Ge3Te14
_chemical_formula_sum   'Cs2 Ga6 Ge3 Te14'
_cell_volume   903.23008386
_cell_formula_units_Z   1
loop_
 _symmetry_equiv_pos_site_id
 _symmetry_equiv_pos_as_xyz
  1  'x, y, z'
loop_
 _atom_site_type_symbol
 _atom_site_label
 _atom_site_symmetry_multiplicity
 _atom_site_fract_x
 _atom_site_fract_y
 _atom_site_fract_z
 _atom_site_occupancy
  Cs  Cs0  1  0.33333333  0.66666667  0.64280927  1.0
  Cs  Cs1  1  0.66666667  0.33333333  0.35719073  1.0
  Ga  Ga2  1  0.67895534  0.83947767  0.19426246  1.0
  Ga  Ga3  1  0.83947767  0.67895534  0.80573754  1.0
  Ga  Ga4  1  0.83947767  0.16052233  0.80573754  1.0
  Ga  Ga5  1  0.16052233  0.83947767  0.19426246  1.0
  Ga  Ga6  1  0.16052233  0.32104466  0.19426246  1.0
  Ga  Ga7  1  0.32104466  0.16052233  0.80573754  1.0
  Ge  Ge8  1  0.00000000  0.00000000  0.00000000  1.0
  Ge  Ge9  1  0.00000000  0.00000000  0.41549899  1.0
  Ge  Ge10  1  0.00000000  0.00000000  0.58450101  1.0
  Te  Te11  1  0.33333333  0.66666667  0.12468172  1.0
  Te  Te12  1  0.66666667  0.33333333  0.87531828  1.0
  Te  Te13  1  0.34228868  0.17114434  0.11934918  1.0
  Te  Te14  1  0.17114434  0.34228868  0.88065082  1.0
  Te  Te15  1  0.17114434  0.82885566  0.88065082  1.0
  Te  Te16  1  0.82885566  0.17114434  0.11934918  1.0
  Te  Te17  1  0.82885566  0.65771132  0.11934918  1.0
  Te  Te18  1  0.65771132  0.82885566  0.88065082  1.0
  Te  Te19  1  0.65103988  0.82551994  0.37313593  1.0
  Te  Te20  1  0.82551994  0.65103988  0.62686407  1.0
  Te  Te21  1  0.82551994  0.17448006  0.62686407  1.0
  Te  Te22  1  0.17448006  0.82551994  0.37313593  1.0
  Te  Te23  1  0.17448006  0.34896012  0.37313593  1.0
  Te  Te24  1  0.34896012  0.17448006  0.62686407  1.0
