# generated using pymatgen
data_BaIn2(P2O7)2
_symmetry_space_group_name_H-M   'P 1'
_cell_length_a   7.76398831
_cell_length_b   7.76398831
_cell_length_c   10.10349880
_cell_angle_alpha   80.24950477
_cell_angle_beta   99.75049523
_cell_angle_gamma   91.12071182
_symmetry_Int_Tables_number   1
_chemical_formula_structural   BaIn2(P2O7)2
_chemical_formula_sum   'Ba2 In4 P8 O28'
_cell_volume   591.53950863
_cell_formula_units_Z   2
loop_
 _symmetry_equiv_pos_site_id
 _symmetry_equiv_pos_as_xyz
  1  'x, y, z'
loop_
 _atom_site_type_symbol
 _atom_site_label
 _atom_site_symmetry_multiplicity
 _atom_site_fract_x
 _atom_site_fract_y
 _atom_site_fract_z
 _atom_site_occupancy
  Ba  Ba0  1  1.50000000  0.00000000  -0.00000000  1.0
  Ba  Ba1  1  1.00000000  0.50000000  0.50000000  1.0
  In  In2  1  0.55032631  0.55032631  0.75000000  1.0
  In  In3  1  0.44967369  0.44967369  0.25000000  1.0
  In  In4  1  -0.00000000  0.00000000  -0.00000000  1.0
  In  In5  1  -0.00000000  0.00000000  0.50000000  1.0
  P  P6  1  0.73151166  0.18102026  0.70111335  1.0
  P  P7  1  0.81897974  0.26848834  0.20111335  1.0
  P  P8  1  1.18102026  -0.26848834  0.79888665  1.0
  P  P9  1  1.26848834  -0.18102026  0.29888665  1.0
  P  P10  1  1.25313016  -0.63315033  0.94190201  1.0
  P  P11  1  1.63315033  -0.25313016  0.44190201  1.0
  P  P12  1  0.36684967  0.25313016  0.55809799  1.0
  P  P13  1  0.74686984  0.63315033  0.05809799  1.0
  O  O14  1  1.80242802  -0.16065519  0.40997757  1.0
  O  O15  1  1.16065519  -0.80242802  0.90997757  1.0
  O  O16  1  0.83934481  0.80242802  0.09002243  1.0
  O  O17  1  0.19757198  0.16065519  0.59002243  1.0
  O  O18  1  1.60833374  -0.25470861  0.58840547  1.0
  O  O19  1  1.25470861  -0.60833374  0.08840547  1.0
  O  O20  1  0.74529139  0.60833374  0.91159453  1.0
  O  O21  1  0.39166626  0.25470861  0.41159453  1.0
  O  O22  1  0.77538124  0.05297356  0.83649843  1.0
  O  O23  1  0.94702644  0.22461876  0.33649843  1.0
  O  O24  1  1.05297356  -0.22461876  0.66350157  1.0
  O  O25  1  1.22461876  -0.05297356  0.16350157  1.0
  O  O26  1  0.83029691  0.14965528  0.58880873  1.0
  O  O27  1  0.85034472  0.16970309  0.08880873  1.0
  O  O28  1  1.14965528  -0.16970309  0.91119127  1.0
  O  O29  1  1.16970309  -0.14965528  0.41119127  1.0
  O  O30  1  1.37610820  -0.25339167  0.78716017  1.0
  O  O31  1  1.25339167  -0.37610820  0.28716017  1.0
  O  O32  1  0.74660833  0.37610820  0.71283983  1.0
  O  O33  1  0.62389180  0.25339167  0.21283983  1.0
  O  O34  1  0.52314100  0.13900639  0.66090887  1.0
  O  O35  1  0.86099361  0.47685900  0.16090887  1.0
  O  O36  1  1.13900639  -0.47685900  0.83909113  1.0
  O  O37  1  1.47685900  -0.13900639  0.33909113  1.0
  O  O38  1  0.43693223  0.36212934  0.90175916  1.0
  O  O39  1  0.63787066  0.56306777  0.40175916  1.0
  O  O40  1  1.36212934  -0.56306777  0.59824084  1.0
  O  O41  1  1.56306777  -0.36212934  0.09824084  1.0
