# generated using pymatgen
data_LaAlGe2O7
_symmetry_space_group_name_H-M   'P 1'
_cell_length_a   7.41686908
_cell_length_b   6.63204053
_cell_length_c   13.01494713
_cell_angle_alpha   90.00000000
_cell_angle_beta   117.70850777
_cell_angle_gamma   90.00000000
_symmetry_Int_Tables_number   1
_chemical_formula_structural   LaAlGe2O7
_chemical_formula_sum   'La4 Al4 Ge8 O28'
_cell_volume   566.77765658
_cell_formula_units_Z   4
loop_
 _symmetry_equiv_pos_site_id
 _symmetry_equiv_pos_as_xyz
  1  'x, y, z'
loop_
 _atom_site_type_symbol
 _atom_site_label
 _atom_site_symmetry_multiplicity
 _atom_site_fract_x
 _atom_site_fract_y
 _atom_site_fract_z
 _atom_site_occupancy
  La  La0  1  0.73981739  0.85311136  0.97384957  1.0
  La  La1  1  0.73981739  0.64688864  0.47384957  1.0
  La  La2  1  0.26018261  0.35311136  0.52615043  1.0
  La  La3  1  0.26018261  0.14688864  0.02615043  1.0
  Al  Al4  1  0.71561285  0.89683132  0.23002283  1.0
  Al  Al5  1  0.71561285  0.60316868  0.73002283  1.0
  Al  Al6  1  0.28438715  0.39683132  0.26997717  1.0
  Al  Al7  1  0.28438715  0.10316868  0.76997717  1.0
  Ge  Ge8  1  0.80282643  0.40888078  0.21726798  1.0
  Ge  Ge9  1  0.80282643  0.09111922  0.71726798  1.0
  Ge  Ge10  1  0.19717357  0.90888078  0.28273202  1.0
  Ge  Ge11  1  0.19717357  0.59111922  0.78273202  1.0
  Ge  Ge12  1  0.70682808  0.15717252  0.44783696  1.0
  Ge  Ge13  1  0.70682808  0.34282748  0.94783696  1.0
  Ge  Ge14  1  0.29317192  0.65717252  0.05216304  1.0
  Ge  Ge15  1  0.29317192  0.84282748  0.55216304  1.0
  O  O16  1  0.92978067  0.87838994  0.20008693  1.0
  O  O17  1  0.92978067  0.62161006  0.70008693  1.0
  O  O18  1  0.07021933  0.37838994  0.29991307  1.0
  O  O19  1  0.07021933  0.12161006  0.79991307  1.0
  O  O20  1  0.90498696  0.32178630  0.47476398  1.0
  O  O21  1  0.90498696  0.17821370  0.97476398  1.0
  O  O22  1  0.09501304  0.82178630  0.02523602  1.0
  O  O23  1  0.09501304  0.67821370  0.52523602  1.0
  O  O24  1  0.74614485  0.49473534  0.07099531  1.0
  O  O25  1  0.74614485  0.00526466  0.57099531  1.0
  O  O26  1  0.25385515  0.99473534  0.42900469  1.0
  O  O27  1  0.25385515  0.50526466  0.92900469  1.0
  O  O28  1  0.70188206  0.94879358  0.36258144  1.0
  O  O29  1  0.70188206  0.55120642  0.86258144  1.0
  O  O30  1  0.29811794  0.44879358  0.13741856  1.0
  O  O31  1  0.29811794  0.05120642  0.63741856  1.0
  O  O32  1  0.66379346  0.18063326  0.18726399  1.0
  O  O33  1  0.66379346  0.31936674  0.68726399  1.0
  O  O34  1  0.33620654  0.68063326  0.31273601  1.0
  O  O35  1  0.33620654  0.81936674  0.81273601  1.0
  O  O36  1  0.50454001  0.33743438  0.41170037  1.0
  O  O37  1  0.50454001  0.16256562  0.91170037  1.0
  O  O38  1  0.49545999  0.83743438  0.08829963  1.0
  O  O39  1  0.49545999  0.66256562  0.58829963  1.0
  O  O40  1  0.27232834  0.11467016  0.22460824  1.0
  O  O41  1  0.27232834  0.38532984  0.72460824  1.0
  O  O42  1  0.72767166  0.61467016  0.27539176  1.0
  O  O43  1  0.72767166  0.88532984  0.77539176  1.0
