# generated using pymatgen
data_Tb2GaCo2
_symmetry_space_group_name_H-M   'P 1'
_cell_length_a   5.32029892
_cell_length_b   5.32029892
_cell_length_c   5.32029892
_cell_angle_alpha   134.83219002
_cell_angle_beta   119.02947672
_cell_angle_gamma   79.03015882
_symmetry_Int_Tables_number   1
_chemical_formula_structural   Tb2GaCo2
_chemical_formula_sum   'Tb2 Ga1 Co2'
_cell_volume   90.53801449
_cell_formula_units_Z   1
loop_
 _symmetry_equiv_pos_site_id
 _symmetry_equiv_pos_as_xyz
  1  'x, y, z'
loop_
 _atom_site_type_symbol
 _atom_site_label
 _atom_site_symmetry_multiplicity
 _atom_site_fract_x
 _atom_site_fract_y
 _atom_site_fract_z
 _atom_site_occupancy
  Tb  Tb0  1  0.70519203  0.20519203  0.50000000  1.0
  Tb  Tb1  1  1.29480797  0.79480797  0.50000000  1.0
  Ga  Ga2  1  0.00000000  0.00000000  0.00000000  1.0
  Co  Co3  1  0.27916562  0.50000000  0.77916562  1.0
  Co  Co4  1  0.72083438  0.50000000  1.22083438  1.0
