# generated using pymatgen
data_RbMnP3HO10
_symmetry_space_group_name_H-M   'P 1'
_cell_length_a   7.51743473
_cell_length_b   7.51743473
_cell_length_c   9.19942281
_cell_angle_alpha   74.20678886
_cell_angle_beta   105.79321114
_cell_angle_gamma   111.66850671
_symmetry_Int_Tables_number   1
_chemical_formula_structural   RbMnP3HO10
_chemical_formula_sum   'Rb2 Mn2 P6 H2 O20'
_cell_volume   456.25399566
_cell_formula_units_Z   2
loop_
 _symmetry_equiv_pos_site_id
 _symmetry_equiv_pos_as_xyz
  1  'x, y, z'
loop_
 _atom_site_type_symbol
 _atom_site_label
 _atom_site_symmetry_multiplicity
 _atom_site_fract_x
 _atom_site_fract_y
 _atom_site_fract_z
 _atom_site_occupancy
  Rb  Rb0  1  0.93957233  -0.06042767  0.25000000  1.0
  Rb  Rb1  1  1.06042767  0.06042767  0.75000000  1.0
  Mn  Mn2  1  1.50000000  -0.00000000  0.50000000  1.0
  Mn  Mn3  1  1.00000000  -0.50000000  -0.00000000  1.0
  P  P4  1  0.35672177  -0.23197498  0.20657745  1.0
  P  P5  1  1.23197498  0.64327823  0.70657745  1.0
  P  P6  1  0.76802502  -0.64327823  0.29342255  1.0
  P  P7  1  1.64327823  0.23197498  0.79342255  1.0
  P  P8  1  1.36994471  0.36994471  0.25000000  1.0
  P  P9  1  0.63005529  -0.36994471  0.75000000  1.0
  H  H10  1  1.50000000  -0.00000000  -0.00000000  1.0
  H  H11  1  1.00000000  -0.50000000  0.50000000  1.0
  O  O12  1  0.52064620  -0.12129616  0.11394459  1.0
  O  O13  1  1.12129616  0.47935380  0.61394459  1.0
  O  O14  1  0.87870384  -0.47935380  0.38605541  1.0
  O  O15  1  1.47935380  0.12129616  0.88605541  1.0
  O  O16  1  1.71383388  0.14997226  0.39401762  1.0
  O  O17  1  0.85002774  -0.71383388  0.89401762  1.0
  O  O18  1  1.14997226  0.71383388  0.10598238  1.0
  O  O19  1  0.28616612  -0.14997226  0.60598238  1.0
  O  O20  1  0.35109879  -0.12878452  0.32641865  1.0
  O  O21  1  1.12878452  0.64890121  0.82641865  1.0
  O  O22  1  0.87121548  -0.64890121  0.17358135  1.0
  O  O23  1  1.64890121  0.12878452  0.67358135  1.0
  O  O24  1  1.57070858  0.40541060  0.19676358  1.0
  O  O25  1  0.59458940  -0.57070858  0.69676358  1.0
  O  O26  1  1.40541060  0.57070858  0.30323642  1.0
  O  O27  1  0.42929142  -0.40541060  0.80323642  1.0
  O  O28  1  1.34538258  0.21167338  0.39205816  1.0
  O  O29  1  0.78832662  -0.34538258  0.89205816  1.0
  O  O30  1  1.21167338  0.34538258  0.10794184  1.0
  O  O31  1  0.65461742  -0.21167338  0.60794184  1.0
