# generated using pymatgen
data_V6Si5
_symmetry_space_group_name_H-M   'P 1'
_cell_length_a   9.11126087
_cell_length_b   9.11126087
_cell_length_c   9.11126087
_cell_angle_alpha   131.59744805
_cell_angle_beta   58.43127086
_cell_angle_gamma   149.27484797
_symmetry_Int_Tables_number   1
_chemical_formula_structural   V6Si5
_chemical_formula_sum   'V12 Si10'
_cell_volume   286.78315568
_cell_formula_units_Z   2
loop_
 _symmetry_equiv_pos_site_id
 _symmetry_equiv_pos_as_xyz
  1  'x, y, z'
loop_
 _atom_site_type_symbol
 _atom_site_label
 _atom_site_symmetry_multiplicity
 _atom_site_fract_x
 _atom_site_fract_y
 _atom_site_fract_z
 _atom_site_occupancy
  V  V0  1  0.93976286  1.25000000  0.68976286  1.0
  V  V1  1  0.43976286  0.75000000  0.68976286  1.0
  V  V2  1  1.06023714  0.75000000  0.31023714  1.0
  V  V3  1  0.56023714  0.25000000  0.31023714  1.0
  V  V4  1  0.35655685  0.38646028  0.74301713  1.0
  V  V5  1  0.14344315  0.88646028  1.02990342  1.0
  V  V6  1  0.85655685  1.11353972  0.97009658  1.0
  V  V7  1  0.64344315  0.61353972  0.25698287  1.0
  V  V8  1  0.06527226  0.25313677  0.31840903  1.0
  V  V9  1  0.43472774  0.75313677  1.18786450  1.0
  V  V10  1  0.56527226  1.24686323  0.81213550  1.0
  V  V11  1  0.93472774  0.74686323  0.68159097  1.0
  Si  Si12  1  0.21397660  0.20231468  0.41629128  1.0
  Si  Si13  1  0.28602340  0.70231468  0.98833808  1.0
  Si  Si14  1  0.71397660  1.29768532  1.01166192  1.0
  Si  Si15  1  0.78602340  0.79768532  0.58370872  1.0
  Si  Si16  1  0.43619668  0.09030527  0.52650195  1.0
  Si  Si17  1  0.06380332  0.59030527  0.65410860  1.0
  Si  Si18  1  0.93619668  1.40969473  1.34589140  1.0
  Si  Si19  1  0.56380332  0.90969473  0.47349805  1.0
  Si  Si20  1  0.25000000  0.25000000  0.00000000  1.0
  Si  Si21  1  0.75000000  0.75000000  0.00000000  1.0
