# generated using pymatgen
data_Gd2Zn14Fe3
_symmetry_space_group_name_H-M   'P 1'
_cell_length_a   6.73967036
_cell_length_b   6.73967036
_cell_length_c   6.73967036
_cell_angle_alpha   82.23097146
_cell_angle_beta   82.23097146
_cell_angle_gamma   82.23097146
_symmetry_Int_Tables_number   1
_chemical_formula_structural   Gd2Zn14Fe3
_chemical_formula_sum   'Gd2 Zn14 Fe3'
_cell_volume   298.40431352
_cell_formula_units_Z   1
loop_
 _symmetry_equiv_pos_site_id
 _symmetry_equiv_pos_as_xyz
  1  'x, y, z'
loop_
 _atom_site_type_symbol
 _atom_site_label
 _atom_site_symmetry_multiplicity
 _atom_site_fract_x
 _atom_site_fract_y
 _atom_site_fract_z
 _atom_site_occupancy
  Gd  Gd0  1  0.66441916  0.66441916  -0.33558084  1.0
  Gd  Gd1  1  0.33558084  0.33558084  -0.66441916  1.0
  Zn  Zn2  1  0.34826328  0.34826328  -0.14725506  1.0
  Zn  Zn3  1  0.34826328  0.85274494  -0.65173672  1.0
  Zn  Zn4  1  1.14725506  -0.34826328  -0.34826328  1.0
  Zn  Zn5  1  0.65173672  0.14725506  -0.34826328  1.0
  Zn  Zn6  1  0.65173672  -0.34826328  0.14725506  1.0
  Zn  Zn7  1  0.85274494  0.34826328  -0.65173672  1.0
  Zn  Zn8  1  0.70794303  0.00000000  0.29205697  1.0
  Zn  Zn9  1  0.70794303  -0.70794303  -0.00000000  1.0
  Zn  Zn10  1  0.00000000  0.70794303  -0.70794303  1.0
  Zn  Zn11  1  -0.00000000  0.29205697  -0.29205697  1.0
  Zn  Zn12  1  1.29205697  -0.00000000  -0.29205697  1.0
  Zn  Zn13  1  0.29205697  -0.29205697  -0.00000000  1.0
  Zn  Zn14  1  0.89545703  0.89545703  -0.10454297  1.0
  Zn  Zn15  1  1.10454297  1.10454297  0.10454297  1.0
  Fe  Fe16  1  1.00000000  1.50000000  -0.00000000  1.0
  Fe  Fe17  1  1.00000000  0.00000000  -0.50000000  1.0
  Fe  Fe18  1  0.50000000  0.00000000  0.00000000  1.0
