# generated using pymatgen
data_LiMg4H13Os2
_symmetry_space_group_name_H-M   'P 1'
_cell_length_a   4.71619752
_cell_length_b   4.71619752
_cell_length_c   18.44109596
_cell_angle_alpha   90.00000000
_cell_angle_beta   90.00000000
_cell_angle_gamma   120.00000000
_symmetry_Int_Tables_number   1
_chemical_formula_structural   LiMg4H13Os2
_chemical_formula_sum   'Li2 Mg8 H26 Os4'
_cell_volume   355.22320610
_cell_formula_units_Z   2
loop_
 _symmetry_equiv_pos_site_id
 _symmetry_equiv_pos_as_xyz
  1  'x, y, z'
loop_
 _atom_site_type_symbol
 _atom_site_label
 _atom_site_symmetry_multiplicity
 _atom_site_fract_x
 _atom_site_fract_y
 _atom_site_fract_z
 _atom_site_occupancy
  Li  Li0  1  0.33333333  0.66666667  0.25000000  1.0
  Li  Li1  1  0.66666667  0.33333333  0.75000000  1.0
  Mg  Mg2  1  0.33333333  0.66666667  0.94740825  1.0
  Mg  Mg3  1  0.33333333  0.66666667  0.55259175  1.0
  Mg  Mg4  1  0.66666667  0.33333333  0.44740825  1.0
  Mg  Mg5  1  0.66666667  0.33333333  0.05259175  1.0
  Mg  Mg6  1  0.00000000  0.00000000  0.35084461  1.0
  Mg  Mg7  1  0.00000000  0.00000000  0.14915539  1.0
  Mg  Mg8  1  0.00000000  0.00000000  0.85084461  1.0
  Mg  Mg9  1  0.00000000  0.00000000  0.64915539  1.0
  H  H10  1  0.16422867  0.83577133  0.44883570  1.0
  H  H11  1  0.16422867  0.83577133  0.05116430  1.0
  H  H12  1  0.16422867  0.32845734  0.44883570  1.0
  H  H13  1  0.16422867  0.32845734  0.05116430  1.0
  H  H14  1  0.83577133  0.16422867  0.94883570  1.0
  H  H15  1  0.83577133  0.16422867  0.55116430  1.0
  H  H16  1  0.83577133  0.67154266  0.94883570  1.0
  H  H17  1  0.83577133  0.67154266  0.55116430  1.0
  H  H18  1  0.67154266  0.83577133  0.44883570  1.0
  H  H19  1  0.67154266  0.83577133  0.05116430  1.0
  H  H20  1  0.32845734  0.16422867  0.94883570  1.0
  H  H21  1  0.32845734  0.16422867  0.55116430  1.0
  H  H22  1  0.50055506  0.49944494  0.83939435  1.0
  H  H23  1  0.50055506  0.49944494  0.66060565  1.0
  H  H24  1  0.50055506  0.00111012  0.83939435  1.0
  H  H25  1  0.50055506  0.00111012  0.66060565  1.0
  H  H26  1  0.49944494  0.50055506  0.33939435  1.0
  H  H27  1  0.49944494  0.50055506  0.16060565  1.0
  H  H28  1  0.49944494  0.99888988  0.33939435  1.0
  H  H29  1  0.49944494  0.99888988  0.16060565  1.0
  H  H30  1  0.99888988  0.49944494  0.83939435  1.0
  H  H31  1  0.99888988  0.49944494  0.66060565  1.0
  H  H32  1  0.00111012  0.50055506  0.33939435  1.0
  H  H33  1  0.00111012  0.50055506  0.16060565  1.0
  H  H34  1  0.00000000  0.00000000  0.25000000  1.0
  H  H35  1  0.00000000  0.00000000  0.75000000  1.0
  Os  Os36  1  0.33333333  0.66666667  0.39541738  1.0
  Os  Os37  1  0.33333333  0.66666667  0.10458262  1.0
  Os  Os38  1  0.66666667  0.33333333  0.89541738  1.0
  Os  Os39  1  0.66666667  0.33333333  0.60458262  1.0
