# generated using pymatgen
data_SmGaPd
_symmetry_space_group_name_H-M   'P 1'
_cell_length_a   7.18743893
_cell_length_b   4.53911366
_cell_length_c   7.78125022
_cell_angle_alpha   90.00000000
_cell_angle_beta   90.00000000
_cell_angle_gamma   90.00000000
_symmetry_Int_Tables_number   1
_chemical_formula_structural   SmGaPd
_chemical_formula_sum   'Sm4 Ga4 Pd4'
_cell_volume   253.86019319
_cell_formula_units_Z   4
loop_
 _symmetry_equiv_pos_site_id
 _symmetry_equiv_pos_as_xyz
  1  'x, y, z'
loop_
 _atom_site_type_symbol
 _atom_site_label
 _atom_site_symmetry_multiplicity
 _atom_site_fract_x
 _atom_site_fract_y
 _atom_site_fract_z
 _atom_site_occupancy
  Sm  Sm0  1  1.01968623  0.75000000  0.69218206  1.0
  Sm  Sm1  1  0.51968623  0.75000000  0.80781794  1.0
  Sm  Sm2  1  -0.01968623  0.25000000  0.30781794  1.0
  Sm  Sm3  1  0.48031377  0.25000000  0.19218206  1.0
  Ga  Ga4  1  0.66784475  0.75000000  0.42462654  1.0
  Ga  Ga5  1  0.16784475  0.75000000  0.07537346  1.0
  Ga  Ga6  1  0.33215525  0.25000000  0.57537346  1.0
  Ga  Ga7  1  0.83215525  0.25000000  0.92462654  1.0
  Pd  Pd8  1  0.79109948  0.75000000  0.10084430  1.0
  Pd  Pd9  1  0.29109948  0.75000000  0.39915570  1.0
  Pd  Pd10  1  0.20890052  0.25000000  0.89915570  1.0
  Pd  Pd11  1  0.70890052  0.25000000  0.60084430  1.0
