# generated using pymatgen
data_ZnH3CNO3
_symmetry_space_group_name_H-M   'P 1'
_cell_length_a   9.60817687
_cell_length_b   7.56768889
_cell_length_c   5.48455454
_cell_angle_alpha   90.00000000
_cell_angle_beta   90.00000000
_cell_angle_gamma   90.00000000
_symmetry_Int_Tables_number   1
_chemical_formula_structural   ZnH3CNO3
_chemical_formula_sum   'Zn4 H12 C4 N4 O12'
_cell_volume   398.79124786
_cell_formula_units_Z   4
loop_
 _symmetry_equiv_pos_site_id
 _symmetry_equiv_pos_as_xyz
  1  'x, y, z'
loop_
 _atom_site_type_symbol
 _atom_site_label
 _atom_site_symmetry_multiplicity
 _atom_site_fract_x
 _atom_site_fract_y
 _atom_site_fract_z
 _atom_site_occupancy
  C  C0  1  0.38179642  0.65413937  0.59940890  1.0
  C  C1  1  0.88179642  0.84586063  0.59940890  1.0
  C  C2  1  0.61820358  0.34586063  0.09940890  1.0
  C  C3  1  0.11820358  0.15413937  0.09940890  1.0
  O  O4  1  0.34200112  0.78972050  0.72796286  1.0
  O  O5  1  0.84200112  0.71027950  0.72796286  1.0
  O  O6  1  0.65799888  0.21027950  0.22796286  1.0
  O  O7  1  0.15799888  0.28972050  0.22796286  1.0
  O  O8  1  0.29067759  0.55419893  0.49787589  1.0
  O  O9  1  0.79067759  0.94580107  0.49787589  1.0
  O  O10  1  0.70932241  0.44580107  -0.00212411  1.0
  O  O11  1  0.20932241  0.05419893  -0.00212411  1.0
  O  O12  1  0.01418848  0.87651588  0.57042324  1.0
  O  O13  1  0.51418848  0.62348412  0.57042324  1.0
  O  O14  1  0.98581152  0.12348412  0.07042324  1.0
  O  O15  1  0.48581152  0.37651588  0.07042324  1.0
  Zn  Zn16  1  0.14833810  0.82885587  0.83746008  1.0
  Zn  Zn17  1  0.64833810  0.67114413  0.83746008  1.0
  Zn  Zn18  1  0.85166190  0.17114413  0.33746008  1.0
  Zn  Zn19  1  0.35166190  0.32885587  0.33746008  1.0
  N  N20  1  0.43541399  0.16969076  0.59262686  1.0
  N  N21  1  0.93541399  0.33030924  0.59262686  1.0
  N  N22  1  0.56458601  0.83030924  0.09262686  1.0
  N  N23  1  0.06458601  0.66969076  0.09262686  1.0
  H  H24  1  0.55934715  0.76516197  0.25712195  1.0
  H  H25  1  1.05934715  0.73483803  0.25712195  1.0
  H  H26  1  0.44065285  0.23483803  0.75712195  1.0
  H  H27  1  -0.05934715  0.26516197  0.75712195  1.0
  H  H28  1  0.46518291  0.85242619  0.03116891  1.0
  H  H29  1  0.96518291  0.64757381  0.03116891  1.0
  H  H30  1  0.53481709  0.14757381  0.53116891  1.0
  H  H31  1  0.03481709  0.35242619  0.53116891  1.0
  H  H32  1  0.38963896  0.04919855  0.62425130  1.0
  H  H33  1  0.88963896  0.45080145  0.62425130  1.0
  H  H34  1  0.61036104  0.95080145  0.12425130  1.0
  H  H35  1  0.11036104  0.54919855  0.12425130  1.0
