# generated using pymatgen
data_AgBiSCl2
_symmetry_space_group_name_H-M   'P 1'
_cell_length_a   7.36482996
_cell_length_b   7.36482996
_cell_length_c   8.70379070
_cell_angle_alpha   90.00000000
_cell_angle_beta   90.00000000
_cell_angle_gamma   147.89703444
_symmetry_Int_Tables_number   1
_chemical_formula_structural   AgBiSCl2
_chemical_formula_sum   'Ag2 Bi2 S2 Cl4'
_cell_volume   250.89390332
_cell_formula_units_Z   2
loop_
 _symmetry_equiv_pos_site_id
 _symmetry_equiv_pos_as_xyz
  1  'x, y, z'
loop_
 _atom_site_type_symbol
 _atom_site_label
 _atom_site_symmetry_multiplicity
 _atom_site_fract_x
 _atom_site_fract_y
 _atom_site_fract_z
 _atom_site_occupancy
  Ag  Ag0  1  0.00000000  0.00000000  0.00000000  1.0
  Ag  Ag1  1  0.00000000  0.00000000  0.50000000  1.0
  Bi  Bi2  1  -0.29170816  0.29170816  0.75000000  1.0
  Bi  Bi3  1  0.29170816  0.70829184  0.25000000  1.0
  S  S4  1  0.08202093  0.91797907  0.75000000  1.0
  S  S5  1  -0.08202093  0.08202093  0.25000000  1.0
  Cl  Cl6  1  0.34081435  0.65918565  0.93721067  1.0
  Cl  Cl7  1  0.34081435  0.65918565  0.56278933  1.0
  Cl  Cl8  1  -0.34081435  0.34081435  0.43721067  1.0
  Cl  Cl9  1  -0.34081435  0.34081435  0.06278933  1.0
