# generated using pymatgen
data_NaAlH2
_symmetry_space_group_name_H-M   'P 1'
_cell_length_a   6.93956257
_cell_length_b   6.93956257
_cell_length_c   6.93956257
_cell_angle_alpha   128.22871850
_cell_angle_beta   128.22871850
_cell_angle_gamma   76.25480516
_symmetry_Int_Tables_number   1
_chemical_formula_structural   NaAlH2
_chemical_formula_sum   'Na4 Al4 H8'
_cell_volume   200.42531821
_cell_formula_units_Z   4
loop_
 _symmetry_equiv_pos_site_id
 _symmetry_equiv_pos_as_xyz
  1  'x, y, z'
loop_
 _atom_site_type_symbol
 _atom_site_label
 _atom_site_symmetry_multiplicity
 _atom_site_fract_x
 _atom_site_fract_y
 _atom_site_fract_z
 _atom_site_occupancy
  Na  Na0  1  0.37500000  0.62500000  0.75000000  1.0
  Na  Na1  1  0.87500000  0.62500000  1.25000000  1.0
  Na  Na2  1  0.37500000  1.12500000  0.75000000  1.0
  Na  Na3  1  0.37500000  0.62500000  0.25000000  1.0
  Al  Al4  1  0.87500000  0.12500000  0.75000000  1.0
  Al  Al5  1  0.37500000  0.12500000  0.25000000  1.0
  Al  Al6  1  0.87500000  0.62500000  0.75000000  1.0
  Al  Al7  1  0.87500000  1.12500000  1.25000000  1.0
  H  H8  1  1.17509007  0.99108028  1.81605854  1.0
  H  H9  1  0.57497826  0.89096848  1.31605854  1.0
  H  H10  1  1.00891972  0.82497826  1.18400979  1.0
  H  H11  1  1.10903152  1.42509007  1.68400979  1.0
  H  H12  1  0.17502174  0.35903152  0.18394146  1.0
  H  H13  1  0.57490993  0.25891972  0.68394146  1.0
  H  H14  1  0.64096848  0.82490993  0.81599021  1.0
  H  H15  1  0.74108028  0.42502174  0.31599021  1.0
