# generated using pymatgen
data_EuMoO4F
_symmetry_space_group_name_H-M   'P 1'
_cell_length_a   5.36459089
_cell_length_b   12.62247375
_cell_length_c   6.82341415
_cell_angle_alpha   90.00000000
_cell_angle_beta   112.51033715
_cell_angle_gamma   90.00000000
_symmetry_Int_Tables_number   1
_chemical_formula_structural   EuMoO4F
_chemical_formula_sum   'Eu4 Mo4 O16 F4'
_cell_volume   426.84057646
_cell_formula_units_Z   4
loop_
 _symmetry_equiv_pos_site_id
 _symmetry_equiv_pos_as_xyz
  1  'x, y, z'
loop_
 _atom_site_type_symbol
 _atom_site_label
 _atom_site_symmetry_multiplicity
 _atom_site_fract_x
 _atom_site_fract_y
 _atom_site_fract_z
 _atom_site_occupancy
  Eu  Eu0  1  0.63673908  0.05516931  0.29808904  1.0
  Eu  Eu1  1  0.63673908  0.44483069  0.79808904  1.0
  Eu  Eu2  1  0.36326092  0.55516931  0.20191096  1.0
  Eu  Eu3  1  0.36326092  0.94483069  0.70191096  1.0
  Mo  Mo4  1  0.92532634  0.35819485  0.37091360  1.0
  Mo  Mo5  1  0.92532634  0.14180515  0.87091360  1.0
  Mo  Mo6  1  0.07467366  0.85819485  0.12908640  1.0
  Mo  Mo7  1  0.07467366  0.64180515  0.62908640  1.0
  O  O8  1  0.00539102  0.92891480  0.33419254  1.0
  O  O9  1  0.00539102  0.57108520  0.83419254  1.0
  O  O10  1  0.99460898  0.42891480  0.16580746  1.0
  O  O11  1  0.99460898  0.07108520  0.66580746  1.0
  O  O12  1  0.80657946  0.22865903  0.29354180  1.0
  O  O13  1  0.80657946  0.27134097  0.79354180  1.0
  O  O14  1  0.19342054  0.72865903  0.20645820  1.0
  O  O15  1  0.19342054  0.77134097  0.70645820  1.0
  O  O16  1  0.76777390  0.65415957  0.41341322  1.0
  O  O17  1  0.76777390  0.84584043  0.91341322  1.0
  O  O18  1  0.23222610  0.15415957  0.08658678  1.0
  O  O19  1  0.23222610  0.34584043  0.58658678  1.0
  O  O20  1  0.70431513  0.43547028  0.46366756  1.0
  O  O21  1  0.70431513  0.06452972  0.96366756  1.0
  O  O22  1  0.29568487  0.93547028  0.03633244  1.0
  O  O23  1  0.29568487  0.56452972  0.53633244  1.0
  F  F24  1  0.45743821  0.40239778  0.04258658  1.0
  F  F25  1  0.45743821  0.09760222  0.54258658  1.0
  F  F26  1  0.54256179  0.90239778  0.45741342  1.0
  F  F27  1  0.54256179  0.59760222  0.95741342  1.0
