# generated using pymatgen
data_VRe2O9
_symmetry_space_group_name_H-M   'P 1'
_cell_length_a   8.16303414
_cell_length_b   8.16303414
_cell_length_c   9.22016854
_cell_angle_alpha   90.00000000
_cell_angle_beta   90.00000000
_cell_angle_gamma   139.04119242
_symmetry_Int_Tables_number   1
_chemical_formula_structural   VRe2O9
_chemical_formula_sum   'V2 Re4 O18'
_cell_volume   402.74073537
_cell_formula_units_Z   2
loop_
 _symmetry_equiv_pos_site_id
 _symmetry_equiv_pos_as_xyz
  1  'x, y, z'
loop_
 _atom_site_type_symbol
 _atom_site_label
 _atom_site_symmetry_multiplicity
 _atom_site_fract_x
 _atom_site_fract_y
 _atom_site_fract_z
 _atom_site_occupancy
  Re  Re0  1  0.01456587  0.98543413  0.66706819  1.0
  Re  Re1  1  -0.01456587  0.01456587  0.16706819  1.0
  Re  Re2  1  0.27019577  0.72980423  0.98724689  1.0
  Re  Re3  1  -0.27019577  0.27019577  0.48724689  1.0
  O  O4  1  0.04459906  0.46566001  0.53116617  1.0
  O  O5  1  0.46566001  1.04459906  0.03116617  1.0
  O  O6  1  0.53433999  0.95540094  0.53116617  1.0
  O  O7  1  -0.04459906  0.53433999  0.03116617  1.0
  O  O8  1  0.20040963  0.30576243  0.67645233  1.0
  O  O9  1  0.30576243  1.20040963  0.17645233  1.0
  O  O10  1  0.69423757  0.79959037  0.67645233  1.0
  O  O11  1  -0.20040963  0.69423757  0.17645233  1.0
  O  O12  1  0.07208068  0.92791932  0.50731304  1.0
  O  O13  1  -0.07208068  0.07208068  0.00731304  1.0
  O  O14  1  0.08794096  0.91205904  0.80856463  1.0
  O  O15  1  -0.08794096  0.08794096  0.30856463  1.0
  O  O16  1  0.29987634  0.70012366  0.80548023  1.0
  O  O17  1  -0.29987634  0.29987634  0.30548023  1.0
  O  O18  1  -0.36288456  0.36288456  0.59150772  1.0
  O  O19  1  0.36288456  0.63711544  0.09150772  1.0
  O  O20  1  -0.42965348  0.42965348  0.92480739  1.0
  O  O21  1  0.42965348  0.57034652  0.42480739  1.0
  V  V22  1  0.37970366  0.62029634  0.57377492  1.0
  V  V23  1  -0.37970366  0.37970366  0.07377492  1.0
