# generated using pymatgen
data_BaPSe3
_symmetry_space_group_name_H-M   'P 1'
_cell_length_a   7.14771678
_cell_length_b   8.13336018
_cell_length_c   12.49886913
_cell_angle_alpha   90.00000000
_cell_angle_beta   123.77557191
_cell_angle_gamma   90.00000000
_symmetry_Int_Tables_number   1
_chemical_formula_structural   BaPSe3
_chemical_formula_sum   'Ba4 P4 Se12'
_cell_volume   603.98321168
_cell_formula_units_Z   4
loop_
 _symmetry_equiv_pos_site_id
 _symmetry_equiv_pos_as_xyz
  1  'x, y, z'
loop_
 _atom_site_type_symbol
 _atom_site_label
 _atom_site_symmetry_multiplicity
 _atom_site_fract_x
 _atom_site_fract_y
 _atom_site_fract_z
 _atom_site_occupancy
  Ba  Ba0  1  0.70636645  0.09826625  0.24749765  1.0
  Ba  Ba1  1  0.70636645  0.40173375  0.74749765  1.0
  Ba  Ba2  1  0.29363355  0.59826625  0.25250235  1.0
  Ba  Ba3  1  0.29363355  0.90173375  0.75250235  1.0
  P  P4  1  0.39026443  0.10746840  0.43899029  1.0
  P  P5  1  0.39026443  0.39253160  0.93899029  1.0
  P  P6  1  0.60973557  0.60746840  0.06100971  1.0
  P  P7  1  0.60973557  0.89253160  0.56100971  1.0
  Se  Se8  1  0.83174122  0.51214271  0.25841592  1.0
  Se  Se9  1  0.83174122  0.98785729  0.75841592  1.0
  Se  Se10  1  0.16825878  0.01214271  0.24158408  1.0
  Se  Se11  1  0.16825878  0.48785729  0.74158408  1.0
  Se  Se12  1  0.78380585  0.80075720  0.47149553  1.0
  Se  Se13  1  0.78380585  0.69924280  0.97149553  1.0
  Se  Se14  1  0.21619415  0.30075720  0.02850447  1.0
  Se  Se15  1  0.21619415  0.19924280  0.52850447  1.0
  Se  Se16  1  0.63226900  0.29379175  0.45796155  1.0
  Se  Se17  1  0.63226900  0.20620825  0.95796155  1.0
  Se  Se18  1  0.36773100  0.79379175  0.04203845  1.0
  Se  Se19  1  0.36773100  0.70620825  0.54203845  1.0
