# generated using pymatgen
data_W11O12
_symmetry_space_group_name_H-M   'P 1'
_cell_length_a   9.54520779
_cell_length_b   9.54520779
_cell_length_c   5.41549239
_cell_angle_alpha   90.00000000
_cell_angle_beta   90.00000000
_cell_angle_gamma   146.42818263
_symmetry_Int_Tables_number   1
_chemical_formula_structural   W11O12
_chemical_formula_sum   'W11 O12'
_cell_volume   272.84723051
_cell_formula_units_Z   1
loop_
 _symmetry_equiv_pos_site_id
 _symmetry_equiv_pos_as_xyz
  1  'x, y, z'
loop_
 _atom_site_type_symbol
 _atom_site_label
 _atom_site_symmetry_multiplicity
 _atom_site_fract_x
 _atom_site_fract_y
 _atom_site_fract_z
 _atom_site_occupancy
  W  W0  1  -0.15864522  0.66470593  0.37629204  1.0
  W  W1  1  0.66470593  0.84135478  0.37629204  1.0
  W  W2  1  0.33529407  1.15864522  0.37629204  1.0
  W  W3  1  0.15864522  0.33529407  0.37629204  1.0
  W  W4  1  0.16455077  0.83544923  -0.02616238  1.0
  W  W5  1  -0.16455077  0.16455077  -0.02616238  1.0
  W  W6  1  0.27870871  0.72129129  0.37104415  1.0
  W  W7  1  -0.27870871  0.27870871  0.37104415  1.0
  W  W8  1  0.36297610  0.63702390  -0.20672089  1.0
  W  W9  1  -0.36297610  0.36297610  -0.20672089  1.0
  W  W10  1  0.00000000  0.00000000  0.00385191  1.0
  O  O11  1  -0.18673731  0.66331282  -0.02315776  1.0
  O  O12  1  0.66331282  0.81326269  -0.02315776  1.0
  O  O13  1  0.33668718  1.18673731  -0.02315776  1.0
  O  O14  1  0.18673731  0.33668718  -0.02315776  1.0
  O  O15  1  0.13143033  0.86856967  0.60671334  1.0
  O  O16  1  -0.13143033  0.13143033  0.60671334  1.0
  O  O17  1  0.25972680  0.74027320  0.72129066  1.0
  O  O18  1  -0.25972680  0.25972680  0.72129066  1.0
  O  O19  1  -0.00000000  0.50000000  0.09590080  1.0
  O  O20  1  0.50000000  1.00000000  0.09590080  1.0
  O  O21  1  0.50000000  0.50000000  0.35423472  1.0
  O  O22  1  0.00000000  0.00000000  0.60524487  1.0
