# generated using pymatgen
data_SrMgPt
_symmetry_space_group_name_H-M   'P 1'
_cell_length_a   7.61861237
_cell_length_b   4.43908408
_cell_length_c   8.66319656
_cell_angle_alpha   90.00000000
_cell_angle_beta   90.00000000
_cell_angle_gamma   90.00000000
_symmetry_Int_Tables_number   1
_chemical_formula_structural   SrMgPt
_chemical_formula_sum   'Sr4 Mg4 Pt4'
_cell_volume   292.98636962
_cell_formula_units_Z   4
loop_
 _symmetry_equiv_pos_site_id
 _symmetry_equiv_pos_as_xyz
  1  'x, y, z'
loop_
 _atom_site_type_symbol
 _atom_site_label
 _atom_site_symmetry_multiplicity
 _atom_site_fract_x
 _atom_site_fract_y
 _atom_site_fract_z
 _atom_site_occupancy
  Sr  Sr0  1  0.97219085  0.75000000  0.67779088  1.0
  Sr  Sr1  1  0.47219085  0.75000000  0.82220912  1.0
  Sr  Sr2  1  0.02780915  0.25000000  0.32220912  1.0
  Sr  Sr3  1  0.52780915  0.25000000  0.17779088  1.0
  Mg  Mg4  1  0.86235509  0.75000000  0.06239690  1.0
  Mg  Mg5  1  0.36235509  0.75000000  0.43760310  1.0
  Mg  Mg6  1  0.13764491  0.25000000  0.93760310  1.0
  Mg  Mg7  1  0.63764491  0.25000000  0.56239690  1.0
  Pt  Pt8  1  0.72051156  0.75000000  0.38208757  1.0
  Pt  Pt9  1  0.22051156  0.75000000  0.11791243  1.0
  Pt  Pt10  1  0.27948844  0.25000000  0.61791243  1.0
  Pt  Pt11  1  0.77948844  0.25000000  0.88208757  1.0
