# generated using pymatgen
data_Pb2SO5
_symmetry_space_group_name_H-M   'P 1'
_cell_length_a   7.58036495
_cell_length_b   7.58036495
_cell_length_c   7.20386670
_cell_angle_alpha   67.34629322
_cell_angle_beta   112.65370678
_cell_angle_gamma   134.96808375
_symmetry_Int_Tables_number   1
_chemical_formula_structural   Pb2SO5
_chemical_formula_sum   'Pb4 S2 O10'
_cell_volume   266.19776816
_cell_formula_units_Z   2
loop_
 _symmetry_equiv_pos_site_id
 _symmetry_equiv_pos_as_xyz
  1  'x, y, z'
loop_
 _atom_site_type_symbol
 _atom_site_label
 _atom_site_symmetry_multiplicity
 _atom_site_fract_x
 _atom_site_fract_y
 _atom_site_fract_z
 _atom_site_occupancy
  Pb  Pb0  1  0.97335996  -0.97335996  0.73070253  1.0
  Pb  Pb1  1  1.02664004  -0.02664004  0.26929747  1.0
  Pb  Pb2  1  1.35488492  -0.35488492  0.90375723  1.0
  Pb  Pb3  1  0.64511508  -0.64511508  0.09624277  1.0
  S  S4  1  0.67209972  -0.67209972  0.65703404  1.0
  S  S5  1  1.32790028  -0.32790028  0.34296596  1.0
  O  O6  1  1.43393764  0.14471921  0.74595206  1.0
  O  O7  1  0.85528079  -0.43393764  0.74595206  1.0
  O  O8  1  1.14471921  -0.56606236  0.25404794  1.0
  O  O9  1  1.56606236  -0.14471921  0.25404794  1.0
  O  O10  1  0.78872557  -0.78872557  0.71747241  1.0
  O  O11  1  1.21127443  -0.21127443  0.28252759  1.0
  O  O12  1  0.61320531  -0.61320531  0.42945957  1.0
  O  O13  1  1.38679469  -0.38679469  0.57054043  1.0
  O  O14  1  0.75254966  0.75254966  0.00000000  1.0
  O  O15  1  0.24745034  0.24745034  0.00000000  1.0
