# generated using pymatgen
data_Nb3P
_symmetry_space_group_name_H-M   'P 1'
_cell_length_a   10.17050370
_cell_length_b   10.17050370
_cell_length_c   5.09718502
_cell_angle_alpha   90.00000000
_cell_angle_beta   90.00000000
_cell_angle_gamma   90.00000000
_symmetry_Int_Tables_number   1
_chemical_formula_structural   Nb3P
_chemical_formula_sum   'Nb24 P8'
_cell_volume   527.24846284
_cell_formula_units_Z   8
loop_
 _symmetry_equiv_pos_site_id
 _symmetry_equiv_pos_as_xyz
  1  'x, y, z'
loop_
 _atom_site_type_symbol
 _atom_site_label
 _atom_site_symmetry_multiplicity
 _atom_site_fract_x
 _atom_site_fract_y
 _atom_site_fract_z
 _atom_site_occupancy
  Nb  Nb0  1  0.58659590  0.90407187  0.02220613  1.0
  Nb  Nb1  1  0.41340410  0.09592813  0.02220613  1.0
  Nb  Nb2  1  0.40407187  0.91340410  0.52220613  1.0
  Nb  Nb3  1  0.59592813  0.08659590  0.52220613  1.0
  Nb  Nb4  1  0.91340410  0.59592813  0.47779387  1.0
  Nb  Nb5  1  0.08659590  0.40407187  0.47779387  1.0
  Nb  Nb6  1  0.09592813  0.58659590  0.97779387  1.0
  Nb  Nb7  1  0.90407187  0.41340410  0.97779387  1.0
  Nb  Nb8  1  0.01074643  0.85467294  0.73581052  1.0
  Nb  Nb9  1  0.98925357  0.14532706  0.73581052  1.0
  Nb  Nb10  1  0.35467294  0.48925357  0.23581052  1.0
  Nb  Nb11  1  0.64532706  0.51074643  0.23581052  1.0
  Nb  Nb12  1  0.48925357  0.64532706  0.76418948  1.0
  Nb  Nb13  1  0.51074643  0.35467294  0.76418948  1.0
  Nb  Nb14  1  0.14532706  0.01074643  0.26418948  1.0
  Nb  Nb15  1  0.85467294  0.98925357  0.26418948  1.0
  Nb  Nb16  1  0.19274136  0.28776438  0.99054409  1.0
  Nb  Nb17  1  0.80725864  0.71223562  0.99054409  1.0
  Nb  Nb18  1  0.78776438  0.30725864  0.49054409  1.0
  Nb  Nb19  1  0.21223562  0.69274136  0.49054409  1.0
  Nb  Nb20  1  0.30725864  0.21223562  0.50945591  1.0
  Nb  Nb21  1  0.69274136  0.78776438  0.50945591  1.0
  Nb  Nb22  1  0.71223562  0.19274136  0.00945591  1.0
  Nb  Nb23  1  0.28776438  0.80725864  0.00945591  1.0
  P  P24  1  0.02135834  0.79287877  0.23206091  1.0
  P  P25  1  0.97864166  0.20712123  0.23206091  1.0
  P  P26  1  0.29287877  0.47864166  0.73206091  1.0
  P  P27  1  0.70712123  0.52135834  0.73206091  1.0
  P  P28  1  0.47864166  0.70712123  0.26793909  1.0
  P  P29  1  0.52135834  0.29287877  0.26793909  1.0
  P  P30  1  0.20712123  0.02135834  0.76793909  1.0
  P  P31  1  0.79287877  0.97864166  0.76793909  1.0
