# generated using pymatgen
data_BaTiF6
_symmetry_space_group_name_H-M   'P 1'
_cell_length_a   4.98878668
_cell_length_b   4.98878668
_cell_length_c   4.98878668
_cell_angle_alpha   97.95001119
_cell_angle_beta   97.95001119
_cell_angle_gamma   97.95001119
_symmetry_Int_Tables_number   1
_chemical_formula_structural   BaTiF6
_chemical_formula_sum   'Ba1 Ti1 F6'
_cell_volume   120.20673609
_cell_formula_units_Z   1
loop_
 _symmetry_equiv_pos_site_id
 _symmetry_equiv_pos_as_xyz
  1  'x, y, z'
loop_
 _atom_site_type_symbol
 _atom_site_label
 _atom_site_symmetry_multiplicity
 _atom_site_fract_x
 _atom_site_fract_y
 _atom_site_fract_z
 _atom_site_occupancy
  Ba  Ba0  1  0.50000000  0.50000000  0.50000000  1.0
  Ti  Ti1  1  0.00000000  0.00000000  0.00000000  1.0
  F  F2  1  1.27028147  0.27028147  -0.07647336  1.0
  F  F3  1  1.27028147  -0.07647336  0.27028147  1.0
  F  F4  1  1.07647336  0.72971853  -0.27028147  1.0
  F  F5  1  0.72971853  1.07647336  -0.27028147  1.0
  F  F6  1  0.72971853  0.72971853  0.07647336  1.0
  F  F7  1  0.92352664  0.27028147  0.27028147  1.0
