# generated using pymatgen
data_RbTaV2O8
_symmetry_space_group_name_H-M   'P 1'
_cell_length_a   15.71208683
_cell_length_b   5.65215322
_cell_length_c   9.25816785
_cell_angle_alpha   90.00000000
_cell_angle_beta   90.00000000
_cell_angle_gamma   90.00000000
_symmetry_Int_Tables_number   1
_chemical_formula_structural   RbTaV2O8
_chemical_formula_sum   'Rb4 Ta4 V8 O32'
_cell_volume   822.19124299
_cell_formula_units_Z   4
loop_
 _symmetry_equiv_pos_site_id
 _symmetry_equiv_pos_as_xyz
  1  'x, y, z'
loop_
 _atom_site_type_symbol
 _atom_site_label
 _atom_site_symmetry_multiplicity
 _atom_site_fract_x
 _atom_site_fract_y
 _atom_site_fract_z
 _atom_site_occupancy
  Rb  Rb0  1  0.09971468  0.75000000  0.56038281  1.0
  Rb  Rb1  1  0.59971468  0.75000000  0.93961719  1.0
  Rb  Rb2  1  0.90028532  0.25000000  0.43961719  1.0
  Rb  Rb3  1  0.40028532  0.25000000  0.06038281  1.0
  Ta  Ta4  1  0.15548013  0.75000000  0.00196651  1.0
  Ta  Ta5  1  0.65548013  0.75000000  0.49803349  1.0
  Ta  Ta6  1  0.84451987  0.25000000  0.99803349  1.0
  Ta  Ta7  1  0.34451987  0.25000000  0.50196651  1.0
  V  V8  1  0.44369832  0.75000000  0.31816115  1.0
  V  V9  1  0.94369832  0.75000000  0.18183885  1.0
  V  V10  1  0.55630168  0.25000000  0.68183885  1.0
  V  V11  1  0.05630168  0.25000000  0.81816115  1.0
  V  V12  1  0.32915891  0.75000000  0.74439269  1.0
  V  V13  1  0.82915891  0.75000000  0.75560731  1.0
  V  V14  1  0.67084109  0.25000000  0.25560731  1.0
  V  V15  1  0.17084109  0.25000000  0.24439269  1.0
  O  O16  1  0.30615306  0.00167366  0.64005396  1.0
  O  O17  1  0.30615306  0.49832634  0.64005396  1.0
  O  O18  1  0.80615306  0.00167366  0.85994604  1.0
  O  O19  1  0.80615306  0.49832634  0.85994604  1.0
  O  O20  1  0.69384694  0.50167366  0.35994604  1.0
  O  O21  1  0.69384694  0.99832634  0.35994604  1.0
  O  O22  1  0.19384694  0.50167366  0.14005396  1.0
  O  O23  1  0.19384694  0.99832634  0.14005396  1.0
  O  O24  1  0.11464146  0.99641207  0.86497071  1.0
  O  O25  1  0.11464146  0.50358793  0.86497071  1.0
  O  O26  1  0.61464146  0.99641207  0.63502929  1.0
  O  O27  1  0.61464146  0.50358793  0.63502929  1.0
  O  O28  1  0.88535854  0.49641207  0.13502929  1.0
  O  O29  1  0.88535854  0.00358793  0.13502929  1.0
  O  O30  1  0.38535854  0.49641207  0.36497071  1.0
  O  O31  1  0.38535854  0.00358793  0.36497071  1.0
  O  O32  1  0.45719540  0.75000000  0.14294628  1.0
  O  O33  1  0.95719540  0.75000000  0.35705372  1.0
  O  O34  1  0.54280460  0.25000000  0.85705372  1.0
  O  O35  1  0.04280460  0.25000000  0.64294628  1.0
  O  O36  1  0.42853029  0.75000000  0.79030121  1.0
  O  O37  1  0.92853029  0.75000000  0.70969879  1.0
  O  O38  1  0.57146971  0.25000000  0.20969879  1.0
  O  O39  1  0.07146971  0.25000000  0.29030121  1.0
  O  O40  1  0.26713664  0.75000000  0.90372109  1.0
  O  O41  1  0.76713664  0.75000000  0.59627891  1.0
  O  O42  1  0.73286336  0.25000000  0.09627891  1.0
  O  O43  1  0.23286336  0.25000000  0.40372109  1.0
  O  O44  1  0.04181045  0.75000000  0.09495644  1.0
  O  O45  1  0.54181045  0.75000000  0.40504356  1.0
  O  O46  1  0.95818955  0.25000000  0.90504356  1.0
  O  O47  1  0.45818955  0.25000000  0.59495644  1.0
