# generated using pymatgen
data_MnO2
_symmetry_space_group_name_H-M   'P 1'
_cell_length_a   5.74155848
_cell_length_b   5.74155848
_cell_length_c   5.74155848
_cell_angle_alpha   60.00000000
_cell_angle_beta   60.00000000
_cell_angle_gamma   60.00000000
_symmetry_Int_Tables_number   1
_chemical_formula_structural   MnO2
_chemical_formula_sum   'Mn4 O8'
_cell_volume   133.83644125
_cell_formula_units_Z   4
loop_
 _symmetry_equiv_pos_site_id
 _symmetry_equiv_pos_as_xyz
  1  'x, y, z'
loop_
 _atom_site_type_symbol
 _atom_site_label
 _atom_site_symmetry_multiplicity
 _atom_site_fract_x
 _atom_site_fract_y
 _atom_site_fract_z
 _atom_site_occupancy
  Mn  Mn0  1  0.62500000  1.12500000  0.12500000  1.0
  Mn  Mn1  1  0.12500000  1.62500000  0.12500000  1.0
  Mn  Mn2  1  0.12500000  0.12500000  1.62500000  1.0
  Mn  Mn3  1  0.12500000  0.12500000  0.12500000  1.0
  O  O4  1  -0.08104900  1.36034967  0.36034967  1.0
  O  O5  1  0.36034967  0.91895100  0.36034967  1.0
  O  O6  1  0.36034967  1.36034967  -0.08104900  1.0
  O  O7  1  0.36034967  1.36034967  0.36034967  1.0
  O  O8  1  -0.66895100  0.88965033  0.88965033  1.0
  O  O9  1  0.88965033  -0.66895100  0.88965033  1.0
  O  O10  1  0.88965033  0.88965033  -0.66895100  1.0
  O  O11  1  0.88965033  0.88965033  0.88965033  1.0
