# generated using pymatgen
data_K3SbTe3
_symmetry_space_group_name_H-M   'P 1'
_cell_length_a   10.57205259
_cell_length_b   10.57205259
_cell_length_c   10.57205259
_cell_angle_alpha   90.00000000
_cell_angle_beta   90.00000000
_cell_angle_gamma   90.00000000
_symmetry_Int_Tables_number   1
_chemical_formula_structural   K3SbTe3
_chemical_formula_sum   'K12 Sb4 Te12'
_cell_volume   1181.62030281
_cell_formula_units_Z   4
loop_
 _symmetry_equiv_pos_site_id
 _symmetry_equiv_pos_as_xyz
  1  'x, y, z'
loop_
 _atom_site_type_symbol
 _atom_site_label
 _atom_site_symmetry_multiplicity
 _atom_site_fract_x
 _atom_site_fract_y
 _atom_site_fract_z
 _atom_site_occupancy
  K  K0  1  0.66837644  0.16837644  0.33162356  1.0
  K  K1  1  0.16837644  0.33162356  0.66837644  1.0
  K  K2  1  0.33162356  0.66837644  0.16837644  1.0
  K  K3  1  0.83162356  0.83162356  0.83162356  1.0
  K  K4  1  0.43386423  0.93386423  0.56613577  1.0
  K  K5  1  0.93386423  0.56613577  0.43386423  1.0
  K  K6  1  0.56613577  0.43386423  0.93386423  1.0
  K  K7  1  0.06613577  0.06613577  0.06613577  1.0
  K  K8  1  0.92750131  0.42750131  0.07249869  1.0
  K  K9  1  0.42750131  0.07249869  0.92750131  1.0
  K  K10  1  0.07249869  0.92750131  0.42750131  1.0
  K  K11  1  0.57249869  0.57249869  0.57249869  1.0
  Sb  Sb12  1  0.22146159  0.72146159  0.77853841  1.0
  Sb  Sb13  1  0.72146159  0.77853841  0.22146159  1.0
  Sb  Sb14  1  0.77853841  0.22146159  0.72146159  1.0
  Sb  Sb15  1  0.27853841  0.27853841  0.27853841  1.0
  Te  Te16  1  0.47497904  0.74883695  0.85920511  1.0
  Te  Te17  1  0.97497904  0.75116305  0.14079489  1.0
  Te  Te18  1  0.24883695  0.64079489  0.52502096  1.0
  Te  Te19  1  0.74883695  0.85920511  0.47497904  1.0
  Te  Te20  1  0.14079489  0.97497904  0.75116305  1.0
  Te  Te21  1  0.64079489  0.52502096  0.24883695  1.0
  Te  Te22  1  0.52502096  0.24883695  0.64079489  1.0
  Te  Te23  1  0.02502096  0.25116305  0.35920511  1.0
  Te  Te24  1  0.75116305  0.14079489  0.97497904  1.0
  Te  Te25  1  0.25116305  0.35920511  0.02502096  1.0
  Te  Te26  1  0.85920511  0.47497904  0.74883695  1.0
  Te  Te27  1  0.35920511  0.02502096  0.25116305  1.0
