# generated using pymatgen
data_K2RbLaV2O8
_symmetry_space_group_name_H-M   'P 1'
_cell_length_a   6.14527294
_cell_length_b   6.14527294
_cell_length_c   7.93643808
_cell_angle_alpha   90.00000000
_cell_angle_beta   90.00000000
_cell_angle_gamma   120.00000000
_symmetry_Int_Tables_number   1
_chemical_formula_structural   K2RbLaV2O8
_chemical_formula_sum   'K2 Rb1 La1 V2 O8'
_cell_volume   259.56050946
_cell_formula_units_Z   1
loop_
 _symmetry_equiv_pos_site_id
 _symmetry_equiv_pos_as_xyz
  1  'x, y, z'
loop_
 _atom_site_type_symbol
 _atom_site_label
 _atom_site_symmetry_multiplicity
 _atom_site_fract_x
 _atom_site_fract_y
 _atom_site_fract_z
 _atom_site_occupancy
  K  K0  1  0.33333333  0.66666667  0.70488370  1.0
  K  K1  1  0.66666667  0.33333333  0.29511630  1.0
  Rb  Rb2  1  0.00000000  0.00000000  0.00000000  1.0
  La  La3  1  0.00000000  0.00000000  0.50000000  1.0
  V  V4  1  0.33333333  0.66666667  0.24108429  1.0
  V  V5  1  0.66666667  0.33333333  0.75891571  1.0
  O  O6  1  0.64125981  0.82062990  0.31702685  1.0
  O  O7  1  0.82062990  0.64125981  0.68297315  1.0
  O  O8  1  0.82062990  0.17937010  0.68297315  1.0
  O  O9  1  0.17937010  0.82062990  0.31702685  1.0
  O  O10  1  0.17937010  0.35874019  0.31702685  1.0
  O  O11  1  0.35874019  0.17937010  0.68297315  1.0
  O  O12  1  0.33333333  0.66666667  0.03132710  1.0
  O  O13  1  0.66666667  0.33333333  0.96867290  1.0
