# generated using pymatgen
data_S
_symmetry_space_group_name_H-M   'P 1'
_cell_length_a   14.76947372
_cell_length_b   14.18743532
_cell_length_c   9.61229945
_cell_angle_alpha   73.92070039
_cell_angle_beta   67.37057827
_cell_angle_gamma   38.70872134
_symmetry_Int_Tables_number   1
_chemical_formula_structural   S
_chemical_formula_sum   S32
_cell_volume   1161.66648276
_cell_formula_units_Z   32
loop_
 _symmetry_equiv_pos_site_id
 _symmetry_equiv_pos_as_xyz
  1  'x, y, z'
loop_
 _atom_site_type_symbol
 _atom_site_label
 _atom_site_symmetry_multiplicity
 _atom_site_fract_x
 _atom_site_fract_y
 _atom_site_fract_z
 _atom_site_occupancy
  S  S0  1  0.75385167  -0.41611393  0.88334424  1.0
  S  S1  1  -0.22108199  0.88334424  0.58388607  1.0
  S  S2  1  0.88334424  -0.22108199  0.75385167  1.0
  S  S3  1  -0.41611393  0.75385167  0.77891801  1.0
  S  S4  1  0.49614833  0.66611393  0.36665576  1.0
  S  S5  1  0.47108199  0.36665576  -0.33388607  1.0
  S  S6  1  0.36665576  0.47108199  0.49614833  1.0
  S  S7  1  -0.33388607  1.49614833  0.47108199  1.0
  S  S8  1  0.76636422  0.32756034  1.00613140  1.0
  S  S9  1  -0.10005597  1.00613140  0.32756034  1.0
  S  S10  1  1.00613140  -0.10005597  0.76636422  1.0
  S  S11  1  0.32756034  0.76636422  -0.10005597  1.0
  S  S12  1  0.48363578  -0.07756034  0.24386860  1.0
  S  S13  1  0.35005597  0.24386860  -0.07756034  1.0
  S  S14  1  0.24386860  0.35005597  0.48363578  1.0
  S  S15  1  -0.07756034  0.48363578  0.35005597  1.0
  S  S16  1  0.85712440  0.37966852  0.83176651  1.0
  S  S17  1  -0.06855944  0.83176651  0.37966852  1.0
  S  S18  1  0.83176651  -0.06855944  0.85712440  1.0
  S  S19  1  0.37966852  0.85712440  -0.06855944  1.0
  S  S20  1  0.39287560  -0.12966852  0.41823349  1.0
  S  S21  1  0.31855944  0.41823349  -0.12966852  1.0
  S  S22  1  0.41823349  0.31855944  0.39287560  1.0
  S  S23  1  -0.12966852  0.39287560  0.31855944  1.0
  S  S24  1  0.60113741  0.39143753  -0.04661760  1.0
  S  S25  1  0.05404266  0.95338240  0.39143753  1.0
  S  S26  1  -0.04661760  1.05404266  0.60113741  1.0
  S  S27  1  0.39143753  0.60113741  0.05404266  1.0
  S  S28  1  0.64886259  -0.14143753  1.29661760  1.0
  S  S29  1  0.19595734  0.29661760  -0.14143753  1.0
  S  S30  1  0.29661760  0.19595734  1.64886259  1.0
  S  S31  1  -0.14143753  0.64886259  0.19595734  1.0
