# generated using pymatgen
data_Rb2Nb2P2S11
_symmetry_space_group_name_H-M   'P 1'
_cell_length_a   7.36720521
_cell_length_b   7.10798362
_cell_length_c   18.54880504
_cell_angle_alpha   90.00000000
_cell_angle_beta   96.65999711
_cell_angle_gamma   90.00000000
_symmetry_Int_Tables_number   1
_chemical_formula_structural   Rb2Nb2P2S11
_chemical_formula_sum   'Rb4 Nb4 P4 S22'
_cell_volume   964.77160147
_cell_formula_units_Z   2
loop_
 _symmetry_equiv_pos_site_id
 _symmetry_equiv_pos_as_xyz
  1  'x, y, z'
loop_
 _atom_site_type_symbol
 _atom_site_label
 _atom_site_symmetry_multiplicity
 _atom_site_fract_x
 _atom_site_fract_y
 _atom_site_fract_z
 _atom_site_occupancy
  Rb  Rb0  1  0.27157365  0.75000000  0.98463171  1.0
  Rb  Rb1  1  0.72842635  0.25000000  0.01536829  1.0
  Rb  Rb2  1  0.25155366  0.75000000  0.51629274  1.0
  Rb  Rb3  1  0.74844634  0.25000000  0.48370726  1.0
  Nb  Nb4  1  0.79852213  0.45090462  0.74427140  1.0
  Nb  Nb5  1  0.79852213  0.04909538  0.74427140  1.0
  Nb  Nb6  1  0.20147787  0.95090462  0.25572860  1.0
  Nb  Nb7  1  0.20147787  0.54909538  0.25572860  1.0
  P  P8  1  0.79318940  0.75000000  0.60306724  1.0
  P  P9  1  0.20681060  0.25000000  0.39693276  1.0
  P  P10  1  0.71581302  0.75000000  0.87854515  1.0
  P  P11  1  0.28418698  0.25000000  0.12145485  1.0
  S  S12  1  0.95662358  0.98046240  0.63443356  1.0
  S  S13  1  0.95662358  0.51953760  0.63443356  1.0
  S  S14  1  0.04337642  0.48046240  0.36556644  1.0
  S  S15  1  0.04337642  0.01953760  0.36556644  1.0
  S  S16  1  0.57274018  0.98534490  0.83975421  1.0
  S  S17  1  0.57274018  0.51465510  0.83975421  1.0
  S  S18  1  0.42725982  0.48534490  0.16024579  1.0
  S  S19  1  0.42725982  0.01465510  0.16024579  1.0
  S  S20  1  0.94968762  0.75000000  0.82201322  1.0
  S  S21  1  0.05031238  0.25000000  0.17798678  1.0
  S  S22  1  0.91482497  0.75000000  0.23971346  1.0
  S  S23  1  0.08517503  0.25000000  0.76028654  1.0
  S  S24  1  0.77139940  0.75000000  0.98711911  1.0
  S  S25  1  0.22860060  0.25000000  0.01288089  1.0
  S  S26  1  0.70352830  0.75000000  0.49761804  1.0
  S  S27  1  0.29647170  0.25000000  0.50238196  1.0
  S  S28  1  0.60637667  0.75000000  0.67896001  1.0
  S  S29  1  0.39362333  0.25000000  0.32103999  1.0
  S  S30  1  0.43429096  0.75000000  0.30783326  1.0
  S  S31  1  0.56570904  0.25000000  0.69216674  1.0
  S  S32  1  0.06437514  0.75000000  0.15525494  1.0
  S  S33  1  0.93562486  0.25000000  0.84474506  1.0
