# generated using pymatgen
data_Sr7Zr(BO3)6
_symmetry_space_group_name_H-M   'P 1'
_cell_length_a   7.99332543
_cell_length_b   7.99332543
_cell_length_c   7.99332543
_cell_angle_alpha   105.13854360
_cell_angle_beta   105.13854360
_cell_angle_gamma   105.13854360
_symmetry_Int_Tables_number   1
_chemical_formula_structural   Sr7Zr(BO3)6
_chemical_formula_sum   'Sr7 Zr1 B6 O18'
_cell_volume   445.16870581
_cell_formula_units_Z   1
loop_
 _symmetry_equiv_pos_site_id
 _symmetry_equiv_pos_as_xyz
  1  'x, y, z'
loop_
 _atom_site_type_symbol
 _atom_site_label
 _atom_site_symmetry_multiplicity
 _atom_site_fract_x
 _atom_site_fract_y
 _atom_site_fract_z
 _atom_site_occupancy
  Sr  Sr0  1  0.76256950  0.63030040  0.13114198  1.0
  Sr  Sr1  1  1.36969960  -0.13114198  0.23743050  1.0
  Sr  Sr2  1  0.86885802  0.23743050  0.36969960  1.0
  Sr  Sr3  1  1.23743050  0.36969960  -0.13114198  1.0
  Sr  Sr4  1  0.63030040  1.13114198  -0.23743050  1.0
  Sr  Sr5  1  1.13114198  0.76256950  -0.36969960  1.0
  Sr  Sr6  1  0.50000000  0.50000000  0.50000000  1.0
  Zr  Zr7  1  0.00000000  0.00000000  0.00000000  1.0
  B  B8  1  1.54460702  0.79562664  -0.10765384  1.0
  B  B9  1  1.20437336  0.10765384  -0.54460702  1.0
  B  B10  1  1.10765384  -0.54460702  0.20437336  1.0
  B  B11  1  0.45539298  0.20437336  0.10765384  1.0
  B  B12  1  0.79562664  0.89234616  0.54460702  1.0
  B  B13  1  0.89234616  1.54460702  -0.20437336  1.0
  O  O14  1  0.72585975  0.92953989  -0.00902908  1.0
  O  O15  1  1.07046011  0.00902908  -0.72585975  1.0
  O  O16  1  1.00902908  -0.72585975  0.07046011  1.0
  O  O17  1  0.27414025  0.07046011  0.00902908  1.0
  O  O18  1  0.92953989  0.99097092  -0.27414025  1.0
  O  O19  1  0.99097092  0.72585975  -0.07046011  1.0
  O  O20  1  1.46110773  0.77789676  -0.28751623  1.0
  O  O21  1  1.22210324  0.28751623  -0.46110773  1.0
  O  O22  1  1.28751623  -0.46110773  0.22210324  1.0
  O  O23  1  0.53889227  0.22210324  0.28751623  1.0
  O  O24  1  0.77789676  0.71248377  0.46110773  1.0
  O  O25  1  0.71248377  1.46110773  -0.22210324  1.0
  O  O26  1  0.53456227  0.30549510  0.01555439  1.0
  O  O27  1  0.69450490  0.98444561  0.46543773  1.0
  O  O28  1  0.98444561  1.46543773  -0.30549510  1.0
  O  O29  1  1.46543773  0.69450490  -0.01555439  1.0
  O  O30  1  1.30549510  0.01555439  -0.46543773  1.0
  O  O31  1  1.01555439  -0.46543773  0.30549510  1.0
