# generated using pymatgen
data_NaH3(SeO3)2
_symmetry_space_group_name_H-M   'P 1'
_cell_length_a   5.86919378
_cell_length_b   5.08314333
_cell_length_c   11.71792349
_cell_angle_alpha   90.00000000
_cell_angle_beta   117.80992359
_cell_angle_gamma   90.00000000
_symmetry_Int_Tables_number   1
_chemical_formula_structural   NaH3(SeO3)2
_chemical_formula_sum   'Na2 H6 Se4 O12'
_cell_volume   309.21417160
_cell_formula_units_Z   2
loop_
 _symmetry_equiv_pos_site_id
 _symmetry_equiv_pos_as_xyz
  1  'x, y, z'
loop_
 _atom_site_type_symbol
 _atom_site_label
 _atom_site_symmetry_multiplicity
 _atom_site_fract_x
 _atom_site_fract_y
 _atom_site_fract_z
 _atom_site_occupancy
  Na  Na0  1  0.00000000  0.50000000  0.50000000  1.0
  Na  Na1  1  0.00000000  -0.00000000  0.00000000  1.0
  H  H2  1  0.72420113  -0.04226708  0.33451317  1.0
  H  H3  1  0.72420113  0.54226708  0.83451317  1.0
  H  H4  1  0.27579887  0.45773292  0.16548683  1.0
  H  H5  1  0.27579887  0.04226708  0.66548683  1.0
  H  H6  1  0.50000000  0.50000000  0.50000000  1.0
  H  H7  1  0.50000000  0.00000000  -0.00000000  1.0
  Se  Se8  1  0.66817250  0.36919045  0.16796399  1.0
  Se  Se9  1  0.66817250  0.13080955  0.66796399  1.0
  Se  Se10  1  0.33182750  0.86919045  0.33203601  1.0
  Se  Se11  1  0.33182750  0.63080955  0.83203601  1.0
  O  O12  1  0.84633861  0.20507369  0.30632780  1.0
  O  O13  1  0.84633861  0.29492631  0.80632780  1.0
  O  O14  1  0.15366139  0.70507369  0.19367220  1.0
  O  O15  1  0.15366139  0.79492631  0.69367220  1.0
  O  O16  1  0.66304434  0.17006431  0.04684186  1.0
  O  O17  1  0.66304434  0.32993569  0.54684186  1.0
  O  O18  1  0.33695566  0.67006431  0.45315814  1.0
  O  O19  1  0.33695566  0.82993569  0.95315814  1.0
  O  O20  1  0.34519612  0.29151070  0.14164820  1.0
  O  O21  1  0.34519612  0.20848930  0.64164820  1.0
  O  O22  1  0.65480388  0.79151070  0.35835180  1.0
  O  O23  1  0.65480388  0.70848930  0.85835180  1.0
