# generated using pymatgen
data_Hf2Ni7
_symmetry_space_group_name_H-M   'P 1'
_cell_length_a   4.71879171
_cell_length_b   4.71879171
_cell_length_c   12.11200876
_cell_angle_alpha   87.19414487
_cell_angle_beta   92.80585513
_cell_angle_gamma   59.33833143
_symmetry_Int_Tables_number   1
_chemical_formula_structural   Hf2Ni7
_chemical_formula_sum   'Hf4 Ni14'
_cell_volume   230.85529609
_cell_formula_units_Z   2
loop_
 _symmetry_equiv_pos_site_id
 _symmetry_equiv_pos_as_xyz
  1  'x, y, z'
loop_
 _atom_site_type_symbol
 _atom_site_label
 _atom_site_symmetry_multiplicity
 _atom_site_fract_x
 _atom_site_fract_y
 _atom_site_fract_z
 _atom_site_occupancy
  Hf  Hf0  1  0.77957151  -0.77957151  0.88570643  1.0
  Hf  Hf1  1  0.22042849  -0.22042849  0.11429357  1.0
  Hf  Hf2  1  0.72033898  -0.72033898  0.61426616  1.0
  Hf  Hf3  1  0.27966102  -0.27966102  0.38573384  1.0
  Ni  Ni4  1  0.74996059  -0.25011051  0.75001124  1.0
  Ni  Ni5  1  1.25011051  -0.74996059  0.75001124  1.0
  Ni  Ni6  1  0.74988949  -0.25003941  0.24998876  1.0
  Ni  Ni7  1  0.25003941  0.25011051  0.24998876  1.0
  Ni  Ni8  1  0.45905035  -0.12956327  0.92226075  1.0
  Ni  Ni9  1  1.12956327  -0.45905035  0.92226075  1.0
  Ni  Ni10  1  0.87043673  -0.54094965  0.07773925  1.0
  Ni  Ni11  1  0.54094965  0.12956327  0.07773925  1.0
  Ni  Ni12  1  0.37039017  -0.04085782  0.57775001  1.0
  Ni  Ni13  1  1.04085782  -0.37039017  0.57775001  1.0
  Ni  Ni14  1  0.95914218  -0.62960983  0.42224999  1.0
  Ni  Ni15  1  0.62960983  0.04085782  0.42224999  1.0
  Ni  Ni16  1  0.75020114  -0.75020114  0.25001393  1.0
  Ni  Ni17  1  0.24979886  -0.24979886  0.74998607  1.0
