# generated using pymatgen
data_As3Pb5O13
_symmetry_space_group_name_H-M   'P 1'
_cell_length_a   10.26873439
_cell_length_b   10.26873439
_cell_length_c   7.39531781
_cell_angle_alpha   90.00000000
_cell_angle_beta   90.00000000
_cell_angle_gamma   120.00000000
_symmetry_Int_Tables_number   1
_chemical_formula_structural   As3Pb5O13
_chemical_formula_sum   'As6 Pb10 O26'
_cell_volume   675.33819892
_cell_formula_units_Z   2
loop_
 _symmetry_equiv_pos_site_id
 _symmetry_equiv_pos_as_xyz
  1  'x, y, z'
loop_
 _atom_site_type_symbol
 _atom_site_label
 _atom_site_symmetry_multiplicity
 _atom_site_fract_x
 _atom_site_fract_y
 _atom_site_fract_z
 _atom_site_occupancy
  As  As0  1  0.38459919  0.97853894  0.25000000  1.0
  As  As1  1  0.97853894  0.59393975  0.75000000  1.0
  As  As2  1  0.59393975  0.61540081  0.25000000  1.0
  As  As3  1  0.02146106  0.40606025  0.25000000  1.0
  As  As4  1  0.61540081  0.02146106  0.75000000  1.0
  As  As5  1  0.40606025  0.38459919  0.75000000  1.0
  O  O6  1  0.26228298  0.91150338  0.43437920  1.0
  O  O7  1  0.26228298  0.91150338  0.06562080  1.0
  O  O8  1  0.91150338  0.64922040  0.93437920  1.0
  O  O9  1  0.91150338  0.64922040  0.56562080  1.0
  O  O10  1  0.64922040  0.73771702  0.43437920  1.0
  O  O11  1  0.64922040  0.73771702  0.06562080  1.0
  O  O12  1  0.08849662  0.35077960  0.43437920  1.0
  O  O13  1  0.08849662  0.35077960  0.06562080  1.0
  O  O14  1  0.73771702  0.08849662  0.93437920  1.0
  O  O15  1  0.73771702  0.08849662  0.56562080  1.0
  O  O16  1  0.35077960  0.26228298  0.93437920  1.0
  O  O17  1  0.35077960  0.26228298  0.56562080  1.0
  O  O18  1  0.49265022  0.89049160  0.25000000  1.0
  O  O19  1  0.89049160  0.39784138  0.75000000  1.0
  O  O20  1  0.39784138  0.50734978  0.25000000  1.0
  O  O21  1  0.10950840  0.60215862  0.25000000  1.0
  O  O22  1  0.50734978  0.10950840  0.75000000  1.0
  O  O23  1  0.60215862  0.49265022  0.75000000  1.0
  O  O24  1  0.67951610  0.50684452  0.25000000  1.0
  O  O25  1  0.50684452  0.82732842  0.75000000  1.0
  O  O26  1  0.82732842  0.32048390  0.25000000  1.0
  O  O27  1  0.49315548  0.17267158  0.25000000  1.0
  O  O28  1  0.32048390  0.49315548  0.75000000  1.0
  O  O29  1  0.17267158  0.67951610  0.75000000  1.0
  O  O30  1  0.00000000  0.00000000  0.50000000  1.0
  O  O31  1  0.00000000  0.00000000  0.00000000  1.0
  Pb  Pb32  1  0.01706012  0.78545851  0.25000000  1.0
  Pb  Pb33  1  0.78545851  0.76839839  0.75000000  1.0
  Pb  Pb34  1  0.76839839  0.98293988  0.25000000  1.0
  Pb  Pb35  1  0.21454149  0.23160161  0.25000000  1.0
  Pb  Pb36  1  0.98293988  0.21454149  0.75000000  1.0
  Pb  Pb37  1  0.23160161  0.01706012  0.75000000  1.0
  Pb  Pb38  1  0.33333333  0.66666667  0.50261055  1.0
  Pb  Pb39  1  0.33333333  0.66666667  -0.00261055  1.0
  Pb  Pb40  1  0.66666667  0.33333333  0.00261055  1.0
  Pb  Pb41  1  0.66666667  0.33333333  0.49738945  1.0
