# generated using pymatgen
data_CeP2(NO4)2
_symmetry_space_group_name_H-M   'P 1'
_cell_length_a   10.71160224
_cell_length_b   10.71160224
_cell_length_c   10.71160224
_cell_angle_alpha   142.86010034
_cell_angle_beta   142.85858793
_cell_angle_gamma   53.53644044
_symmetry_Int_Tables_number   1
_chemical_formula_structural   CeP2(NO4)2
_chemical_formula_sum   'Ce2 P4 N4 O16'
_cell_volume   445.17184083
_cell_formula_units_Z   2
loop_
 _symmetry_equiv_pos_site_id
 _symmetry_equiv_pos_as_xyz
  1  'x, y, z'
loop_
 _atom_site_type_symbol
 _atom_site_label
 _atom_site_symmetry_multiplicity
 _atom_site_fract_x
 _atom_site_fract_y
 _atom_site_fract_z
 _atom_site_occupancy
  N  N0  1  1.00000000  1.00000000  1.50000000  1.0
  N  N1  1  1.00000000  0.50000000  1.00000000  1.0
  N  N2  1  0.50000000  0.50000000  1.00000000  1.0
  N  N3  1  -0.00000000  0.50000000  0.50000000  1.0
  O  O4  1  1.59865963  1.53090961  1.43224998  1.0
  O  O5  1  0.40134037  0.46909039  0.56775002  1.0
  O  O6  1  0.40134037  0.83359034  0.93224998  1.0
  O  O7  1  1.59865963  1.16640966  1.06775002  1.0
  O  O8  1  0.33737045  0.75478309  0.58258736  1.0
  O  O9  1  1.66262955  1.24521691  1.41741264  1.0
  O  O10  1  1.32780426  1.24521691  1.08258736  1.0
  O  O11  1  0.67219574  0.75478309  0.91741264  1.0
  O  O12  1  0.25477988  0.83738472  1.08260484  1.0
  O  O13  1  1.74522012  1.16261528  0.91739516  1.0
  O  O14  1  1.74522012  1.82782496  1.58260484  1.0
  O  O15  1  0.25477988  0.17217504  0.41739516  1.0
  O  O16  1  1.33361919  0.90134559  0.43227360  1.0
  O  O17  1  1.03092801  0.09865441  0.93227360  1.0
  O  O18  1  0.66638081  0.09865441  0.56772640  1.0
  O  O19  1  0.96907199  0.90134559  0.06772640  1.0
  Ce  Ce20  1  1.62498405  0.87498405  0.75000000  1.0
  Ce  Ce21  1  0.37501595  0.12501595  0.25000000  1.0
  P  P22  1  0.44861525  0.69861525  0.75000000  1.0
  P  P23  1  1.55138475  1.30138475  1.25000000  1.0
  P  P24  1  0.80139699  0.05139699  0.75000000  1.0
  P  P25  1  1.19860301  0.94860301  0.25000000  1.0
