# generated using pymatgen
data_Sr4RhO6
_symmetry_space_group_name_H-M   'P 1'
_cell_length_a   6.91576234
_cell_length_b   6.91576234
_cell_length_c   6.91576234
_cell_angle_alpha   90.27016970
_cell_angle_beta   90.27016970
_cell_angle_gamma   90.27016970
_symmetry_Int_Tables_number   1
_chemical_formula_structural   Sr4RhO6
_chemical_formula_sum   'Sr8 Rh2 O12'
_cell_volume   330.75441583
_cell_formula_units_Z   2
loop_
 _symmetry_equiv_pos_site_id
 _symmetry_equiv_pos_as_xyz
  1  'x, y, z'
loop_
 _atom_site_type_symbol
 _atom_site_label
 _atom_site_symmetry_multiplicity
 _atom_site_fract_x
 _atom_site_fract_y
 _atom_site_fract_z
 _atom_site_occupancy
  Sr  Sr0  1  0.88231157  1.25000000  -0.38231157  1.0
  Sr  Sr1  1  1.38231157  0.11768843  -0.25000000  1.0
  Sr  Sr2  1  0.75000000  0.38231157  0.11768843  1.0
  Sr  Sr3  1  1.25000000  0.61768843  -0.11768843  1.0
  Sr  Sr4  1  1.11768843  -0.25000000  0.38231157  1.0
  Sr  Sr5  1  0.61768843  0.88231157  0.25000000  1.0
  Sr  Sr6  1  0.25000000  0.25000000  0.25000000  1.0
  Sr  Sr7  1  0.75000000  0.75000000  0.75000000  1.0
  Rh  Rh8  1  0.50000000  0.50000000  0.50000000  1.0
  Rh  Rh9  1  0.00000000  0.00000000  0.00000000  1.0
  O  O10  1  1.21584714  0.42768874  -0.44210887  1.0
  O  O11  1  0.71584714  1.05789113  -0.07231126  1.0
  O  O12  1  0.94210887  0.07231126  0.28415286  1.0
  O  O13  1  1.44210887  -0.21584714  0.57231126  1.0
  O  O14  1  1.57231126  0.44210887  -0.21584714  1.0
  O  O15  1  1.07231126  0.28415286  -0.05789113  1.0
  O  O16  1  0.78415286  0.57231126  0.44210887  1.0
  O  O17  1  1.28415286  -0.05789113  0.07231126  1.0
  O  O18  1  0.55789113  1.21584714  -0.57231126  1.0
  O  O19  1  1.05789113  0.92768874  -0.28415286  1.0
  O  O20  1  0.92768874  0.71584714  0.05789113  1.0
  O  O21  1  0.42768874  0.55789113  0.21584714  1.0
