# generated using pymatgen
data_H4C(N2O)4
_symmetry_space_group_name_H-M   'P 1'
_cell_length_a   4.93471676
_cell_length_b   9.83552291
_cell_length_c   9.03494330
_cell_angle_alpha   90.00000000
_cell_angle_beta   119.81172902
_cell_angle_gamma   90.00000000
_symmetry_Int_Tables_number   1
_chemical_formula_structural   H4C(N2O)4
_chemical_formula_sum   'H8 C2 N16 O8'
_cell_volume   380.48412730
_cell_formula_units_Z   2
loop_
 _symmetry_equiv_pos_site_id
 _symmetry_equiv_pos_as_xyz
  1  'x, y, z'
loop_
 _atom_site_type_symbol
 _atom_site_label
 _atom_site_symmetry_multiplicity
 _atom_site_fract_x
 _atom_site_fract_y
 _atom_site_fract_z
 _atom_site_occupancy
  H  H0  1  0.85365667  0.63787808  0.20519650  1.0
  H  H1  1  0.85365667  0.36212192  0.70519650  1.0
  H  H2  1  0.58544557  0.30116060  0.19610089  1.0
  H  H3  1  0.58544557  0.69883940  0.69610089  1.0
  H  H4  1  0.49457057  0.86409793  0.05743975  1.0
  H  H5  1  0.49457057  0.13590207  0.55743975  1.0
  H  H6  1  0.36742208  0.88359736  0.83721665  1.0
  H  H7  1  0.36742208  0.11640264  0.33721665  1.0
  C  C8  1  0.65144544  0.72211724  0.95307585  1.0
  C  C9  1  0.65144544  0.27788276  0.45307585  1.0
  N  N10  1  -0.00344580  0.91102868  0.49650940  1.0
  N  N11  1  -0.00344580  0.08897132  -0.00349060  1.0
  N  N12  1  0.94868064  0.53623502  0.03509393  1.0
  N  N13  1  0.94868064  0.46376498  0.53509393  1.0
  N  N14  1  0.86300298  0.44450358  0.37832720  1.0
  N  N15  1  0.86300298  0.55549642  0.87832720  1.0
  N  N16  1  0.82300071  0.63670283  0.08460010  1.0
  N  N17  1  0.82300071  0.36329717  0.58460010  1.0
  N  N18  1  0.83771337  0.17354404  0.05012594  1.0
  N  N19  1  0.83771337  0.82645596  0.55012594  1.0
  N  N20  1  0.68095112  0.33144182  0.32381638  1.0
  N  N21  1  0.68095112  0.66855818  0.82381638  1.0
  N  N22  1  0.59943360  0.75331045  0.42600385  1.0
  N  N23  1  0.59943360  0.24668955  0.92600385  1.0
  N  N24  1  0.49374666  0.83135007  0.95013316  1.0
  N  N25  1  0.49374666  0.16864993  0.45013316  1.0
  O  O26  1  0.90498441  0.94505416  0.34801970  1.0
  O  O27  1  0.90498441  0.05494584  0.84801970  1.0
  O  O28  1  0.55136827  0.73434858  0.27942973  1.0
  O  O29  1  0.55136827  0.26565142  0.77942973  1.0
  O  O30  1  0.43118790  0.69730995  0.47781402  1.0
  O  O31  1  0.43118790  0.30269005  0.97781402  1.0
  O  O32  1  0.24203581  0.95718783  0.62029695  1.0
  O  O33  1  0.24203581  0.04281217  0.12029695  1.0
