# generated using pymatgen
data_ZnS
_symmetry_space_group_name_H-M   'P 1'
_cell_length_a   3.85006004
_cell_length_b   3.85006004
_cell_length_c   37.75029417
_cell_angle_alpha   90.00000000
_cell_angle_beta   90.00000000
_cell_angle_gamma   120.00000000
_symmetry_Int_Tables_number   1
_chemical_formula_structural   ZnS
_chemical_formula_sum   'Zn12 S12'
_cell_volume   484.60286505
_cell_formula_units_Z   12
loop_
 _symmetry_equiv_pos_site_id
 _symmetry_equiv_pos_as_xyz
  1  'x, y, z'
loop_
 _atom_site_type_symbol
 _atom_site_label
 _atom_site_symmetry_multiplicity
 _atom_site_fract_x
 _atom_site_fract_y
 _atom_site_fract_z
 _atom_site_occupancy
  Zn  Zn0  1  -0.00000000  -0.00000000  0.08333013  1.0
  Zn  Zn1  1  -0.00000000  -0.00000000  0.33332729  1.0
  Zn  Zn2  1  0.00000000  0.00000000  0.58332805  1.0
  Zn  Zn3  1  0.00000000  0.00000000  0.83333060  1.0
  Zn  Zn4  1  0.66666667  0.33333333  0.25000159  1.0
  Zn  Zn5  1  0.66666667  0.33333333  0.49999429  1.0
  Zn  Zn6  1  0.66666667  0.33333333  0.74993461  1.0
  Zn  Zn7  1  0.66666667  0.33333333  0.91670665  1.0
  Zn  Zn8  1  0.33333333  0.66666667  -0.00005866  1.0
  Zn  Zn9  1  0.33333333  0.66666667  0.16671220  1.0
  Zn  Zn10  1  0.33333333  0.66666667  0.41665713  1.0
  Zn  Zn11  1  0.33333333  0.66666667  0.66665203  1.0
  S  S12  1  0.00000000  0.00000000  0.02076408  1.0
  S  S13  1  -0.00000000  -0.00000000  0.27084282  1.0
  S  S14  1  -0.00000000  -0.00000000  0.52084148  1.0
  S  S15  1  0.00000000  0.00000000  0.77076268  1.0
  S  S16  1  0.66666667  0.33333333  0.18752746  1.0
  S  S17  1  0.66666667  0.33333333  0.43750683  1.0
  S  S18  1  0.66666667  0.33333333  0.68748297  1.0
  S  S19  1  0.66666667  0.33333333  0.85425520  1.0
  S  S20  1  0.33333333  0.66666667  0.10425715  1.0
  S  S21  1  0.33333333  0.66666667  0.35417106  1.0
  S  S22  1  0.33333333  0.66666667  0.60416897  1.0
  S  S23  1  0.33333333  0.66666667  0.93750337  1.0
