# generated using pymatgen
data_MgTi2O5
_symmetry_space_group_name_H-M   'P 1'
_cell_length_a   5.24983196
_cell_length_b   5.24983196
_cell_length_c   10.11542074
_cell_angle_alpha   90.00000000
_cell_angle_beta   90.00000000
_cell_angle_gamma   138.15279177
_symmetry_Int_Tables_number   1
_chemical_formula_structural   MgTi2O5
_chemical_formula_sum   'Mg2 Ti4 O10'
_cell_volume   185.99272164
_cell_formula_units_Z   2
loop_
 _symmetry_equiv_pos_site_id
 _symmetry_equiv_pos_as_xyz
  1  'x, y, z'
loop_
 _atom_site_type_symbol
 _atom_site_label
 _atom_site_symmetry_multiplicity
 _atom_site_fract_x
 _atom_site_fract_y
 _atom_site_fract_z
 _atom_site_occupancy
  Mg  Mg0  1  0.19597374  0.80402626  0.75000000  1.0
  Mg  Mg1  1  -0.19597374  0.19597374  0.25000000  1.0
  Ti  Ti2  1  0.13224086  0.86775914  0.43254176  1.0
  Ti  Ti3  1  0.13224086  0.86775914  0.06745824  1.0
  Ti  Ti4  1  -0.13224086  0.13224086  0.93254176  1.0
  Ti  Ti5  1  -0.13224086  0.13224086  0.56745824  1.0
  O  O6  1  0.04615319  0.95384681  0.88721970  1.0
  O  O7  1  0.04615319  0.95384681  0.61278030  1.0
  O  O8  1  -0.04615319  0.04615319  0.38721970  1.0
  O  O9  1  -0.04615319  0.04615319  0.11278030  1.0
  O  O10  1  0.31408859  0.68591141  0.93748879  1.0
  O  O11  1  0.31408859  0.68591141  0.56251121  1.0
  O  O12  1  -0.31408859  0.31408859  0.43748879  1.0
  O  O13  1  -0.31408859  0.31408859  0.06251121  1.0
  O  O14  1  -0.21591712  0.21591712  0.75000000  1.0
  O  O15  1  0.21591712  0.78408288  0.25000000  1.0
