# generated using pymatgen
data_Lu(PO3)3
_symmetry_space_group_name_H-M   'P 1'
_cell_length_a   7.89495749
_cell_length_b   7.89495749
_cell_length_c   10.14657002
_cell_angle_alpha   56.78806537
_cell_angle_beta   123.21193463
_cell_angle_gamma   129.08277289
_symmetry_Int_Tables_number   1
_chemical_formula_structural   Lu(PO3)3
_chemical_formula_sum   'Lu2 P6 O18'
_cell_volume   390.26972064
_cell_formula_units_Z   2
loop_
 _symmetry_equiv_pos_site_id
 _symmetry_equiv_pos_as_xyz
  1  'x, y, z'
loop_
 _atom_site_type_symbol
 _atom_site_label
 _atom_site_symmetry_multiplicity
 _atom_site_fract_x
 _atom_site_fract_y
 _atom_site_fract_z
 _atom_site_occupancy
  Lu  Lu0  1  0.99344633  0.47851493  0.76767682  1.0
  Lu  Lu1  1  1.52148507  0.00655367  0.26767682  1.0
  P  P2  1  0.42321907  0.42170140  0.49807089  1.0
  P  P3  1  0.57829860  0.57678093  -0.00192911  1.0
  P  P4  1  1.01804781  0.80170274  0.93392718  1.0
  P  P5  1  0.19829726  -0.01804781  0.43392718  1.0
  P  P6  1  1.01133744  -0.80505225  0.60389274  1.0
  P  P7  1  1.80505225  -0.01133744  0.10389274  1.0
  O  O8  1  0.75814011  0.73420094  0.89574320  1.0
  O  O9  1  0.26579906  0.24185989  0.39574320  1.0
  O  O10  1  0.61972508  0.37878468  0.63922160  1.0
  O  O11  1  1.62121532  0.38027492  0.13922160  1.0
  O  O12  1  1.13983466  0.82887538  0.59345715  1.0
  O  O13  1  1.17112462  -0.13983466  0.09345715  1.0
  O  O14  1  1.01421664  0.62463694  0.91292359  1.0
  O  O15  1  0.37536306  -0.01421664  0.41292359  1.0
  O  O16  1  0.93921626  -0.67680962  0.61365340  1.0
  O  O17  1  1.67680962  0.06078374  0.11365340  1.0
  O  O18  1  0.93491356  0.15519976  0.97978661  1.0
  O  O19  1  1.84480024  0.06508644  0.47978661  1.0
  O  O20  1  1.34393124  0.52244601  0.87232432  1.0
  O  O21  1  1.47755399  -0.34393124  0.37232432  1.0
  O  O22  1  1.25563526  -0.62633755  0.57171653  1.0
  O  O23  1  1.62633755  -0.25563526  0.07171653  1.0
  O  O24  1  0.09129996  0.03490005  0.78580596  1.0
  O  O25  1  0.96509995  0.90870004  0.28580596  1.0
