# generated using pymatgen
data_H4SO5
_symmetry_space_group_name_H-M   'P 1'
_cell_length_a   7.66975891
_cell_length_b   7.10930745
_cell_length_c   8.22007423
_cell_angle_alpha   90.00000000
_cell_angle_beta   109.24520300
_cell_angle_gamma   90.00000000
_symmetry_Int_Tables_number   1
_chemical_formula_structural   H4SO5
_chemical_formula_sum   'H16 S4 O20'
_cell_volume   423.16563492
_cell_formula_units_Z   4
loop_
 _symmetry_equiv_pos_site_id
 _symmetry_equiv_pos_as_xyz
  1  'x, y, z'
loop_
 _atom_site_type_symbol
 _atom_site_label
 _atom_site_symmetry_multiplicity
 _atom_site_fract_x
 _atom_site_fract_y
 _atom_site_fract_z
 _atom_site_occupancy
  H  H0  1  0.91861712  0.79206953  0.41069517  1.0
  H  H1  1  0.91861712  0.70793047  0.91069517  1.0
  H  H2  1  0.08138288  0.29206953  0.08930483  1.0
  H  H3  1  0.08138288  0.20793047  0.58930483  1.0
  H  H4  1  0.78358922  0.87250619  0.22148868  1.0
  H  H5  1  0.78358922  0.62749381  0.72148868  1.0
  H  H6  1  0.21641078  0.37250619  0.27851132  1.0
  H  H7  1  0.21641078  0.12749381  0.77851132  1.0
  H  H8  1  0.61850856  0.30926093  0.11137414  1.0
  H  H9  1  0.61850856  0.19073907  0.61137414  1.0
  H  H10  1  0.38149144  0.80926093  0.38862586  1.0
  H  H11  1  0.38149144  0.69073907  0.88862586  1.0
  H  H12  1  0.26089776  0.16066941  0.20543221  1.0
  H  H13  1  0.26089776  0.33933059  0.70543221  1.0
  H  H14  1  0.73910224  0.66066941  0.29456779  1.0
  H  H15  1  0.73910224  0.83933059  0.79456779  1.0
  S  S16  1  0.75529360  0.34975867  0.46625042  1.0
  S  S17  1  0.75529360  0.15024133  0.96625042  1.0
  S  S18  1  0.24470640  0.84975867  0.03374958  1.0
  S  S19  1  0.24470640  0.65024133  0.53374958  1.0
  O  O20  1  0.88358947  0.19368993  0.47185308  1.0
  O  O21  1  0.88358947  0.30631007  0.97185308  1.0
  O  O22  1  0.11641053  0.69368993  0.02814692  1.0
  O  O23  1  0.11641053  0.80631007  0.52814692  1.0
  O  O24  1  0.83894110  0.00481038  0.09554845  1.0
  O  O25  1  0.83894110  0.49518962  0.59554845  1.0
  O  O26  1  0.16105890  0.50481038  0.40445155  1.0
  O  O27  1  0.16105890  0.99518962  0.90445155  1.0
  O  O28  1  0.78413889  0.79352836  0.32526233  1.0
  O  O29  1  0.78413889  0.70647164  0.82526233  1.0
  O  O30  1  0.21586111  0.29352836  0.17473767  1.0
  O  O31  1  0.21586111  0.20647164  0.67473767  1.0
  O  O32  1  0.67690297  0.43385639  0.29111895  1.0
  O  O33  1  0.67690297  0.06614361  0.79111895  1.0
  O  O34  1  0.32309703  0.93385639  0.20888105  1.0
  O  O35  1  0.32309703  0.56614361  0.70888105  1.0
  O  O36  1  0.57994807  0.26470503  0.49968965  1.0
  O  O37  1  0.57994807  0.23529497  0.99968965  1.0
  O  O38  1  0.42005193  0.76470503  0.00031035  1.0
  O  O39  1  0.42005193  0.73529497  0.50031035  1.0
