# generated using pymatgen
data_CeSnRh
_symmetry_space_group_name_H-M   'P 1'
_cell_length_a   7.49405595
_cell_length_b   7.49405595
_cell_length_c   4.07439382
_cell_angle_alpha   90.00000000
_cell_angle_beta   90.00000000
_cell_angle_gamma   120.00000000
_symmetry_Int_Tables_number   1
_chemical_formula_structural   CeSnRh
_chemical_formula_sum   'Ce3 Sn3 Rh3'
_cell_volume   198.16524986
_cell_formula_units_Z   3
loop_
 _symmetry_equiv_pos_site_id
 _symmetry_equiv_pos_as_xyz
  1  'x, y, z'
loop_
 _atom_site_type_symbol
 _atom_site_label
 _atom_site_symmetry_multiplicity
 _atom_site_fract_x
 _atom_site_fract_y
 _atom_site_fract_z
 _atom_site_occupancy
  Ce  Ce0  1  0.41378435  0.41378435  0.00000000  1.0
  Ce  Ce1  1  -0.00000000  0.58621565  0.00000000  1.0
  Ce  Ce2  1  0.58621565  0.00000000  0.00000000  1.0
  Sn  Sn3  1  0.74739659  0.74739659  0.50000000  1.0
  Sn  Sn4  1  -0.00000000  0.25260341  0.50000000  1.0
  Sn  Sn5  1  0.25260341  0.00000000  0.50000000  1.0
  Rh  Rh6  1  0.33333333  0.66666667  0.50000000  1.0
  Rh  Rh7  1  0.66666667  0.33333333  0.50000000  1.0
  Rh  Rh8  1  0.00000000  0.00000000  0.00000000  1.0
