# generated using pymatgen
data_LaS
_symmetry_space_group_name_H-M   'P 1'
_cell_length_a   4.08109230
_cell_length_b   4.08109230
_cell_length_c   22.91548143
_cell_angle_alpha   90.00000000
_cell_angle_beta   90.00000000
_cell_angle_gamma   89.99637105
_symmetry_Int_Tables_number   1
_chemical_formula_structural   LaS
_chemical_formula_sum   'La4 S4'
_cell_volume   381.66454685
_cell_formula_units_Z   4
loop_
 _symmetry_equiv_pos_site_id
 _symmetry_equiv_pos_as_xyz
  1  'x, y, z'
loop_
 _atom_site_type_symbol
 _atom_site_label
 _atom_site_symmetry_multiplicity
 _atom_site_fract_x
 _atom_site_fract_y
 _atom_site_fract_z
 _atom_site_occupancy
  La  La0  1  0.08606094  0.91393906  0.30628643  1.0
  La  La1  1  -0.08606094  1.08606094  0.69371357  1.0
  La  La2  1  0.41393906  0.58606094  0.80628643  1.0
  La  La3  1  -0.41393906  1.41393906  0.19371357  1.0
  S  S4  1  -0.41393905  1.41393905  0.32150381  1.0
  S  S5  1  0.41393905  0.58606095  0.67849619  1.0
  S  S6  1  -0.08606095  1.08606095  0.82150381  1.0
  S  S7  1  0.08606095  0.91393905  0.17849619  1.0
