# generated using pymatgen
data_AuClO2
_symmetry_space_group_name_H-M   'P 1'
_cell_length_a   10.84673835
_cell_length_b   10.84673835
_cell_length_c   3.44449658
_cell_angle_alpha   87.85171450
_cell_angle_beta   92.14828550
_cell_angle_gamma   27.96257426
_symmetry_Int_Tables_number   1
_chemical_formula_structural   AuClO2
_chemical_formula_sum   'Au2 Cl2 O4'
_cell_volume   187.71897685
_cell_formula_units_Z   2
loop_
 _symmetry_equiv_pos_site_id
 _symmetry_equiv_pos_as_xyz
  1  'x, y, z'
loop_
 _atom_site_type_symbol
 _atom_site_label
 _atom_site_symmetry_multiplicity
 _atom_site_fract_x
 _atom_site_fract_y
 _atom_site_fract_z
 _atom_site_occupancy
  Au  Au0  1  1.00000000  -0.50000000  0.50000000  1.0
  Au  Au1  1  0.50000000  0.00000000  -0.00000000  1.0
  Cl  Cl2  1  0.33798813  0.33798813  0.75000000  1.0
  Cl  Cl3  1  0.66201187  -0.33798813  0.25000000  1.0
  O  O4  1  0.84949540  0.08512312  0.22218348  1.0
  O  O5  1  1.08512312  -0.15050460  0.27781652  1.0
  O  O6  1  0.15050460  -0.08512312  0.77781652  1.0
  O  O7  1  0.91487688  -0.84949540  0.72218348  1.0
