# generated using pymatgen
data_Sb2Te4Pb
_symmetry_space_group_name_H-M   'P 1'
_cell_length_a   14.39012197
_cell_length_b   14.39012197
_cell_length_c   14.39012197
_cell_angle_alpha   17.65502682
_cell_angle_beta   17.65502682
_cell_angle_gamma   17.65502682
_symmetry_Int_Tables_number   1
_chemical_formula_structural   Sb2Te4Pb
_chemical_formula_sum   'Sb2 Te4 Pb1'
_cell_volume   239.24821780
_cell_formula_units_Z   1
loop_
 _symmetry_equiv_pos_site_id
 _symmetry_equiv_pos_as_xyz
  1  'x, y, z'
loop_
 _atom_site_type_symbol
 _atom_site_label
 _atom_site_symmetry_multiplicity
 _atom_site_fract_x
 _atom_site_fract_y
 _atom_site_fract_z
 _atom_site_occupancy
  Sb  Sb0  1  0.57323274  0.57323274  -0.42676726  1.0
  Sb  Sb1  1  0.42676726  0.42676726  -0.57323274  1.0
  Te  Te2  1  0.86770856  -0.13229144  -0.13229144  1.0
  Te  Te3  1  0.13229144  0.13229144  0.13229144  1.0
  Te  Te4  1  0.71407681  -0.28592319  -0.28592319  1.0
  Te  Te5  1  0.28592319  0.28592319  0.28592319  1.0
  Pb  Pb6  1  0.00000000  0.00000000  0.00000000  1.0
