# generated using pymatgen
data_CaGa3Ni2
_symmetry_space_group_name_H-M   'P 1'
_cell_length_a   6.28772970
_cell_length_b   6.28772970
_cell_length_c   5.16821100
_cell_angle_alpha   90.00000000
_cell_angle_beta   90.00000000
_cell_angle_gamma   77.94289174
_symmetry_Int_Tables_number   1
_chemical_formula_structural   CaGa3Ni2
_chemical_formula_sum   'Ca2 Ga6 Ni4'
_cell_volume   199.82053707
_cell_formula_units_Z   2
loop_
 _symmetry_equiv_pos_site_id
 _symmetry_equiv_pos_as_xyz
  1  'x, y, z'
loop_
 _atom_site_type_symbol
 _atom_site_label
 _atom_site_symmetry_multiplicity
 _atom_site_fract_x
 _atom_site_fract_y
 _atom_site_fract_z
 _atom_site_occupancy
  Ca  Ca0  1  -0.34430851  1.34430851  0.25000000  1.0
  Ca  Ca1  1  0.34430851  0.65569149  0.75000000  1.0
  Ga  Ga2  1  0.09105492  0.53423854  0.25000000  1.0
  Ga  Ga3  1  -0.46576146  1.09105492  0.75000000  1.0
  Ga  Ga4  1  0.46576146  0.90894508  0.25000000  1.0
  Ga  Ga5  1  -0.09105492  1.46576146  0.75000000  1.0
  Ga  Ga6  1  0.04902224  0.95097776  0.25000000  1.0
  Ga  Ga7  1  -0.04902224  1.04902224  0.75000000  1.0
  Ni  Ni8  1  0.78868270  0.78868270  0.50000000  1.0
  Ni  Ni9  1  0.78868270  0.78868270  0.00000000  1.0
  Ni  Ni10  1  0.21131730  0.21131730  0.50000000  1.0
  Ni  Ni11  1  0.21131730  0.21131730  0.00000000  1.0
