# generated using pymatgen
data_BaLu2Si3O10
_symmetry_space_group_name_H-M   'P 1'
_cell_length_a   5.42647576
_cell_length_b   12.28041949
_cell_length_c   6.85048461
_cell_angle_alpha   90.00000000
_cell_angle_beta   106.52711155
_cell_angle_gamma   90.00000000
_symmetry_Int_Tables_number   1
_chemical_formula_structural   BaLu2Si3O10
_chemical_formula_sum   'Ba2 Lu4 Si6 O20'
_cell_volume   437.65148177
_cell_formula_units_Z   2
loop_
 _symmetry_equiv_pos_site_id
 _symmetry_equiv_pos_as_xyz
  1  'x, y, z'
loop_
 _atom_site_type_symbol
 _atom_site_label
 _atom_site_symmetry_multiplicity
 _atom_site_fract_x
 _atom_site_fract_y
 _atom_site_fract_z
 _atom_site_occupancy
  Ba  Ba0  1  0.75992619  0.75000000  0.01399754  1.0
  Ba  Ba1  1  0.24007381  0.25000000  0.98600246  1.0
  Lu  Lu2  1  0.15541462  0.90006462  0.68119901  1.0
  Lu  Lu3  1  0.84458538  0.40006462  0.31880099  1.0
  Lu  Lu4  1  0.84458538  0.09993538  0.31880099  1.0
  Lu  Lu5  1  0.15541462  0.59993538  0.68119901  1.0
  Si  Si6  1  0.57804390  0.75000000  0.48530128  1.0
  Si  Si7  1  0.42195610  0.25000000  0.51469872  1.0
  Si  Si8  1  0.30373532  0.94127069  0.21158521  1.0
  Si  Si9  1  0.69626468  0.44127069  0.78841479  1.0
  Si  Si10  1  0.69626468  0.05872931  0.78841479  1.0
  Si  Si11  1  0.30373532  0.55872931  0.21158521  1.0
  O  O12  1  0.36522086  0.75000000  0.61261259  1.0
  O  O13  1  0.63477914  0.25000000  0.38738741  1.0
  O  O14  1  0.87505372  0.75000000  0.63213166  1.0
  O  O15  1  0.12494628  0.25000000  0.36786834  1.0
  O  O16  1  0.54410272  0.85669042  0.33343499  1.0
  O  O17  1  0.45589728  0.35669042  0.66656501  1.0
  O  O18  1  0.45589728  0.14330958  0.66656501  1.0
  O  O19  1  0.54410272  0.64330958  0.33343499  1.0
  O  O20  1  0.44333578  0.05582645  0.19251674  1.0
  O  O21  1  0.55666422  0.55582645  0.80748326  1.0
  O  O22  1  0.55666422  0.94417355  0.80748326  1.0
  O  O23  1  0.44333578  0.44417355  0.19251674  1.0
  O  O24  1  0.15518705  0.88148699  -0.00207081  1.0
  O  O25  1  0.84481295  0.38148699  1.00207081  1.0
  O  O26  1  0.84481295  0.11851301  1.00207081  1.0
  O  O27  1  0.15518705  0.61851301  -0.00207081  1.0
  O  O28  1  0.10471436  0.95371040  0.35453603  1.0
  O  O29  1  0.89528564  0.45371040  0.64546397  1.0
  O  O30  1  0.89528564  0.04628960  0.64546397  1.0
  O  O31  1  0.10471436  0.54628960  0.35453603  1.0
