# generated using pymatgen
data_Cs3GeAsSe5
_symmetry_space_group_name_H-M   'P 1'
_cell_length_a   8.03181041
_cell_length_b   9.83733532
_cell_length_c   20.19204533
_cell_angle_alpha   90.00000000
_cell_angle_beta   102.65414972
_cell_angle_gamma   90.00000000
_symmetry_Int_Tables_number   1
_chemical_formula_structural   Cs3GeAsSe5
_chemical_formula_sum   'Cs12 Ge4 As4 Se20'
_cell_volume   1556.65389964
_cell_formula_units_Z   4
loop_
 _symmetry_equiv_pos_site_id
 _symmetry_equiv_pos_as_xyz
  1  'x, y, z'
loop_
 _atom_site_type_symbol
 _atom_site_label
 _atom_site_symmetry_multiplicity
 _atom_site_fract_x
 _atom_site_fract_y
 _atom_site_fract_z
 _atom_site_occupancy
  Cs  Cs0  1  0.92116424  0.21171734  0.04258246  1.0
  Cs  Cs1  1  0.92116424  0.28828266  0.54258246  1.0
  Cs  Cs2  1  0.07883576  0.71171734  0.45741754  1.0
  Cs  Cs3  1  0.07883576  0.78828266  0.95741754  1.0
  Cs  Cs4  1  0.84361939  0.06481031  0.26370653  1.0
  Cs  Cs5  1  0.84361939  0.43518969  0.76370653  1.0
  Cs  Cs6  1  0.15638061  0.56481031  0.23629347  1.0
  Cs  Cs7  1  0.15638061  0.93518969  0.73629347  1.0
  Cs  Cs8  1  0.38232292  0.21417709  0.41520228  1.0
  Cs  Cs9  1  0.38232292  0.28582291  0.91520228  1.0
  Cs  Cs10  1  0.61767708  0.71417709  0.08479772  1.0
  Cs  Cs11  1  0.61767708  0.78582291  0.58479772  1.0
  Ge  Ge12  1  0.43744462  0.29385110  0.13029789  1.0
  Ge  Ge13  1  0.43744462  0.20614890  0.63029789  1.0
  Ge  Ge14  1  0.56255538  0.79385110  0.36970211  1.0
  Ge  Ge15  1  0.56255538  0.70614890  0.86970211  1.0
  As  As16  1  0.67313910  0.46255853  0.30169105  1.0
  As  As17  1  0.67313910  0.03744147  0.80169105  1.0
  As  As18  1  0.32686090  0.96255853  0.19830895  1.0
  As  As19  1  0.32686090  0.53744147  0.69830895  1.0
  Se  Se20  1  0.94131160  0.39515184  0.36534554  1.0
  Se  Se21  1  0.94131160  0.10484816  0.86534554  1.0
  Se  Se22  1  0.05868840  0.89515184  0.13465446  1.0
  Se  Se23  1  0.05868840  0.60484816  0.63465446  1.0
  Se  Se24  1  0.73612039  0.96157347  0.43109348  1.0
  Se  Se25  1  0.73612039  0.53842653  0.93109348  1.0
  Se  Se26  1  0.26387961  0.46157347  0.06890652  1.0
  Se  Se27  1  0.26387961  0.03842653  0.56890652  1.0
  Se  Se28  1  0.71632619  0.39126617  0.18676459  1.0
  Se  Se29  1  0.71632619  0.10873383  0.68676459  1.0
  Se  Se30  1  0.28367381  0.89126617  0.31323541  1.0
  Se  Se31  1  0.28367381  0.60873383  0.81323541  1.0
  Se  Se32  1  0.50082854  0.09979816  0.07437428  1.0
  Se  Se33  1  0.50082854  0.40020184  0.57437428  1.0
  Se  Se34  1  0.49917146  0.59979816  0.42562572  1.0
  Se  Se35  1  0.49917146  0.90020184  0.92562572  1.0
  Se  Se36  1  0.30642930  0.21043799  0.22258746  1.0
  Se  Se37  1  0.30642930  0.28956201  0.72258746  1.0
  Se  Se38  1  0.69357070  0.71043799  0.27741254  1.0
  Se  Se39  1  0.69357070  0.78956201  0.77741254  1.0
