# generated using pymatgen
data_KPH5C2SN3O4
_symmetry_space_group_name_H-M   'P 1'
_cell_length_a   10.92122085
_cell_length_b   6.90512973
_cell_length_c   6.30347540
_cell_angle_alpha   100.72613193
_cell_angle_beta   103.20884065
_cell_angle_gamma   90.98839902
_symmetry_Int_Tables_number   1
_chemical_formula_structural   KPH5C2SN3O4
_chemical_formula_sum   'K2 P2 H10 C4 S2 N6 O8'
_cell_volume   453.80967021
_cell_formula_units_Z   2
loop_
 _symmetry_equiv_pos_site_id
 _symmetry_equiv_pos_as_xyz
  1  'x, y, z'
loop_
 _atom_site_type_symbol
 _atom_site_label
 _atom_site_symmetry_multiplicity
 _atom_site_fract_x
 _atom_site_fract_y
 _atom_site_fract_z
 _atom_site_occupancy
  K  K0  1  0.31891929  0.83235786  -0.50251959  1.0
  K  K1  1  0.68108071  0.16764214  -0.49748041  1.0
  P  P2  1  0.72316372  0.74128920  -0.03813373  1.0
  P  P3  1  0.27683628  0.25871080  -0.96186627  1.0
  H  H4  1  0.50333671  0.81040584  -0.88689427  1.0
  H  H5  1  0.49666329  0.18959416  -0.11310573  1.0
  H  H6  1  0.97971816  0.35829501  -0.43328441  1.0
  H  H7  1  0.02028184  0.64170499  -0.56671559  1.0
  H  H8  1  0.89803250  0.92589051  -0.08351379  1.0
  H  H9  1  0.10196750  0.07410949  -0.91648621  1.0
  H  H10  1  0.68191808  0.41498362  0.01812845  1.0
  H  H11  1  0.31808192  0.58501638  -0.01812845  1.0
  H  H12  1  0.38109012  0.91270760  -0.96770883  1.0
  H  H13  1  0.61890988  0.08729240  -0.03229117  1.0
  C  C14  1  0.97155302  0.79498018  -0.82082606  1.0
  C  C15  1  0.02844698  0.20501982  -0.17917394  1.0
  C  C16  1  0.84773266  0.51487012  -0.75737883  1.0
  C  C17  1  0.15226734  0.48512988  -0.24262117  1.0
  S  S18  1  0.64137308  0.67626469  -0.35615055  1.0
  S  S19  1  0.35862692  0.32373531  -0.64384945  1.0
  N  N20  1  0.74957270  0.53388748  -0.92744591  1.0
  N  N21  1  0.25042730  0.46611252  -0.07255409  1.0
  N  N22  1  0.94738207  0.65610873  -0.70073070  1.0
  N  N23  1  0.05261793  0.34389127  -0.29926930  1.0
  N  N24  1  0.87776553  0.82202270  0.00622669  1.0
  N  N25  1  0.12223447  0.17797730  -1.00622669  1.0
  O  O26  1  0.66030872  0.88873668  -0.89006335  1.0
  O  O27  1  0.33969128  0.11126332  -0.10993665  1.0
  O  O28  1  0.41192141  0.80269478  -0.89243305  1.0
  O  O29  1  0.58807859  0.19730522  -0.10756695  1.0
  O  O30  1  0.07740608  0.88572831  -0.76925559  1.0
  O  O31  1  0.92259392  0.11427169  -0.23074441  1.0
  O  O32  1  0.85180587  0.37496411  -0.65651575  1.0
  O  O33  1  0.14819413  0.62503589  -0.34348425  1.0
