# generated using pymatgen
data_KSbF6
_symmetry_space_group_name_H-M   'P 1'
_cell_length_a   5.35036278
_cell_length_b   5.35036278
_cell_length_c   10.13604032
_cell_angle_alpha   90.00000000
_cell_angle_beta   90.00000000
_cell_angle_gamma   90.00000000
_symmetry_Int_Tables_number   1
_chemical_formula_structural   KSbF6
_chemical_formula_sum   'K2 Sb2 F12'
_cell_volume   290.15816089
_cell_formula_units_Z   2
loop_
 _symmetry_equiv_pos_site_id
 _symmetry_equiv_pos_as_xyz
  1  'x, y, z'
loop_
 _atom_site_type_symbol
 _atom_site_label
 _atom_site_symmetry_multiplicity
 _atom_site_fract_x
 _atom_site_fract_y
 _atom_site_fract_z
 _atom_site_occupancy
  K  K0  1  0.00000000  0.00000000  0.00000000  1.0
  K  K1  1  0.00000000  0.00000000  0.50000000  1.0
  Sb  Sb2  1  0.50000000  0.50000000  0.24995658  1.0
  Sb  Sb3  1  0.50000000  0.50000000  0.75004342  1.0
  F  F4  1  0.31888248  0.68111752  0.38358486  1.0
  F  F5  1  0.68111752  0.68111752  0.61641514  1.0
  F  F6  1  0.31888248  0.31888248  0.61641514  1.0
  F  F7  1  0.68111752  0.31888248  0.38358486  1.0
  F  F8  1  0.24468241  0.75531759  0.75002252  1.0
  F  F9  1  0.75531759  0.75531759  0.24997748  1.0
  F  F10  1  0.24468241  0.24468241  0.24997748  1.0
  F  F11  1  0.75531759  0.24468241  0.75002252  1.0
  F  F12  1  0.31889749  0.68110251  0.11631668  1.0
  F  F13  1  0.68110251  0.68110251  0.88368332  1.0
  F  F14  1  0.31889749  0.31889749  0.88368332  1.0
  F  F15  1  0.68110251  0.31889749  0.11631668  1.0
