# generated using pymatgen
data_K2CuP4H8O15
_symmetry_space_group_name_H-M   'P 1'
_cell_length_a   7.67428236
_cell_length_b   7.67428236
_cell_length_c   6.64954224
_cell_angle_alpha   80.95596538
_cell_angle_beta   99.04403462
_cell_angle_gamma   75.58051685
_symmetry_Int_Tables_number   1
_chemical_formula_structural   K2CuP4H8O15
_chemical_formula_sum   'K2 Cu1 P4 H8 O15'
_cell_volume   366.59339220
_cell_formula_units_Z   1
loop_
 _symmetry_equiv_pos_site_id
 _symmetry_equiv_pos_as_xyz
  1  'x, y, z'
loop_
 _atom_site_type_symbol
 _atom_site_label
 _atom_site_symmetry_multiplicity
 _atom_site_fract_x
 _atom_site_fract_y
 _atom_site_fract_z
 _atom_site_occupancy
  O  O0  1  0.87259845  -0.09907309  0.77418806  1.0
  O  O1  1  1.09907309  0.12740155  0.77418806  1.0
  O  O2  1  0.90092691  -0.12740155  0.22581194  1.0
  O  O3  1  1.12740155  0.09907309  0.22581194  1.0
  O  O4  1  0.54075306  -0.12710512  0.72286762  1.0
  O  O5  1  1.12710512  0.45924694  0.72286762  1.0
  O  O6  1  0.87289488  -0.45924694  0.27713238  1.0
  O  O7  1  1.45924694  0.12710512  0.27713238  1.0
  O  O8  1  1.41366776  0.19820733  0.77304249  1.0
  O  O9  1  0.80179267  -0.41366776  0.77304249  1.0
  O  O10  1  1.19820733  0.41366776  0.22695751  1.0
  O  O11  1  0.58633224  -0.19820733  0.22695751  1.0
  O  O12  1  0.73566085  -0.73566085  0.96081086  1.0
  O  O13  1  0.26433915  -0.26433915  0.03918914  1.0
  O  O14  1  0.50000000  -0.50000000  0.50000000  1.0
  Cu  Cu15  1  0.00000000  0.00000000  0.00000000  1.0
  K  K16  1  0.78450027  -0.78450027  0.40940665  1.0
  K  K17  1  0.21549973  -0.21549973  0.59059335  1.0
  P  P18  1  0.74968090  -0.22457869  0.82902145  1.0
  P  P19  1  1.22457869  0.25031910  0.82902145  1.0
  P  P20  1  0.77542131  -0.25031910  0.17097855  1.0
  P  P21  1  1.25031910  0.22457869  0.17097855  1.0
  H  H22  1  0.49152538  0.00710665  0.74148400  1.0
  H  H23  1  0.99289335  0.50847462  0.74148400  1.0
  H  H24  1  1.00710665  -0.50847462  0.25851600  1.0
  H  H25  1  1.50847462  -0.00710665  0.25851600  1.0
  H  H26  1  1.61813598  0.25165281  0.88838666  1.0
  H  H27  1  0.74834719  -0.61813598  0.88838666  1.0
  H  H28  1  1.25165281  0.61813598  0.11161334  1.0
  H  H29  1  0.38186402  -0.25165281  0.11161334  1.0
