# generated using pymatgen
data_ReC5ClO5
_symmetry_space_group_name_H-M   'P 1'
_cell_length_a   12.38756558
_cell_length_b   12.50385519
_cell_length_c   6.35869386
_cell_angle_alpha   90.00000000
_cell_angle_beta   90.00000000
_cell_angle_gamma   90.00000000
_symmetry_Int_Tables_number   1
_chemical_formula_structural   ReC5ClO5
_chemical_formula_sum   'Re4 C20 Cl4 O20'
_cell_volume   984.91288363
_cell_formula_units_Z   4
loop_
 _symmetry_equiv_pos_site_id
 _symmetry_equiv_pos_as_xyz
  1  'x, y, z'
loop_
 _atom_site_type_symbol
 _atom_site_label
 _atom_site_symmetry_multiplicity
 _atom_site_fract_x
 _atom_site_fract_y
 _atom_site_fract_z
 _atom_site_occupancy
  Re  Re0  1  0.37428346  0.25000000  0.55068070  1.0
  Re  Re1  1  0.87428346  0.25000000  0.94931930  1.0
  Re  Re2  1  0.62571654  0.75000000  0.44931930  1.0
  Re  Re3  1  0.12571654  0.75000000  0.05068070  1.0
  C  C4  1  0.96310472  0.36463962  0.81105912  1.0
  C  C5  1  0.96310472  0.13536038  0.81105912  1.0
  C  C6  1  0.46310472  0.36463962  0.68894088  1.0
  C  C7  1  0.46310472  0.13536038  0.68894088  1.0
  C  C8  1  0.03689528  0.86463962  0.18894088  1.0
  C  C9  1  0.03689528  0.63536038  0.18894088  1.0
  C  C10  1  0.53689528  0.86463962  0.31105912  1.0
  C  C11  1  0.53689528  0.63536038  0.31105912  1.0
  C  C12  1  0.77982880  0.36372312  0.07730012  1.0
  C  C13  1  0.77982880  0.13627688  0.07730012  1.0
  C  C14  1  0.27982880  0.36372312  0.42269988  1.0
  C  C15  1  0.27982880  0.13627688  0.42269988  1.0
  C  C16  1  0.22017120  0.86372312  0.92269988  1.0
  C  C17  1  0.22017120  0.63627688  0.92269988  1.0
  C  C18  1  0.72017120  0.86372312  0.57730012  1.0
  C  C19  1  0.72017120  0.63627688  0.57730012  1.0
  C  C20  1  0.96820504  0.25000000  0.19209778  1.0
  C  C21  1  0.46820504  0.25000000  0.30790222  1.0
  C  C22  1  0.03179496  0.75000000  0.80790222  1.0
  C  C23  1  0.53179496  0.75000000  0.69209778  1.0
  Cl  Cl24  1  0.75330719  0.25000000  0.63517343  1.0
  Cl  Cl25  1  0.25330719  0.25000000  0.86482657  1.0
  Cl  Cl26  1  0.24669281  0.75000000  0.36482657  1.0
  Cl  Cl27  1  0.74669281  0.75000000  0.13517343  1.0
  O  O28  1  0.98712612  0.93192766  0.26452200  1.0
  O  O29  1  0.98712612  0.56807234  0.26452200  1.0
  O  O30  1  0.48712612  0.93192766  0.23547800  1.0
  O  O31  1  0.48712612  0.56807234  0.23547800  1.0
  O  O32  1  0.01287388  0.43192766  0.73547800  1.0
  O  O33  1  0.01287388  0.06807234  0.73547800  1.0
  O  O34  1  0.51287388  0.43192766  0.76452200  1.0
  O  O35  1  0.51287388  0.06807234  0.76452200  1.0
  O  O36  1  0.72645918  0.42911349  0.14951928  1.0
  O  O37  1  0.72645918  0.07088651  0.14951928  1.0
  O  O38  1  0.22645918  0.42911349  0.35048072  1.0
  O  O39  1  0.22645918  0.07088651  0.35048072  1.0
  O  O40  1  0.27354082  0.92911349  0.85048072  1.0
  O  O41  1  0.27354082  0.57088651  0.85048072  1.0
  O  O42  1  0.77354082  0.92911349  0.64951928  1.0
  O  O43  1  0.77354082  0.57088651  0.64951928  1.0
  O  O44  1  0.52524951  0.25000000  0.16306784  1.0
  O  O45  1  0.02524951  0.25000000  0.33693216  1.0
  O  O46  1  0.47475049  0.75000000  0.83693216  1.0
  O  O47  1  0.97475049  0.75000000  0.66306784  1.0
