# generated using pymatgen
data_Cs2TiP4O13
_symmetry_space_group_name_H-M   'P 1'
_cell_length_a   16.12613447
_cell_length_b   8.21338651
_cell_length_c   5.24617471
_cell_angle_alpha   80.09794198
_cell_angle_beta   83.63426193
_cell_angle_gamma   84.95736629
_symmetry_Int_Tables_number   1
_chemical_formula_structural   Cs2TiP4O13
_chemical_formula_sum   'Cs4 Ti2 P8 O26'
_cell_volume   678.60186549
_cell_formula_units_Z   2
loop_
 _symmetry_equiv_pos_site_id
 _symmetry_equiv_pos_as_xyz
  1  'x, y, z'
loop_
 _atom_site_type_symbol
 _atom_site_label
 _atom_site_symmetry_multiplicity
 _atom_site_fract_x
 _atom_site_fract_y
 _atom_site_fract_z
 _atom_site_occupancy
  Cs  Cs0  1  -0.99072373  -0.23892433  -0.69108161  1.0
  Cs  Cs1  1  -0.00927627  -0.76107567  -0.30891839  1.0
  Cs  Cs2  1  -0.52694025  -0.80302335  -0.27476912  1.0
  Cs  Cs3  1  -0.47305975  -0.19697665  -0.72523088  1.0
  Ti  Ti4  1  -0.74118414  -0.43950934  -0.54228884  1.0
  Ti  Ti5  1  -0.25881586  -0.56049066  -0.45771116  1.0
  P  P6  1  -0.83689435  -0.59679107  -0.96120902  1.0
  P  P7  1  -0.16310565  -0.40320893  -0.03879098  1.0
  P  P8  1  -0.34960650  -0.72274861  -0.88119982  1.0
  P  P9  1  -0.65039350  -0.27725139  -0.11880018  1.0
  P  P10  1  -0.19656288  -0.90618095  -0.66783962  1.0
  P  P11  1  -0.80343712  -0.09381905  -0.33216038  1.0
  P  P12  1  -0.71202466  -0.81734436  -0.67641417  1.0
  P  P13  1  -0.28797534  -0.18265564  -0.32358583  1.0
  O  O14  1  -0.75971819  -0.74382715  -0.92890556  1.0
  O  O15  1  -0.24028181  -0.25617285  -0.07109444  1.0
  O  O16  1  -0.91965942  -0.66705410  -0.87144030  1.0
  O  O17  1  -0.08034058  -0.33294590  -0.12855970  1.0
  O  O18  1  -0.26983753  -0.86236025  -0.85672441  1.0
  O  O19  1  -0.73016247  -0.13763975  -0.14327559  1.0
  O  O20  1  -0.11177178  -0.91878815  -0.81051170  1.0
  O  O21  1  -0.88822822  -0.08121185  -0.18948830  1.0
  O  O22  1  -0.81549858  -0.46793577  -0.79439465  1.0
  O  O23  1  -0.18450142  -0.53206423  -0.20560535  1.0
  O  O24  1  -0.42968220  -0.80539362  -0.79924665  1.0
  O  O25  1  -0.57031780  -0.19460638  -0.20075335  1.0
  O  O26  1  -0.65818258  -0.35771779  -0.82806041  1.0
  O  O27  1  -0.34181742  -0.64228221  -0.17193959  1.0
  O  O28  1  -0.63764261  -0.92819909  -0.74028955  1.0
  O  O29  1  -0.36235739  -0.07180091  -0.25971045  1.0
  O  O30  1  -0.33323660  -0.59317494  -0.70945434  1.0
  O  O31  1  -0.66676340  -0.40682506  -0.29054566  1.0
  O  O32  1  -0.69508862  -0.66908525  -0.54780826  1.0
  O  O33  1  -0.30491138  -0.33091475  -0.45219174  1.0
  O  O34  1  -0.79048266  -0.21278059  -0.53318977  1.0
  O  O35  1  -0.20951734  -0.78721941  -0.46681023  1.0
  O  O36  1  -0.78541095  -0.90936154  -0.48267982  1.0
  O  O37  1  -0.21458905  -0.09063846  -0.51732018  1.0
  O  O38  1  -0.82528270  -0.52388571  -0.25380935  1.0
  O  O39  1  -0.17471730  -0.47611429  -0.74619065  1.0
