# generated using pymatgen
data_KTiO3
_symmetry_space_group_name_H-M   'P 1'
_cell_length_a   5.78685347
_cell_length_b   5.78685347
_cell_length_c   9.63833136
_cell_angle_alpha   90.00000000
_cell_angle_beta   90.00000000
_cell_angle_gamma   120.00000000
_symmetry_Int_Tables_number   1
_chemical_formula_structural   KTiO3
_chemical_formula_sum   'K4 Ti4 O12'
_cell_volume   279.52293987
_cell_formula_units_Z   4
loop_
 _symmetry_equiv_pos_site_id
 _symmetry_equiv_pos_as_xyz
  1  'x, y, z'
loop_
 _atom_site_type_symbol
 _atom_site_label
 _atom_site_symmetry_multiplicity
 _atom_site_fract_x
 _atom_site_fract_y
 _atom_site_fract_z
 _atom_site_occupancy
  O  O0  1  0.50000000  0.50000000  0.50000000  1.0
  O  O1  1  0.50000000  0.50000000  0.00000000  1.0
  O  O2  1  0.50000000  0.00000000  0.50000000  1.0
  O  O3  1  0.50000000  0.00000000  0.00000000  1.0
  O  O4  1  -0.00000000  0.50000000  0.50000000  1.0
  O  O5  1  -0.00000000  0.50000000  0.00000000  1.0
  O  O6  1  0.19541275  0.80458725  0.25000000  1.0
  O  O7  1  0.19541275  0.39082549  0.25000000  1.0
  O  O8  1  0.80458725  0.19541275  0.75000000  1.0
  O  O9  1  0.80458725  0.60917451  0.75000000  1.0
  O  O10  1  0.60917451  0.80458725  0.25000000  1.0
  O  O11  1  0.39082549  0.19541275  0.75000000  1.0
  Ti  Ti12  1  0.33333333  0.66666667  0.40594412  1.0
  Ti  Ti13  1  0.33333333  0.66666667  0.09405588  1.0
  Ti  Ti14  1  0.66666667  0.33333333  0.90594412  1.0
  Ti  Ti15  1  0.66666667  0.33333333  0.59405588  1.0
  K  K16  1  0.33333333  0.66666667  0.75000000  1.0
  K  K17  1  0.66666667  0.33333333  0.25000000  1.0
  K  K18  1  0.00000000  0.00000000  0.50000000  1.0
  K  K19  1  0.00000000  0.00000000  0.00000000  1.0
