# generated using pymatgen
data_Na4ReN3
_symmetry_space_group_name_H-M   'P 1'
_cell_length_a   6.27897440
_cell_length_b   6.27897440
_cell_length_c   8.92871409
_cell_angle_alpha   68.37904893
_cell_angle_beta   111.62095107
_cell_angle_gamma   122.14505093
_symmetry_Int_Tables_number   1
_chemical_formula_structural   Na4ReN3
_chemical_formula_sum   'Na8 Re2 N6'
_cell_volume   270.35619739
_cell_formula_units_Z   2
loop_
 _symmetry_equiv_pos_site_id
 _symmetry_equiv_pos_as_xyz
  1  'x, y, z'
loop_
 _atom_site_type_symbol
 _atom_site_label
 _atom_site_symmetry_multiplicity
 _atom_site_fract_x
 _atom_site_fract_y
 _atom_site_fract_z
 _atom_site_occupancy
  Na  Na0  1  0.83878581  0.78128154  0.77372461  1.0
  Na  Na1  1  0.21871846  0.16121419  0.27372461  1.0
  Na  Na2  1  0.80357043  0.52544856  0.49948698  1.0
  Na  Na3  1  1.47455144  0.19642957  -0.00051302  1.0
  Na  Na4  1  1.04853709  -0.40398797  0.16488695  1.0
  Na  Na5  1  0.40398797  -0.04853709  0.66488695  1.0
  Na  Na6  1  1.30833123  -0.58630698  0.59470387  1.0
  Na  Na7  1  1.58630698  -0.30833123  0.09470387  1.0
  Re  Re8  1  1.00077227  0.29482484  0.88820897  1.0
  Re  Re9  1  1.70517516  -0.00077227  0.38820897  1.0
  N  N10  1  1.01327705  1.00854562  0.50512546  1.0
  N  N11  1  -0.00854562  -0.01327705  0.00512546  1.0
  N  N12  1  0.70630988  0.32655933  0.78396681  1.0
  N  N13  1  0.67344067  -0.70630988  0.28396681  1.0
  N  N14  1  1.30016344  0.53338227  0.82679635  1.0
  N  N15  1  1.46661773  -0.30016344  0.32679635  1.0
