# generated using pymatgen
data_RbNaBO2
_symmetry_space_group_name_H-M   'P 1'
_cell_length_a   11.07374813
_cell_length_b   18.88832692
_cell_length_c   7.28418248
_cell_angle_alpha   90.00000000
_cell_angle_beta   90.00000000
_cell_angle_gamma   90.00000000
_symmetry_Int_Tables_number   1
_chemical_formula_structural   RbNaBO2
_chemical_formula_sum   'Rb8 Na8 B8 O16'
_cell_volume   1523.59293157
_cell_formula_units_Z   8
loop_
 _symmetry_equiv_pos_site_id
 _symmetry_equiv_pos_as_xyz
  1  'x, y, z'
loop_
 _atom_site_type_symbol
 _atom_site_label
 _atom_site_symmetry_multiplicity
 _atom_site_fract_x
 _atom_site_fract_y
 _atom_site_fract_z
 _atom_site_occupancy
  Rb  Rb0  1  0.29782694  0.66001989  0.62661199  1.0
  Rb  Rb1  1  0.29782694  0.33998011  0.62661199  1.0
  Rb  Rb2  1  0.79782694  0.16001989  0.37338801  1.0
  Rb  Rb3  1  0.79782694  0.83998011  0.37338801  1.0
  Rb  Rb4  1  0.70217306  0.66001989  0.62661199  1.0
  Rb  Rb5  1  0.70217306  0.33998011  0.62661199  1.0
  Rb  Rb6  1  0.20217306  0.16001989  0.37338801  1.0
  Rb  Rb7  1  0.20217306  0.83998011  0.37338801  1.0
  Na  Na8  1  0.18292757  0.30220733  0.10739462  1.0
  Na  Na9  1  0.18292757  0.69779267  0.10739462  1.0
  Na  Na10  1  0.68292757  0.80220733  0.89260538  1.0
  Na  Na11  1  0.68292757  0.19779267  0.89260538  1.0
  Na  Na12  1  0.81707243  0.30220733  0.10739462  1.0
  Na  Na13  1  0.81707243  0.69779267  0.10739462  1.0
  Na  Na14  1  0.31707243  0.80220733  0.89260538  1.0
  Na  Na15  1  0.31707243  0.19779267  0.89260538  1.0
  B  B16  1  0.08395063  0.20104766  0.85834164  1.0
  B  B17  1  0.08395063  0.79895234  0.85834164  1.0
  B  B18  1  0.58395063  0.70104766  0.14165836  1.0
  B  B19  1  0.58395063  0.29895234  0.14165836  1.0
  B  B20  1  0.91604937  0.20104766  0.85834164  1.0
  B  B21  1  0.91604937  0.79895234  0.85834164  1.0
  B  B22  1  0.41604937  0.70104766  0.14165836  1.0
  B  B23  1  0.41604937  0.29895234  0.14165836  1.0
  O  O24  1  0.36477231  0.31061502  0.97223721  1.0
  O  O25  1  0.36477231  0.68938498  0.97223721  1.0
  O  O26  1  0.86477231  0.81061502  0.02776279  1.0
  O  O27  1  0.86477231  0.18938498  0.02776279  1.0
  O  O28  1  0.63522769  0.31061502  0.97223721  1.0
  O  O29  1  0.63522769  0.68938498  0.97223721  1.0
  O  O30  1  0.13522769  0.81061502  0.02776279  1.0
  O  O31  1  0.13522769  0.18938498  0.02776279  1.0
  O  O32  1  0.34787624  0.28764183  0.29639883  1.0
  O  O33  1  0.34787624  0.71235817  0.29639883  1.0
  O  O34  1  0.84787624  0.78764183  0.70360117  1.0
  O  O35  1  0.84787624  0.21235817  0.70360117  1.0
  O  O36  1  0.65212376  0.28764183  0.29639883  1.0
  O  O37  1  0.65212376  0.71235817  0.29639883  1.0
  O  O38  1  0.15212376  0.78764183  0.70360117  1.0
  O  O39  1  0.15212376  0.21235817  0.70360117  1.0
