# generated using pymatgen
data_Mg2Pb
_symmetry_space_group_name_H-M   'P 1'
_cell_length_a   7.68337453
_cell_length_b   4.52543940
_cell_length_c   8.76894817
_cell_angle_alpha   90.00000000
_cell_angle_beta   90.00000000
_cell_angle_gamma   90.00000000
_symmetry_Int_Tables_number   1
_chemical_formula_structural   Mg2Pb
_chemical_formula_sum   'Mg8 Pb4'
_cell_volume   304.90199124
_cell_formula_units_Z   4
loop_
 _symmetry_equiv_pos_site_id
 _symmetry_equiv_pos_as_xyz
  1  'x, y, z'
loop_
 _atom_site_type_symbol
 _atom_site_label
 _atom_site_symmetry_multiplicity
 _atom_site_fract_x
 _atom_site_fract_y
 _atom_site_fract_z
 _atom_site_occupancy
  Mg  Mg0  1  0.04403015  0.25000000  0.32994194  1.0
  Mg  Mg1  1  0.54403015  0.25000000  0.17005806  1.0
  Mg  Mg2  1  0.95596985  0.75000000  0.67005806  1.0
  Mg  Mg3  1  0.45596985  0.75000000  0.82994194  1.0
  Mg  Mg4  1  0.13066607  0.25000000  0.94762130  1.0
  Mg  Mg5  1  0.63066607  0.25000000  0.55237870  1.0
  Mg  Mg6  1  0.86933393  0.75000000  0.05237870  1.0
  Mg  Mg7  1  0.36933393  0.75000000  0.44762130  1.0
  Pb  Pb8  1  0.24344543  0.25000000  0.63449669  1.0
  Pb  Pb9  1  0.74344543  0.25000000  0.86550331  1.0
  Pb  Pb10  1  0.75655457  0.75000000  0.36550331  1.0
  Pb  Pb11  1  0.25655457  0.75000000  0.13449669  1.0
