# generated using pymatgen
data_Eu2Si2O7
_symmetry_space_group_name_H-M   'P 1'
_cell_length_a   7.87554001
_cell_length_b   8.55594016
_cell_length_c   9.86060248
_cell_angle_alpha   90.00000000
_cell_angle_beta   113.49789312
_cell_angle_gamma   90.00000000
_symmetry_Int_Tables_number   1
_chemical_formula_structural   Eu2Si2O7
_chemical_formula_sum   'Eu8 Si8 O28'
_cell_volume   609.33519129
_cell_formula_units_Z   4
loop_
 _symmetry_equiv_pos_site_id
 _symmetry_equiv_pos_as_xyz
  1  'x, y, z'
loop_
 _atom_site_type_symbol
 _atom_site_label
 _atom_site_symmetry_multiplicity
 _atom_site_fract_x
 _atom_site_fract_y
 _atom_site_fract_z
 _atom_site_occupancy
  Eu  Eu0  1  0.77027973  0.48042663  0.28471266  1.0
  Eu  Eu1  1  0.77027973  0.01957337  0.78471266  1.0
  Eu  Eu2  1  0.22972027  0.98042663  0.21528734  1.0
  Eu  Eu3  1  0.22972027  0.51957337  0.71528734  1.0
  Eu  Eu4  1  0.73101954  0.98983796  0.20419380  1.0
  Eu  Eu5  1  0.73101954  0.51016204  0.70419380  1.0
  Eu  Eu6  1  0.26898046  0.48983796  0.29580620  1.0
  Eu  Eu7  1  0.26898046  0.01016204  0.79580620  1.0
  Si  Si8  1  0.85501905  0.27463819  0.04135628  1.0
  Si  Si9  1  0.85501905  0.22536181  0.54135628  1.0
  Si  Si10  1  0.14498095  0.77463819  0.45864372  1.0
  Si  Si11  1  0.14498095  0.72536181  0.95864372  1.0
  Si  Si12  1  0.43267373  0.27424368  0.03809299  1.0
  Si  Si13  1  0.43267373  0.22575632  0.53809299  1.0
  Si  Si14  1  0.56732627  0.77424368  0.46190701  1.0
  Si  Si15  1  0.56732627  0.72575632  0.96190701  1.0
  O  O16  1  0.97192962  0.41004215  0.15475359  1.0
  O  O17  1  0.97192962  0.08995785  0.65475359  1.0
  O  O18  1  0.02807038  0.91004215  0.34524641  1.0
  O  O19  1  0.02807038  0.58995785  0.84524641  1.0
  O  O20  1  0.93215925  0.09565428  0.08740668  1.0
  O  O21  1  0.93215925  0.40434572  0.58740668  1.0
  O  O22  1  0.06784075  0.59565428  0.41259332  1.0
  O  O23  1  0.06784075  0.90434572  0.91259332  1.0
  O  O24  1  0.80977944  0.20951704  0.36679761  1.0
  O  O25  1  0.80977944  0.29048296  0.86679761  1.0
  O  O26  1  0.19022056  0.70951704  0.13320239  1.0
  O  O27  1  0.19022056  0.79048296  0.63320239  1.0
  O  O28  1  0.65870312  0.27563372  0.06993914  1.0
  O  O29  1  0.65870312  0.22436628  0.56993914  1.0
  O  O30  1  0.34129688  0.77563372  0.43006086  1.0
  O  O31  1  0.34129688  0.72436628  0.93006086  1.0
  O  O32  1  0.42674465  0.40827383  0.15239121  1.0
  O  O33  1  0.42674465  0.09172617  0.65239121  1.0
  O  O34  1  0.57325535  0.90827383  0.34760879  1.0
  O  O35  1  0.57325535  0.59172617  0.84760879  1.0
  O  O36  1  0.39975446  0.09200229  0.07787636  1.0
  O  O37  1  0.39975446  0.40799771  0.57787636  1.0
  O  O38  1  0.60024554  0.59200229  0.42212364  1.0
  O  O39  1  0.60024554  0.90799771  0.92212364  1.0
  O  O40  1  0.30665228  0.20549400  0.36253012  1.0
  O  O41  1  0.30665228  0.29450600  0.86253012  1.0
  O  O42  1  0.69334772  0.70549400  0.13746988  1.0
  O  O43  1  0.69334772  0.79450600  0.63746988  1.0
