# generated using pymatgen
data_Hf3Tl2(CuSe4)2
_symmetry_space_group_name_H-M   'P 1'
_cell_length_a   7.83903912
_cell_length_b   7.83903912
_cell_length_c   14.40106192
_cell_angle_alpha   66.96560841
_cell_angle_beta   113.03439159
_cell_angle_gamma   151.77933513
_symmetry_Int_Tables_number   1
_chemical_formula_structural   Hf3Tl2(CuSe4)2
_chemical_formula_sum   'Hf3 Tl2 Cu2 Se8'
_cell_volume   382.89628831
_cell_formula_units_Z   1
loop_
 _symmetry_equiv_pos_site_id
 _symmetry_equiv_pos_as_xyz
  1  'x, y, z'
loop_
 _atom_site_type_symbol
 _atom_site_label
 _atom_site_symmetry_multiplicity
 _atom_site_fract_x
 _atom_site_fract_y
 _atom_site_fract_z
 _atom_site_occupancy
  Hf  Hf0  1  0.83914511  -0.83914511  0.62347283  1.0
  Hf  Hf1  1  0.16085489  -0.16085489  0.37652717  1.0
  Hf  Hf2  1  0.00000000  0.00000000  0.00000000  1.0
  Tl  Tl3  1  0.84596810  -0.84596810  0.21212512  1.0
  Tl  Tl4  1  0.15403190  -0.15403190  0.78787488  1.0
  Cu  Cu5  1  1.44846407  -0.44846407  0.80204173  1.0
  Cu  Cu6  1  0.55153593  0.44846407  0.19795827  1.0
  Se  Se7  1  0.85034872  0.14965128  0.81376158  1.0
  Se  Se8  1  1.14965128  -0.14965128  0.18623842  1.0
  Se  Se9  1  0.79793174  -0.79793174  0.42049143  1.0
  Se  Se10  1  0.20206826  -0.20206826  0.57950857  1.0
  Se  Se11  1  0.59925492  0.40074508  0.95111954  1.0
  Se  Se12  1  1.40074508  -0.40074508  0.04888046  1.0
  Se  Se13  1  1.47006017  -0.47006017  0.64403145  1.0
  Se  Se14  1  0.52993983  0.47006017  0.35596855  1.0
