# generated using pymatgen
data_Rb2SnO12
_symmetry_space_group_name_H-M   'P 1'
_cell_length_a   7.34066518
_cell_length_b   7.34066518
_cell_length_c   11.38652874
_cell_angle_alpha   90.00000000
_cell_angle_beta   90.00000000
_cell_angle_gamma   120.00000000
_symmetry_Int_Tables_number   1
_chemical_formula_structural   Rb2SnO12
_chemical_formula_sum   'Rb4 Sn2 O24'
_cell_volume   531.36483439
_cell_formula_units_Z   2
loop_
 _symmetry_equiv_pos_site_id
 _symmetry_equiv_pos_as_xyz
  1  'x, y, z'
loop_
 _atom_site_type_symbol
 _atom_site_label
 _atom_site_symmetry_multiplicity
 _atom_site_fract_x
 _atom_site_fract_y
 _atom_site_fract_z
 _atom_site_occupancy
  Rb  Rb0  1  0.33333333  0.66666667  0.15309725  1.0
  Rb  Rb1  1  0.33333333  0.66666667  0.65309725  1.0
  Rb  Rb2  1  0.66666667  0.33333333  0.34690275  1.0
  Rb  Rb3  1  0.66666667  0.33333333  0.84690275  1.0
  Sn  Sn4  1  0.00000000  0.00000000  0.00000000  1.0
  Sn  Sn5  1  0.00000000  0.00000000  0.50000000  1.0
  O  O6  1  0.94116277  0.72703073  0.10830396  1.0
  O  O7  1  0.94116277  0.21413204  0.60830396  1.0
  O  O8  1  0.72703073  0.94116277  0.39169604  1.0
  O  O9  1  0.72703073  0.78586796  0.89169604  1.0
  O  O10  1  0.78586796  0.72703073  0.60830396  1.0
  O  O11  1  0.78586796  0.05883723  0.10830396  1.0
  O  O12  1  0.27296927  0.05883723  0.60830396  1.0
  O  O13  1  0.27296927  0.21413204  0.10830396  1.0
  O  O14  1  0.05883723  0.78586796  0.39169604  1.0
  O  O15  1  0.05883723  0.27296927  0.89169604  1.0
  O  O16  1  0.21413204  0.94116277  0.89169604  1.0
  O  O17  1  0.21413204  0.27296927  0.39169604  1.0
  O  O18  1  0.73830105  0.61244362  0.13298747  1.0
  O  O19  1  0.73830105  0.12585743  0.63298747  1.0
  O  O20  1  0.61244362  0.73830105  0.36701253  1.0
  O  O21  1  0.61244362  0.87414257  0.86701253  1.0
  O  O22  1  0.87414257  0.61244362  0.63298747  1.0
  O  O23  1  0.87414257  0.26169895  0.13298747  1.0
  O  O24  1  0.38755638  0.26169895  0.63298747  1.0
  O  O25  1  0.38755638  0.12585743  0.13298747  1.0
  O  O26  1  0.26169895  0.87414257  0.36701253  1.0
  O  O27  1  0.26169895  0.38755638  0.86701253  1.0
  O  O28  1  0.12585743  0.73830105  0.86701253  1.0
  O  O29  1  0.12585743  0.38755638  0.36701253  1.0
