# generated using pymatgen
data_LaB4
_symmetry_space_group_name_H-M   'P 1'
_cell_length_a   7.31213517
_cell_length_b   7.31213517
_cell_length_c   4.18542874
_cell_angle_alpha   90.00000000
_cell_angle_beta   90.00000000
_cell_angle_gamma   90.00000000
_symmetry_Int_Tables_number   1
_chemical_formula_structural   LaB4
_chemical_formula_sum   'La4 B16'
_cell_volume   223.78366104
_cell_formula_units_Z   4
loop_
 _symmetry_equiv_pos_site_id
 _symmetry_equiv_pos_as_xyz
  1  'x, y, z'
loop_
 _atom_site_type_symbol
 _atom_site_label
 _atom_site_symmetry_multiplicity
 _atom_site_fract_x
 _atom_site_fract_y
 _atom_site_fract_z
 _atom_site_occupancy
  La  La0  1  0.31621769  0.18378231  0.50000000  1.0
  La  La1  1  0.81621769  0.31621769  0.50000000  1.0
  La  La2  1  0.68378231  0.81621769  0.50000000  1.0
  La  La3  1  0.18378231  0.68378231  0.50000000  1.0
  B  B4  1  0.46107907  0.67335782  0.00000000  1.0
  B  B5  1  0.96107907  0.82664218  0.00000000  1.0
  B  B6  1  0.32664218  0.46107907  0.00000000  1.0
  B  B7  1  0.82664218  0.03892093  0.00000000  1.0
  B  B8  1  0.53892093  0.32664218  0.00000000  1.0
  B  B9  1  0.03892093  0.17335782  0.00000000  1.0
  B  B10  1  0.67335782  0.53892093  0.00000000  1.0
  B  B11  1  0.17335782  0.96107907  0.00000000  1.0
  B  B12  1  0.91138729  0.58861271  0.00000000  1.0
  B  B13  1  0.41138729  0.91138729  0.00000000  1.0
  B  B14  1  0.08861271  0.41138729  0.00000000  1.0
  B  B15  1  0.58861271  0.08861271  0.00000000  1.0
  B  B16  1  0.50000000  0.50000000  0.70608707  1.0
  B  B17  1  0.50000000  0.50000000  0.29391293  1.0
  B  B18  1  0.00000000  0.00000000  0.70608707  1.0
  B  B19  1  0.00000000  0.00000000  0.29391293  1.0
