# generated using pymatgen
data_Ta2Ni3Te5
_symmetry_space_group_name_H-M   'P 1'
_cell_length_a   14.90635905
_cell_length_b   3.71789272
_cell_length_c   17.82995230
_cell_angle_alpha   90.00000000
_cell_angle_beta   90.00000000
_cell_angle_gamma   90.00000000
_symmetry_Int_Tables_number   1
_chemical_formula_structural   Ta2Ni3Te5
_chemical_formula_sum   'Ta8 Ni12 Te20'
_cell_volume   988.14030450
_cell_formula_units_Z   4
loop_
 _symmetry_equiv_pos_site_id
 _symmetry_equiv_pos_as_xyz
  1  'x, y, z'
loop_
 _atom_site_type_symbol
 _atom_site_label
 _atom_site_symmetry_multiplicity
 _atom_site_fract_x
 _atom_site_fract_y
 _atom_site_fract_z
 _atom_site_occupancy
  Ta  Ta0  1  0.75573417  0.75000000  0.66770428  1.0
  Ta  Ta1  1  0.25573417  0.75000000  0.83229572  1.0
  Ta  Ta2  1  0.24426583  0.25000000  0.33229572  1.0
  Ta  Ta3  1  0.74426583  0.25000000  0.16770428  1.0
  Ta  Ta4  1  0.75566795  0.75000000  0.41046579  1.0
  Ta  Ta5  1  0.25566795  0.75000000  0.08953421  1.0
  Ta  Ta6  1  0.24433205  0.25000000  0.58953421  1.0
  Ta  Ta7  1  0.74433205  0.25000000  0.91046579  1.0
  Ni  Ni8  1  0.80016703  0.75000000  0.81053394  1.0
  Ni  Ni9  1  0.30016703  0.75000000  0.68946606  1.0
  Ni  Ni10  1  0.19983297  0.25000000  0.18946606  1.0
  Ni  Ni11  1  0.69983297  0.25000000  0.31053394  1.0
  Ni  Ni12  1  0.79912984  0.75000000  0.26765854  1.0
  Ni  Ni13  1  0.29912984  0.75000000  0.23234146  1.0
  Ni  Ni14  1  0.20087016  0.25000000  0.73234146  1.0
  Ni  Ni15  1  0.70087016  0.25000000  0.76765854  1.0
  Ni  Ni16  1  0.75855440  0.75000000  0.03912984  1.0
  Ni  Ni17  1  0.25855440  0.75000000  0.46087016  1.0
  Ni  Ni18  1  0.24144560  0.25000000  0.96087016  1.0
  Ni  Ni19  1  0.74144560  0.25000000  0.53912984  1.0
  Te  Te20  1  0.88129768  0.75000000  0.13924637  1.0
  Te  Te21  1  0.38129768  0.75000000  0.36075363  1.0
  Te  Te22  1  0.11870232  0.25000000  0.86075363  1.0
  Te  Te23  1  0.61870232  0.25000000  0.63924637  1.0
  Te  Te24  1  0.86139312  0.75000000  0.53904383  1.0
  Te  Te25  1  0.36139312  0.75000000  0.96095617  1.0
  Te  Te26  1  0.13860688  0.25000000  0.46095617  1.0
  Te  Te27  1  0.63860688  0.25000000  0.03904383  1.0
  Te  Te28  1  0.61856615  0.75000000  0.84307572  1.0
  Te  Te29  1  0.11856615  0.75000000  0.65692428  1.0
  Te  Te30  1  0.38143385  0.25000000  0.15692428  1.0
  Te  Te31  1  0.88143385  0.25000000  0.34307572  1.0
  Te  Te32  1  0.61823212  0.75000000  0.23470652  1.0
  Te  Te33  1  0.11823212  0.75000000  0.26529348  1.0
  Te  Te34  1  0.38176788  0.25000000  0.76529348  1.0
  Te  Te35  1  0.88176788  0.25000000  0.73470652  1.0
  Te  Te36  1  0.38149117  0.75000000  0.56077069  1.0
  Te  Te37  1  0.88149117  0.75000000  0.93922931  1.0
  Te  Te38  1  0.61850883  0.25000000  0.43922931  1.0
  Te  Te39  1  0.11850883  0.25000000  0.06077069  1.0
