# generated using pymatgen
data_SbPC3S3N3Cl3O
_symmetry_space_group_name_H-M   'P 1'
_cell_length_a   12.75150468
_cell_length_b   12.75150468
_cell_length_c   12.75150468
_cell_angle_alpha   109.47122063
_cell_angle_beta   109.47122063
_cell_angle_gamma   109.47122063
_symmetry_Int_Tables_number   1
_chemical_formula_structural   SbPC3S3N3Cl3O
_chemical_formula_sum   'Sb4 P4 C12 S12 N12 Cl12 O4'
_cell_volume   1596.10851038
_cell_formula_units_Z   4
loop_
 _symmetry_equiv_pos_site_id
 _symmetry_equiv_pos_as_xyz
  1  'x, y, z'
loop_
 _atom_site_type_symbol
 _atom_site_label
 _atom_site_symmetry_multiplicity
 _atom_site_fract_x
 _atom_site_fract_y
 _atom_site_fract_z
 _atom_site_occupancy
  Sb  Sb0  1  0.78360113  1.00000000  1.00000000  1.0
  Sb  Sb1  1  1.00000000  1.78360113  1.00000000  1.0
  Sb  Sb2  1  1.00000000  1.00000000  0.78360113  1.0
  Sb  Sb3  1  0.21639887  0.21639887  0.21639887  1.0
  P  P4  1  0.33557122  1.00000000  1.00000000  1.0
  P  P5  1  1.00000000  0.33557122  1.00000000  1.0
  P  P6  1  1.00000000  1.00000000  0.33557122  1.0
  P  P7  1  0.66442878  0.66442878  0.66442878  1.0
  C  C8  1  0.27941612  0.78379125  0.78379125  1.0
  C  C9  1  0.49562488  1.00000000  1.21620875  1.0
  C  C10  1  1.00000000  0.49562488  1.21620875  1.0
  C  C11  1  0.78379125  0.27941612  0.78379125  1.0
  C  C12  1  0.49562488  1.21620875  1.00000000  1.0
  C  C13  1  1.21620875  0.49562488  1.00000000  1.0
  C  C14  1  1.00000000  1.21620875  0.49562488  1.0
  C  C15  1  1.21620875  1.00000000  0.49562488  1.0
  C  C16  1  0.72058388  0.50437512  0.50437512  1.0
  C  C17  1  0.50437512  0.72058388  0.50437512  1.0
  C  C18  1  0.78379125  0.78379125  0.27941612  1.0
  C  C19  1  0.50437512  0.50437512  0.72058388  1.0
  S  S20  1  0.24619319  0.66387550  0.66387550  1.0
  S  S21  1  0.58231769  1.00000000  1.33612450  1.0
  S  S22  1  1.00000000  0.58231769  1.33612450  1.0
  S  S23  1  0.66387550  0.24619319  0.66387550  1.0
  S  S24  1  0.58231769  1.33612450  1.00000000  1.0
  S  S25  1  1.33612450  0.58231769  1.00000000  1.0
  S  S26  1  1.00000000  1.33612450  0.58231769  1.0
  S  S27  1  1.33612450  1.00000000  0.58231769  1.0
  S  S28  1  0.75380681  0.41768231  0.41768231  1.0
  S  S29  1  0.41768231  0.75380681  0.41768231  1.0
  S  S30  1  0.66387550  0.66387550  0.24619319  1.0
  S  S31  1  0.41768231  0.41768231  0.75380681  1.0
  N  N32  1  0.30513836  0.87660839  0.87660839  1.0
  N  N33  1  0.42852997  1.00000000  1.12339161  1.0
  N  N34  1  1.00000000  0.42852997  1.12339161  1.0
  N  N35  1  0.87660839  0.30513836  0.87660839  1.0
  N  N36  1  0.42852997  1.12339161  1.00000000  1.0
  N  N37  1  1.12339161  0.42852997  1.00000000  1.0
  N  N38  1  1.00000000  1.12339161  0.42852997  1.0
  N  N39  1  1.12339161  1.00000000  0.42852997  1.0
  N  N40  1  0.69486164  0.57147003  0.57147003  1.0
  N  N41  1  0.57147003  0.69486164  0.57147003  1.0
  N  N42  1  0.87660839  0.87660839  0.30513836  1.0
  N  N43  1  0.57147003  0.57147003  0.69486164  1.0
  Cl  Cl44  1  0.79884480  1.16993713  1.16993713  1.0
  Cl  Cl45  1  1.62890767  1.00000000  0.83006287  1.0
  Cl  Cl46  1  1.00000000  1.62890767  0.83006287  1.0
  Cl  Cl47  1  1.16993713  0.79884480  1.16993713  1.0
  Cl  Cl48  1  1.62890767  0.83006287  1.00000000  1.0
  Cl  Cl49  1  0.83006287  1.62890767  1.00000000  1.0
  Cl  Cl50  1  1.00000000  0.83006287  1.62890767  1.0
  Cl  Cl51  1  0.83006287  1.00000000  1.62890767  1.0
  Cl  Cl52  1  0.20115520  0.37109233  0.37109233  1.0
  Cl  Cl53  1  0.37109233  0.20115520  0.37109233  1.0
  Cl  Cl54  1  1.16993713  1.16993713  0.79884480  1.0
  Cl  Cl55  1  0.37109233  0.37109233  0.20115520  1.0
  O  O56  1  0.21846428  1.00000000  1.00000000  1.0
  O  O57  1  1.00000000  0.21846428  1.00000000  1.0
  O  O58  1  1.00000000  1.00000000  0.21846428  1.0
  O  O59  1  0.78153572  0.78153572  0.78153572  1.0
