# generated using pymatgen
data_Rb7NaZn2O6
_symmetry_space_group_name_H-M   'P 1'
_cell_length_a   7.11692729
_cell_length_b   11.51166942
_cell_length_c   9.57827681
_cell_angle_alpha   105.95259792
_cell_angle_beta   107.07636265
_cell_angle_gamma   92.27971102
_symmetry_Int_Tables_number   1
_chemical_formula_structural   Rb7NaZn2O6
_chemical_formula_sum   'Rb14 Na2 Zn4 O12'
_cell_volume   715.01917115
_cell_formula_units_Z   2
loop_
 _symmetry_equiv_pos_site_id
 _symmetry_equiv_pos_as_xyz
  1  'x, y, z'
loop_
 _atom_site_type_symbol
 _atom_site_label
 _atom_site_symmetry_multiplicity
 _atom_site_fract_x
 _atom_site_fract_y
 _atom_site_fract_z
 _atom_site_occupancy
  Rb  Rb0  1  -0.97766065  -0.69095096  -0.62362752  1.0
  Rb  Rb1  1  -0.02233935  -0.30904904  -0.37637248  1.0
  Rb  Rb2  1  -0.95323957  -0.67818758  -0.98295289  1.0
  Rb  Rb3  1  -0.04676043  -0.32181242  -0.01704711  1.0
  Rb  Rb4  1  -0.94107915  -0.97900945  -0.16131183  1.0
  Rb  Rb5  1  -0.05892085  -0.02099055  -0.83868817  1.0
  Rb  Rb6  1  -0.70597242  -0.91459096  -0.42991251  1.0
  Rb  Rb7  1  -0.29402758  -0.08540904  -0.57008749  1.0
  Rb  Rb8  1  -0.53864395  -0.40176173  -0.83248536  1.0
  Rb  Rb9  1  -0.46135605  -0.59823827  -0.16751464  1.0
  Rb  Rb10  1  -0.46534806  -0.63180834  -0.63461416  1.0
  Rb  Rb11  1  -0.53465194  -0.36819166  -0.36538584  1.0
  Rb  Rb12  1  -0.43924934  -0.81714487  -0.97658463  1.0
  Rb  Rb13  1  -0.56075066  -0.18285513  -0.02341537  1.0
  Na  Na14  1  -0.80276198  -0.21590610  -0.61022097  1.0
  Na  Na15  1  -0.19723802  -0.78409390  -0.38977903  1.0
  Zn  Zn16  1  -0.92839318  -0.55618328  -0.25354689  1.0
  Zn  Zn17  1  -0.07160682  -0.44381672  -0.74645311  1.0
  Zn  Zn18  1  -0.58975688  -0.93679216  -0.74858168  1.0
  Zn  Zn19  1  -0.41024312  -0.06320784  -0.25141832  1.0
  O  O20  1  -0.85397177  -0.71853413  -0.27690047  1.0
  O  O21  1  -0.14602823  -0.28146587  -0.72309953  1.0
  O  O22  1  -0.79136471  -0.44926605  -0.67069112  1.0
  O  O23  1  -0.20863529  -0.55073395  -0.32930888  1.0
  O  O24  1  -0.77460971  -0.83770362  -0.83407414  1.0
  O  O25  1  -0.22539029  -0.16229638  -0.16592586  1.0
  O  O26  1  -0.68349405  -0.09658581  -0.74549973  1.0
  O  O27  1  -0.31650595  -0.90341419  -0.25450027  1.0
  O  O28  1  -0.31023724  -0.87516873  -0.67375817  1.0
  O  O29  1  -0.68976276  -0.12483127  -0.32624183  1.0
  O  O30  1  -0.26270155  -0.58625919  -0.84329085  1.0
  O  O31  1  -0.73729845  -0.41374081  -0.15670915  1.0
