# generated using pymatgen
data_Cs2Te(WO4)3
_symmetry_space_group_name_H-M   'P 1'
_cell_length_a   7.43194810
_cell_length_b   7.43194810
_cell_length_c   12.77034642
_cell_angle_alpha   90.00000000
_cell_angle_beta   90.00000000
_cell_angle_gamma   120.00000000
_symmetry_Int_Tables_number   1
_chemical_formula_structural   Cs2Te(WO4)3
_chemical_formula_sum   'Cs4 Te2 W6 O24'
_cell_volume   610.85572157
_cell_formula_units_Z   2
loop_
 _symmetry_equiv_pos_site_id
 _symmetry_equiv_pos_as_xyz
  1  'x, y, z'
loop_
 _atom_site_type_symbol
 _atom_site_label
 _atom_site_symmetry_multiplicity
 _atom_site_fract_x
 _atom_site_fract_y
 _atom_site_fract_z
 _atom_site_occupancy
  Cs  Cs0  1  0.33333333  0.66666667  0.06556304  1.0
  Cs  Cs1  1  0.66666667  0.33333333  0.56556304  1.0
  Cs  Cs2  1  0.33333333  0.66666667  0.43063851  1.0
  Cs  Cs3  1  0.66666667  0.33333333  0.93063851  1.0
  Te  Te4  1  0.00000000  0.00000000  0.00190526  1.0
  Te  Te5  1  0.00000000  0.00000000  0.50190526  1.0
  W  W6  1  0.81065531  0.66309310  0.23631021  1.0
  W  W7  1  0.66309310  0.85243779  0.73631021  1.0
  W  W8  1  0.85243779  0.18934469  0.23631021  1.0
  W  W9  1  0.33690690  0.14756221  0.23631021  1.0
  W  W10  1  0.18934469  0.33690690  0.73631021  1.0
  W  W11  1  0.14756221  0.81065531  0.73631021  1.0
  O  O12  1  0.12131677  0.87480756  0.24187245  1.0
  O  O13  1  0.87480756  0.75349079  0.74187245  1.0
  O  O14  1  0.75349079  0.87868323  0.24187245  1.0
  O  O15  1  0.12519244  0.24650921  0.24187245  1.0
  O  O16  1  0.87868323  0.12519244  0.74187245  1.0
  O  O17  1  0.24650921  0.12131677  0.74187245  1.0
  O  O18  1  0.86952989  0.72986968  0.07334392  1.0
  O  O19  1  0.72986968  0.86033979  0.57334392  1.0
  O  O20  1  0.86033979  0.13047011  0.07334392  1.0
  O  O21  1  0.27013032  0.13966021  0.07334392  1.0
  O  O22  1  0.13047011  0.27013032  0.57334392  1.0
  O  O23  1  0.13966021  0.86952989  0.57334392  1.0
  O  O24  1  0.81335156  0.62448732  0.37304326  1.0
  O  O25  1  0.62448732  0.81113577  0.87304326  1.0
  O  O26  1  0.81113577  0.18664844  0.37304326  1.0
  O  O27  1  0.37551268  0.18886423  0.37304326  1.0
  O  O28  1  0.18664844  0.37551268  0.87304326  1.0
  O  O29  1  0.18886423  0.81335156  0.87304326  1.0
  O  O30  1  0.54271771  0.45163640  0.20406122  1.0
  O  O31  1  0.45163640  0.90891869  0.70406122  1.0
  O  O32  1  0.90891869  0.45728229  0.20406122  1.0
  O  O33  1  0.54836360  0.09108131  0.20406122  1.0
  O  O34  1  0.45728229  0.54836360  0.70406122  1.0
  O  O35  1  0.09108131  0.54271771  0.70406122  1.0
