# generated using pymatgen
data_GdAu3
_symmetry_space_group_name_H-M   'P 1'
_cell_length_a   5.06696384
_cell_length_b   6.28716856
_cell_length_c   5.16109926
_cell_angle_alpha   90.00000000
_cell_angle_beta   90.00000000
_cell_angle_gamma   90.00000000
_symmetry_Int_Tables_number   1
_chemical_formula_structural   GdAu3
_chemical_formula_sum   'Gd2 Au6'
_cell_volume   164.41639453
_cell_formula_units_Z   2
loop_
 _symmetry_equiv_pos_site_id
 _symmetry_equiv_pos_as_xyz
  1  'x, y, z'
loop_
 _atom_site_type_symbol
 _atom_site_label
 _atom_site_symmetry_multiplicity
 _atom_site_fract_x
 _atom_site_fract_y
 _atom_site_fract_z
 _atom_site_occupancy
  Gd  Gd0  1  0.50000000  0.00000000  0.15753003  1.0
  Gd  Gd1  1  0.00000000  0.50000000  0.84246997  1.0
  Au  Au2  1  0.50000000  0.74160840  0.66286482  1.0
  Au  Au3  1  0.50000000  0.25839160  0.66286482  1.0
  Au  Au4  1  0.00000000  0.24160840  0.33713518  1.0
  Au  Au5  1  0.00000000  0.75839160  0.33713518  1.0
  Au  Au6  1  0.50000000  0.50000000  0.17258046  1.0
  Au  Au7  1  0.00000000  0.00000000  0.82741954  1.0
