# generated using pymatgen
data_KMnTe2
_symmetry_space_group_name_H-M   'P 1'
_cell_length_a   7.81517779
_cell_length_b   7.81517779
_cell_length_c   7.81517779
_cell_angle_alpha   147.79543493
_cell_angle_beta   147.79543493
_cell_angle_gamma   46.18743716
_symmetry_Int_Tables_number   1
_chemical_formula_structural   KMnTe2
_chemical_formula_sum   'K1 Mn1 Te2'
_cell_volume   135.10329780
_cell_formula_units_Z   1
loop_
 _symmetry_equiv_pos_site_id
 _symmetry_equiv_pos_as_xyz
  1  'x, y, z'
loop_
 _atom_site_type_symbol
 _atom_site_label
 _atom_site_symmetry_multiplicity
 _atom_site_fract_x
 _atom_site_fract_y
 _atom_site_fract_z
 _atom_site_occupancy
  K  K0  1  -0.00000000  -0.00000000  0.00000000  1.0
  Mn  Mn1  1  0.25000000  0.75000000  0.50000000  1.0
  Te  Te2  1  0.35608554  0.35608554  0.00000000  1.0
  Te  Te3  1  0.64391446  0.64391446  1.00000000  1.0
