# generated using pymatgen
data_Sr4Zn3F14
_symmetry_space_group_name_H-M   'P 1'
_cell_length_a   6.89637846
_cell_length_b   6.89637846
_cell_length_c   7.18879823
_cell_angle_alpha   90.00016452
_cell_angle_beta   89.99983548
_cell_angle_gamma   60.00216237
_symmetry_Int_Tables_number   1
_chemical_formula_structural   Sr4Zn3F14
_chemical_formula_sum   'Sr4 Zn3 F14'
_cell_volume   296.10010571
_cell_formula_units_Z   1
loop_
 _symmetry_equiv_pos_site_id
 _symmetry_equiv_pos_as_xyz
  1  'x, y, z'
loop_
 _atom_site_type_symbol
 _atom_site_label
 _atom_site_symmetry_multiplicity
 _atom_site_fract_x
 _atom_site_fract_y
 _atom_site_fract_z
 _atom_site_occupancy
  Sr  Sr0  1  0.94076140  -0.27409562  0.76772498  1.0
  Sr  Sr1  1  0.27409562  0.05923860  0.76772498  1.0
  Sr  Sr2  1  0.60740444  -0.60740444  0.00624569  1.0
  Sr  Sr3  1  0.60742641  -0.60742641  0.52928096  1.0
  Zn  Zn4  1  1.14202319  -0.60744788  0.26774374  1.0
  Zn  Zn5  1  0.60744788  -0.14202319  0.26774374  1.0
  Zn  Zn6  1  0.07285912  -0.07285912  0.26774003  1.0
  F  F7  1  0.94080055  -0.27415572  0.26778080  1.0
  F  F8  1  0.27415572  0.05919945  0.26778080  1.0
  F  F9  1  0.84567645  -0.60748594  0.26772511  1.0
  F  F10  1  0.60748594  0.15432355  0.26772511  1.0
  F  F11  1  0.87297411  -0.60747807  0.76776480  1.0
  F  F12  1  0.60747807  0.12702589  0.76776480  1.0
  F  F13  1  1.21497793  -0.60746009  0.53537115  1.0
  F  F14  1  0.60746009  -0.21497793  0.53537115  1.0
  F  F15  1  1.21499565  -0.60743526  0.00015279  1.0
  F  F16  1  0.60743526  -0.21499565  0.00015279  1.0
  F  F17  1  -0.00005787  0.00005787  0.00014899  1.0
  F  F18  1  -0.00009464  0.00009464  0.53534779  1.0
  F  F19  1  0.34191034  -0.34191034  0.76774150  1.0
  F  F20  1  0.36918433  -0.36918433  0.26776832  1.0
