# generated using pymatgen
data_CCl2O
_symmetry_space_group_name_H-M   'P 1'
_cell_length_a   6.23943080
_cell_length_b   14.86059600
_cell_length_c   10.55390539
_cell_angle_alpha   90.00000000
_cell_angle_beta   117.75893458
_cell_angle_gamma   90.00000000
_symmetry_Int_Tables_number   1
_chemical_formula_structural   CCl2O
_chemical_formula_sum   'C8 Cl16 O8'
_cell_volume   865.95627402
_cell_formula_units_Z   8
loop_
 _symmetry_equiv_pos_site_id
 _symmetry_equiv_pos_as_xyz
  1  'x, y, z'
loop_
 _atom_site_type_symbol
 _atom_site_label
 _atom_site_symmetry_multiplicity
 _atom_site_fract_x
 _atom_site_fract_y
 _atom_site_fract_z
 _atom_site_occupancy
  C  C0  1  0.43744333  0.18637879  0.59943783  1.0
  C  C1  1  0.56255667  0.81362121  0.40056217  1.0
  C  C2  1  0.56255667  0.68637879  0.90056217  1.0
  C  C3  1  0.43744333  0.31362121  0.09943783  1.0
  C  C4  1  0.59993998  0.05712419  0.75448719  1.0
  C  C5  1  0.40006002  0.94287581  0.24551281  1.0
  C  C6  1  0.40006002  0.55712419  0.74551281  1.0
  C  C7  1  0.59993998  0.44287581  0.25448719  1.0
  Cl  Cl8  1  0.16877481  0.21630032  0.44906852  1.0
  Cl  Cl9  1  0.83122519  0.78369968  0.55093148  1.0
  Cl  Cl10  1  0.83122519  0.71630032  0.05093148  1.0
  Cl  Cl11  1  0.16877481  0.28369968  0.94906852  1.0
  Cl  Cl12  1  0.48361313  0.94835983  0.75646420  1.0
  Cl  Cl13  1  0.51638687  0.05164017  0.24353580  1.0
  Cl  Cl14  1  0.51638687  0.44835983  0.74353580  1.0
  Cl  Cl15  1  0.48361313  0.55164017  0.25646420  1.0
  Cl  Cl16  1  0.86646553  0.04727532  0.73396564  1.0
  Cl  Cl17  1  0.13353447  0.95272468  0.26603436  1.0
  Cl  Cl18  1  0.13353447  0.54727532  0.76603436  1.0
  Cl  Cl19  1  0.86646553  0.45272468  0.23396564  1.0
  Cl  Cl20  1  0.66209450  0.11503665  0.91545133  1.0
  Cl  Cl21  1  0.33790550  0.88496335  0.08454867  1.0
  Cl  Cl22  1  0.33790550  0.61503665  0.58454867  1.0
  Cl  Cl23  1  0.66209450  0.38496335  0.41545133  1.0
  O  O24  1  0.60980641  0.23428427  0.65904453  1.0
  O  O25  1  0.39019359  0.76571573  0.34095547  1.0
  O  O26  1  0.39019359  0.73428427  0.84095547  1.0
  O  O27  1  0.60980641  0.26571573  0.15904453  1.0
  O  O28  1  0.40929993  0.09973467  0.63345252  1.0
  O  O29  1  0.59070007  0.90026533  0.36654748  1.0
  O  O30  1  0.59070007  0.59973467  0.86654748  1.0
  O  O31  1  0.40929993  0.40026533  0.13345252  1.0
