# generated using pymatgen
data_LiAl2H6ClO6
_symmetry_space_group_name_H-M   'P 1'
_cell_length_a   5.16218464
_cell_length_b   5.16218464
_cell_length_c   14.26913538
_cell_angle_alpha   90.00000000
_cell_angle_beta   90.00000000
_cell_angle_gamma   120.00000000
_symmetry_Int_Tables_number   1
_chemical_formula_structural   LiAl2H6ClO6
_chemical_formula_sum   'Li2 Al4 H12 Cl2 O12'
_cell_volume   329.30275111
_cell_formula_units_Z   2
loop_
 _symmetry_equiv_pos_site_id
 _symmetry_equiv_pos_as_xyz
  1  'x, y, z'
loop_
 _atom_site_type_symbol
 _atom_site_label
 _atom_site_symmetry_multiplicity
 _atom_site_fract_x
 _atom_site_fract_y
 _atom_site_fract_z
 _atom_site_occupancy
  Li  Li0  1  0.00000000  0.00000000  0.50000000  1.0
  Li  Li1  1  0.00000000  0.00000000  0.00000000  1.0
  Al  Al2  1  0.33333333  0.66666667  0.50000000  1.0
  Al  Al3  1  0.33333333  0.66666667  0.00000000  1.0
  Al  Al4  1  0.66666667  0.33333333  0.50000000  1.0
  Al  Al5  1  0.66666667  0.33333333  0.00000000  1.0
  H  H6  1  0.68973374  0.68973374  0.36616813  1.0
  H  H7  1  0.68973374  0.68973374  0.13383187  1.0
  H  H8  1  0.68973374  0.00000000  0.86616813  1.0
  H  H9  1  0.68973374  0.00000000  0.63383187  1.0
  H  H10  1  -0.00000000  0.68973374  0.86616813  1.0
  H  H11  1  -0.00000000  0.68973374  0.63383187  1.0
  H  H12  1  0.00000000  0.31026626  0.36616813  1.0
  H  H13  1  0.00000000  0.31026626  0.13383187  1.0
  H  H14  1  0.31026626  0.31026626  0.86616813  1.0
  H  H15  1  0.31026626  0.31026626  0.63383187  1.0
  H  H16  1  0.31026626  0.00000000  0.36616813  1.0
  H  H17  1  0.31026626  0.00000000  0.13383187  1.0
  Cl  Cl18  1  0.00000000  0.00000000  0.25000000  1.0
  Cl  Cl19  1  0.00000000  0.00000000  0.75000000  1.0
  O  O20  1  0.63281918  0.63281918  0.43155560  1.0
  O  O21  1  0.63281918  0.63281918  0.06844440  1.0
  O  O22  1  0.63281918  0.00000000  0.93155560  1.0
  O  O23  1  0.63281918  0.00000000  0.56844440  1.0
  O  O24  1  0.00000000  0.63281918  0.93155560  1.0
  O  O25  1  0.00000000  0.63281918  0.56844440  1.0
  O  O26  1  -0.00000000  0.36718082  0.43155560  1.0
  O  O27  1  -0.00000000  0.36718082  0.06844440  1.0
  O  O28  1  0.36718082  0.36718082  0.93155560  1.0
  O  O29  1  0.36718082  0.36718082  0.56844440  1.0
  O  O30  1  0.36718082  0.00000000  0.43155560  1.0
  O  O31  1  0.36718082  0.00000000  0.06844440  1.0
