# generated using pymatgen
data_Rb4CO4
_symmetry_space_group_name_H-M   'P 1'
_cell_length_a   6.77984571
_cell_length_b   6.77984571
_cell_length_c   6.88940684
_cell_angle_alpha   59.42608939
_cell_angle_beta   120.57391061
_cell_angle_gamma   132.56440033
_symmetry_Int_Tables_number   1
_chemical_formula_structural   Rb4CO4
_chemical_formula_sum   'Rb4 C1 O4'
_cell_volume   193.93196836
_cell_formula_units_Z   1
loop_
 _symmetry_equiv_pos_site_id
 _symmetry_equiv_pos_as_xyz
  1  'x, y, z'
loop_
 _atom_site_type_symbol
 _atom_site_label
 _atom_site_symmetry_multiplicity
 _atom_site_fract_x
 _atom_site_fract_y
 _atom_site_fract_z
 _atom_site_occupancy
  Rb  Rb0  1  0.94189947  0.65175962  0.90203432  1.0
  Rb  Rb1  1  1.65175962  -0.05810053  0.09796568  1.0
  Rb  Rb2  1  1.32784969  -0.38163185  0.61328100  1.0
  Rb  Rb3  1  0.61836815  0.32784969  0.38671900  1.0
  C  C4  1  0.13403384  0.13403384  0.00000000  1.0
  O  O5  1  1.06676891  -0.09931942  0.20238734  1.0
  O  O6  1  0.90068058  0.06676891  0.79761266  1.0
  O  O7  1  1.20146757  -0.63290784  0.03685503  1.0
  O  O8  1  0.36709216  0.20146757  0.96314497  1.0
