# generated using pymatgen
data_Y2Cu2O5
_symmetry_space_group_name_H-M   'P 1'
_cell_length_a   6.26069977
_cell_length_b   11.20941630
_cell_length_c   7.18041224
_cell_angle_alpha   90.00000000
_cell_angle_beta   90.00000000
_cell_angle_gamma   90.00000000
_symmetry_Int_Tables_number   1
_chemical_formula_structural   Y2Cu2O5
_chemical_formula_sum   'Y8 Cu8 O20'
_cell_volume   503.91264287
_cell_formula_units_Z   4
loop_
 _symmetry_equiv_pos_site_id
 _symmetry_equiv_pos_as_xyz
  1  'x, y, z'
loop_
 _atom_site_type_symbol
 _atom_site_label
 _atom_site_symmetry_multiplicity
 _atom_site_fract_x
 _atom_site_fract_y
 _atom_site_fract_z
 _atom_site_occupancy
  Y  Y0  1  0.24989059  0.47958484  0.88007975  1.0
  Y  Y1  1  0.24989059  0.02041516  0.88007975  1.0
  Y  Y2  1  0.74989059  0.47958484  0.61992025  1.0
  Y  Y3  1  0.74989059  0.02041516  0.61992025  1.0
  Y  Y4  1  0.75010941  0.97958484  0.11992025  1.0
  Y  Y5  1  0.75010941  0.52041516  0.11992025  1.0
  Y  Y6  1  0.25010941  0.97958484  0.38007975  1.0
  Y  Y7  1  0.25010941  0.52041516  0.38007975  1.0
  Cu  Cu8  1  0.42854354  0.25000000  0.65298254  1.0
  Cu  Cu9  1  0.92854354  0.25000000  0.84701746  1.0
  Cu  Cu10  1  0.57145646  0.75000000  0.34701746  1.0
  Cu  Cu11  1  0.07145646  0.75000000  0.15298254  1.0
  Cu  Cu12  1  0.41214475  0.25000000  0.12822942  1.0
  Cu  Cu13  1  0.91214475  0.25000000  0.37177058  1.0
  Cu  Cu14  1  0.58785525  0.75000000  0.87177058  1.0
  Cu  Cu15  1  0.08785525  0.75000000  0.62822942  1.0
  O  O16  1  0.42896967  0.41454113  0.14227232  1.0
  O  O17  1  0.42896967  0.08545887  0.14227232  1.0
  O  O18  1  0.92896967  0.41454113  0.35772768  1.0
  O  O19  1  0.92896967  0.08545887  0.35772768  1.0
  O  O20  1  0.57103033  0.91454113  0.85772768  1.0
  O  O21  1  0.57103033  0.58545887  0.85772768  1.0
  O  O22  1  0.07103033  0.91454113  0.64227232  1.0
  O  O23  1  0.07103033  0.58545887  0.64227232  1.0
  O  O24  1  0.40454349  0.41212447  0.61549718  1.0
  O  O25  1  0.40454349  0.08787553  0.61549718  1.0
  O  O26  1  0.90454349  0.41212447  0.88450282  1.0
  O  O27  1  0.90454349  0.08787553  0.88450282  1.0
  O  O28  1  0.59545651  0.91212447  0.38450282  1.0
  O  O29  1  0.59545651  0.58787553  0.38450282  1.0
  O  O30  1  0.09545651  0.91212447  0.11549718  1.0
  O  O31  1  0.09545651  0.58787553  0.11549718  1.0
  O  O32  1  0.24335264  0.25000000  0.88008396  1.0
  O  O33  1  0.74335264  0.25000000  0.61991604  1.0
  O  O34  1  0.75664736  0.75000000  0.11991604  1.0
  O  O35  1  0.25664736  0.75000000  0.38008396  1.0
