# generated using pymatgen
data_Bi2O3
_symmetry_space_group_name_H-M   'P 1'
_cell_length_a   8.06446186
_cell_length_b   8.06446186
_cell_length_c   5.76030111
_cell_angle_alpha   90.00000000
_cell_angle_beta   90.00000000
_cell_angle_gamma   90.00000000
_symmetry_Int_Tables_number   1
_chemical_formula_structural   Bi2O3
_chemical_formula_sum   'Bi8 O12'
_cell_volume   374.62432239
_cell_formula_units_Z   4
loop_
 _symmetry_equiv_pos_site_id
 _symmetry_equiv_pos_as_xyz
  1  'x, y, z'
loop_
 _atom_site_type_symbol
 _atom_site_label
 _atom_site_symmetry_multiplicity
 _atom_site_fract_x
 _atom_site_fract_y
 _atom_site_fract_z
 _atom_site_occupancy
  Bi  Bi0  1  0.46685685  0.76438373  0.75768731  1.0
  Bi  Bi1  1  0.03314315  0.26438373  0.74231269  1.0
  Bi  Bi2  1  0.53314315  0.23561627  0.75768731  1.0
  Bi  Bi3  1  0.96685685  0.73561627  0.74231269  1.0
  Bi  Bi4  1  0.76438373  0.53314315  0.24231269  1.0
  Bi  Bi5  1  0.26438373  0.96685685  0.25768731  1.0
  Bi  Bi6  1  0.23561627  0.46685685  0.24231269  1.0
  Bi  Bi7  1  0.73561627  0.03314315  0.25768731  1.0
  O  O8  1  0.21265593  0.82719946  0.56616583  1.0
  O  O9  1  0.28734407  0.32719946  0.93383417  1.0
  O  O10  1  0.78734407  0.17280054  0.56616583  1.0
  O  O11  1  0.71265593  0.67280054  0.93383417  1.0
  O  O12  1  0.82719946  0.78734407  0.43383417  1.0
  O  O13  1  0.32719946  0.71265593  0.06616583  1.0
  O  O14  1  0.17280054  0.21265593  0.43383417  1.0
  O  O15  1  0.67280054  0.28734407  0.06616583  1.0
  O  O16  1  0.50000000  0.00000000  0.92293965  1.0
  O  O17  1  0.00000000  0.50000000  0.57706035  1.0
  O  O18  1  0.00000000  0.50000000  0.07706035  1.0
  O  O19  1  0.50000000  0.00000000  0.42293965  1.0
