# generated using pymatgen
data_Li2WO4
_symmetry_space_group_name_H-M   'P 1'
_cell_length_a   9.00363877
_cell_length_b   9.00363877
_cell_length_c   9.00363877
_cell_angle_alpha   107.94658650
_cell_angle_beta   107.94658650
_cell_angle_gamma   107.94658650
_symmetry_Int_Tables_number   1
_chemical_formula_structural   Li2WO4
_chemical_formula_sum   'Li12 W6 O24'
_cell_volume   591.45734803
_cell_formula_units_Z   6
loop_
 _symmetry_equiv_pos_site_id
 _symmetry_equiv_pos_as_xyz
  1  'x, y, z'
loop_
 _atom_site_type_symbol
 _atom_site_label
 _atom_site_symmetry_multiplicity
 _atom_site_fract_x
 _atom_site_fract_y
 _atom_site_fract_z
 _atom_site_occupancy
  Li  Li0  1  0.70288207  1.10657502  -0.06867917  1.0
  Li  Li1  1  0.89342498  0.06867917  0.29711793  1.0
  Li  Li2  1  1.06867917  0.29711793  -0.10657502  1.0
  Li  Li3  1  1.29711793  -0.10657502  0.06867917  1.0
  Li  Li4  1  1.10657502  0.93132083  -0.29711793  1.0
  Li  Li5  1  0.93132083  0.70288207  0.10657502  1.0
  Li  Li6  1  1.37225143  0.77718694  -0.39326505  1.0
  Li  Li7  1  1.22281306  0.39326505  -0.37225143  1.0
  Li  Li8  1  1.39326505  -0.37225143  0.22281306  1.0
  Li  Li9  1  0.62774857  0.22281306  0.39326505  1.0
  Li  Li10  1  0.77718694  0.60673495  0.37225143  1.0
  Li  Li11  1  0.60673495  1.37225143  -0.22281306  1.0
  W  W12  1  1.55470140  0.73280259  -0.03614190  1.0
  W  W13  1  0.26719741  1.03614190  -0.55470140  1.0
  W  W14  1  1.03614190  0.44529860  -0.73280259  1.0
  W  W15  1  0.44529860  0.26719741  0.03614190  1.0
  W  W16  1  1.73280259  -0.03614190  0.55470140  1.0
  W  W17  1  0.96385810  0.55470140  0.73280259  1.0
  O  O18  1  0.77870803  0.81870238  0.11622140  1.0
  O  O19  1  1.18129762  -0.11622140  0.22129197  1.0
  O  O20  1  0.88377860  0.22129197  0.18129762  1.0
  O  O21  1  1.22129197  0.18129762  -0.11622140  1.0
  O  O22  1  0.81870238  1.11622140  -0.22129197  1.0
  O  O23  1  1.11622140  0.77870803  -0.18129762  1.0
  O  O24  1  1.47091159  0.50900676  -0.18987104  1.0
  O  O25  1  0.49099324  1.18987104  -0.47091159  1.0
  O  O26  1  1.18987104  0.52908841  -0.50900676  1.0
  O  O27  1  0.52908841  0.49099324  0.18987104  1.0
  O  O28  1  1.50900676  -0.18987104  0.47091159  1.0
  O  O29  1  0.81012896  0.47091159  0.50900676  1.0
  O  O30  1  1.54037424  0.86115872  -0.15304485  1.0
  O  O31  1  1.13884128  0.15304485  -0.54037424  1.0
  O  O32  1  1.15304485  -0.54037424  0.13884128  1.0
  O  O33  1  0.45962576  0.13884128  0.15304485  1.0
  O  O34  1  0.86115872  0.84695515  0.54037424  1.0
  O  O35  1  0.84695515  1.54037424  -0.13884128  1.0
  O  O36  1  0.57510634  1.24961290  -0.07974487  1.0
  O  O37  1  0.75038710  0.07974487  0.42489366  1.0
  O  O38  1  1.07974487  0.42489366  -0.24961290  1.0
  O  O39  1  1.42489366  -0.24961290  0.07974487  1.0
  O  O40  1  1.24961290  0.92025513  -0.42489366  1.0
  O  O41  1  0.92025513  0.57510634  0.24961290  1.0
