# generated using pymatgen
data_SrHg3
_symmetry_space_group_name_H-M   'P 1'
_cell_length_a   11.88869209
_cell_length_b   6.99829176
_cell_length_c   5.39594216
_cell_angle_alpha   90.00000000
_cell_angle_beta   90.00000000
_cell_angle_gamma   90.00000000
_symmetry_Int_Tables_number   1
_chemical_formula_structural   SrHg3
_chemical_formula_sum   'Sr4 Hg12'
_cell_volume   448.94527900
_cell_formula_units_Z   4
loop_
 _symmetry_equiv_pos_site_id
 _symmetry_equiv_pos_as_xyz
  1  'x, y, z'
loop_
 _atom_site_type_symbol
 _atom_site_label
 _atom_site_symmetry_multiplicity
 _atom_site_fract_x
 _atom_site_fract_y
 _atom_site_fract_z
 _atom_site_occupancy
  Sr  Sr0  1  0.92831500  0.25000000  0.24999208  1.0
  Sr  Sr1  1  0.42831500  0.25000000  0.25000792  1.0
  Sr  Sr2  1  0.07168500  0.75000000  0.75000792  1.0
  Sr  Sr3  1  0.57168500  0.75000000  0.74999208  1.0
  Hg  Hg4  1  0.67196299  -0.00275817  0.24996217  1.0
  Hg  Hg5  1  0.17196299  0.50275817  0.25003783  1.0
  Hg  Hg6  1  0.32803701  0.49724183  0.75003783  1.0
  Hg  Hg7  1  0.82803701  1.00275817  0.74996217  1.0
  Hg  Hg8  1  0.32803701  1.00275817  0.75003783  1.0
  Hg  Hg9  1  0.82803701  0.49724183  0.74996217  1.0
  Hg  Hg10  1  0.67196299  0.50275817  0.24996217  1.0
  Hg  Hg11  1  0.17196299  -0.00275817  0.25003783  1.0
  Hg  Hg12  1  0.59886947  0.25000000  0.74995746  1.0
  Hg  Hg13  1  0.09886947  0.25000000  0.75004254  1.0
  Hg  Hg14  1  0.40113053  0.75000000  0.25004254  1.0
  Hg  Hg15  1  0.90113053  0.75000000  0.24995746  1.0
