# generated using pymatgen
data_Zn(InS2)2
_symmetry_space_group_name_H-M   'P 1'
_cell_length_a   12.81219529
_cell_length_b   12.81219529
_cell_length_c   12.81219529
_cell_angle_alpha   17.61797773
_cell_angle_beta   17.61797773
_cell_angle_gamma   17.61797773
_symmetry_Int_Tables_number   1
_chemical_formula_structural   Zn(InS2)2
_chemical_formula_sum   'Zn1 In2 S4'
_cell_volume   168.16863332
_cell_formula_units_Z   1
loop_
 _symmetry_equiv_pos_site_id
 _symmetry_equiv_pos_as_xyz
  1  'x, y, z'
loop_
 _atom_site_type_symbol
 _atom_site_label
 _atom_site_symmetry_multiplicity
 _atom_site_fract_x
 _atom_site_fract_y
 _atom_site_fract_z
 _atom_site_occupancy
  Zn  Zn0  1  0.92943026  -0.07056974  -0.07056974  1.0
  In  In1  1  0.47256294  0.47256294  -0.52743706  1.0
  In  In2  1  0.69987880  -0.30012120  -0.30012120  1.0
  S  S3  1  0.00010113  0.00010113  0.00010113  1.0
  S  S4  1  0.83459160  -0.16540840  -0.16540840  1.0
  S  S5  1  0.58311061  0.58311061  -0.41688939  1.0
  S  S6  1  0.40752465  0.40752465  -0.59247535  1.0
