# generated using pymatgen
data_CuAg3S2
_symmetry_space_group_name_H-M   'P 1'
_cell_length_a   8.57276876
_cell_length_b   8.57276876
_cell_length_c   8.57276876
_cell_angle_alpha   118.23050723
_cell_angle_beta   118.23050723
_cell_angle_gamma   93.09318838
_symmetry_Int_Tables_number   1
_chemical_formula_structural   CuAg3S2
_chemical_formula_sum   'Cu4 Ag12 S8'
_cell_volume   456.69602074
_cell_formula_units_Z   4
loop_
 _symmetry_equiv_pos_site_id
 _symmetry_equiv_pos_as_xyz
  1  'x, y, z'
loop_
 _atom_site_type_symbol
 _atom_site_label
 _atom_site_symmetry_multiplicity
 _atom_site_fract_x
 _atom_site_fract_y
 _atom_site_fract_z
 _atom_site_occupancy
  Cu  Cu0  1  0.84729540  0.84729540  1.00000000  1.0
  Cu  Cu1  1  0.59729540  1.09729540  0.50000000  1.0
  Cu  Cu2  1  0.90270460  0.40270460  0.50000000  1.0
  Cu  Cu3  1  0.15270460  0.15270460  0.00000000  1.0
  Ag  Ag4  1  0.37500000  1.12500000  0.75000000  1.0
  Ag  Ag5  1  0.87500000  0.62500000  0.25000000  1.0
  Ag  Ag6  1  1.37500000  0.62500000  0.75000000  1.0
  Ag  Ag7  1  0.37500000  0.62500000  0.25000000  1.0
  Ag  Ag8  1  1.18625760  1.18625760  1.37251520  1.0
  Ag  Ag9  1  0.81374240  0.18625760  1.00000000  1.0
  Ag  Ag10  1  0.93625760  0.43625760  0.87251520  1.0
  Ag  Ag11  1  0.56374240  0.43625760  0.50000000  1.0
  Ag  Ag12  1  1.18625760  0.81374240  1.00000000  1.0
  Ag  Ag13  1  0.81374240  0.81374240  0.62748480  1.0
  Ag  Ag14  1  0.93625760  1.06374240  0.50000000  1.0
  Ag  Ag15  1  0.56374240  1.06374240  1.12748480  1.0
  S  S16  1  1.16170989  0.91461978  0.75290989  1.0
  S  S17  1  0.66461978  0.41170989  0.25290989  1.0
  S  S18  1  1.15880000  0.41170989  0.74709011  1.0
  S  S19  1  0.16170989  0.40880000  0.24709011  1.0
  S  S20  1  0.58829011  0.33538022  0.74709011  1.0
  S  S21  1  1.08538022  0.83829011  1.24709011  1.0
  S  S22  1  0.59120000  0.83829011  0.75290989  1.0
  S  S23  1  0.58829011  0.84120000  0.25290989  1.0
