# generated using pymatgen
data_EuMgSn
_symmetry_space_group_name_H-M   'P 1'
_cell_length_a   7.86354566
_cell_length_b   4.81476424
_cell_length_c   8.83450096
_cell_angle_alpha   90.00000000
_cell_angle_beta   90.00000000
_cell_angle_gamma   90.00000000
_symmetry_Int_Tables_number   1
_chemical_formula_structural   EuMgSn
_chemical_formula_sum   'Eu4 Mg4 Sn4'
_cell_volume   334.48408690
_cell_formula_units_Z   4
loop_
 _symmetry_equiv_pos_site_id
 _symmetry_equiv_pos_as_xyz
  1  'x, y, z'
loop_
 _atom_site_type_symbol
 _atom_site_label
 _atom_site_symmetry_multiplicity
 _atom_site_fract_x
 _atom_site_fract_y
 _atom_site_fract_z
 _atom_site_occupancy
  Eu  Eu0  1  0.98673998  0.75000000  0.69384054  1.0
  Eu  Eu1  1  0.48673998  0.75000000  0.80615946  1.0
  Eu  Eu2  1  0.01326002  0.25000000  0.30615946  1.0
  Eu  Eu3  1  0.51326002  0.25000000  0.19384054  1.0
  Mg  Mg4  1  0.84403414  0.75000000  0.06873908  1.0
  Mg  Mg5  1  0.34403414  0.75000000  0.43126092  1.0
  Mg  Mg6  1  0.15596586  0.25000000  0.93126092  1.0
  Mg  Mg7  1  0.65596586  0.25000000  0.56873908  1.0
  Sn  Sn8  1  0.72963690  0.75000000  0.39291346  1.0
  Sn  Sn9  1  0.22963690  0.75000000  0.10708654  1.0
  Sn  Sn10  1  0.27036310  0.25000000  0.60708654  1.0
  Sn  Sn11  1  0.77036310  0.25000000  0.89291346  1.0
