# generated using pymatgen
data_BaGd(CoO3)2
_symmetry_space_group_name_H-M   'P 1'
_cell_length_a   7.77705436
_cell_length_b   7.77929483
_cell_length_c   7.53131283
_cell_angle_alpha   90.00000000
_cell_angle_beta   90.00000000
_cell_angle_gamma   90.00000000
_symmetry_Int_Tables_number   1
_chemical_formula_structural   BaGd(CoO3)2
_chemical_formula_sum   'Ba4 Gd4 Co8 O24'
_cell_volume   455.64441683
_cell_formula_units_Z   4
loop_
 _symmetry_equiv_pos_site_id
 _symmetry_equiv_pos_as_xyz
  1  'x, y, z'
loop_
 _atom_site_type_symbol
 _atom_site_label
 _atom_site_symmetry_multiplicity
 _atom_site_fract_x
 _atom_site_fract_y
 _atom_site_fract_z
 _atom_site_occupancy
  Gd  Gd0  1  0.50000000  0.74998188  0.00000000  1.0
  Gd  Gd1  1  0.50000000  0.25001812  0.00000000  1.0
  Gd  Gd2  1  0.00000000  0.74998188  0.00000000  1.0
  Gd  Gd3  1  0.00000000  0.25001812  0.00000000  1.0
  Ba  Ba4  1  0.50000000  0.75000096  0.50000000  1.0
  Ba  Ba5  1  0.50000000  0.24999904  0.50000000  1.0
  Ba  Ba6  1  0.00000000  0.75000096  0.50000000  1.0
  Ba  Ba7  1  0.00000000  0.24999904  0.50000000  1.0
  O  O8  1  0.25000000  0.75000523  0.77829708  1.0
  O  O9  1  0.25000000  0.24999477  0.77829708  1.0
  O  O10  1  0.75000000  0.75000523  0.22170292  1.0
  O  O11  1  0.75000000  0.24999477  0.22170292  1.0
  O  O12  1  0.25000000  0.75001263  0.22176297  1.0
  O  O13  1  0.25000000  0.24998737  0.22176297  1.0
  O  O14  1  0.75000000  0.75001263  0.77823703  1.0
  O  O15  1  0.75000000  0.24998737  0.77823703  1.0
  O  O16  1  -0.00000855  0.50000000  0.22183173  1.0
  O  O17  1  0.49999145  0.50000000  0.77816827  1.0
  O  O18  1  1.00000855  0.50000000  0.77816827  1.0
  O  O19  1  0.50000855  0.50000000  0.22183173  1.0
  O  O20  1  0.50001654  0.00000000  0.22181466  1.0
  O  O21  1  1.00001654  0.00000000  0.77818534  1.0
  O  O22  1  0.49998346  0.00000000  0.77818534  1.0
  O  O23  1  -0.00001654  0.00000000  0.22181466  1.0
  O  O24  1  0.25000000  0.50000000  0.50001886  1.0
  O  O25  1  0.75000000  0.50000000  0.49998114  1.0
  O  O26  1  0.25000000  0.00000000  0.50000580  1.0
  O  O27  1  0.75000000  0.00000000  0.49999420  1.0
  O  O28  1  0.25000000  0.00000000  0.00001271  1.0
  O  O29  1  0.75000000  0.00000000  -0.00001271  1.0
  O  O30  1  0.25000000  0.50000000  0.00002498  1.0
  O  O31  1  0.75000000  0.50000000  0.99997502  1.0
  Co  Co32  1  0.25000000  0.50000000  0.75184720  1.0
  Co  Co33  1  0.75000000  0.50000000  0.24815280  1.0
  Co  Co34  1  0.25000000  0.00000000  0.24816357  1.0
  Co  Co35  1  0.75000000  0.00000000  0.75183643  1.0
  Co  Co36  1  0.25000000  0.50000000  0.24818854  1.0
  Co  Co37  1  0.75000000  0.50000000  0.75181146  1.0
  Co  Co38  1  0.25000000  0.00000000  0.75184779  1.0
  Co  Co39  1  0.75000000  0.00000000  0.24815221  1.0
