# generated using pymatgen
data_Sr2LuBiO6
_symmetry_space_group_name_H-M   'P 1'
_cell_length_a   5.91149043
_cell_length_b   6.02061303
_cell_length_c   10.29054904
_cell_angle_alpha   90.00000000
_cell_angle_beta   125.14681971
_cell_angle_gamma   90.00000000
_symmetry_Int_Tables_number   1
_chemical_formula_structural   Sr2LuBiO6
_chemical_formula_sum   'Sr4 Lu2 Bi2 O12'
_cell_volume   299.47419130
_cell_formula_units_Z   2
loop_
 _symmetry_equiv_pos_site_id
 _symmetry_equiv_pos_as_xyz
  1  'x, y, z'
loop_
 _atom_site_type_symbol
 _atom_site_label
 _atom_site_symmetry_multiplicity
 _atom_site_fract_x
 _atom_site_fract_y
 _atom_site_fract_z
 _atom_site_occupancy
  Sr  Sr0  1  0.73926243  0.04209252  0.24988269  1.0
  Sr  Sr1  1  0.73926243  0.45790748  0.74988269  1.0
  Sr  Sr2  1  0.26073757  0.54209252  0.25011731  1.0
  Sr  Sr3  1  0.26073757  0.95790748  0.75011731  1.0
  Lu  Lu4  1  0.50000000  0.50000000  0.00000000  1.0
  Lu  Lu5  1  0.50000000  0.00000000  0.50000000  1.0
  Bi  Bi6  1  0.00000000  0.50000000  0.50000000  1.0
  Bi  Bi7  1  0.00000000  0.00000000  0.00000000  1.0
  O  O8  1  0.84557653  0.46893204  0.25496137  1.0
  O  O9  1  0.84557653  0.03106796  0.75496137  1.0
  O  O10  1  0.15442347  0.96893204  0.24503863  1.0
  O  O11  1  0.15442347  0.53106796  0.74503863  1.0
  O  O12  1  0.74979417  0.78766005  0.45095816  1.0
  O  O13  1  0.74979417  0.71233995  0.95095816  1.0
  O  O14  1  0.25020583  0.28766005  0.04904184  1.0
  O  O15  1  0.25020583  0.21233995  0.54904184  1.0
  O  O16  1  0.66425472  0.29602370  0.45262971  1.0
  O  O17  1  0.66425472  0.20397630  0.95262971  1.0
  O  O18  1  0.33574528  0.79602370  0.04737029  1.0
  O  O19  1  0.33574528  0.70397630  0.54737029  1.0
