# generated using pymatgen
data_Ca2GaCu2
_symmetry_space_group_name_H-M   'P 1'
_cell_length_a   5.68576921
_cell_length_b   5.68576921
_cell_length_c   5.68576921
_cell_angle_alpha   135.79351005
_cell_angle_beta   122.77980620
_cell_angle_gamma   75.03413361
_symmetry_Int_Tables_number   1
_chemical_formula_structural   Ca2GaCu2
_chemical_formula_sum   'Ca2 Ga1 Cu2'
_cell_volume   105.07485136
_cell_formula_units_Z   1
loop_
 _symmetry_equiv_pos_site_id
 _symmetry_equiv_pos_as_xyz
  1  'x, y, z'
loop_
 _atom_site_type_symbol
 _atom_site_label
 _atom_site_symmetry_multiplicity
 _atom_site_fract_x
 _atom_site_fract_y
 _atom_site_fract_z
 _atom_site_occupancy
  Ca  Ca0  1  0.69544617  0.19544617  0.50000000  1.0
  Ca  Ca1  1  0.30455383  0.80455383  0.50000000  1.0
  Ga  Ga2  1  0.00000000  0.00000000  0.00000000  1.0
  Cu  Cu3  1  0.25786083  0.50000000  0.75786083  1.0
  Cu  Cu4  1  0.74213917  0.50000000  1.24213917  1.0
