# generated using pymatgen
data_Lu2Si2O7
_symmetry_space_group_name_H-M   'P 1'
_cell_length_a   5.62245718
_cell_length_b   5.62245718
_cell_length_c   4.77739828
_cell_angle_alpha   82.67958186
_cell_angle_beta   97.32041814
_cell_angle_gamma   74.56531989
_symmetry_Int_Tables_number   1
_chemical_formula_structural   Lu2Si2O7
_chemical_formula_sum   'Lu2 Si2 O7'
_cell_volume   142.31944395
_cell_formula_units_Z   1
loop_
 _symmetry_equiv_pos_site_id
 _symmetry_equiv_pos_as_xyz
  1  'x, y, z'
loop_
 _atom_site_type_symbol
 _atom_site_label
 _atom_site_symmetry_multiplicity
 _atom_site_fract_x
 _atom_site_fract_y
 _atom_site_fract_z
 _atom_site_occupancy
  Lu  Lu0  1  0.69176765  -0.30823235  0.00000000  1.0
  Lu  Lu1  1  1.30823235  0.30823235  0.00000000  1.0
  Si  Si2  1  0.78069211  -0.78069211  0.59096621  1.0
  Si  Si3  1  0.21930789  -0.21930789  0.40903379  1.0
  O  O4  1  1.61356851  0.08378263  0.78213088  1.0
  O  O5  1  0.91621737  -0.61356851  0.78213088  1.0
  O  O6  1  1.08378263  0.61356851  0.21786912  1.0
  O  O7  1  0.38643149  -0.08378263  0.21786912  1.0
  O  O8  1  0.38489656  -0.38489656  0.71340273  1.0
  O  O9  1  0.61510344  -0.61510344  0.28659727  1.0
  O  O10  1  0.00000000  -0.00000000  0.50000000  1.0
