# generated using pymatgen
data_NaV(OF)2
_symmetry_space_group_name_H-M   'P 1'
_cell_length_a   6.55374654
_cell_length_b   3.54719916
_cell_length_c   14.73056025
_cell_angle_alpha   90.00000000
_cell_angle_beta   108.10978159
_cell_angle_gamma   90.00000000
_symmetry_Int_Tables_number   1
_chemical_formula_structural   NaV(OF)2
_chemical_formula_sum   'Na4 V4 O8 F8'
_cell_volume   325.48392751
_cell_formula_units_Z   4
loop_
 _symmetry_equiv_pos_site_id
 _symmetry_equiv_pos_as_xyz
  1  'x, y, z'
loop_
 _atom_site_type_symbol
 _atom_site_label
 _atom_site_symmetry_multiplicity
 _atom_site_fract_x
 _atom_site_fract_y
 _atom_site_fract_z
 _atom_site_occupancy
  Na  Na0  1  0.86444695  0.28677133  0.14216336  1.0
  Na  Na1  1  0.86444695  0.21322867  0.64216336  1.0
  Na  Na2  1  0.13555305  0.78677133  0.35783664  1.0
  Na  Na3  1  0.13555305  0.71322867  0.85783664  1.0
  V  V4  1  0.64226099  0.23993960  0.36064345  1.0
  V  V5  1  0.64226099  0.26006040  0.86064345  1.0
  V  V6  1  0.35773901  0.73993960  0.13935655  1.0
  V  V7  1  0.35773901  0.76006040  0.63935655  1.0
  O  O8  1  0.39951251  0.27372516  0.17649453  1.0
  O  O9  1  0.39951251  0.22627484  0.67649453  1.0
  O  O10  1  0.60048749  0.77372516  0.32350547  1.0
  O  O11  1  0.60048749  0.72627484  0.82350547  1.0
  O  O12  1  0.78007003  0.23210960  0.47100011  1.0
  O  O13  1  0.78007003  0.26789040  0.97100011  1.0
  O  O14  1  0.21992997  0.73210960  0.02899989  1.0
  O  O15  1  0.21992997  0.76789040  0.52899989  1.0
  F  F16  1  0.87847895  0.28832265  0.30939468  1.0
  F  F17  1  0.87847895  0.21167735  0.80939468  1.0
  F  F18  1  0.12152105  0.78832265  0.19060532  1.0
  F  F19  1  0.12152105  0.71167735  0.69060532  1.0
  F  F20  1  0.36705895  0.28882426  0.37232744  1.0
  F  F21  1  0.36705895  0.21117574  0.87232744  1.0
  F  F22  1  0.63294105  0.78882426  0.12767256  1.0
  F  F23  1  0.63294105  0.71117574  0.62767256  1.0
