# generated using pymatgen
data_FeH4
_symmetry_space_group_name_H-M   'P 1'
_cell_length_a   2.91554684
_cell_length_b   3.70949183
_cell_length_c   4.16215159
_cell_angle_alpha   90.00000000
_cell_angle_beta   101.37403851
_cell_angle_gamma   90.00000000
_symmetry_Int_Tables_number   1
_chemical_formula_structural   FeH4
_chemical_formula_sum   'Fe2 H8'
_cell_volume   44.13043409
_cell_formula_units_Z   2
loop_
 _symmetry_equiv_pos_site_id
 _symmetry_equiv_pos_as_xyz
  1  'x, y, z'
loop_
 _atom_site_type_symbol
 _atom_site_label
 _atom_site_symmetry_multiplicity
 _atom_site_fract_x
 _atom_site_fract_y
 _atom_site_fract_z
 _atom_site_occupancy
  Fe  Fe0  1  0.50286130  0.75000000  0.76610193  1.0
  Fe  Fe1  1  0.49713870  0.25000000  0.23389807  1.0
  H  H2  1  0.78656862  0.49641395  0.55963723  1.0
  H  H3  1  0.21343138  0.99641395  0.44036277  1.0
  H  H4  1  0.21343138  0.50358605  0.44036277  1.0
  H  H5  1  0.78656862  0.00358605  0.55963723  1.0
  H  H6  1  0.45654385  0.25000000  0.84950342  1.0
  H  H7  1  0.54345615  0.75000000  0.15049658  1.0
  H  H8  1  0.00000000  0.50000000  0.00000000  1.0
  H  H9  1  0.00000000  -0.00000000  0.00000000  1.0
