# generated using pymatgen
data_LiAuF4
_symmetry_space_group_name_H-M   'P 1'
_cell_length_a   6.18580826
_cell_length_b   6.18580826
_cell_length_c   5.74077839
_cell_angle_alpha   88.38149875
_cell_angle_beta   91.61850125
_cell_angle_gamma   117.62064005
_symmetry_Int_Tables_number   1
_chemical_formula_structural   LiAuF4
_chemical_formula_sum   'Li2 Au2 F8'
_cell_volume   194.52638754
_cell_formula_units_Z   2
loop_
 _symmetry_equiv_pos_site_id
 _symmetry_equiv_pos_as_xyz
  1  'x, y, z'
loop_
 _atom_site_type_symbol
 _atom_site_label
 _atom_site_symmetry_multiplicity
 _atom_site_fract_x
 _atom_site_fract_y
 _atom_site_fract_z
 _atom_site_occupancy
  Li  Li0  1  0.63123189  0.63123189  0.75000000  1.0
  Li  Li1  1  0.36876811  0.36876811  0.25000000  1.0
  Au  Au2  1  1.50000000  0.00000000  0.50000000  1.0
  Au  Au3  1  1.00000000  -0.50000000  -0.00000000  1.0
  F  F4  1  1.68170056  -0.01990272  0.77616645  1.0
  F  F5  1  1.01990272  -0.68170056  0.27616645  1.0
  F  F6  1  0.98009728  -0.31829944  0.72383355  1.0
  F  F7  1  1.31829944  0.01990272  0.22383355  1.0
  F  F8  1  1.30056181  -0.50726383  0.91871490  1.0
  F  F9  1  1.50726383  -0.30056181  0.41871490  1.0
  F  F10  1  1.49273617  0.30056181  0.58128510  1.0
  F  F11  1  0.69943819  -0.49273617  0.08128510  1.0
