# generated using pymatgen
data_Ba2SiTe4
_symmetry_space_group_name_H-M   'P 1'
_cell_length_a   7.67194001
_cell_length_b   7.66724081
_cell_length_c   9.68276551
_cell_angle_alpha   90.00000000
_cell_angle_beta   108.39594191
_cell_angle_gamma   90.00000000
_symmetry_Int_Tables_number   1
_chemical_formula_structural   Ba2SiTe4
_chemical_formula_sum   'Ba4 Si2 Te8'
_cell_volume   540.45982373
_cell_formula_units_Z   2
loop_
 _symmetry_equiv_pos_site_id
 _symmetry_equiv_pos_as_xyz
  1  'x, y, z'
loop_
 _atom_site_type_symbol
 _atom_site_label
 _atom_site_symmetry_multiplicity
 _atom_site_fract_x
 _atom_site_fract_y
 _atom_site_fract_z
 _atom_site_occupancy
  Ba  Ba0  1  0.77227048  0.75000000  0.44628488  1.0
  Ba  Ba1  1  0.22772952  0.25000000  0.55371512  1.0
  Ba  Ba2  1  0.73430817  0.75000000  0.93132599  1.0
  Ba  Ba3  1  0.26569183  0.25000000  0.06867401  1.0
  Si  Si4  1  0.21267581  0.75000000  0.29637302  1.0
  Si  Si5  1  0.78732419  0.25000000  0.70362698  1.0
  Te  Te6  1  0.00401953  0.99302739  0.76436586  1.0
  Te  Te7  1  0.00401953  0.50697261  0.76436586  1.0
  Te  Te8  1  0.99598047  0.49302739  0.23563414  1.0
  Te  Te9  1  0.99598047  0.00697261  0.23563414  1.0
  Te  Te10  1  0.40257252  0.75000000  0.12308437  1.0
  Te  Te11  1  0.59742748  0.25000000  0.87691563  1.0
  Te  Te12  1  0.37862969  0.75000000  0.56788365  1.0
  Te  Te13  1  0.62137031  0.25000000  0.43211635  1.0
