# generated using pymatgen
data_CsCrNi(CN)6
_symmetry_space_group_name_H-M   'P 1'
_cell_length_a   7.42123643
_cell_length_b   7.42123643
_cell_length_c   7.42123643
_cell_angle_alpha   60.00000000
_cell_angle_beta   60.00000000
_cell_angle_gamma   60.00000000
_symmetry_Int_Tables_number   1
_chemical_formula_structural   CsCrNi(CN)6
_chemical_formula_sum   'Cs1 Cr1 Ni1 C6 N6'
_cell_volume   289.01062254
_cell_formula_units_Z   1
loop_
 _symmetry_equiv_pos_site_id
 _symmetry_equiv_pos_as_xyz
  1  'x, y, z'
loop_
 _atom_site_type_symbol
 _atom_site_label
 _atom_site_symmetry_multiplicity
 _atom_site_fract_x
 _atom_site_fract_y
 _atom_site_fract_z
 _atom_site_occupancy
  Cs  Cs0  1  0.75000000  0.75000000  -0.25000000  1.0
  Cr  Cr1  1  0.00000000  0.00000000  0.00000000  1.0
  Ni  Ni2  1  -0.50000000  0.50000000  0.50000000  1.0
  C  C3  1  -0.80599776  0.80599776  0.80599776  1.0
  C  C4  1  -0.19400224  0.80599776  0.19400224  1.0
  C  C5  1  -0.19400224  0.19400224  0.80599776  1.0
  C  C6  1  0.19400224  1.19400224  -0.19400224  1.0
  C  C7  1  0.19400224  -0.19400224  0.19400224  1.0
  C  C8  1  -0.19400224  0.19400224  0.19400224  1.0
  N  N9  1  -0.69448894  0.69448894  0.69448894  1.0
  N  N10  1  -0.30551106  0.69448894  0.30551106  1.0
  N  N11  1  -0.30551106  0.30551106  0.69448894  1.0
  N  N12  1  0.30551106  1.30551106  -0.30551106  1.0
  N  N13  1  0.30551106  -0.30551106  0.30551106  1.0
  N  N14  1  -0.30551106  0.30551106  0.30551106  1.0
