# generated using pymatgen
data_Cs3LiPb4
_symmetry_space_group_name_H-M   'P 1'
_cell_length_a   9.33907671
_cell_length_b   9.33907671
_cell_length_c   10.93848583
_cell_angle_alpha   90.00000000
_cell_angle_beta   90.00000000
_cell_angle_gamma   132.87344482
_symmetry_Int_Tables_number   1
_chemical_formula_structural   Cs3LiPb4
_chemical_formula_sum   'Cs6 Li2 Pb8'
_cell_volume   699.17375060
_cell_formula_units_Z   2
loop_
 _symmetry_equiv_pos_site_id
 _symmetry_equiv_pos_as_xyz
  1  'x, y, z'
loop_
 _atom_site_type_symbol
 _atom_site_label
 _atom_site_symmetry_multiplicity
 _atom_site_fract_x
 _atom_site_fract_y
 _atom_site_fract_z
 _atom_site_occupancy
  Cs  Cs0  1  0.38469772  0.61530228  0.95382406  1.0
  Cs  Cs1  1  0.38469772  0.61530228  0.54617594  1.0
  Cs  Cs2  1  -0.38469772  0.38469772  0.45382406  1.0
  Cs  Cs3  1  -0.38469772  0.38469772  0.04617594  1.0
  Cs  Cs4  1  -0.22345223  0.22345223  0.75000000  1.0
  Cs  Cs5  1  0.22345223  0.77654777  0.25000000  1.0
  Li  Li6  1  0.00000000  0.00000000  0.00000000  1.0
  Li  Li7  1  0.00000000  0.00000000  0.50000000  1.0
  Pb  Pb8  1  -0.18253313  0.75314790  0.75000000  1.0
  Pb  Pb9  1  0.75314790  0.81746687  0.25000000  1.0
  Pb  Pb10  1  0.24685210  1.18253313  0.75000000  1.0
  Pb  Pb11  1  0.18253313  0.24685210  0.25000000  1.0
  Pb  Pb12  1  0.16183505  0.83816495  0.89119938  1.0
  Pb  Pb13  1  0.16183505  0.83816495  0.60880062  1.0
  Pb  Pb14  1  -0.16183505  0.16183505  0.39119938  1.0
  Pb  Pb15  1  -0.16183505  0.16183505  0.10880062  1.0
