# generated using pymatgen
data_Nd(ClO4)3
_symmetry_space_group_name_H-M   'P 1'
_cell_length_a   9.68878851
_cell_length_b   9.68878851
_cell_length_c   5.82462154
_cell_angle_alpha   90.00000000
_cell_angle_beta   90.00000000
_cell_angle_gamma   120.00000000
_symmetry_Int_Tables_number   1
_chemical_formula_structural   Nd(ClO4)3
_chemical_formula_sum   'Nd2 Cl6 O24'
_cell_volume   473.51887579
_cell_formula_units_Z   2
loop_
 _symmetry_equiv_pos_site_id
 _symmetry_equiv_pos_as_xyz
  1  'x, y, z'
loop_
 _atom_site_type_symbol
 _atom_site_label
 _atom_site_symmetry_multiplicity
 _atom_site_fract_x
 _atom_site_fract_y
 _atom_site_fract_z
 _atom_site_occupancy
  Nd  Nd0  1  0.66666667  0.33333333  0.25000000  1.0
  Nd  Nd1  1  0.33333333  0.66666667  0.75000000  1.0
  Cl  Cl2  1  0.29590506  0.90530827  0.25000000  1.0
  Cl  Cl3  1  0.90530827  0.60940322  0.75000000  1.0
  Cl  Cl4  1  0.60940322  0.70409494  0.25000000  1.0
  Cl  Cl5  1  0.09469173  0.39059678  0.25000000  1.0
  Cl  Cl6  1  0.70409494  0.09469173  0.75000000  1.0
  Cl  Cl7  1  0.39059678  0.29590506  0.75000000  1.0
  O  O8  1  0.26181254  0.80189551  0.45436931  1.0
  O  O9  1  0.26181254  0.80189551  0.04563069  1.0
  O  O10  1  0.80189551  0.54008297  0.95436931  1.0
  O  O11  1  0.80189551  0.54008297  0.54563069  1.0
  O  O12  1  0.54008297  0.73818746  0.45436931  1.0
  O  O13  1  0.54008297  0.73818746  0.04563069  1.0
  O  O14  1  0.19810449  0.45991703  0.45436931  1.0
  O  O15  1  0.19810449  0.45991703  0.04563069  1.0
  O  O16  1  0.73818746  0.19810449  0.95436931  1.0
  O  O17  1  0.73818746  0.19810449  0.54563069  1.0
  O  O18  1  0.45991703  0.26181254  0.95436931  1.0
  O  O19  1  0.45991703  0.26181254  0.54563069  1.0
  O  O20  1  0.19592232  0.97441511  0.25000000  1.0
  O  O21  1  0.97441511  0.77849278  0.75000000  1.0
  O  O22  1  0.77849278  0.80407768  0.25000000  1.0
  O  O23  1  0.02558489  0.22150722  0.25000000  1.0
  O  O24  1  0.80407768  0.02558489  0.75000000  1.0
  O  O25  1  0.22150722  0.19592232  0.75000000  1.0
  O  O26  1  0.55846745  0.53357082  0.25000000  1.0
  O  O27  1  0.53357082  0.97510337  0.75000000  1.0
  O  O28  1  0.97510337  0.44153255  0.25000000  1.0
  O  O29  1  0.46642918  0.02489663  0.25000000  1.0
  O  O30  1  0.44153255  0.46642918  0.75000000  1.0
  O  O31  1  0.02489663  0.55846745  0.75000000  1.0
