# generated using pymatgen
data_AlAu4
_symmetry_space_group_name_H-M   'P 1'
_cell_length_a   7.01498121
_cell_length_b   7.01498121
_cell_length_c   7.01498121
_cell_angle_alpha   90.00000000
_cell_angle_beta   90.00000000
_cell_angle_gamma   90.00000000
_symmetry_Int_Tables_number   1
_chemical_formula_structural   AlAu4
_chemical_formula_sum   'Al4 Au16'
_cell_volume   345.20695487
_cell_formula_units_Z   4
loop_
 _symmetry_equiv_pos_site_id
 _symmetry_equiv_pos_as_xyz
  1  'x, y, z'
loop_
 _atom_site_type_symbol
 _atom_site_label
 _atom_site_symmetry_multiplicity
 _atom_site_fract_x
 _atom_site_fract_y
 _atom_site_fract_z
 _atom_site_occupancy
  Al  Al0  1  0.43648978  0.93648978  0.56351022  1.0
  Al  Al1  1  0.93648978  0.56351022  0.43648978  1.0
  Al  Al2  1  0.56351022  0.43648978  0.93648978  1.0
  Al  Al3  1  0.06351022  0.06351022  0.06351022  1.0
  Au  Au4  1  0.38562381  0.78536779  0.94933054  1.0
  Au  Au5  1  0.88562381  0.71463221  0.05066946  1.0
  Au  Au6  1  0.28536779  0.55066946  0.61437619  1.0
  Au  Au7  1  0.78536779  0.94933054  0.38562381  1.0
  Au  Au8  1  0.05066946  0.88562381  0.71463221  1.0
  Au  Au9  1  0.55066946  0.61437619  0.28536779  1.0
  Au  Au10  1  0.61437619  0.28536779  0.55066946  1.0
  Au  Au11  1  0.11437619  0.21463221  0.44933054  1.0
  Au  Au12  1  0.71463221  0.05066946  0.88562381  1.0
  Au  Au13  1  0.21463221  0.44933054  0.11437619  1.0
  Au  Au14  1  0.94933054  0.38562381  0.78536779  1.0
  Au  Au15  1  0.44933054  0.11437619  0.21463221  1.0
  Au  Au16  1  0.81725911  0.31725911  0.18274089  1.0
  Au  Au17  1  0.31725911  0.18274089  0.81725911  1.0
  Au  Au18  1  0.18274089  0.81725911  0.31725911  1.0
  Au  Au19  1  0.68274089  0.68274089  0.68274089  1.0
