# generated using pymatgen
data_Na2Zn3(SeO3)4
_symmetry_space_group_name_H-M   'P 1'
_cell_length_a   7.17591863
_cell_length_b   7.17591863
_cell_length_c   14.94584194
_cell_angle_alpha   90.03289496
_cell_angle_beta   89.96710504
_cell_angle_gamma   123.65297547
_symmetry_Int_Tables_number   1
_chemical_formula_structural   Na2Zn3(SeO3)4
_chemical_formula_sum   'Na4 Zn6 Se8 O24'
_cell_volume   640.63724901
_cell_formula_units_Z   2
loop_
 _symmetry_equiv_pos_site_id
 _symmetry_equiv_pos_as_xyz
  1  'x, y, z'
loop_
 _atom_site_type_symbol
 _atom_site_label
 _atom_site_symmetry_multiplicity
 _atom_site_fract_x
 _atom_site_fract_y
 _atom_site_fract_z
 _atom_site_occupancy
  Na  Na0  1  0.50734045  -0.23678795  0.53473514  1.0
  Na  Na1  1  0.76321205  0.50734045  0.96526486  1.0
  Na  Na2  1  0.49265955  0.23678795  0.46526486  1.0
  Na  Na3  1  1.23678795  0.49265955  0.03473514  1.0
  Zn  Zn4  1  0.73910343  0.73910343  0.75000000  1.0
  Zn  Zn5  1  0.26089657  0.26089657  0.25000000  1.0
  Zn  Zn6  1  0.20376965  0.18119911  0.86931949  1.0
  Zn  Zn7  1  1.18119911  0.20376965  0.63068051  1.0
  Zn  Zn8  1  0.79623035  -0.18119911  0.13068051  1.0
  Zn  Zn9  1  0.81880089  0.79623035  0.36931949  1.0
  Se  Se10  1  0.58287094  0.22647272  0.73327411  1.0
  Se  Se11  1  1.22647272  0.58287094  0.76672589  1.0
  Se  Se12  1  0.41712906  -0.22647272  0.26672589  1.0
  Se  Se13  1  0.77352728  0.41712906  0.23327411  1.0
  Se  Se14  1  0.30727937  0.03333248  0.06840807  1.0
  Se  Se15  1  1.03333248  0.30727937  0.43159193  1.0
  Se  Se16  1  0.69272063  -0.03333248  0.93159193  1.0
  Se  Se17  1  0.96666752  0.69272063  0.56840807  1.0
  O  O18  1  1.13567060  0.78010006  0.02254825  1.0
  O  O19  1  0.78010006  0.13567060  0.47745175  1.0
  O  O20  1  0.86432940  0.21989994  0.97745175  1.0
  O  O21  1  0.21989994  -0.13567060  0.52254825  1.0
  O  O22  1  0.72608731  0.47365460  0.79552795  1.0
  O  O23  1  0.47365460  -0.27391269  0.70447205  1.0
  O  O24  1  1.27391269  0.52634540  0.20447205  1.0
  O  O25  1  0.52634540  0.27391269  0.29552795  1.0
  O  O26  1  0.50295644  0.31064198  0.64052312  1.0
  O  O27  1  1.31064198  0.50295644  0.85947688  1.0
  O  O28  1  0.49704356  -0.31064198  0.35947688  1.0
  O  O29  1  0.68935802  0.49704356  0.14052312  1.0
  O  O30  1  0.33307702  0.06538530  0.78928950  1.0
  O  O31  1  1.06538530  0.33307702  0.71071050  1.0
  O  O32  1  0.66692298  -0.06538530  0.21071050  1.0
  O  O33  1  0.93461470  0.66692298  0.28928950  1.0
  O  O34  1  0.35063755  0.22657113  0.98776621  1.0
  O  O35  1  1.22657113  0.35063755  0.51223379  1.0
  O  O36  1  0.64936245  -0.22657113  0.01223379  1.0
  O  O37  1  0.77342887  0.64936245  0.48776621  1.0
  O  O38  1  0.87805132  -0.05720349  0.85834089  1.0
  O  O39  1  0.94279651  0.87805132  0.64165911  1.0
  O  O40  1  0.12194868  0.05720349  0.14165911  1.0
  O  O41  1  1.05720349  0.12194868  0.35834089  1.0
