# generated using pymatgen
data_Ba3(SiAs2)2
_symmetry_space_group_name_H-M   'P 1'
_cell_length_a   10.06582807
_cell_length_b   10.06582807
_cell_length_c   7.80055991
_cell_angle_alpha   75.01429700
_cell_angle_beta   104.98570300
_cell_angle_gamma   57.36993888
_symmetry_Int_Tables_number   1
_chemical_formula_structural   Ba3(SiAs2)2
_chemical_formula_sum   'Ba6 Si4 As8'
_cell_volume   560.77575804
_cell_formula_units_Z   2
loop_
 _symmetry_equiv_pos_site_id
 _symmetry_equiv_pos_as_xyz
  1  'x, y, z'
loop_
 _atom_site_type_symbol
 _atom_site_label
 _atom_site_symmetry_multiplicity
 _atom_site_fract_x
 _atom_site_fract_y
 _atom_site_fract_z
 _atom_site_occupancy
  Ba  Ba0  1  0.93502412  0.93502412  0.75000000  1.0
  Ba  Ba1  1  1.06497588  0.06497588  0.25000000  1.0
  Ba  Ba2  1  0.68941566  0.68941566  0.75000000  1.0
  Ba  Ba3  1  1.31058434  0.31058434  0.25000000  1.0
  Ba  Ba4  1  1.44178909  0.44178909  0.75000000  1.0
  Ba  Ba5  1  0.55821091  0.55821091  0.25000000  1.0
  Si  Si6  1  1.32965812  0.03329924  0.84356311  1.0
  Si  Si7  1  0.96670076  0.67034188  0.34356311  1.0
  Si  Si8  1  1.03329924  0.32965812  0.65643689  1.0
  Si  Si9  1  1.67034188  -0.03329924  0.15643689  1.0
  As  As10  1  1.54871212  0.05468096  0.79541658  1.0
  As  As11  1  0.94531904  0.45128788  0.29541658  1.0
  As  As12  1  1.05468096  0.54871212  0.70458342  1.0
  As  As13  1  1.45128788  -0.05468096  0.20458342  1.0
  As  As14  1  1.31169899  -0.16741168  0.75434798  1.0
  As  As15  1  1.16741168  0.68830101  0.25434798  1.0
  As  As16  1  0.83258832  0.31169899  0.74565202  1.0
  As  As17  1  1.68830101  0.16741168  0.24565202  1.0
