# generated using pymatgen
data_Na3FeSe3
_symmetry_space_group_name_H-M   'P 1'
_cell_length_a   7.47337889
_cell_length_b   7.23688956
_cell_length_c   14.86614551
_cell_angle_alpha   90.00000000
_cell_angle_beta   118.73322476
_cell_angle_gamma   90.00000000
_symmetry_Int_Tables_number   1
_chemical_formula_structural   Na3FeSe3
_chemical_formula_sum   'Na12 Fe4 Se12'
_cell_volume   705.01981098
_cell_formula_units_Z   4
loop_
 _symmetry_equiv_pos_site_id
 _symmetry_equiv_pos_as_xyz
  1  'x, y, z'
loop_
 _atom_site_type_symbol
 _atom_site_label
 _atom_site_symmetry_multiplicity
 _atom_site_fract_x
 _atom_site_fract_y
 _atom_site_fract_z
 _atom_site_occupancy
  Na  Na0  1  0.99565131  0.50041307  0.22313430  1.0
  Na  Na1  1  0.99565131  -0.00041307  0.72313430  1.0
  Na  Na2  1  0.00434869  1.00041307  0.27686570  1.0
  Na  Na3  1  0.00434869  0.49958693  0.77686570  1.0
  Na  Na4  1  0.62527943  0.01761147  0.40724030  1.0
  Na  Na5  1  0.62527943  0.48238853  0.90724030  1.0
  Na  Na6  1  0.37472057  0.51761147  0.09275970  1.0
  Na  Na7  1  0.37472057  0.98238853  0.59275970  1.0
  Na  Na8  1  0.45174654  0.01768855  0.11427218  1.0
  Na  Na9  1  0.45174654  0.48231145  0.61427218  1.0
  Na  Na10  1  0.54825346  0.51768855  0.38572782  1.0
  Na  Na11  1  0.54825346  0.98231145  0.88572782  1.0
  Fe  Fe12  1  0.99968047  0.88060144  0.07402886  1.0
  Fe  Fe13  1  0.99968047  0.61939856  0.57402886  1.0
  Fe  Fe14  1  0.00031953  0.38060144  0.42597114  1.0
  Fe  Fe15  1  0.00031953  0.11939856  0.92597114  1.0
  Se  Se16  1  0.98903348  0.21167304  0.07629323  1.0
  Se  Se17  1  0.98903348  0.28832696  0.57629323  1.0
  Se  Se18  1  0.01096652  0.71167304  0.42370677  1.0
  Se  Se19  1  0.01096652  0.78832696  0.92370677  1.0
  Se  Se20  1  0.70215497  0.28396471  0.27493412  1.0
  Se  Se21  1  0.70215497  0.21603529  0.77493412  1.0
  Se  Se22  1  0.29784503  0.78396471  0.22506588  1.0
  Se  Se23  1  0.29784503  0.71603529  0.72506588  1.0
  Se  Se24  1  0.29648604  0.25813448  0.42715945  1.0
  Se  Se25  1  0.29648604  0.24186552  0.92715945  1.0
  Se  Se26  1  0.70351396  0.75813448  0.07284055  1.0
  Se  Se27  1  0.70351396  0.74186552  0.57284055  1.0
