# generated using pymatgen
data_Lu2MgCu2
_symmetry_space_group_name_H-M   'P 1'
_cell_length_a   7.48839151
_cell_length_b   7.48839151
_cell_length_c   3.65271579
_cell_angle_alpha   90.00000000
_cell_angle_beta   90.00000000
_cell_angle_gamma   90.00000000
_symmetry_Int_Tables_number   1
_chemical_formula_structural   Lu2MgCu2
_chemical_formula_sum   'Lu4 Mg2 Cu4'
_cell_volume   204.82971730
_cell_formula_units_Z   2
loop_
 _symmetry_equiv_pos_site_id
 _symmetry_equiv_pos_as_xyz
  1  'x, y, z'
loop_
 _atom_site_type_symbol
 _atom_site_label
 _atom_site_symmetry_multiplicity
 _atom_site_fract_x
 _atom_site_fract_y
 _atom_site_fract_z
 _atom_site_occupancy
  Lu  Lu0  1  0.33111954  0.16888046  0.50000000  1.0
  Lu  Lu1  1  0.83111954  0.33111954  0.50000000  1.0
  Lu  Lu2  1  0.66888046  0.83111954  0.50000000  1.0
  Lu  Lu3  1  0.16888046  0.66888046  0.50000000  1.0
  Mg  Mg4  1  0.50000000  0.50000000  0.00000000  1.0
  Mg  Mg5  1  0.00000000  0.00000000  0.00000000  1.0
  Cu  Cu6  1  0.87577948  0.62422052  0.00000000  1.0
  Cu  Cu7  1  0.37577948  0.87577948  0.00000000  1.0
  Cu  Cu8  1  0.12422052  0.37577948  0.00000000  1.0
  Cu  Cu9  1  0.62422052  0.12422052  0.00000000  1.0
