# generated using pymatgen
data_Ba2InSbSe5
_symmetry_space_group_name_H-M   'P 1'
_cell_length_a   9.92605058
_cell_length_b   9.92605058
_cell_length_c   13.30796153
_cell_angle_alpha   90.00000000
_cell_angle_beta   90.00000000
_cell_angle_gamma   154.70817474
_symmetry_Int_Tables_number   1
_chemical_formula_structural   Ba2InSbSe5
_chemical_formula_sum   'Ba4 In2 Sb2 Se10'
_cell_volume   560.17677034
_cell_formula_units_Z   2
loop_
 _symmetry_equiv_pos_site_id
 _symmetry_equiv_pos_as_xyz
  1  'x, y, z'
loop_
 _atom_site_type_symbol
 _atom_site_label
 _atom_site_symmetry_multiplicity
 _atom_site_fract_x
 _atom_site_fract_y
 _atom_site_fract_z
 _atom_site_occupancy
  Ba  Ba0  1  0.11343723  0.88656277  0.87239386  1.0
  Ba  Ba1  1  -0.11343723  0.11343723  0.37239386  1.0
  Ba  Ba2  1  0.12884243  0.87115757  0.24932873  1.0
  Ba  Ba3  1  -0.12884243  0.12884243  0.74932873  1.0
  In  In4  1  -0.43836827  0.43836827  0.61191246  1.0
  In  In5  1  0.43836827  0.56163173  0.11191246  1.0
  Sb  Sb6  1  0.21755346  0.78244654  0.53569838  1.0
  Sb  Sb7  1  -0.21755346  0.21755346  0.03569838  1.0
  Se  Se8  1  0.04602584  0.95397416  0.49927356  1.0
  Se  Se9  1  -0.04602584  0.04602584  -0.00072644  1.0
  Se  Se10  1  0.28227150  0.71772850  0.89407034  1.0
  Se  Se11  1  -0.28227150  0.28227150  0.39407034  1.0
  Se  Se12  1  0.35375841  0.64624159  0.55819837  1.0
  Se  Se13  1  -0.35375841  0.35375841  0.05819837  1.0
  Se  Se14  1  0.49711660  0.50288340  0.78210110  1.0
  Se  Se15  1  -0.49711660  0.49711660  0.28210110  1.0
  Se  Se16  1  -0.31040735  0.31040735  0.69012321  1.0
  Se  Se17  1  0.31040735  0.68959265  0.19012321  1.0
