# generated using pymatgen
data_YSiRu
_symmetry_space_group_name_H-M   'P 1'
_cell_length_a   7.00021911
_cell_length_b   4.31597996
_cell_length_c   7.14800614
_cell_angle_alpha   90.00000000
_cell_angle_beta   90.00000000
_cell_angle_gamma   90.00000000
_symmetry_Int_Tables_number   1
_chemical_formula_structural   YSiRu
_chemical_formula_sum   'Y4 Si4 Ru4'
_cell_volume   215.96131835
_cell_formula_units_Z   4
loop_
 _symmetry_equiv_pos_site_id
 _symmetry_equiv_pos_as_xyz
  1  'x, y, z'
loop_
 _atom_site_type_symbol
 _atom_site_label
 _atom_site_symmetry_multiplicity
 _atom_site_fract_x
 _atom_site_fract_y
 _atom_site_fract_z
 _atom_site_occupancy
  Y  Y0  1  0.01238740  0.75000000  0.68698168  1.0
  Y  Y1  1  0.51238740  0.75000000  0.81301832  1.0
  Y  Y2  1  0.98761260  0.25000000  0.31301832  1.0
  Y  Y3  1  0.48761260  0.25000000  0.18698168  1.0
  Si  Si4  1  0.69541005  0.75000000  0.39433859  1.0
  Si  Si5  1  0.19541005  0.75000000  0.10566141  1.0
  Si  Si6  1  0.30458995  0.25000000  0.60566141  1.0
  Si  Si7  1  0.80458995  0.25000000  0.89433859  1.0
  Ru  Ru8  1  0.84659969  0.75000000  0.06673506  1.0
  Ru  Ru9  1  0.34659969  0.75000000  0.43326494  1.0
  Ru  Ru10  1  0.15340031  0.25000000  0.93326494  1.0
  Ru  Ru11  1  0.65340031  0.25000000  0.56673506  1.0
