# generated using pymatgen
data_GdSbRh
_symmetry_space_group_name_H-M   'P 1'
_cell_length_a   7.25150810
_cell_length_b   4.59686062
_cell_length_c   7.86978132
_cell_angle_alpha   90.00000000
_cell_angle_beta   90.00000000
_cell_angle_gamma   90.00000000
_symmetry_Int_Tables_number   1
_chemical_formula_structural   GdSbRh
_chemical_formula_sum   'Gd4 Sb4 Rh4'
_cell_volume   262.33264422
_cell_formula_units_Z   4
loop_
 _symmetry_equiv_pos_site_id
 _symmetry_equiv_pos_as_xyz
  1  'x, y, z'
loop_
 _atom_site_type_symbol
 _atom_site_label
 _atom_site_symmetry_multiplicity
 _atom_site_fract_x
 _atom_site_fract_y
 _atom_site_fract_z
 _atom_site_occupancy
  Gd  Gd0  1  0.98943077  0.75000000  0.70085881  1.0
  Gd  Gd1  1  0.48943077  0.75000000  0.79914119  1.0
  Gd  Gd2  1  0.01056923  0.25000000  0.29914119  1.0
  Gd  Gd3  1  0.51056923  0.25000000  0.20085881  1.0
  Sb  Sb4  1  0.80838855  0.75000000  0.09037502  1.0
  Sb  Sb5  1  0.30838855  0.75000000  0.40962498  1.0
  Sb  Sb6  1  0.19161145  0.25000000  0.90962498  1.0
  Sb  Sb7  1  0.69161145  0.25000000  0.59037502  1.0
  Rh  Rh8  1  0.69665386  0.75000000  0.41723637  1.0
  Rh  Rh9  1  0.19665386  0.75000000  0.08276363  1.0
  Rh  Rh10  1  0.30334614  0.25000000  0.58276363  1.0
  Rh  Rh11  1  0.80334614  0.25000000  0.91723637  1.0
