# generated using pymatgen
data_BaCoPO4F
_symmetry_space_group_name_H-M   'P 1'
_cell_length_a   4.92291310
_cell_length_b   9.10495068
_cell_length_c   9.74611556
_cell_angle_alpha   90.00000000
_cell_angle_beta   90.00000000
_cell_angle_gamma   90.00000000
_symmetry_Int_Tables_number   1
_chemical_formula_structural   BaCoPO4F
_chemical_formula_sum   'Ba4 Co4 P4 O16 F4'
_cell_volume   436.84897703
_cell_formula_units_Z   4
loop_
 _symmetry_equiv_pos_site_id
 _symmetry_equiv_pos_as_xyz
  1  'x, y, z'
loop_
 _atom_site_type_symbol
 _atom_site_label
 _atom_site_symmetry_multiplicity
 _atom_site_fract_x
 _atom_site_fract_y
 _atom_site_fract_z
 _atom_site_occupancy
  Ba  Ba0  1  0.98706579  0.75840047  0.80981193  1.0
  Ba  Ba1  1  0.48706579  0.74159953  0.19018807  1.0
  Ba  Ba2  1  0.01293421  0.25840047  0.69018807  1.0
  Ba  Ba3  1  0.51293421  0.24159953  0.30981193  1.0
  Co  Co4  1  0.48606658  0.94982408  0.58815802  1.0
  Co  Co5  1  0.98606658  0.55017592  0.41184198  1.0
  Co  Co6  1  0.51393342  0.44982408  0.91184198  1.0
  Co  Co7  1  0.01393342  0.05017592  0.08815802  1.0
  P  P8  1  0.47276852  0.57776290  0.59423014  1.0
  P  P9  1  0.97276852  0.92223710  0.40576986  1.0
  P  P10  1  0.52723148  0.07776290  0.90576986  1.0
  P  P11  1  0.02723148  0.42223710  0.09423014  1.0
  O  O12  1  0.45113790  0.23988538  0.87176885  1.0
  O  O13  1  0.95113790  0.26011462  0.12823115  1.0
  O  O14  1  0.54886210  0.73988538  0.62823115  1.0
  O  O15  1  0.04886210  0.76011462  0.37176885  1.0
  O  O16  1  0.39140046  0.97815154  0.79593482  1.0
  O  O17  1  0.89140046  0.52184846  0.20406518  1.0
  O  O18  1  0.60859954  0.47815154  0.70406518  1.0
  O  O19  1  0.10859954  0.02184846  0.29593482  1.0
  O  O20  1  0.15566424  0.55740499  0.60278176  1.0
  O  O21  1  0.65566424  0.94259501  0.39721824  1.0
  O  O22  1  0.84433576  0.05740499  0.89721824  1.0
  O  O23  1  0.34433576  0.44259501  0.10278176  1.0
  O  O24  1  0.06345862  0.96385971  0.55454330  1.0
  O  O25  1  0.56345862  0.53614029  0.44545670  1.0
  O  O26  1  0.93654138  0.46385971  0.94545670  1.0
  O  O27  1  0.43654138  0.03614029  0.05454330  1.0
  F  F28  1  0.48242412  0.67274103  0.92533143  1.0
  F  F29  1  0.98242412  0.82725897  0.07466857  1.0
  F  F30  1  0.51757588  0.17274103  0.57466857  1.0
  F  F31  1  0.01757588  0.32725897  0.42533143  1.0
