# generated using pymatgen
data_RbMnOF4
_symmetry_space_group_name_H-M   'P 1'
_cell_length_a   9.22875337
_cell_length_b   9.22875337
_cell_length_c   10.90779941
_cell_angle_alpha   59.44786953
_cell_angle_beta   120.55213047
_cell_angle_gamma   137.42782117
_symmetry_Int_Tables_number   1
_chemical_formula_structural   RbMnOF4
_chemical_formula_sum   'Rb4 Mn4 O4 F16'
_cell_volume   526.73373231
_cell_formula_units_Z   4
loop_
 _symmetry_equiv_pos_site_id
 _symmetry_equiv_pos_as_xyz
  1  'x, y, z'
loop_
 _atom_site_type_symbol
 _atom_site_label
 _atom_site_symmetry_multiplicity
 _atom_site_fract_x
 _atom_site_fract_y
 _atom_site_fract_z
 _atom_site_occupancy
  Mn  Mn0  1  0.75121438  0.75121438  0.75000000  1.0
  Mn  Mn1  1  0.24878562  0.24878562  0.25000000  1.0
  Mn  Mn2  1  0.50000000  0.00000000  0.50000000  1.0
  Mn  Mn3  1  1.00000000  0.50000000  -0.00000000  1.0
  Rb  Rb4  1  0.36130026  0.13941476  1.01034602  1.0
  Rb  Rb5  1  0.86058524  0.63869974  0.51034602  1.0
  Rb  Rb6  1  1.13941476  0.36130026  0.48965398  1.0
  Rb  Rb7  1  0.63869974  -0.13941476  -0.01034602  1.0
  F  F8  1  0.63348120  -0.13056834  0.57068260  1.0
  F  F9  1  1.13056834  0.36651880  0.07068260  1.0
  F  F10  1  0.86943166  0.63348120  0.92931740  1.0
  F  F11  1  0.36651880  0.13056834  0.42931740  1.0
  F  F12  1  0.72355217  0.22534673  0.99756414  1.0
  F  F13  1  0.77465327  0.27644783  0.49756414  1.0
  F  F14  1  1.22534673  0.72355217  0.50243586  1.0
  F  F15  1  0.27644783  -0.22534673  0.00243586  1.0
  F  F16  1  0.90826011  -0.02175392  0.82675434  1.0
  F  F17  1  1.02175392  0.09173989  0.32675434  1.0
  F  F18  1  0.97824608  0.90826011  0.67324566  1.0
  F  F19  1  0.09173989  0.02175392  0.17324566  1.0
  F  F20  1  0.52418465  -0.40590362  0.82677427  1.0
  F  F21  1  1.40590362  0.47581535  0.32677427  1.0
  F  F22  1  0.59409638  0.52418465  0.67322573  1.0
  F  F23  1  0.47581535  0.40590362  0.17322573  1.0
  O  O24  1  0.52487210  -0.01950296  0.66640671  1.0
  O  O25  1  1.01950296  0.47512790  0.16640671  1.0
  O  O26  1  0.98049704  0.52487210  0.83359329  1.0
  O  O27  1  0.47512790  0.01950296  0.33359329  1.0
