# generated using pymatgen
data_CsSeO4
_symmetry_space_group_name_H-M   'P 1'
_cell_length_a   8.43551978
_cell_length_b   8.58198974
_cell_length_c   7.90133274
_cell_angle_alpha   90.00000000
_cell_angle_beta   115.65724628
_cell_angle_gamma   90.00000000
_symmetry_Int_Tables_number   1
_chemical_formula_structural   CsSeO4
_chemical_formula_sum   'Cs4 Se4 O16'
_cell_volume   515.60594886
_cell_formula_units_Z   4
loop_
 _symmetry_equiv_pos_site_id
 _symmetry_equiv_pos_as_xyz
  1  'x, y, z'
loop_
 _atom_site_type_symbol
 _atom_site_label
 _atom_site_symmetry_multiplicity
 _atom_site_fract_x
 _atom_site_fract_y
 _atom_site_fract_z
 _atom_site_occupancy
  Cs  Cs0  1  0.77019403  0.37615911  0.75842290  1.0
  Cs  Cs1  1  0.77019403  0.12384089  0.25842290  1.0
  Cs  Cs2  1  0.22980597  0.87615911  0.74157710  1.0
  Cs  Cs3  1  0.22980597  0.62384089  0.24157710  1.0
  Se  Se4  1  0.74643660  0.84947781  0.74628078  1.0
  Se  Se5  1  0.74643660  0.65052219  0.24628078  1.0
  Se  Se6  1  0.25356340  0.34947781  0.75371922  1.0
  Se  Se7  1  0.25356340  0.15052219  0.25371922  1.0
  O  O8  1  0.91806055  0.73833625  0.86437897  1.0
  O  O9  1  0.91806055  0.76166375  0.36437897  1.0
  O  O10  1  0.08193945  0.23833625  0.63562103  1.0
  O  O11  1  0.08193945  0.26166375  0.13562103  1.0
  O  O12  1  0.20515246  0.50429623  0.84712882  1.0
  O  O13  1  0.20515246  0.99570377  0.34712882  1.0
  O  O14  1  0.79484754  0.00429623  0.65287118  1.0
  O  O15  1  0.79484754  0.49570377  0.15287118  1.0
  O  O16  1  0.57983077  0.74235916  0.58562935  1.0
  O  O17  1  0.57983077  0.75764084  0.08562935  1.0
  O  O18  1  0.42016923  0.24235916  0.91437065  1.0
  O  O19  1  0.42016923  0.25764084  0.41437065  1.0
  O  O20  1  0.65505200  0.92360759  0.88423078  1.0
  O  O21  1  0.65505200  0.57639241  0.38423078  1.0
  O  O22  1  0.34494800  0.42360759  0.61576922  1.0
  O  O23  1  0.34494800  0.07639241  0.11576922  1.0
