# generated using pymatgen
data_NaZrCuTe3
_symmetry_space_group_name_H-M   'P 1'
_cell_length_a   14.85024744
_cell_length_b   4.09156704
_cell_length_c   11.06792089
_cell_angle_alpha   90.00000000
_cell_angle_beta   90.00000000
_cell_angle_gamma   90.00000000
_symmetry_Int_Tables_number   1
_chemical_formula_structural   NaZrCuTe3
_chemical_formula_sum   'Na4 Zr4 Cu4 Te12'
_cell_volume   672.49553964
_cell_formula_units_Z   4
loop_
 _symmetry_equiv_pos_site_id
 _symmetry_equiv_pos_as_xyz
  1  'x, y, z'
loop_
 _atom_site_type_symbol
 _atom_site_label
 _atom_site_symmetry_multiplicity
 _atom_site_fract_x
 _atom_site_fract_y
 _atom_site_fract_z
 _atom_site_occupancy
  Na  Na0  1  0.22883532  0.75000000  0.55333043  1.0
  Na  Na1  1  0.72883532  0.75000000  0.94666957  1.0
  Na  Na2  1  0.77116468  0.25000000  0.44666957  1.0
  Na  Na3  1  0.27116468  0.25000000  0.05333043  1.0
  Zr  Zr4  1  0.00895080  0.75000000  0.81647690  1.0
  Zr  Zr5  1  0.50895080  0.75000000  0.68352310  1.0
  Zr  Zr6  1  0.99104920  0.25000000  0.18352310  1.0
  Zr  Zr7  1  0.49104920  0.25000000  0.31647690  1.0
  Cu  Cu8  1  0.49342907  0.75000000  0.09168758  1.0
  Cu  Cu9  1  0.99342907  0.75000000  0.40831242  1.0
  Cu  Cu10  1  0.50657093  0.25000000  0.90831242  1.0
  Cu  Cu11  1  0.00657093  0.25000000  0.59168758  1.0
  Te  Te12  1  0.39255703  0.75000000  0.88572737  1.0
  Te  Te13  1  0.89255703  0.75000000  0.61427263  1.0
  Te  Te14  1  0.60744297  0.25000000  0.11427263  1.0
  Te  Te15  1  0.10744297  0.25000000  0.38572737  1.0
  Te  Te16  1  0.36113677  0.75000000  0.25137239  1.0
  Te  Te17  1  0.86113677  0.75000000  0.24862761  1.0
  Te  Te18  1  0.63886323  0.25000000  0.74862761  1.0
  Te  Te19  1  0.13886323  0.25000000  0.75137239  1.0
  Te  Te20  1  0.10184931  0.75000000  0.06134700  1.0
  Te  Te21  1  0.60184931  0.75000000  0.43865300  1.0
  Te  Te22  1  0.89815069  0.25000000  0.93865300  1.0
  Te  Te23  1  0.39815069  0.25000000  0.56134700  1.0
