# generated using pymatgen
data_Yb2S3
_symmetry_space_group_name_H-M   'P 1'
_cell_length_a   7.32587582
_cell_length_b   7.32587582
_cell_length_c   7.32587582
_cell_angle_alpha   55.41644622
_cell_angle_beta   55.41644622
_cell_angle_gamma   55.41644622
_symmetry_Int_Tables_number   1
_chemical_formula_structural   Yb2S3
_chemical_formula_sum   'Yb4 S6'
_cell_volume   248.41490997
_cell_formula_units_Z   2
loop_
 _symmetry_equiv_pos_site_id
 _symmetry_equiv_pos_as_xyz
  1  'x, y, z'
loop_
 _atom_site_type_symbol
 _atom_site_label
 _atom_site_symmetry_multiplicity
 _atom_site_fract_x
 _atom_site_fract_y
 _atom_site_fract_z
 _atom_site_occupancy
  Yb  Yb0  1  0.84817423  -0.15182577  -0.15182577  1.0
  Yb  Yb1  1  0.34817423  0.34817423  0.34817423  1.0
  Yb  Yb2  1  0.65182577  0.65182577  -0.34817423  1.0
  Yb  Yb3  1  1.15182577  0.15182577  0.15182577  1.0
  S  S4  1  0.44787918  0.75000000  0.05212082  1.0
  S  S5  1  0.94787918  -0.44787918  0.25000000  1.0
  S  S6  1  0.25000000  0.94787918  -0.44787918  1.0
  S  S7  1  0.75000000  1.05212082  -0.55212082  1.0
  S  S8  1  0.55212082  0.25000000  -0.05212082  1.0
  S  S9  1  1.05212082  0.44787918  -0.25000000  1.0
