# generated using pymatgen
data_Gd4CdRu
_symmetry_space_group_name_H-M   'P 1'
_cell_length_a   9.71706924
_cell_length_b   9.71706924
_cell_length_c   9.71706924
_cell_angle_alpha   60.00000000
_cell_angle_beta   60.00000000
_cell_angle_gamma   60.00000000
_symmetry_Int_Tables_number   1
_chemical_formula_structural   Gd4CdRu
_chemical_formula_sum   'Gd16 Cd4 Ru4'
_cell_volume   648.77020081
_cell_formula_units_Z   4
loop_
 _symmetry_equiv_pos_site_id
 _symmetry_equiv_pos_as_xyz
  1  'x, y, z'
loop_
 _atom_site_type_symbol
 _atom_site_label
 _atom_site_symmetry_multiplicity
 _atom_site_fract_x
 _atom_site_fract_y
 _atom_site_fract_z
 _atom_site_occupancy
  Gd  Gd0  1  0.06032377  0.43967623  0.43967623  1.0
  Gd  Gd1  1  0.43967623  0.43967623  0.06032377  1.0
  Gd  Gd2  1  0.43967623  0.06032377  0.43967623  1.0
  Gd  Gd3  1  0.06032377  0.06032377  0.43967623  1.0
  Gd  Gd4  1  0.06032377  0.43967623  0.06032377  1.0
  Gd  Gd5  1  0.43967623  0.06032377  0.06032377  1.0
  Gd  Gd6  1  -0.81034280  0.81034280  0.81034280  1.0
  Gd  Gd7  1  -0.18965720  0.81034280  0.18965720  1.0
  Gd  Gd8  1  -0.18965720  0.18965720  0.81034280  1.0
  Gd  Gd9  1  0.18965720  1.18965720  -0.18965720  1.0
  Gd  Gd10  1  0.18965720  -0.18965720  0.18965720  1.0
  Gd  Gd11  1  -0.18965720  0.18965720  0.18965720  1.0
  Gd  Gd12  1  -0.34629398  0.65370602  0.65370602  1.0
  Gd  Gd13  1  1.03888195  0.65370602  -0.34629398  1.0
  Gd  Gd14  1  -0.34629398  0.65370602  1.03888195  1.0
  Gd  Gd15  1  0.65370602  1.03888195  -0.34629398  1.0
  Cd  Cd16  1  0.42009151  1.42009151  0.42009151  1.0
  Cd  Cd17  1  -0.26027454  0.42009151  0.42009151  1.0
  Cd  Cd18  1  0.42009151  1.42009151  -0.26027454  1.0
  Cd  Cd19  1  0.42009151  -0.26027454  0.42009151  1.0
  Ru  Ru20  1  0.86151121  0.86151121  -0.13848879  1.0
  Ru  Ru21  1  0.41546637  0.86151121  -0.13848879  1.0
  Ru  Ru22  1  0.86151121  0.86151121  -0.58453363  1.0
  Ru  Ru23  1  0.86151121  0.41546637  -0.13848879  1.0
