# generated using pymatgen
data_HfNiF6
_symmetry_space_group_name_H-M   'P 1'
_cell_length_a   5.66703350
_cell_length_b   5.66703350
_cell_length_c   5.66703350
_cell_angle_alpha   59.37103913
_cell_angle_beta   59.37103913
_cell_angle_gamma   59.37103913
_symmetry_Int_Tables_number   1
_chemical_formula_structural   HfNiF6
_chemical_formula_sum   'Hf1 Ni1 F6'
_cell_volume   126.84995373
_cell_formula_units_Z   1
loop_
 _symmetry_equiv_pos_site_id
 _symmetry_equiv_pos_as_xyz
  1  'x, y, z'
loop_
 _atom_site_type_symbol
 _atom_site_label
 _atom_site_symmetry_multiplicity
 _atom_site_fract_x
 _atom_site_fract_y
 _atom_site_fract_z
 _atom_site_occupancy
  Hf  Hf0  1  0.50000000  0.50000000  -0.50000000  1.0
  Ni  Ni1  1  0.00000000  -0.00000000  -0.00000000  1.0
  F  F2  1  0.20157082  0.74977492  -0.70076511  1.0
  F  F3  1  0.70076511  -0.20157082  0.25022508  1.0
  F  F4  1  1.25022508  -0.29923489  -0.20157082  1.0
  F  F5  1  0.79842918  0.25022508  -0.29923489  1.0
  F  F6  1  0.29923489  0.20157082  -0.25022508  1.0
  F  F7  1  0.74977492  0.29923489  -0.79842918  1.0
