# generated using pymatgen
data_Mg(AlS2)2
_symmetry_space_group_name_H-M   'P 1'
_cell_length_a   12.11398761
_cell_length_b   12.11398761
_cell_length_c   12.11398761
_cell_angle_alpha   17.75093841
_cell_angle_beta   17.75093841
_cell_angle_gamma   17.75093841
_symmetry_Int_Tables_number   1
_chemical_formula_structural   Mg(AlS2)2
_chemical_formula_sum   'Mg1 Al2 S4'
_cell_volume   144.24771593
_cell_formula_units_Z   1
loop_
 _symmetry_equiv_pos_site_id
 _symmetry_equiv_pos_as_xyz
  1  'x, y, z'
loop_
 _atom_site_type_symbol
 _atom_site_label
 _atom_site_symmetry_multiplicity
 _atom_site_fract_x
 _atom_site_fract_y
 _atom_site_fract_z
 _atom_site_occupancy
  Mg  Mg0  1  0.93129212  -0.06870788  -0.06870788  1.0
  Al  Al1  1  0.70463019  -0.29536981  -0.29536981  1.0
  Al  Al2  1  0.47302571  0.47302571  -0.52697429  1.0
  S  S3  1  0.00598214  0.00598214  0.00598214  1.0
  S  S4  1  0.82904795  -0.17095205  -0.17095205  1.0
  S  S5  1  0.57385276  0.57385276  -0.42614724  1.0
  S  S6  1  0.40936913  0.40936913  -0.59063087  1.0
