# generated using pymatgen
data_YbB2Rh3
_symmetry_space_group_name_H-M   'P 1'
_cell_length_a   5.55844632
_cell_length_b   5.55844632
_cell_length_c   2.94922866
_cell_angle_alpha   89.99970584
_cell_angle_beta   90.00029416
_cell_angle_gamma   60.00241378
_symmetry_Int_Tables_number   1
_chemical_formula_structural   YbB2Rh3
_chemical_formula_sum   'Yb1 B2 Rh3'
_cell_volume   78.91443878
_cell_formula_units_Z   1
loop_
 _symmetry_equiv_pos_site_id
 _symmetry_equiv_pos_as_xyz
  1  'x, y, z'
loop_
 _atom_site_type_symbol
 _atom_site_label
 _atom_site_symmetry_multiplicity
 _atom_site_fract_x
 _atom_site_fract_y
 _atom_site_fract_z
 _atom_site_occupancy
  Yb  Yb0  1  0.50000000  -0.50000000  0.50000000  1.0
  B  B1  1  0.16667987  0.16667987  0.50000000  1.0
  B  B2  1  0.83332013  -0.16667987  0.50000000  1.0
  Rh  Rh3  1  0.00000000  0.00000000  0.00000000  1.0
  Rh  Rh4  1  1.00000000  -0.50000000  0.00000000  1.0
  Rh  Rh5  1  0.50000000  0.00000000  0.00000000  1.0
