# generated using pymatgen
data_LiAlAs2
_symmetry_space_group_name_H-M   'P 1'
_cell_length_a   9.67511066
_cell_length_b   9.67511066
_cell_length_c   9.67511066
_cell_angle_alpha   115.46337017
_cell_angle_beta   130.22015633
_cell_angle_gamma   85.66083617
_symmetry_Int_Tables_number   1
_chemical_formula_structural   LiAlAs2
_chemical_formula_sum   'Li8 Al8 As16'
_cell_volume   596.96985590
_cell_formula_units_Z   8
loop_
 _symmetry_equiv_pos_site_id
 _symmetry_equiv_pos_as_xyz
  1  'x, y, z'
loop_
 _atom_site_type_symbol
 _atom_site_label
 _atom_site_symmetry_multiplicity
 _atom_site_fract_x
 _atom_site_fract_y
 _atom_site_fract_z
 _atom_site_occupancy
  Li  Li0  1  0.94310725  0.96453240  1.70957751  1.0
  Li  Li1  1  1.55689275  1.26647027  1.02142515  1.0
  Li  Li2  1  0.75495489  0.23352973  0.79042249  1.0
  Li  Li3  1  1.74504511  1.53546760  1.47857485  1.0
  Li  Li4  1  1.05689275  1.03546760  0.29042249  1.0
  Li  Li5  1  0.44310725  0.73352973  0.97857485  1.0
  Li  Li6  1  1.24504511  1.76647027  1.20957751  1.0
  Li  Li7  1  0.25495489  0.46453240  0.52142515  1.0
  Al  Al8  1  0.81103339  0.74523033  0.83110739  1.0
  Al  Al9  1  0.68896661  0.52007400  0.93419693  1.0
  Al  Al10  1  0.41412293  0.97992600  0.66889261  1.0
  Al  Al11  1  1.08587707  0.75476967  1.56580307  1.0
  Al  Al12  1  1.18896661  1.25476967  1.16889261  1.0
  Al  Al13  1  1.31103339  1.47992600  1.06580307  1.0
  Al  Al14  1  1.58587707  1.02007400  1.33110739  1.0
  Al  Al15  1  0.91412293  1.24523033  0.43419693  1.0
  As  As16  1  0.50000000  0.50000000  0.50000000  1.0
  As  As17  1  1.00000000  1.50000000  1.00000000  1.0
  As  As18  1  1.50000000  1.00000000  1.00000000  1.0
  As  As19  1  1.00000000  1.00000000  0.50000000  1.0
  As  As20  1  0.75000000  0.81578432  1.06578432  1.0
  As  As21  1  1.25000000  1.68421568  1.43421568  1.0
  As  As22  1  1.25000000  1.18421568  0.93421568  1.0
  As  As23  1  0.75000000  0.31578432  0.56578432  1.0
  As  As24  1  0.71905130  0.96905130  0.75000000  1.0
  As  As25  1  0.78094870  0.53094870  1.25000000  1.0
  As  As26  1  1.28094870  1.03094870  1.25000000  1.0
  As  As27  1  1.21905130  1.46905130  0.75000000  1.0
  As  As28  1  1.08742069  0.75000000  0.83742069  1.0
  As  As29  1  0.41257931  0.25000000  0.66257931  1.0
  As  As30  1  0.91257931  1.25000000  1.16257931  1.0
  As  As31  1  0.58742069  0.75000000  1.33742069  1.0
