# generated using pymatgen
data_Rb2SeO4
_symmetry_space_group_name_H-M   'P 1'
_cell_length_a   8.15432754
_cell_length_b   6.32323967
_cell_length_c   11.05234532
_cell_angle_alpha   90.00000000
_cell_angle_beta   90.00000000
_cell_angle_gamma   90.00000000
_symmetry_Int_Tables_number   1
_chemical_formula_structural   Rb2SeO4
_chemical_formula_sum   'Rb8 Se4 O16'
_cell_volume   569.87845902
_cell_formula_units_Z   4
loop_
 _symmetry_equiv_pos_site_id
 _symmetry_equiv_pos_as_xyz
  1  'x, y, z'
loop_
 _atom_site_type_symbol
 _atom_site_label
 _atom_site_symmetry_multiplicity
 _atom_site_fract_x
 _atom_site_fract_y
 _atom_site_fract_z
 _atom_site_occupancy
  Rb  Rb0  1  0.17305090  0.25000000  0.91907690  1.0
  Rb  Rb1  1  0.67305090  0.25000000  0.58092310  1.0
  Rb  Rb2  1  0.82694910  0.75000000  0.08092310  1.0
  Rb  Rb3  1  0.32694910  0.75000000  0.41907690  1.0
  Rb  Rb4  1  0.49950454  0.25000000  0.20436232  1.0
  Rb  Rb5  1  0.99950454  0.25000000  0.29563768  1.0
  Rb  Rb6  1  0.50049546  0.75000000  0.79563768  1.0
  Rb  Rb7  1  0.00049546  0.75000000  0.70436232  1.0
  Se  Se8  1  0.72537510  0.25000000  0.91736851  1.0
  Se  Se9  1  0.22537510  0.25000000  0.58263149  1.0
  Se  Se10  1  0.27462490  0.75000000  0.08263149  1.0
  Se  Se11  1  0.77462490  0.75000000  0.41736851  1.0
  O  O12  1  0.52160827  0.25000000  0.92649679  1.0
  O  O13  1  0.02160827  0.25000000  0.57350321  1.0
  O  O14  1  0.47839173  0.75000000  0.07350321  1.0
  O  O15  1  0.97839173  0.75000000  0.42649679  1.0
  O  O16  1  0.80940166  0.25000000  0.05621419  1.0
  O  O17  1  0.30940166  0.25000000  0.44378581  1.0
  O  O18  1  0.19059834  0.75000000  0.94378581  1.0
  O  O19  1  0.69059834  0.75000000  0.55621419  1.0
  O  O20  1  0.78916095  0.03352075  0.84374883  1.0
  O  O21  1  0.28916095  0.46647925  0.65625117  1.0
  O  O22  1  0.21083905  0.53352075  0.15625117  1.0
  O  O23  1  0.71083905  0.96647925  0.34374883  1.0
  O  O24  1  0.21083905  0.96647925  0.15625117  1.0
  O  O25  1  0.71083905  0.53352075  0.34374883  1.0
  O  O26  1  0.78916095  0.46647925  0.84374883  1.0
  O  O27  1  0.28916095  0.03352075  0.65625117  1.0
