# generated using pymatgen
data_BaMnGaF7
_symmetry_space_group_name_H-M   'P 1'
_cell_length_a   7.53028279
_cell_length_b   7.53028279
_cell_length_c   14.85385706
_cell_angle_alpha   89.24990764
_cell_angle_beta   90.75009236
_cell_angle_gamma   138.30814774
_symmetry_Int_Tables_number   1
_chemical_formula_structural   BaMnGaF7
_chemical_formula_sum   'Ba4 Mn4 Ga4 F28'
_cell_volume   560.17268618
_cell_formula_units_Z   4
loop_
 _symmetry_equiv_pos_site_id
 _symmetry_equiv_pos_as_xyz
  1  'x, y, z'
loop_
 _atom_site_type_symbol
 _atom_site_label
 _atom_site_symmetry_multiplicity
 _atom_site_fract_x
 _atom_site_fract_y
 _atom_site_fract_z
 _atom_site_occupancy
  Ba  Ba0  1  0.63982732  0.26470202  0.62188638  1.0
  Ba  Ba1  1  0.73529798  0.36017268  0.12188638  1.0
  Ba  Ba2  1  1.26470202  0.63982732  0.87811362  1.0
  Ba  Ba3  1  0.36017268  -0.26470202  0.37811362  1.0
  Mn  Mn4  1  0.96117747  0.96117747  0.75000000  1.0
  Mn  Mn5  1  0.03882253  0.03882253  0.25000000  1.0
  Mn  Mn6  1  0.00000000  0.00000000  0.00000000  1.0
  Mn  Mn7  1  0.00000000  -0.00000000  0.50000000  1.0
  Ga  Ga8  1  0.38401037  -0.37635981  0.62600201  1.0
  Ga  Ga9  1  1.37635981  0.61598963  0.12600201  1.0
  Ga  Ga10  1  0.62364019  0.38401037  0.87399799  1.0
  Ga  Ga11  1  0.61598963  0.37635981  0.37399799  1.0
  F  F12  1  0.61243936  -0.37955806  0.84090897  1.0
  F  F13  1  1.37955806  0.38756064  0.34090897  1.0
  F  F14  1  0.62044194  0.61243936  0.65909103  1.0
  F  F15  1  0.38756064  0.37955806  0.15909103  1.0
  F  F16  1  0.86171429  -0.02683928  0.37229888  1.0
  F  F17  1  1.02683928  0.13828571  0.87229888  1.0
  F  F18  1  0.97316072  0.86171429  0.12770112  1.0
  F  F19  1  0.13828571  0.02683928  0.62770112  1.0
  F  F20  1  0.66760795  -0.07138553  0.54593155  1.0
  F  F21  1  1.07138553  0.33239205  0.04593155  1.0
  F  F22  1  0.92861447  0.66760795  0.95406845  1.0
  F  F23  1  0.33239205  0.07138553  0.45406845  1.0
  F  F24  1  0.54273077  -0.12049776  0.72203593  1.0
  F  F25  1  1.12049776  0.45726923  0.22203593  1.0
  F  F26  1  0.87950224  0.54273077  0.77796407  1.0
  F  F27  1  0.45726923  0.12049776  0.27796407  1.0
  F  F28  1  0.68029135  0.18532058  0.90962713  1.0
  F  F29  1  0.81467942  0.31970865  0.40962713  1.0
  F  F30  1  1.18532058  0.68029135  0.59037287  1.0
  F  F31  1  0.31970865  -0.18532058  0.09037287  1.0
  F  F32  1  0.33947987  0.10511749  0.79515101  1.0
  F  F33  1  0.89488251  0.66052013  0.29515101  1.0
  F  F34  1  1.10511749  0.33947987  0.70484899  1.0
  F  F35  1  0.66052013  -0.10511749  0.20484899  1.0
  F  F36  1  0.40861066  0.24660095  0.98038008  1.0
  F  F37  1  0.75339905  0.59138934  0.48038008  1.0
  F  F38  1  1.24660095  0.40861066  0.51961992  1.0
  F  F39  1  0.59138934  -0.24660095  0.01961992  1.0
