# generated using pymatgen
data_Ta2Al
_symmetry_space_group_name_H-M   'P 1'
_cell_length_a   9.92770116
_cell_length_b   9.92770116
_cell_length_c   5.21144747
_cell_angle_alpha   90.00000000
_cell_angle_beta   90.00000000
_cell_angle_gamma   90.00000000
_symmetry_Int_Tables_number   1
_chemical_formula_structural   Ta2Al
_chemical_formula_sum   'Ta20 Al10'
_cell_volume   513.63635657
_cell_formula_units_Z   10
loop_
 _symmetry_equiv_pos_site_id
 _symmetry_equiv_pos_as_xyz
  1  'x, y, z'
loop_
 _atom_site_type_symbol
 _atom_site_label
 _atom_site_symmetry_multiplicity
 _atom_site_fract_x
 _atom_site_fract_y
 _atom_site_fract_z
 _atom_site_occupancy
  Ta  Ta0  1  0.10212405  0.89787595  0.50000000  1.0
  Ta  Ta1  1  0.89787595  0.10212405  0.50000000  1.0
  Ta  Ta2  1  0.39787595  0.39787595  -0.00000000  1.0
  Ta  Ta3  1  0.60212405  0.60212405  0.00000000  1.0
  Ta  Ta4  1  0.53582283  0.87070091  -0.00000000  1.0
  Ta  Ta5  1  0.46417717  0.12929909  -0.00000000  1.0
  Ta  Ta6  1  -0.03582283  0.37070091  0.50000000  1.0
  Ta  Ta7  1  1.03582283  0.62929909  0.50000000  1.0
  Ta  Ta8  1  0.87070091  0.53582283  -0.00000000  1.0
  Ta  Ta9  1  0.12929909  0.46417717  -0.00000000  1.0
  Ta  Ta10  1  0.37070091  -0.03582283  0.50000000  1.0
  Ta  Ta11  1  0.62929909  1.03582283  0.50000000  1.0
  Ta  Ta12  1  0.31859287  0.68140713  0.24828584  1.0
  Ta  Ta13  1  0.68140713  0.31859287  0.24828584  1.0
  Ta  Ta14  1  0.18140713  0.18140713  0.74828584  1.0
  Ta  Ta15  1  0.81859287  0.81859287  0.74828584  1.0
  Ta  Ta16  1  0.68140713  0.31859287  0.75171416  1.0
  Ta  Ta17  1  0.31859287  0.68140713  0.75171416  1.0
  Ta  Ta18  1  0.81859287  0.81859287  0.25171416  1.0
  Ta  Ta19  1  0.18140713  0.18140713  0.25171416  1.0
  Al  Al20  1  0.50000000  0.50000000  0.50000000  1.0
  Al  Al21  1  0.00000000  0.00000000  0.00000000  1.0
  Al  Al22  1  0.26259976  -0.06647741  -0.00000000  1.0
  Al  Al23  1  0.73740024  1.06647741  -0.00000000  1.0
  Al  Al24  1  0.23740024  0.43352259  0.50000000  1.0
  Al  Al25  1  0.76259976  0.56647741  0.50000000  1.0
  Al  Al26  1  -0.06647741  0.26259976  0.00000000  1.0
  Al  Al27  1  1.06647741  0.73740024  0.00000000  1.0
  Al  Al28  1  0.43352259  0.23740024  0.50000000  1.0
  Al  Al29  1  0.56647741  0.76259976  0.50000000  1.0
