# generated using pymatgen
data_SrTl2
_symmetry_space_group_name_H-M   'P 1'
_cell_length_a   5.22362102
_cell_length_b   5.22362102
_cell_length_c   8.35087608
_cell_angle_alpha   90.00000000
_cell_angle_beta   90.00000000
_cell_angle_gamma   120.00000000
_symmetry_Int_Tables_number   1
_chemical_formula_structural   SrTl2
_chemical_formula_sum   'Sr2 Tl4'
_cell_volume   197.33585063
_cell_formula_units_Z   2
loop_
 _symmetry_equiv_pos_site_id
 _symmetry_equiv_pos_as_xyz
  1  'x, y, z'
loop_
 _atom_site_type_symbol
 _atom_site_label
 _atom_site_symmetry_multiplicity
 _atom_site_fract_x
 _atom_site_fract_y
 _atom_site_fract_z
 _atom_site_occupancy
  Sr  Sr0  1  -0.00000000  -0.00000000  0.25000000  1.0
  Sr  Sr1  1  0.00000000  0.00000000  0.75000000  1.0
  Tl  Tl2  1  0.33333333  0.66666667  0.45191911  1.0
  Tl  Tl3  1  0.33333333  0.66666667  0.04808089  1.0
  Tl  Tl4  1  0.66666667  0.33333333  0.95191911  1.0
  Tl  Tl5  1  0.66666667  0.33333333  0.54808089  1.0
