# generated using pymatgen
data_Zr3Sb4Pt3
_symmetry_space_group_name_H-M   'P 1'
_cell_length_a   8.20845382
_cell_length_b   8.20845382
_cell_length_c   8.20845382
_cell_angle_alpha   109.47122063
_cell_angle_beta   109.47122063
_cell_angle_gamma   109.47122063
_symmetry_Int_Tables_number   1
_chemical_formula_structural   Zr3Sb4Pt3
_chemical_formula_sum   'Zr6 Sb8 Pt6'
_cell_volume   425.75738202
_cell_formula_units_Z   2
loop_
 _symmetry_equiv_pos_site_id
 _symmetry_equiv_pos_as_xyz
  1  'x, y, z'
loop_
 _atom_site_type_symbol
 _atom_site_label
 _atom_site_symmetry_multiplicity
 _atom_site_fract_x
 _atom_site_fract_y
 _atom_site_fract_z
 _atom_site_occupancy
  Zr  Zr0  1  1.62500000  1.37500000  1.25000000  1.0
  Zr  Zr1  1  0.87500000  1.12500000  0.75000000  1.0
  Zr  Zr2  1  0.25000000  0.62500000  0.37500000  1.0
  Zr  Zr3  1  0.75000000  0.87500000  0.12500000  1.0
  Zr  Zr4  1  0.12500000  0.75000000  0.87500000  1.0
  Zr  Zr5  1  1.37500000  1.25000000  1.62500000  1.0
  Sb  Sb6  1  1.18470675  1.18470675  1.18470675  1.0
  Sb  Sb7  1  1.50000000  1.00000000  1.31529325  1.0
  Sb  Sb8  1  0.68470675  0.68470675  0.68470675  1.0
  Sb  Sb9  1  0.50000000  1.00000000  0.81529325  1.0
  Sb  Sb10  1  1.00000000  1.31529325  1.50000000  1.0
  Sb  Sb11  1  1.31529325  0.50000000  1.00000000  1.0
  Sb  Sb12  1  1.00000000  0.81529325  1.50000000  1.0
  Sb  Sb13  1  0.81529325  1.50000000  1.00000000  1.0
  Pt  Pt14  1  1.12500000  0.87500000  1.25000000  1.0
  Pt  Pt15  1  0.37500000  0.62500000  0.75000000  1.0
  Pt  Pt16  1  0.25000000  1.12500000  0.87500000  1.0
  Pt  Pt17  1  0.75000000  1.37500000  0.62500000  1.0
  Pt  Pt18  1  0.62500000  0.75000000  0.37500000  1.0
  Pt  Pt19  1  0.87500000  0.25000000  1.12500000  1.0
