# generated using pymatgen
data_Al2Ge(O2F)2
_symmetry_space_group_name_H-M   'P 1'
_cell_length_a   9.09893134
_cell_length_b   8.65081211
_cell_length_c   4.82455138
_cell_angle_alpha   90.00000000
_cell_angle_beta   90.00000000
_cell_angle_gamma   90.00000000
_symmetry_Int_Tables_number   1
_chemical_formula_structural   Al2Ge(O2F)2
_chemical_formula_sum   'Al8 Ge4 O16 F8'
_cell_volume   379.75561362
_cell_formula_units_Z   4
loop_
 _symmetry_equiv_pos_site_id
 _symmetry_equiv_pos_as_xyz
  1  'x, y, z'
loop_
 _atom_site_type_symbol
 _atom_site_label
 _atom_site_symmetry_multiplicity
 _atom_site_fract_x
 _atom_site_fract_y
 _atom_site_fract_z
 _atom_site_occupancy
  Al  Al0  1  0.86904359  0.41760932  0.40587386  1.0
  Al  Al1  1  0.86904359  0.08239068  0.40587386  1.0
  Al  Al2  1  0.36904359  0.41760932  0.09412614  1.0
  Al  Al3  1  0.36904359  0.08239068  0.09412614  1.0
  Al  Al4  1  0.13095641  0.91760932  0.59412614  1.0
  Al  Al5  1  0.13095641  0.58239068  0.59412614  1.0
  Al  Al6  1  0.63095641  0.91760932  0.90587386  1.0
  Al  Al7  1  0.63095641  0.58239068  0.90587386  1.0
  Ge  Ge8  1  0.56058000  0.25000000  0.60132815  1.0
  Ge  Ge9  1  0.06058000  0.25000000  0.89867185  1.0
  Ge  Ge10  1  0.43942000  0.75000000  0.39867185  1.0
  Ge  Ge11  1  0.93942000  0.75000000  0.10132815  1.0
  O  O12  1  0.99062859  0.91564393  0.29667008  1.0
  O  O13  1  0.99062859  0.58435607  0.29667008  1.0
  O  O14  1  0.49062859  0.91564393  0.20332992  1.0
  O  O15  1  0.49062859  0.58435607  0.20332992  1.0
  O  O16  1  0.00937141  0.41564393  0.70332992  1.0
  O  O17  1  0.00937141  0.08435607  0.70332992  1.0
  O  O18  1  0.50937141  0.41564393  0.79667008  1.0
  O  O19  1  0.50937141  0.08435607  0.79667008  1.0
  O  O20  1  0.96446948  0.25000000  0.21835969  1.0
  O  O21  1  0.46446948  0.25000000  0.28164031  1.0
  O  O22  1  0.03553052  0.75000000  0.78164031  1.0
  O  O23  1  0.53553052  0.75000000  0.71835969  1.0
  O  O24  1  0.75404777  0.25000000  0.54087797  1.0
  O  O25  1  0.25404777  0.25000000  0.95912203  1.0
  O  O26  1  0.24595223  0.75000000  0.45912203  1.0
  O  O27  1  0.74595223  0.75000000  0.04087797  1.0
  F  F28  1  0.74917452  0.44823667  0.10475136  1.0
  F  F29  1  0.74917452  0.05176333  0.10475136  1.0
  F  F30  1  0.24917452  0.44823667  0.39524864  1.0
  F  F31  1  0.24917452  0.05176333  0.39524864  1.0
  F  F32  1  0.25082548  0.94823667  0.89524864  1.0
  F  F33  1  0.25082548  0.55176333  0.89524864  1.0
  F  F34  1  0.75082548  0.94823667  0.60475136  1.0
  F  F35  1  0.75082548  0.55176333  0.60475136  1.0
