# generated using pymatgen
data_CaGePt
_symmetry_space_group_name_H-M   'P 1'
_cell_length_a   7.20838055
_cell_length_b   4.44800971
_cell_length_c   7.48510634
_cell_angle_alpha   90.00000000
_cell_angle_beta   90.00000000
_cell_angle_gamma   90.00000000
_symmetry_Int_Tables_number   1
_chemical_formula_structural   CaGePt
_chemical_formula_sum   'Ca4 Ge4 Pt4'
_cell_volume   239.99456538
_cell_formula_units_Z   4
loop_
 _symmetry_equiv_pos_site_id
 _symmetry_equiv_pos_as_xyz
  1  'x, y, z'
loop_
 _atom_site_type_symbol
 _atom_site_label
 _atom_site_symmetry_multiplicity
 _atom_site_fract_x
 _atom_site_fract_y
 _atom_site_fract_z
 _atom_site_occupancy
  Ca  Ca0  1  0.99308946  0.75000000  0.69600228  1.0
  Ca  Ca1  1  0.49308946  0.75000000  0.80399772  1.0
  Ca  Ca2  1  0.00691054  0.25000000  0.30399772  1.0
  Ca  Ca3  1  0.50691054  0.25000000  0.19600228  1.0
  Ge  Ge4  1  0.82009501  0.75000000  0.08271249  1.0
  Ge  Ge5  1  0.32009501  0.75000000  0.41728751  1.0
  Ge  Ge6  1  0.17990499  0.25000000  0.91728751  1.0
  Ge  Ge7  1  0.67990499  0.25000000  0.58271249  1.0
  Pt  Pt8  1  0.69806975  0.75000000  0.40727450  1.0
  Pt  Pt9  1  0.19806975  0.75000000  0.09272550  1.0
  Pt  Pt10  1  0.30193025  0.25000000  0.59272550  1.0
  Pt  Pt11  1  0.80193025  0.25000000  0.90727450  1.0
