# generated using pymatgen
data_Zn3Ru
_symmetry_space_group_name_H-M   'P 1'
_cell_length_a   8.22403293
_cell_length_b   8.22403293
_cell_length_c   8.22403293
_cell_angle_alpha   153.39192794
_cell_angle_beta   153.39192794
_cell_angle_gamma   37.98403317
_symmetry_Int_Tables_number   1
_chemical_formula_structural   Zn3Ru
_chemical_formula_sum   'Zn6 Ru2'
_cell_volume   111.40576981
_cell_formula_units_Z   2
loop_
 _symmetry_equiv_pos_site_id
 _symmetry_equiv_pos_as_xyz
  1  'x, y, z'
loop_
 _atom_site_type_symbol
 _atom_site_label
 _atom_site_symmetry_multiplicity
 _atom_site_fract_x
 _atom_site_fract_y
 _atom_site_fract_z
 _atom_site_occupancy
  Zn  Zn0  1  0.62903598  0.62903598  1.00000000  1.0
  Zn  Zn1  1  0.37096402  0.37096402  -0.00000000  1.0
  Zn  Zn2  1  0.25000000  0.75000000  0.50000000  1.0
  Zn  Zn3  1  0.75000000  0.25000000  0.50000000  1.0
  Zn  Zn4  1  0.50000000  0.00000000  0.50000000  1.0
  Zn  Zn5  1  0.00000000  0.50000000  0.50000000  1.0
  Ru  Ru6  1  0.88299458  0.88299458  1.00000000  1.0
  Ru  Ru7  1  0.11700542  0.11700542  -0.00000000  1.0
