# generated using pymatgen
data_NaP(HO)6
_symmetry_space_group_name_H-M   'P 1'
_cell_length_a   6.79690712
_cell_length_b   7.34659734
_cell_length_c   11.25369877
_cell_angle_alpha   90.00000000
_cell_angle_beta   90.00000000
_cell_angle_gamma   90.00000000
_symmetry_Int_Tables_number   1
_chemical_formula_structural   NaP(HO)6
_chemical_formula_sum   'Na4 P4 H24 O24'
_cell_volume   561.94376731
_cell_formula_units_Z   4
loop_
 _symmetry_equiv_pos_site_id
 _symmetry_equiv_pos_as_xyz
  1  'x, y, z'
loop_
 _atom_site_type_symbol
 _atom_site_label
 _atom_site_symmetry_multiplicity
 _atom_site_fract_x
 _atom_site_fract_y
 _atom_site_fract_z
 _atom_site_occupancy
  Na  Na0  1  0.21664239  0.88783247  0.92312574  1.0
  Na  Na1  1  0.71664239  0.61216753  0.07687426  1.0
  Na  Na2  1  0.78335761  0.38783247  0.57687426  1.0
  Na  Na3  1  0.28335761  0.11216753  0.42312574  1.0
  P  P4  1  0.45874064  0.77902648  0.65124070  1.0
  P  P5  1  0.95874064  0.72097352  0.34875930  1.0
  P  P6  1  0.54125936  0.27902648  0.84875930  1.0
  P  P7  1  0.04125936  0.22097352  0.15124070  1.0
  H  H8  1  0.41392796  0.47278238  0.49981123  1.0
  H  H9  1  0.91392796  0.02721762  0.50018877  1.0
  H  H10  1  0.58607204  -0.02721762  0.00018877  1.0
  H  H11  1  0.08607204  0.52721762  -0.00018877  1.0
  H  H12  1  0.14765011  0.53442590  0.67430141  1.0
  H  H13  1  0.64765011  -0.03442590  0.32569859  1.0
  H  H14  1  0.85234989  0.03442590  0.82569859  1.0
  H  H15  1  0.35234989  0.46557410  0.17430141  1.0
  H  H16  1  0.01427271  0.91170063  0.15528410  1.0
  H  H17  1  0.51427271  0.58829937  0.84471590  1.0
  H  H18  1  0.98572729  0.41170063  0.34471590  1.0
  H  H19  1  0.48572729  0.08829937  0.65528410  1.0
  H  H20  1  0.01463161  0.56908602  0.87084089  1.0
  H  H21  1  0.51463161  0.93091398  0.12915911  1.0
  H  H22  1  0.98536839  0.06908602  0.62915911  1.0
  H  H23  1  0.48536839  0.43091398  0.37084089  1.0
  H  H24  1  0.86984792  0.85961809  0.74843034  1.0
  H  H25  1  0.36984792  0.64038191  0.25156966  1.0
  H  H26  1  0.13015208  0.35961809  0.75156966  1.0
  H  H27  1  0.63015208  0.14038191  0.24843034  1.0
  H  H28  1  0.72694732  0.76838104  0.53564066  1.0
  H  H29  1  0.22694732  0.73161896  0.46435934  1.0
  H  H30  1  0.27305268  0.26838104  0.96435934  1.0
  H  H31  1  0.77305268  0.23161896  0.03564066  1.0
  O  O32  1  0.44112365  0.76077564  0.78532351  1.0
  O  O33  1  0.94112365  0.73922436  0.21467649  1.0
  O  O34  1  0.55887635  0.26077564  0.71467649  1.0
  O  O35  1  0.05887635  0.23922436  0.28532351  1.0
  O  O36  1  0.42829767  0.98168179  0.60557200  1.0
  O  O37  1  0.92829767  0.51831821  0.39442800  1.0
  O  O38  1  0.57170233  0.48168179  0.89442800  1.0
  O  O39  1  0.07170233  0.01831821  0.10557200  1.0
  O  O40  1  0.31201176  0.66151301  0.58028203  1.0
  O  O41  1  0.81201176  0.83848699  0.41971797  1.0
  O  O42  1  0.68798824  0.16151301  0.91971797  1.0
  O  O43  1  0.18798824  0.33848699  0.08028203  1.0
  O  O44  1  0.01980461  0.62159573  0.95167537  1.0
  O  O45  1  0.51980461  0.87840427  0.04832463  1.0
  O  O46  1  0.98019539  0.12159573  0.54832463  1.0
  O  O47  1  0.48019539  0.37840427  0.45167537  1.0
  O  O48  1  0.94756091  0.96173168  0.77848265  1.0
  O  O49  1  0.44756091  0.53826832  0.22151735  1.0
  O  O50  1  0.05243909  0.46173168  0.72151735  1.0
  O  O51  1  0.55243909  0.03826832  0.27848265  1.0
  O  O52  1  0.68042922  0.72220367  0.61788554  1.0
  O  O53  1  0.18042922  0.77779633  0.38211446  1.0
  O  O54  1  0.31957078  0.22220367  0.88211446  1.0
  O  O55  1  0.81957078  0.27779633  0.11788554  1.0
