# generated using pymatgen
data_Al4Cu2O7
_symmetry_space_group_name_H-M   'P 1'
_cell_length_a   6.00428298
_cell_length_b   6.00428298
_cell_length_c   6.00428298
_cell_angle_alpha   60.00000000
_cell_angle_beta   60.00000000
_cell_angle_gamma   60.00000000
_symmetry_Int_Tables_number   1
_chemical_formula_structural   Al4Cu2O7
_chemical_formula_sum   'Al4 Cu2 O7'
_cell_volume   153.06237883
_cell_formula_units_Z   1
loop_
 _symmetry_equiv_pos_site_id
 _symmetry_equiv_pos_as_xyz
  1  'x, y, z'
loop_
 _atom_site_type_symbol
 _atom_site_label
 _atom_site_symmetry_multiplicity
 _atom_site_fract_x
 _atom_site_fract_y
 _atom_site_fract_z
 _atom_site_occupancy
  Cu  Cu0  1  0.25000000  0.25000000  0.25000000  1.0
  Cu  Cu1  1  0.00000000  0.00000000  0.00000000  1.0
  O  O2  1  -0.74073859  0.74073859  0.74073859  1.0
  O  O3  1  -0.25926141  0.74073859  0.25926141  1.0
  O  O4  1  -0.25926141  0.25926141  0.74073859  1.0
  O  O5  1  0.25926141  1.25926141  -0.25926141  1.0
  O  O6  1  0.25926141  -0.25926141  0.25926141  1.0
  O  O7  1  -0.25926141  0.25926141  0.25926141  1.0
  O  O8  1  0.75000000  0.75000000  -0.25000000  1.0
  Al  Al9  1  -0.38032733  0.61967267  0.61967267  1.0
  Al  Al10  1  1.14098199  0.61967267  -0.38032733  1.0
  Al  Al11  1  -0.38032733  0.61967267  1.14098199  1.0
  Al  Al12  1  0.61967267  1.14098199  -0.38032733  1.0
