# generated using pymatgen
data_KTeIO9
_symmetry_space_group_name_H-M   'P 1'
_cell_length_a   9.37446251
_cell_length_b   12.46923379
_cell_length_c   6.80465781
_cell_angle_alpha   90.00000000
_cell_angle_beta   90.00000000
_cell_angle_gamma   90.00000000
_symmetry_Int_Tables_number   1
_chemical_formula_structural   KTeIO9
_chemical_formula_sum   'K4 Te4 I4 O36'
_cell_volume   795.41254178
_cell_formula_units_Z   4
loop_
 _symmetry_equiv_pos_site_id
 _symmetry_equiv_pos_as_xyz
  1  'x, y, z'
loop_
 _atom_site_type_symbol
 _atom_site_label
 _atom_site_symmetry_multiplicity
 _atom_site_fract_x
 _atom_site_fract_y
 _atom_site_fract_z
 _atom_site_occupancy
  K  K0  1  0.34199704  0.95156619  0.52995525  1.0
  K  K1  1  0.84199704  0.54843381  0.52995525  1.0
  K  K2  1  0.65800296  0.04843381  0.02995525  1.0
  K  K3  1  0.15800296  0.45156619  0.02995525  1.0
  Te  Te4  1  0.32257680  0.57857428  0.48098599  1.0
  Te  Te5  1  0.82257680  0.92142572  0.48098599  1.0
  Te  Te6  1  0.67742320  0.42142572  -0.01901401  1.0
  Te  Te7  1  0.17742320  0.07857428  -0.01901401  1.0
  I  I8  1  0.36890400  0.76048841  0.04693618  1.0
  I  I9  1  0.86890400  0.73951159  0.04693618  1.0
  I  I10  1  0.63109600  0.23951159  0.54693618  1.0
  I  I11  1  0.13109600  0.26048841  0.54693618  1.0
  O  O12  1  0.17464918  0.81106629  0.06145995  1.0
  O  O13  1  0.67464918  0.68893371  0.06145995  1.0
  O  O14  1  0.82535082  0.18893371  0.56145995  1.0
  O  O15  1  0.32535082  0.31106629  0.56145995  1.0
  O  O16  1  0.45139190  0.80322169  0.29092370  1.0
  O  O17  1  0.95139190  0.69677831  0.29092370  1.0
  O  O18  1  0.54860810  0.19677831  0.79092370  1.0
  O  O19  1  0.04860810  0.30322169  0.79092370  1.0
  O  O20  1  0.43680004  0.88782660  0.91498935  1.0
  O  O21  1  0.93680004  0.61217340  0.91498935  1.0
  O  O22  1  0.56319996  0.11217340  0.41498935  1.0
  O  O23  1  0.06319996  0.38782660  0.41498935  1.0
  O  O24  1  0.12023566  0.94175455  0.85650952  1.0
  O  O25  1  0.62023566  0.55824545  0.85650952  1.0
  O  O26  1  0.87976434  0.05824545  0.35650952  1.0
  O  O27  1  0.37976434  0.44175455  0.35650952  1.0
  O  O28  1  0.37374606  0.54052241  0.76430661  1.0
  O  O29  1  0.87374606  0.95947759  0.76430661  1.0
  O  O30  1  0.62625394  0.45947759  0.26430661  1.0
  O  O31  1  0.12625394  0.04052241  0.26430661  1.0
  O  O32  1  0.13489934  0.53118954  0.57684612  1.0
  O  O33  1  0.63489934  0.96881046  0.57684612  1.0
  O  O34  1  0.86510066  0.46881046  0.07684612  1.0
  O  O35  1  0.36510066  0.03118954  0.07684612  1.0
  O  O36  1  0.23595359  0.12920351  0.71952487  1.0
  O  O37  1  0.73595359  0.37079649  0.71952487  1.0
  O  O38  1  0.76404641  0.87079649  0.21952487  1.0
  O  O39  1  0.26404641  0.62920351  0.21952487  1.0
  O  O40  1  0.30497599  0.70995266  0.65522859  1.0
  O  O41  1  0.80497599  0.79004734  0.65522859  1.0
  O  O42  1  0.69502401  0.29004734  0.15522859  1.0
  O  O43  1  0.19502401  0.20995266  0.15522859  1.0
  O  O44  1  0.50599780  0.66551872  0.47323387  1.0
  O  O45  1  1.00599780  0.83448128  0.47323387  1.0
  O  O46  1  0.49400220  0.33448128  -0.02676613  1.0
  O  O47  1  -0.00599780  0.16551872  -0.02676613  1.0
