# generated using pymatgen
data_CaCr2O2
_symmetry_space_group_name_H-M   'P 1'
_cell_length_a   7.22011988
_cell_length_b   7.22011988
_cell_length_c   7.22011988
_cell_angle_alpha   112.75525742
_cell_angle_beta   112.75525742
_cell_angle_gamma   103.08573679
_symmetry_Int_Tables_number   1
_chemical_formula_structural   CaCr2O2
_chemical_formula_sum   'Ca4 Cr8 O8'
_cell_volume   287.08417211
_cell_formula_units_Z   4
loop_
 _symmetry_equiv_pos_site_id
 _symmetry_equiv_pos_as_xyz
  1  'x, y, z'
loop_
 _atom_site_type_symbol
 _atom_site_label
 _atom_site_symmetry_multiplicity
 _atom_site_fract_x
 _atom_site_fract_y
 _atom_site_fract_z
 _atom_site_occupancy
  Ca  Ca0  1  1.37500000  1.12500000  1.25000000  1.0
  Ca  Ca1  1  0.87500000  1.12500000  0.75000000  1.0
  Ca  Ca2  1  0.87500000  1.12500000  0.25000000  1.0
  Ca  Ca3  1  0.87500000  1.62500000  0.75000000  1.0
  Cr  Cr4  1  1.23287448  1.54827427  0.68460022  1.0
  Cr  Cr5  1  0.88632595  0.70172573  0.18460022  1.0
  Cr  Cr6  1  0.86367405  0.54827427  0.31539978  1.0
  Cr  Cr7  1  1.51712552  0.70172573  0.81539978  1.0
  Cr  Cr8  1  0.45172573  0.13632595  0.68460022  1.0
  Cr  Cr9  1  1.29827427  1.48287448  1.18460022  1.0
  Cr  Cr10  1  0.45172573  0.76712552  0.31539978  1.0
  Cr  Cr11  1  1.29827427  1.11367405  0.81539978  1.0
  O  O12  1  1.19296256  1.36289960  0.83006297  1.0
  O  O13  1  1.21716337  0.88710040  1.33006297  1.0
  O  O14  1  0.53283663  0.36289960  0.16993703  1.0
  O  O15  1  0.55703744  0.88710040  0.66993703  1.0
  O  O16  1  0.63710040  0.46716337  0.83006297  1.0
  O  O17  1  1.11289960  1.44296256  0.33006297  1.0
  O  O18  1  0.63710040  0.80703744  0.16993703  1.0
  O  O19  1  1.11289960  1.78283663  0.66993703  1.0
