# generated using pymatgen
data_CsAu(SO4)2
_symmetry_space_group_name_H-M   'P 1'
_cell_length_a   10.54672899
_cell_length_b   9.55604389
_cell_length_c   9.23579415
_cell_angle_alpha   90.00000000
_cell_angle_beta   111.84905520
_cell_angle_gamma   90.00000000
_symmetry_Int_Tables_number   1
_chemical_formula_structural   CsAu(SO4)2
_chemical_formula_sum   'Cs4 Au4 S8 O32'
_cell_volume   863.96577489
_cell_formula_units_Z   4
loop_
 _symmetry_equiv_pos_site_id
 _symmetry_equiv_pos_as_xyz
  1  'x, y, z'
loop_
 _atom_site_type_symbol
 _atom_site_label
 _atom_site_symmetry_multiplicity
 _atom_site_fract_x
 _atom_site_fract_y
 _atom_site_fract_z
 _atom_site_occupancy
  Cs  Cs0  1  0.73990788  0.36873386  0.88823006  1.0
  Cs  Cs1  1  0.73990788  0.13126614  0.38823006  1.0
  Cs  Cs2  1  0.26009212  0.86873386  0.61176994  1.0
  Cs  Cs3  1  0.26009212  0.63126614  0.11176994  1.0
  Au  Au4  1  0.79034158  0.85597727  0.87082691  1.0
  Au  Au5  1  0.79034158  0.64402273  0.37082691  1.0
  Au  Au6  1  0.20965842  0.35597727  0.62917309  1.0
  Au  Au7  1  0.20965842  0.14402273  0.12917309  1.0
  S  S8  1  0.97443812  0.52172878  0.69675363  1.0
  S  S9  1  0.97443812  0.97827122  0.19675363  1.0
  S  S10  1  0.02556188  0.02172878  0.80324637  1.0
  S  S11  1  0.02556188  0.47827122  0.30324637  1.0
  S  S12  1  0.60091383  0.73765130  0.54509812  1.0
  S  S13  1  0.60091383  0.76234870  0.04509812  1.0
  S  S14  1  0.39908617  0.23765130  0.95490188  1.0
  S  S15  1  0.39908617  0.26234870  0.45490188  1.0
  O  O16  1  0.96685252  0.58660164  0.83605236  1.0
  O  O17  1  0.96685252  0.91339836  0.33605236  1.0
  O  O18  1  0.03314748  0.08660164  0.66394764  1.0
  O  O19  1  0.03314748  0.41339836  0.16394764  1.0
  O  O20  1  0.95567329  0.63743602  0.57048040  1.0
  O  O21  1  0.95567329  0.86256398  0.07048040  1.0
  O  O22  1  0.04432671  0.13743602  0.92951960  1.0
  O  O23  1  0.04432671  0.36256398  0.42951960  1.0
  O  O24  1  0.88606853  0.40270954  0.63227682  1.0
  O  O25  1  0.88606853  0.09729046  0.13227682  1.0
  O  O26  1  0.11393147  0.90270954  0.86772318  1.0
  O  O27  1  0.11393147  0.59729046  0.36772318  1.0
  O  O28  1  0.86993572  0.98597981  0.75373296  1.0
  O  O29  1  0.86993572  0.51402019  0.25373296  1.0
  O  O30  1  0.13006428  0.48597981  0.74626704  1.0
  O  O31  1  0.13006428  0.01402019  0.24626704  1.0
  O  O32  1  0.70397614  0.71362945  0.96872531  1.0
  O  O33  1  0.70397614  0.78637055  0.46872531  1.0
  O  O34  1  0.29602386  0.21362945  0.53127469  1.0
  O  O35  1  0.29602386  0.28637055  0.03127469  1.0
  O  O36  1  0.63705983  0.59978922  0.61304736  1.0
  O  O37  1  0.63705983  0.90021078  0.11304736  1.0
  O  O38  1  0.36294017  0.09978922  0.88695264  1.0
  O  O39  1  0.36294017  0.40021078  0.38695264  1.0
  O  O40  1  0.62202942  0.85348919  0.67224049  1.0
  O  O41  1  0.62202942  0.64651081  0.17224049  1.0
  O  O42  1  0.37797058  0.35348919  0.82775951  1.0
  O  O43  1  0.37797058  0.14651081  0.32775951  1.0
  O  O44  1  0.46134338  0.73942132  0.93644045  1.0
  O  O45  1  0.46134338  0.76057868  0.43644045  1.0
  O  O46  1  0.53865662  0.23942132  0.56355955  1.0
  O  O47  1  0.53865662  0.26057868  0.06355955  1.0
