# generated using pymatgen
data_Sb2MoS
_symmetry_space_group_name_H-M   'P 1'
_cell_length_a   18.82849871
_cell_length_b   18.82849871
_cell_length_c   6.60828392
_cell_angle_alpha   85.28142821
_cell_angle_beta   94.71857179
_cell_angle_gamma   160.26806633
_symmetry_Int_Tables_number   1
_chemical_formula_structural   Sb2MoS
_chemical_formula_sum   'Sb16 Mo8 S8'
_cell_volume   788.18648467
_cell_formula_units_Z   8
loop_
 _symmetry_equiv_pos_site_id
 _symmetry_equiv_pos_as_xyz
  1  'x, y, z'
loop_
 _atom_site_type_symbol
 _atom_site_label
 _atom_site_symmetry_multiplicity
 _atom_site_fract_x
 _atom_site_fract_y
 _atom_site_fract_z
 _atom_site_occupancy
  Sb  Sb0  1  1.51085781  0.03171802  0.70530386  1.0
  Sb  Sb1  1  0.96828198  -0.51085781  0.70530386  1.0
  Sb  Sb2  1  1.03171802  -0.48914219  0.29469614  1.0
  Sb  Sb3  1  1.48914219  -0.03171802  0.29469614  1.0
  Sb  Sb4  1  1.41293389  0.08680321  0.57516657  1.0
  Sb  Sb5  1  0.91319679  -0.41293389  0.57516657  1.0
  Sb  Sb6  1  1.08680321  -0.58706611  0.42483343  1.0
  Sb  Sb7  1  1.58706611  -0.08680321  0.42483343  1.0
  Sb  Sb8  1  0.98980600  -0.98980600  0.70479518  1.0
  Sb  Sb9  1  1.01019400  -0.01019400  0.29520482  1.0
  Sb  Sb10  1  0.91377642  -0.91377642  0.57727057  1.0
  Sb  Sb11  1  1.08622358  -0.08622358  0.42272943  1.0
  Sb  Sb12  1  0.58631480  -0.58631480  0.42287438  1.0
  Sb  Sb13  1  1.41368520  -0.41368520  0.57712562  1.0
  Sb  Sb14  1  1.48970196  -0.48970196  0.70463765  1.0
  Sb  Sb15  1  0.51029804  -0.51029804  0.29536235  1.0
  Mo  Mo16  1  1.62228417  -0.12175759  0.83087267  1.0
  Mo  Mo17  1  1.12175759  -0.62228417  0.83087267  1.0
  Mo  Mo18  1  0.87824241  -0.37771583  0.16912733  1.0
  Mo  Mo19  1  1.37771583  0.12175759  0.16912733  1.0
  Mo  Mo20  1  0.87794452  -0.87794452  0.17057786  1.0
  Mo  Mo21  1  1.12205548  -0.12205548  0.82942214  1.0
  Mo  Mo22  1  0.62204723  -0.62204723  0.82890257  1.0
  Mo  Mo23  1  1.37795277  -0.37795277  0.17109743  1.0
  S  S24  1  1.32860567  0.17143933  0.91236260  1.0
  S  S25  1  0.82856067  -0.32860567  0.91236260  1.0
  S  S26  1  1.17143933  -0.67139433  0.08763740  1.0
  S  S27  1  1.67139433  -0.17143933  0.08763740  1.0
  S  S28  1  0.82855774  -0.82855774  0.91398962  1.0
  S  S29  1  1.17144226  -0.17144226  0.08601038  1.0
  S  S30  1  1.32861993  -0.32861993  0.91390691  1.0
  S  S31  1  0.67138007  -0.67138007  0.08609309  1.0
