# generated using pymatgen
data_Li7BiO6
_symmetry_space_group_name_H-M   'P 1'
_cell_length_a   6.05782029
_cell_length_b   6.05782029
_cell_length_c   6.05782029
_cell_angle_alpha   55.83277631
_cell_angle_beta   55.83277631
_cell_angle_gamma   55.83277631
_symmetry_Int_Tables_number   1
_chemical_formula_structural   Li7BiO6
_chemical_formula_sum   'Li7 Bi1 O6'
_cell_volume   142.00615697
_cell_formula_units_Z   1
loop_
 _symmetry_equiv_pos_site_id
 _symmetry_equiv_pos_as_xyz
  1  'x, y, z'
loop_
 _atom_site_type_symbol
 _atom_site_label
 _atom_site_symmetry_multiplicity
 _atom_site_fract_x
 _atom_site_fract_y
 _atom_site_fract_z
 _atom_site_occupancy
  Li  Li0  1  0.49878076  0.73083034  -0.87822994  1.0
  Li  Li1  1  0.12177006  0.49878076  -0.26916966  1.0
  Li  Li2  1  0.73083034  0.12177006  -0.50121924  1.0
  Li  Li3  1  0.93322622  -0.50844731  0.22728794  1.0
  Li  Li4  1  1.22728794  -0.06677378  -0.50844731  1.0
  Li  Li5  1  0.49155269  0.22728794  -0.06677378  1.0
  Li  Li6  1  0.64968610  -0.35031390  -0.35031390  1.0
  Bi  Bi7  1  0.00239245  0.00239245  0.00239245  1.0
  O  O8  1  0.63317880  -0.12329931  0.24187665  1.0
  O  O9  1  1.24187665  -0.36682120  -0.12329931  1.0
  O  O10  1  0.87670069  0.24187665  -0.36682120  1.0
  O  O11  1  0.79790790  -0.61119844  0.07800783  1.0
  O  O12  1  1.07800783  -0.20209210  -0.61119844  1.0
  O  O13  1  0.38880156  0.07800783  -0.20209210  1.0
