# generated using pymatgen
data_Mn2SnS4
_symmetry_space_group_name_H-M   'P 1'
_cell_length_a   7.33837582
_cell_length_b   7.33837582
_cell_length_c   7.33837582
_cell_angle_alpha   119.99543541
_cell_angle_beta   119.85389238
_cell_angle_gamma   90.13057918
_symmetry_Int_Tables_number   1
_chemical_formula_structural   Mn2SnS4
_chemical_formula_sum   'Mn4 Sn2 S8'
_cell_volume   279.75448258
_cell_formula_units_Z   2
loop_
 _symmetry_equiv_pos_site_id
 _symmetry_equiv_pos_as_xyz
  1  'x, y, z'
loop_
 _atom_site_type_symbol
 _atom_site_label
 _atom_site_symmetry_multiplicity
 _atom_site_fract_x
 _atom_site_fract_y
 _atom_site_fract_z
 _atom_site_occupancy
  Mn  Mn0  1  1.00000000  0.50000000  1.00000000  1.0
  Mn  Mn1  1  1.00000000  1.00000000  1.50000000  1.0
  Mn  Mn2  1  1.50000000  1.50000000  1.50000000  1.0
  Mn  Mn3  1  1.50000000  1.00000000  1.00000000  1.0
  Sn  Sn4  1  0.00000000  0.00000000  0.00000000  1.0
  Sn  Sn5  1  0.00000000  0.50000000  0.50000000  1.0
  S  S6  1  1.24880237  1.24880237  1.00000000  1.0
  S  S7  1  0.75119763  0.75119763  1.00000000  1.0
  S  S8  1  0.75122217  0.25122217  0.50000000  1.0
  S  S9  1  1.24877783  0.74877783  0.50000000  1.0
  S  S10  1  0.24940161  0.25002734  0.49942895  1.0
  S  S11  1  0.24940161  0.74997266  0.99937427  1.0
  S  S12  1  0.75059839  0.74997266  1.50057105  1.0
  S  S13  1  0.75059839  0.25002734  1.00062573  1.0
