# generated using pymatgen
data_Li3CuB3O7
_symmetry_space_group_name_H-M   'P 1'
_cell_length_a   3.39701143
_cell_length_b   9.50689640
_cell_length_c   8.92147241
_cell_angle_alpha   83.84963475
_cell_angle_beta   88.42142196
_cell_angle_gamma   89.30422800
_symmetry_Int_Tables_number   1
_chemical_formula_structural   Li3CuB3O7
_chemical_formula_sum   'Li6 Cu2 B6 O14'
_cell_volume   286.33993610
_cell_formula_units_Z   2
loop_
 _symmetry_equiv_pos_site_id
 _symmetry_equiv_pos_as_xyz
  1  'x, y, z'
loop_
 _atom_site_type_symbol
 _atom_site_label
 _atom_site_symmetry_multiplicity
 _atom_site_fract_x
 _atom_site_fract_y
 _atom_site_fract_z
 _atom_site_occupancy
  O  O0  1  -0.87112394  -0.55470090  -0.80964045  1.0
  O  O1  1  -0.12887606  -0.44529910  -0.19035955  1.0
  O  O2  1  -0.90719168  -0.78596854  -0.65157107  1.0
  O  O3  1  -0.09280832  -0.21403146  -0.34842893  1.0
  O  O4  1  -0.76061992  -0.85116312  -0.39217225  1.0
  O  O5  1  -0.23938008  -0.14883688  -0.60782775  1.0
  O  O6  1  -0.50649450  -0.29215715  -0.79870284  1.0
  O  O7  1  -0.49350550  -0.70784285  -0.20129716  1.0
  O  O8  1  -0.50515602  -0.95975602  -0.16678113  1.0
  O  O9  1  -0.49484398  -0.04024398  -0.83321887  1.0
  O  O10  1  -0.00085016  -0.77302179  -0.91138076  1.0
  O  O11  1  -0.99914984  -0.22697821  -0.08861924  1.0
  O  O12  1  -0.64779466  -0.61730969  -0.50445062  1.0
  O  O13  1  -0.35220534  -0.38269031  -0.49554938  1.0
  Cu  Cu14  1  -0.58892294  -0.46327429  -0.66154283  1.0
  Cu  Cu15  1  -0.41107706  -0.53672571  -0.33845717  1.0
  Li  Li16  1  -0.99425528  -0.36212806  -0.90699112  1.0
  Li  Li17  1  -0.00574472  -0.63787194  -0.09300888  1.0
  Li  Li18  1  -0.47903615  -0.86547997  -0.97387969  1.0
  Li  Li19  1  -0.52096385  -0.13452003  -0.02612031  1.0
  Li  Li20  1  0.00143271  -0.95858786  -0.75143820  1.0
  Li  Li21  1  -1.00143271  -0.04141214  -0.24856180  1.0
  B  B22  1  -0.92631500  -0.69760459  -0.79455552  1.0
  B  B23  1  -0.07368500  -0.30239541  -0.20544448  1.0
  B  B24  1  -0.77239241  -0.74960928  -0.51582936  1.0
  B  B25  1  -0.22760759  -0.25039072  -0.48417064  1.0
  B  B26  1  -0.57305066  -0.83614854  -0.25264227  1.0
  B  B27  1  -0.42694934  -0.16385146  -0.74735773  1.0
