# generated using pymatgen
data_BaNaY(BO3)2
_symmetry_space_group_name_H-M   'P 1'
_cell_length_a   12.59474820
_cell_length_b   12.59474820
_cell_length_c   12.59474820
_cell_angle_alpha   24.66886239
_cell_angle_beta   24.66886239
_cell_angle_gamma   24.66886239
_symmetry_Int_Tables_number   1
_chemical_formula_structural   BaNaY(BO3)2
_chemical_formula_sum   'Ba2 Na2 Y2 B4 O12'
_cell_volume   306.05660443
_cell_formula_units_Z   2
loop_
 _symmetry_equiv_pos_site_id
 _symmetry_equiv_pos_as_xyz
  1  'x, y, z'
loop_
 _atom_site_type_symbol
 _atom_site_label
 _atom_site_symmetry_multiplicity
 _atom_site_fract_x
 _atom_site_fract_y
 _atom_site_fract_z
 _atom_site_occupancy
  Ba  Ba0  1  0.10157565  0.10157565  0.10157565  1.0
  Ba  Ba1  1  0.89842435  -0.10157565  -0.10157565  1.0
  Na  Na2  1  0.38018638  0.38018638  -0.61981362  1.0
  Na  Na3  1  0.61981362  0.61981362  -0.38018638  1.0
  Y  Y4  1  0.50000000  0.50000000  -0.50000000  1.0
  Y  Y5  1  0.00000000  0.00000000  0.00000000  1.0
  B  B6  1  0.20530081  0.20530081  0.20530081  1.0
  B  B7  1  0.79469919  -0.20530081  -0.20530081  1.0
  B  B8  1  0.29429035  0.29429035  0.29429035  1.0
  B  B9  1  0.70570965  -0.29429035  -0.29429035  1.0
  O  O10  1  0.35181016  0.90927869  -0.64417198  1.0
  O  O11  1  0.64417198  -0.35181016  0.09072131  1.0
  O  O12  1  1.09072131  -0.35582802  -0.35181016  1.0
  O  O13  1  0.64818984  0.09072131  -0.35582802  1.0
  O  O14  1  0.35582802  0.35181016  -0.09072131  1.0
  O  O15  1  0.90927869  0.35582802  -0.64818984  1.0
  O  O16  1  0.41376109  -0.09119125  -0.20632065  1.0
  O  O17  1  1.20632065  -0.41376109  0.09119125  1.0
  O  O18  1  1.09119125  0.20632065  -0.41376109  1.0
  O  O19  1  0.58623891  0.09119125  0.20632065  1.0
  O  O20  1  0.79367935  -0.58623891  -0.09119125  1.0
  O  O21  1  0.90880875  -0.20632065  -0.58623891  1.0
