# generated using pymatgen
data_Hf4Co
_symmetry_space_group_name_H-M   'P 1'
_cell_length_a   6.80219236
_cell_length_b   6.80219236
_cell_length_c   6.80219236
_cell_angle_alpha   60.00000000
_cell_angle_beta   60.00000000
_cell_angle_gamma   60.00000000
_symmetry_Int_Tables_number   1
_chemical_formula_structural   Hf4Co
_chemical_formula_sum   'Hf8 Co2'
_cell_volume   222.55211676
_cell_formula_units_Z   2
loop_
 _symmetry_equiv_pos_site_id
 _symmetry_equiv_pos_as_xyz
  1  'x, y, z'
loop_
 _atom_site_type_symbol
 _atom_site_label
 _atom_site_symmetry_multiplicity
 _atom_site_fract_x
 _atom_site_fract_y
 _atom_site_fract_z
 _atom_site_occupancy
  Hf  Hf0  1  -0.11067907  0.88932093  0.33203721  1.0
  Hf  Hf1  1  0.88932093  -0.66796279  0.88932093  1.0
  Hf  Hf2  1  0.36067907  0.36067907  0.36067907  1.0
  Hf  Hf3  1  -0.08203721  0.36067907  0.36067907  1.0
  Hf  Hf4  1  -0.66796279  0.88932093  0.88932093  1.0
  Hf  Hf5  1  0.88932093  -0.11067907  0.88932093  1.0
  Hf  Hf6  1  0.36067907  -0.08203721  0.36067907  1.0
  Hf  Hf7  1  0.36067907  0.36067907  -0.08203721  1.0
  Co  Co8  1  0.50000000  0.50000000  -0.50000000  1.0
  Co  Co9  1  0.75000000  -0.25000000  0.75000000  1.0
