# generated using pymatgen
data_KAlH4
_symmetry_space_group_name_H-M   'P 1'
_cell_length_a   8.89844695
_cell_length_b   5.79657422
_cell_length_c   7.37892900
_cell_angle_alpha   90.00000000
_cell_angle_beta   90.00000000
_cell_angle_gamma   90.00000000
_symmetry_Int_Tables_number   1
_chemical_formula_structural   KAlH4
_chemical_formula_sum   'K4 Al4 H16'
_cell_volume   380.60890767
_cell_formula_units_Z   4
loop_
 _symmetry_equiv_pos_site_id
 _symmetry_equiv_pos_as_xyz
  1  'x, y, z'
loop_
 _atom_site_type_symbol
 _atom_site_label
 _atom_site_symmetry_multiplicity
 _atom_site_fract_x
 _atom_site_fract_y
 _atom_site_fract_z
 _atom_site_occupancy
  K  K0  1  0.32243101  0.75000000  0.16244915  1.0
  K  K1  1  0.82243101  0.75000000  0.33755085  1.0
  K  K2  1  0.67756899  0.25000000  0.83755085  1.0
  K  K3  1  0.17756899  0.25000000  0.66244915  1.0
  Al  Al4  1  0.43343470  0.75000000  0.68006481  1.0
  Al  Al5  1  0.93343470  0.75000000  0.81993519  1.0
  Al  Al6  1  0.56656530  0.25000000  0.31993519  1.0
  Al  Al7  1  0.06656530  0.25000000  0.18006481  1.0
  H  H8  1  0.42041094  0.97809857  0.81067387  1.0
  H  H9  1  0.42041094  0.52190143  0.81067387  1.0
  H  H10  1  0.92041094  0.97809857  0.68932613  1.0
  H  H11  1  0.92041094  0.52190143  0.68932613  1.0
  H  H12  1  0.57958906  0.47809857  0.18932613  1.0
  H  H13  1  0.57958906  0.02190143  0.18932613  1.0
  H  H14  1  0.07958906  0.47809857  0.31067387  1.0
  H  H15  1  0.07958906  0.02190143  0.31067387  1.0
  H  H16  1  0.29248866  0.75000000  0.53847283  1.0
  H  H17  1  0.79248866  0.75000000  0.96152717  1.0
  H  H18  1  0.70751134  0.25000000  0.46152717  1.0
  H  H19  1  0.20751134  0.25000000  0.03847283  1.0
  H  H20  1  0.09550788  0.75000000  0.92280273  1.0
  H  H21  1  0.59550788  0.75000000  0.57719727  1.0
  H  H22  1  0.90449212  0.25000000  0.07719727  1.0
  H  H23  1  0.40449212  0.25000000  0.42280273  1.0
