# generated using pymatgen
data_InSbSe3
_symmetry_space_group_name_H-M   'P 1'
_cell_length_a   9.95307186
_cell_length_b   4.07750410
_cell_length_c   14.30166746
_cell_angle_alpha   90.00000000
_cell_angle_beta   90.00000000
_cell_angle_gamma   90.00000000
_symmetry_Int_Tables_number   1
_chemical_formula_structural   InSbSe3
_chemical_formula_sum   'In4 Sb4 Se12'
_cell_volume   580.41445728
_cell_formula_units_Z   4
loop_
 _symmetry_equiv_pos_site_id
 _symmetry_equiv_pos_as_xyz
  1  'x, y, z'
loop_
 _atom_site_type_symbol
 _atom_site_label
 _atom_site_symmetry_multiplicity
 _atom_site_fract_x
 _atom_site_fract_y
 _atom_site_fract_z
 _atom_site_occupancy
  In  In0  1  0.85735286  0.75000000  0.04718080  1.0
  In  In1  1  0.35735286  0.75000000  0.45281920  1.0
  In  In2  1  0.14264714  0.25000000  0.95281920  1.0
  In  In3  1  0.64264714  0.25000000  0.54718080  1.0
  Sb  Sb4  1  0.97133742  0.75000000  0.63300129  1.0
  Sb  Sb5  1  0.47133742  0.75000000  0.86699871  1.0
  Sb  Sb6  1  0.02866258  0.25000000  0.36699871  1.0
  Sb  Sb7  1  0.52866258  0.25000000  0.13300129  1.0
  Se  Se8  1  0.83899843  0.75000000  0.47347003  1.0
  Se  Se9  1  0.33899843  0.75000000  0.02652997  1.0
  Se  Se10  1  0.16100157  0.25000000  0.52652997  1.0
  Se  Se11  1  0.66100157  0.25000000  0.97347003  1.0
  Se  Se12  1  0.69027128  0.75000000  0.19858211  1.0
  Se  Se13  1  0.19027128  0.75000000  0.30141789  1.0
  Se  Se14  1  0.30972872  0.25000000  0.80141789  1.0
  Se  Se15  1  0.80972872  0.25000000  0.69858211  1.0
  Se  Se16  1  0.49189068  0.75000000  0.61757192  1.0
  Se  Se17  1  0.99189068  0.75000000  0.88242808  1.0
  Se  Se18  1  0.50810932  0.25000000  0.38242808  1.0
  Se  Se19  1  0.00810932  0.25000000  0.11757192  1.0
