# generated using pymatgen
data_LaCoGe3
_symmetry_space_group_name_H-M   'P 1'
_cell_length_a   5.84260585
_cell_length_b   5.84260585
_cell_length_c   5.84260585
_cell_angle_alpha   136.14148289
_cell_angle_beta   136.14148289
_cell_angle_gamma   63.76167618
_symmetry_Int_Tables_number   1
_chemical_formula_structural   LaCoGe3
_chemical_formula_sum   'La1 Co1 Ge3'
_cell_volume   94.48331215
_cell_formula_units_Z   1
loop_
 _symmetry_equiv_pos_site_id
 _symmetry_equiv_pos_as_xyz
  1  'x, y, z'
loop_
 _atom_site_type_symbol
 _atom_site_label
 _atom_site_symmetry_multiplicity
 _atom_site_fract_x
 _atom_site_fract_y
 _atom_site_fract_z
 _atom_site_occupancy
  La  La0  1  0.57360769  0.57360769  1.00000000  1.0
  Co  Co1  1  0.23890215  0.23890215  -0.00000000  1.0
  Ge  Ge2  1  0.83160756  0.33160756  0.50000000  1.0
  Ge  Ge3  1  0.33160756  0.83160756  0.50000000  1.0
  Ge  Ge4  1  0.00637504  0.00637504  -0.00000000  1.0
