# generated using pymatgen
data_NaCaPO4
_symmetry_space_group_name_H-M   'P 1'
_cell_length_a   7.15770139
_cell_length_b   5.65133143
_cell_length_c   9.02896725
_cell_angle_alpha   90.00000000
_cell_angle_beta   90.00000000
_cell_angle_gamma   90.00000000
_symmetry_Int_Tables_number   1
_chemical_formula_structural   NaCaPO4
_chemical_formula_sum   'Na4 Ca4 P4 O16'
_cell_volume   365.22662681
_cell_formula_units_Z   4
loop_
 _symmetry_equiv_pos_site_id
 _symmetry_equiv_pos_as_xyz
  1  'x, y, z'
loop_
 _atom_site_type_symbol
 _atom_site_label
 _atom_site_symmetry_multiplicity
 _atom_site_fract_x
 _atom_site_fract_y
 _atom_site_fract_z
 _atom_site_occupancy
  Na  Na0  1  0.75000785  0.75000000  0.43296205  1.0
  Na  Na1  1  0.25000785  0.75000000  0.06703795  1.0
  Na  Na2  1  0.24999215  0.25000000  0.56703795  1.0
  Na  Na3  1  0.74999215  0.25000000  0.93296205  1.0
  Ca  Ca4  1  0.50002436  0.75000000  0.75001040  1.0
  Ca  Ca5  1  0.00002436  0.75000000  0.74998960  1.0
  Ca  Ca6  1  0.49997564  0.25000000  0.24998960  1.0
  Ca  Ca7  1  0.99997564  0.25000000  0.25001040  1.0
  P  P8  1  0.74999118  0.75000000  0.09696771  1.0
  P  P9  1  0.24999118  0.75000000  0.40303229  1.0
  P  P10  1  0.25000882  0.25000000  0.90303229  1.0
  P  P11  1  0.75000882  0.25000000  0.59696771  1.0
  O  O12  1  0.75000101  0.97591987  0.20065182  1.0
  O  O13  1  0.75000101  0.52408013  0.20065182  1.0
  O  O14  1  0.25000101  0.97591987  0.29934818  1.0
  O  O15  1  0.25000101  0.52408013  0.29934818  1.0
  O  O16  1  0.24999899  0.47591987  0.79934818  1.0
  O  O17  1  0.24999899  0.02408013  0.79934818  1.0
  O  O18  1  0.74999899  0.47591987  0.70065182  1.0
  O  O19  1  0.74999899  0.02408013  0.70065182  1.0
  O  O20  1  0.92735876  0.75000000  -0.00061160  1.0
  O  O21  1  0.42735876  0.75000000  0.50061160  1.0
  O  O22  1  0.07264124  0.25000000  1.00061160  1.0
  O  O23  1  0.57264124  0.25000000  0.49938840  1.0
  O  O24  1  0.07259527  0.75000000  0.50057850  1.0
  O  O25  1  0.57259527  0.75000000  0.99942150  1.0
  O  O26  1  0.92740473  0.25000000  0.49942150  1.0
  O  O27  1  0.42740473  0.25000000  0.00057850  1.0
