# generated using pymatgen
data_KCuAg2(CN)4
_symmetry_space_group_name_H-M   'P 1'
_cell_length_a   8.02371594
_cell_length_b   7.59629321
_cell_length_c   7.53443517
_cell_angle_alpha   90.00000000
_cell_angle_beta   101.32327069
_cell_angle_gamma   90.00000000
_symmetry_Int_Tables_number   1
_chemical_formula_structural   KCuAg2(CN)4
_chemical_formula_sum   'K2 Cu2 Ag4 C8 N8'
_cell_volume   450.28871528
_cell_formula_units_Z   2
loop_
 _symmetry_equiv_pos_site_id
 _symmetry_equiv_pos_as_xyz
  1  'x, y, z'
loop_
 _atom_site_type_symbol
 _atom_site_label
 _atom_site_symmetry_multiplicity
 _atom_site_fract_x
 _atom_site_fract_y
 _atom_site_fract_z
 _atom_site_occupancy
  K  K0  1  0.50000000  0.75165060  0.75000000  1.0
  K  K1  1  0.50000000  0.24834940  0.25000000  1.0
  Cu  Cu2  1  0.50000000  0.74396658  0.25000000  1.0
  Cu  Cu3  1  0.50000000  0.25603342  0.75000000  1.0
  Ag  Ag4  1  0.00000000  0.00000000  0.50000000  1.0
  Ag  Ag5  1  0.00000000  0.00000000  0.00000000  1.0
  Ag  Ag6  1  -0.00000000  0.59421134  0.75000000  1.0
  Ag  Ag7  1  0.00000000  0.40578866  0.25000000  1.0
  C  C8  1  0.21741884  0.91953317  0.41853780  1.0
  C  C9  1  0.78258116  0.91953317  0.08146220  1.0
  C  C10  1  0.78258116  0.08046683  0.58146220  1.0
  C  C11  1  0.21741884  0.08046683  0.91853780  1.0
  C  C12  1  0.21371120  0.60062247  0.94992679  1.0
  C  C13  1  0.78628880  0.60062247  0.55007321  1.0
  C  C14  1  0.78628880  0.39937753  0.05007321  1.0
  C  C15  1  0.21371120  0.39937753  0.44992679  1.0
  N  N16  1  0.34041537  0.87272282  0.36978737  1.0
  N  N17  1  0.65958463  0.87272282  0.13021263  1.0
  N  N18  1  0.65958463  0.12727718  0.63021263  1.0
  N  N19  1  0.34041537  0.12727718  0.86978737  1.0
  N  N20  1  0.33663976  0.61802062  0.06222209  1.0
  N  N21  1  0.66336024  0.61802062  0.43777791  1.0
  N  N22  1  0.66336024  0.38197938  0.93777791  1.0
  N  N23  1  0.33663976  0.38197938  0.56222209  1.0
