# generated using pymatgen
data_BaLa2In2Se7
_symmetry_space_group_name_H-M   'P 1'
_cell_length_a   12.27196640
_cell_length_b   13.10131936
_cell_length_c   4.24002460
_cell_angle_alpha   90.00000000
_cell_angle_beta   90.00000000
_cell_angle_gamma   90.00000000
_symmetry_Int_Tables_number   1
_chemical_formula_structural   BaLa2In2Se7
_chemical_formula_sum   'Ba2 La4 In4 Se14'
_cell_volume   681.70670693
_cell_formula_units_Z   2
loop_
 _symmetry_equiv_pos_site_id
 _symmetry_equiv_pos_as_xyz
  1  'x, y, z'
loop_
 _atom_site_type_symbol
 _atom_site_label
 _atom_site_symmetry_multiplicity
 _atom_site_fract_x
 _atom_site_fract_y
 _atom_site_fract_z
 _atom_site_occupancy
  Ba  Ba0  1  0.50000000  0.00000000  0.50000000  1.0
  Ba  Ba1  1  0.00000000  0.50000000  0.50000000  1.0
  La  La2  1  0.61780970  0.35755683  0.50000000  1.0
  La  La3  1  0.38219030  0.64244317  0.50000000  1.0
  La  La4  1  0.11780970  0.14244317  0.50000000  1.0
  La  La5  1  0.88219030  0.85755683  0.50000000  1.0
  In  In6  1  0.78725769  0.12158771  0.00000000  1.0
  In  In7  1  0.21274231  0.87841229  0.00000000  1.0
  In  In8  1  0.28725769  0.37841229  0.00000000  1.0
  In  In9  1  0.71274231  0.62158771  0.00000000  1.0
  Se  Se10  1  0.85929126  0.21933131  0.50000000  1.0
  Se  Se11  1  0.14070874  0.78066869  0.50000000  1.0
  Se  Se12  1  0.35929126  0.28066869  0.50000000  1.0
  Se  Se13  1  0.64070874  0.71933131  0.50000000  1.0
  Se  Se14  1  0.57986549  0.19587968  0.00000000  1.0
  Se  Se15  1  0.42013451  0.80412032  0.00000000  1.0
  Se  Se16  1  0.07986549  0.30412032  0.00000000  1.0
  Se  Se17  1  0.92013451  0.69587968  0.00000000  1.0
  Se  Se18  1  0.78840621  0.43530663  0.00000000  1.0
  Se  Se19  1  0.21159379  0.56469337  0.00000000  1.0
  Se  Se20  1  0.28840621  0.06469337  0.00000000  1.0
  Se  Se21  1  0.71159379  0.93530663  0.00000000  1.0
  Se  Se22  1  0.50000000  0.50000000  0.00000000  1.0
  Se  Se23  1  0.00000000  0.00000000  0.00000000  1.0
