# generated using pymatgen
data_Ca5Au4
_symmetry_space_group_name_H-M   'P 1'
_cell_length_a   8.08241287
_cell_length_b   8.08703864
_cell_length_c   7.76076061
_cell_angle_alpha   90.00000000
_cell_angle_beta   109.36879303
_cell_angle_gamma   90.00000000
_symmetry_Int_Tables_number   1
_chemical_formula_structural   Ca5Au4
_chemical_formula_sum   'Ca10 Au8'
_cell_volume   478.55547612
_cell_formula_units_Z   2
loop_
 _symmetry_equiv_pos_site_id
 _symmetry_equiv_pos_as_xyz
  1  'x, y, z'
loop_
 _atom_site_type_symbol
 _atom_site_label
 _atom_site_symmetry_multiplicity
 _atom_site_fract_x
 _atom_site_fract_y
 _atom_site_fract_z
 _atom_site_occupancy
  Ca  Ca0  1  0.74410052  0.17038442  0.24712706  1.0
  Ca  Ca1  1  0.74410052  0.32961558  0.74712706  1.0
  Ca  Ca2  1  0.25589948  0.67038442  0.25287294  1.0
  Ca  Ca3  1  0.25589948  0.82961558  0.75287294  1.0
  Ca  Ca4  1  0.30818428  0.17801697  0.43255451  1.0
  Ca  Ca5  1  0.30818428  0.32198303  0.93255451  1.0
  Ca  Ca6  1  0.69181572  0.67801697  0.06744549  1.0
  Ca  Ca7  1  0.69181572  0.82198303  0.56744549  1.0
  Ca  Ca8  1  0.00000000  0.50000000  0.50000000  1.0
  Ca  Ca9  1  0.00000000  -0.00000000  0.00000000  1.0
  Au  Au10  1  0.98624838  0.86770701  0.36986893  1.0
  Au  Au11  1  0.98624838  0.63229299  0.86986893  1.0
  Au  Au12  1  0.01375162  0.36770701  0.13013107  1.0
  Au  Au13  1  0.01375162  0.13229299  0.63013107  1.0
  Au  Au14  1  0.58202589  0.46764314  0.35483558  1.0
  Au  Au15  1  0.58202589  0.03235686  0.85483558  1.0
  Au  Au16  1  0.41797411  0.96764314  0.14516442  1.0
  Au  Au17  1  0.41797411  0.53235686  0.64516442  1.0
