# generated using pymatgen
data_VPO5
_symmetry_space_group_name_H-M   'P 1'
_cell_length_a   6.23155645
_cell_length_b   6.23155645
_cell_length_c   4.82797309
_cell_angle_alpha   90.00000000
_cell_angle_beta   90.00000000
_cell_angle_gamma   90.00000000
_symmetry_Int_Tables_number   1
_chemical_formula_structural   VPO5
_chemical_formula_sum   'V2 P2 O10'
_cell_volume   187.48127911
_cell_formula_units_Z   2
loop_
 _symmetry_equiv_pos_site_id
 _symmetry_equiv_pos_as_xyz
  1  'x, y, z'
loop_
 _atom_site_type_symbol
 _atom_site_label
 _atom_site_symmetry_multiplicity
 _atom_site_fract_x
 _atom_site_fract_y
 _atom_site_fract_z
 _atom_site_occupancy
  V  V0  1  0.00000000  0.50000000  0.60225022  1.0
  V  V1  1  0.50000000  0.00000000  0.39774978  1.0
  P  P2  1  0.50000000  0.50000000  0.50000000  1.0
  P  P3  1  0.00000000  0.00000000  0.50000000  1.0
  O  O4  1  0.50000000  0.00000000  0.72287943  1.0
  O  O5  1  0.00000000  0.50000000  0.27712057  1.0
  O  O6  1  0.70176098  0.50000157  0.68996333  1.0
  O  O7  1  0.29823902  0.49999843  0.68996333  1.0
  O  O8  1  0.20176098  1.00000157  0.31003667  1.0
  O  O9  1  0.79823902  -0.00000157  0.31003667  1.0
  O  O10  1  0.50000157  0.29823902  0.31003667  1.0
  O  O11  1  0.49999843  0.70176098  0.31003667  1.0
  O  O12  1  1.00000157  0.79823902  0.68996333  1.0
  O  O13  1  -0.00000157  0.20176098  0.68996333  1.0
