# generated using pymatgen
data_CsBePO4
_symmetry_space_group_name_H-M   'P 1'
_cell_length_a   8.86575616
_cell_length_b   5.19887267
_cell_length_c   8.96484713
_cell_angle_alpha   90.00000000
_cell_angle_beta   90.00000000
_cell_angle_gamma   90.00000000
_symmetry_Int_Tables_number   1
_chemical_formula_structural   CsBePO4
_chemical_formula_sum   'Cs4 Be4 P4 O16'
_cell_volume   413.20717319
_cell_formula_units_Z   4
loop_
 _symmetry_equiv_pos_site_id
 _symmetry_equiv_pos_as_xyz
  1  'x, y, z'
loop_
 _atom_site_type_symbol
 _atom_site_label
 _atom_site_symmetry_multiplicity
 _atom_site_fract_x
 _atom_site_fract_y
 _atom_site_fract_z
 _atom_site_occupancy
  Cs  Cs0  1  0.99097485  0.75000000  0.69383606  1.0
  Cs  Cs1  1  0.49097485  0.75000000  0.80616394  1.0
  Cs  Cs2  1  0.00902515  0.25000000  0.30616394  1.0
  Cs  Cs3  1  0.50902515  0.25000000  0.19383606  1.0
  Be  Be4  1  0.67161225  0.75000000  0.40770744  1.0
  Be  Be5  1  0.17161225  0.75000000  0.09229256  1.0
  Be  Be6  1  0.32838775  0.25000000  0.59229256  1.0
  Be  Be7  1  0.82838775  0.25000000  0.90770744  1.0
  P  P8  1  0.81663221  0.75000000  0.08209553  1.0
  P  P9  1  0.31663221  0.75000000  0.41790447  1.0
  P  P10  1  0.18336779  0.25000000  0.91790447  1.0
  P  P11  1  0.68336779  0.25000000  0.58209553  1.0
  O  O12  1  0.76484547  0.99272757  0.99388767  1.0
  O  O13  1  0.76484547  0.50727243  0.99388767  1.0
  O  O14  1  0.26484547  0.99272757  0.50611233  1.0
  O  O15  1  0.26484547  0.50727243  0.50611233  1.0
  O  O16  1  0.23515453  0.49272757  0.00611233  1.0
  O  O17  1  0.23515453  0.00727243  0.00611233  1.0
  O  O18  1  0.73515453  0.49272757  0.49388767  1.0
  O  O19  1  0.73515453  0.00727243  0.49388767  1.0
  O  O20  1  0.98902369  0.75000000  0.10434693  1.0
  O  O21  1  0.48902369  0.75000000  0.39565307  1.0
  O  O22  1  0.01097631  0.25000000  0.89565307  1.0
  O  O23  1  0.51097631  0.25000000  0.60434693  1.0
  O  O24  1  0.73709977  0.75000000  0.23548728  1.0
  O  O25  1  0.23709977  0.75000000  0.26451272  1.0
  O  O26  1  0.26290023  0.25000000  0.76451272  1.0
  O  O27  1  0.76290023  0.25000000  0.73548728  1.0
