# generated using pymatgen
data_SbH5(Cl3O)2
_symmetry_space_group_name_H-M   'P 1'
_cell_length_a   7.48092114
_cell_length_b   7.48092114
_cell_length_c   13.49417593
_cell_angle_alpha   70.46274477
_cell_angle_beta   109.53725523
_cell_angle_gamma   120.77634950
_symmetry_Int_Tables_number   1
_chemical_formula_structural   SbH5(Cl3O)2
_chemical_formula_sum   'Sb2 H10 Cl12 O4'
_cell_volume   598.91555352
_cell_formula_units_Z   2
loop_
 _symmetry_equiv_pos_site_id
 _symmetry_equiv_pos_as_xyz
  1  'x, y, z'
loop_
 _atom_site_type_symbol
 _atom_site_label
 _atom_site_symmetry_multiplicity
 _atom_site_fract_x
 _atom_site_fract_y
 _atom_site_fract_z
 _atom_site_occupancy
  Sb  Sb0  1  0.00000000  -0.00000000  0.50000000  1.0
  Sb  Sb1  1  0.00000000  0.00000000  0.00000000  1.0
  H  H2  1  0.71281100  -0.47322887  0.36537685  1.0
  H  H3  1  0.47322887  0.28718900  0.86537685  1.0
  H  H4  1  0.52677113  -0.28718900  0.13462315  1.0
  H  H5  1  1.28718900  -0.52677113  0.63462315  1.0
  H  H6  1  1.48790736  0.34540380  0.39154772  1.0
  H  H7  1  0.65459620  0.51209264  0.89154772  1.0
  H  H8  1  1.34540380  0.48790736  0.10845228  1.0
  H  H9  1  1.51209264  -0.34540380  0.60845228  1.0
  H  H10  1  1.49236652  0.49236652  0.25000000  1.0
  H  H11  1  0.50763348  0.50763348  0.75000000  1.0
  Cl  Cl12  1  0.61437240  -0.17822873  0.45024553  1.0
  Cl  Cl13  1  1.17822873  0.38562760  0.95024553  1.0
  Cl  Cl14  1  0.82177127  0.61437240  0.04975447  1.0
  Cl  Cl15  1  0.38562760  0.17822873  0.54975447  1.0
  Cl  Cl16  1  0.77342286  0.02679015  0.08401719  1.0
  Cl  Cl17  1  0.97320985  0.22657714  0.58401719  1.0
  Cl  Cl18  1  1.02679015  0.77342286  0.41598281  1.0
  Cl  Cl19  1  0.22657714  -0.02679015  0.91598281  1.0
  Cl  Cl20  1  1.25237197  0.01263248  0.16573900  1.0
  Cl  Cl21  1  0.98736752  0.74762803  0.66573900  1.0
  Cl  Cl22  1  1.01263248  0.25237197  0.33426100  1.0
  Cl  Cl23  1  1.74762803  -0.01263248  0.83426100  1.0
  O  O24  1  0.57423441  -0.58309974  0.33542568  1.0
  O  O25  1  0.58309974  0.42576559  0.83542568  1.0
  O  O26  1  0.41690026  -0.42576559  0.16457432  1.0
  O  O27  1  1.42576559  -0.41690026  0.66457432  1.0
