# generated using pymatgen
data_CsInS2
_symmetry_space_group_name_H-M   'P 1'
_cell_length_a   8.08223043
_cell_length_b   8.08223043
_cell_length_c   16.57002686
_cell_angle_alpha   82.97617737
_cell_angle_beta   97.02382263
_cell_angle_gamma   90.00155756
_symmetry_Int_Tables_number   1
_chemical_formula_structural   CsInS2
_chemical_formula_sum   'Cs8 In8 S16'
_cell_volume   1066.08739583
_cell_formula_units_Z   8
loop_
 _symmetry_equiv_pos_site_id
 _symmetry_equiv_pos_as_xyz
  1  'x, y, z'
loop_
 _atom_site_type_symbol
 _atom_site_label
 _atom_site_symmetry_multiplicity
 _atom_site_fract_x
 _atom_site_fract_y
 _atom_site_fract_z
 _atom_site_occupancy
  Cs  Cs0  1  0.65257228  0.22427737  0.60742461  1.0
  Cs  Cs1  1  0.77572263  0.34742772  0.10742461  1.0
  Cs  Cs2  1  1.22427737  -0.34742772  0.89257539  1.0
  Cs  Cs3  1  1.34742772  -0.22427737  0.39257539  1.0
  Cs  Cs4  1  0.22339327  0.15164213  0.89182288  1.0
  Cs  Cs5  1  0.84835787  0.77660673  0.39182288  1.0
  Cs  Cs6  1  1.15164213  -0.77660673  0.60817712  1.0
  Cs  Cs7  1  1.77660673  -0.15164213  0.10817712  1.0
  In  In8  1  1.70865763  -0.08597523  0.83459635  1.0
  In  In9  1  1.08597523  -0.70865763  0.33459635  1.0
  In  In10  1  0.91402477  0.70865763  0.66540365  1.0
  In  In11  1  0.29134237  0.08597523  0.16540365  1.0
  In  In12  1  1.41907396  -0.29125718  0.66500747  1.0
  In  In13  1  1.29125718  -0.41907396  0.16500747  1.0
  In  In14  1  0.70874282  0.41907396  0.83499253  1.0
  In  In15  1  0.58092604  0.29125718  0.33499253  1.0
  S  S16  1  1.64363152  -0.26887122  0.57229996  1.0
  S  S17  1  1.26887122  -0.64363152  0.07229996  1.0
  S  S18  1  0.73112878  0.64363152  0.92770004  1.0
  S  S19  1  0.35636848  0.26887122  0.42770004  1.0
  S  S20  1  0.73095462  0.14359184  0.92490657  1.0
  S  S21  1  0.85640816  0.26904538  0.42490657  1.0
  S  S22  1  1.14359184  -0.26904538  0.57509343  1.0
  S  S23  1  1.26904538  -0.14359184  0.07509343  1.0
  S  S24  1  1.43140411  -0.05579520  0.74953546  1.0
  S  S25  1  1.05579520  -0.43140411  0.24953546  1.0
  S  S26  1  0.94420480  0.43140411  0.75046454  1.0
  S  S27  1  0.56859589  0.05579520  0.25046454  1.0
  S  S28  1  0.94396747  0.94396747  0.75000000  1.0
  S  S29  1  0.05603253  0.05603253  0.25000000  1.0
  S  S30  1  0.43136684  0.43136684  0.75000000  1.0
  S  S31  1  0.56863316  0.56863316  0.25000000  1.0
