# generated using pymatgen
data_V2Co(PO5)2
_symmetry_space_group_name_H-M   'P 1'
_cell_length_a   7.36514027
_cell_length_b   7.35196754
_cell_length_c   7.64421619
_cell_angle_alpha   90.00000000
_cell_angle_beta   121.07459901
_cell_angle_gamma   90.00000000
_symmetry_Int_Tables_number   1
_chemical_formula_structural   V2Co(PO5)2
_chemical_formula_sum   'V4 Co2 P4 O20'
_cell_volume   354.52176327
_cell_formula_units_Z   2
loop_
 _symmetry_equiv_pos_site_id
 _symmetry_equiv_pos_as_xyz
  1  'x, y, z'
loop_
 _atom_site_type_symbol
 _atom_site_label
 _atom_site_symmetry_multiplicity
 _atom_site_fract_x
 _atom_site_fract_y
 _atom_site_fract_z
 _atom_site_occupancy
  V  V0  1  0.74489384  0.27918470  0.04534579  1.0
  V  V1  1  0.74489384  0.22081530  0.54534579  1.0
  V  V2  1  0.25510616  0.77918470  0.45465421  1.0
  V  V3  1  0.25510616  0.72081530  0.95465421  1.0
  Co  Co4  1  0.00000000  0.50000000  0.50000000  1.0
  Co  Co5  1  0.00000000  0.00000000  0.00000000  1.0
  P  P6  1  0.74636913  0.88419648  0.24775115  1.0
  P  P7  1  0.74636913  0.61580352  0.74775115  1.0
  P  P8  1  0.25363087  0.38419648  0.25224885  1.0
  P  P9  1  0.25363087  0.11580352  0.75224885  1.0
  O  O10  1  0.94478891  0.75638485  0.36045057  1.0
  O  O11  1  0.94478891  0.74361515  0.86045057  1.0
  O  O12  1  0.05521109  0.25638485  0.13954943  1.0
  O  O13  1  0.05521109  0.24361515  0.63954943  1.0
  O  O14  1  0.78352264  0.01016007  0.10238391  1.0
  O  O15  1  0.78352264  0.48983993  0.60238391  1.0
  O  O16  1  0.21647736  0.51016007  0.39761609  1.0
  O  O17  1  0.21647736  0.98983993  0.89761609  1.0
  O  O18  1  0.77555307  0.35652511  0.26130816  1.0
  O  O19  1  0.77555307  0.14347489  0.76130816  1.0
  O  O20  1  0.22444693  0.85652511  0.23869184  1.0
  O  O21  1  0.22444693  0.64347489  0.73869184  1.0
  O  O22  1  0.72332656  1.00124568  0.40116463  1.0
  O  O23  1  0.72332656  0.49875432  0.90116463  1.0
  O  O24  1  0.27667344  0.50124568  0.09883537  1.0
  O  O25  1  0.27667344  -0.00124568  0.59883537  1.0
  O  O26  1  0.44613332  0.25938383  0.37277061  1.0
  O  O27  1  0.44613332  0.24061617  0.87277061  1.0
  O  O28  1  0.55386668  0.75938383  0.12722939  1.0
  O  O29  1  0.55386668  0.74061617  0.62722939  1.0
