# generated using pymatgen
data_CuWO3F2
_symmetry_space_group_name_H-M   'P 1'
_cell_length_a   3.74253887
_cell_length_b   9.86849388
_cell_length_c   5.28805601
_cell_angle_alpha   90.00000000
_cell_angle_beta   105.13328792
_cell_angle_gamma   90.00000000
_symmetry_Int_Tables_number   1
_chemical_formula_structural   CuWO3F2
_chemical_formula_sum   'Cu2 W2 O6 F4'
_cell_volume   188.53198908
_cell_formula_units_Z   2
loop_
 _symmetry_equiv_pos_site_id
 _symmetry_equiv_pos_as_xyz
  1  'x, y, z'
loop_
 _atom_site_type_symbol
 _atom_site_label
 _atom_site_symmetry_multiplicity
 _atom_site_fract_x
 _atom_site_fract_y
 _atom_site_fract_z
 _atom_site_occupancy
  Cu  Cu0  1  0.00000000  0.50000000  0.00000000  1.0
  Cu  Cu1  1  0.00000000  0.00000000  0.00000000  1.0
  W  W2  1  0.19753715  0.25000000  0.51952497  1.0
  W  W3  1  0.80246285  0.75000000  0.48047503  1.0
  O  O4  1  0.88582890  0.88857778  0.70124006  1.0
  O  O5  1  0.88582890  0.61142222  0.70124006  1.0
  O  O6  1  0.11417110  0.38857778  0.29875994  1.0
  O  O7  1  0.11417110  0.11142222  0.29875994  1.0
  O  O8  1  0.72403075  0.25000000  0.59550328  1.0
  O  O9  1  0.27596925  0.75000000  0.40449672  1.0
  F  F10  1  0.32154183  0.38742752  0.84254867  1.0
  F  F11  1  0.32154183  0.11257248  0.84254867  1.0
  F  F12  1  0.67845817  0.88742752  0.15745133  1.0
  F  F13  1  0.67845817  0.61257248  0.15745133  1.0
