# generated using pymatgen
data_CuBiPbS3
_symmetry_space_group_name_H-M   'P 1'
_cell_length_a   11.92309955
_cell_length_b   4.05977173
_cell_length_c   11.30935989
_cell_angle_alpha   90.00000000
_cell_angle_beta   90.00000000
_cell_angle_gamma   90.00000000
_symmetry_Int_Tables_number   1
_chemical_formula_structural   CuBiPbS3
_chemical_formula_sum   'Cu4 Bi4 Pb4 S12'
_cell_volume   547.43027227
_cell_formula_units_Z   4
loop_
 _symmetry_equiv_pos_site_id
 _symmetry_equiv_pos_as_xyz
  1  'x, y, z'
loop_
 _atom_site_type_symbol
 _atom_site_label
 _atom_site_symmetry_multiplicity
 _atom_site_fract_x
 _atom_site_fract_y
 _atom_site_fract_z
 _atom_site_occupancy
  Cu  Cu0  1  0.26472539  0.75000000  0.70234392  1.0
  Cu  Cu1  1  0.76472539  0.75000000  0.79765608  1.0
  Cu  Cu2  1  0.73527461  0.25000000  0.29765608  1.0
  Cu  Cu3  1  0.23527461  0.25000000  0.20234392  1.0
  Bi  Bi4  1  0.48471243  0.75000000  0.18043789  1.0
  Bi  Bi5  1  0.98471243  0.75000000  0.31956211  1.0
  Bi  Bi6  1  0.51528757  0.25000000  0.81956211  1.0
  Bi  Bi7  1  0.01528757  0.25000000  0.68043789  1.0
  Pb  Pb8  1  0.16636694  0.75000000  0.98550257  1.0
  Pb  Pb9  1  0.66636694  0.75000000  0.51449743  1.0
  Pb  Pb10  1  0.83363306  0.25000000  0.01449743  1.0
  Pb  Pb11  1  0.33363306  0.25000000  0.48550257  1.0
  S  S12  1  0.45154981  0.75000000  0.64664443  1.0
  S  S13  1  0.95154981  0.75000000  0.85335557  1.0
  S  S14  1  0.54845019  0.25000000  0.35335557  1.0
  S  S15  1  0.04845019  0.25000000  0.14664443  1.0
  S  S16  1  0.28744852  0.75000000  0.29665138  1.0
  S  S17  1  0.78744852  0.75000000  0.20334862  1.0
  S  S18  1  0.71255148  0.25000000  0.70334862  1.0
  S  S19  1  0.21255148  0.25000000  0.79665138  1.0
  S  S20  1  0.12157730  0.75000000  0.55472662  1.0
  S  S21  1  0.62157730  0.75000000  0.94527338  1.0
  S  S22  1  0.87842270  0.25000000  0.44527338  1.0
  S  S23  1  0.37842270  0.25000000  0.05472662  1.0
