# generated using pymatgen
data_Mn3AgAs3(HO6)2
_symmetry_space_group_name_H-M   'P 1'
_cell_length_a   8.96434232
_cell_length_b   8.96434232
_cell_length_c   7.00954553
_cell_angle_alpha   73.94855765
_cell_angle_beta   106.05144235
_cell_angle_gamma   88.77256341
_symmetry_Int_Tables_number   1
_chemical_formula_structural   Mn3AgAs3(HO6)2
_chemical_formula_sum   'Mn6 Ag2 As6 H4 O24'
_cell_volume   517.28925403
_cell_formula_units_Z   2
loop_
 _symmetry_equiv_pos_site_id
 _symmetry_equiv_pos_as_xyz
  1  'x, y, z'
loop_
 _atom_site_type_symbol
 _atom_site_label
 _atom_site_symmetry_multiplicity
 _atom_site_fract_x
 _atom_site_fract_y
 _atom_site_fract_z
 _atom_site_occupancy
  Mn  Mn0  1  0.35880949  -0.04026720  0.61033750  1.0
  Mn  Mn1  1  1.04026720  0.64119051  0.11033750  1.0
  Mn  Mn2  1  0.95973280  -0.64119051  0.88966250  1.0
  Mn  Mn3  1  1.64119051  0.04026720  0.38966250  1.0
  Mn  Mn4  1  1.28824240  0.28824240  0.75000000  1.0
  Mn  Mn5  1  0.71175760  -0.28824240  0.25000000  1.0
  Ag  Ag6  1  0.99658211  -0.00341789  0.75000000  1.0
  Ag  Ag7  1  1.00341789  0.00341789  0.25000000  1.0
  As  As8  1  1.66063689  0.10374697  0.88680087  1.0
  As  As9  1  0.89625303  -0.66063689  0.38680087  1.0
  As  As10  1  1.10374697  0.66063689  0.61319913  1.0
  As  As11  1  0.33936311  -0.10374697  0.11319913  1.0
  As  As12  1  0.68206627  -0.31793373  0.75000000  1.0
  As  As13  1  1.31793373  0.31793373  0.25000000  1.0
  H  H14  1  0.40240217  -0.37063469  0.70246011  1.0
  H  H15  1  1.37063469  0.59759783  0.20246011  1.0
  H  H16  1  0.62936531  -0.59759783  0.79753989  1.0
  H  H17  1  1.59759783  0.37063469  0.29753989  1.0
  O  O18  1  0.71991800  -0.21066049  0.52559786  1.0
  O  O19  1  1.21066049  0.28008200  0.02559786  1.0
  O  O20  1  0.78933951  -0.28008200  0.97440214  1.0
  O  O21  1  1.28008200  0.21066049  0.47440214  1.0
  O  O22  1  0.48192367  -0.28346207  0.73025045  1.0
  O  O23  1  1.28346207  0.51807633  0.23025045  1.0
  O  O24  1  0.71653793  -0.51807633  0.76974955  1.0
  O  O25  1  1.51807633  0.28346207  0.26974955  1.0
  O  O26  1  0.84962782  -0.85265291  0.40569906  1.0
  O  O27  1  1.85265291  0.15037218  0.90569906  1.0
  O  O28  1  0.14734709  -0.15037218  0.09430094  1.0
  O  O29  1  1.15037218  0.85265291  0.59430094  1.0
  O  O30  1  1.59759203  0.01983062  0.68551066  1.0
  O  O31  1  0.98016938  -0.59759203  0.18551066  1.0
  O  O32  1  1.01983062  0.59759203  0.81448934  1.0
  O  O33  1  0.40240797  -0.01983062  0.31448934  1.0
  O  O34  1  1.33170642  0.02729918  0.87260555  1.0
  O  O35  1  0.97270082  -0.33170642  0.37260555  1.0
  O  O36  1  1.02729918  0.33170642  0.62739445  1.0
  O  O37  1  0.66829358  -0.02729918  0.12739445  1.0
  O  O38  1  1.54120120  0.27711001  0.83326884  1.0
  O  O39  1  0.72288999  -0.54120120  0.33326884  1.0
  O  O40  1  1.27711001  0.54120120  0.66673116  1.0
  O  O41  1  0.45879880  -0.27711001  0.16673116  1.0
