# generated using pymatgen
data_H12C2N14O
_symmetry_space_group_name_H-M   'P 1'
_cell_length_a   9.03965876
_cell_length_b   3.74450374
_cell_length_c   16.36674999
_cell_angle_alpha   90.00000000
_cell_angle_beta   98.81208706
_cell_angle_gamma   90.00000000
_symmetry_Int_Tables_number   1
_chemical_formula_structural   H12C2N14O
_chemical_formula_sum   'H24 C4 N28 O2'
_cell_volume   547.45935650
_cell_formula_units_Z   2
loop_
 _symmetry_equiv_pos_site_id
 _symmetry_equiv_pos_as_xyz
  1  'x, y, z'
loop_
 _atom_site_type_symbol
 _atom_site_label
 _atom_site_symmetry_multiplicity
 _atom_site_fract_x
 _atom_site_fract_y
 _atom_site_fract_z
 _atom_site_occupancy
  H  H0  1  0.93847562  0.95486313  0.78038743  1.0
  H  H1  1  0.93847562  0.04513687  0.28038743  1.0
  H  H2  1  0.06152438  0.95486313  0.71961257  1.0
  H  H3  1  0.06152438  0.04513687  0.21961257  1.0
  H  H4  1  0.86018052  0.42528601  0.17125165  1.0
  H  H5  1  0.86018052  0.57471399  0.67125165  1.0
  H  H6  1  0.13981948  0.42528601  0.32874835  1.0
  H  H7  1  0.13981948  0.57471399  0.82874835  1.0
  H  H8  1  0.76287233  0.43890742  0.07194803  1.0
  H  H9  1  0.76287233  0.56109258  0.57194803  1.0
  H  H10  1  0.23712767  0.43890742  0.42805197  1.0
  H  H11  1  0.23712767  0.56109258  0.92805197  1.0
  H  H12  1  0.72248028  0.74733164  0.14472298  1.0
  H  H13  1  0.72248028  0.25266836  0.64472298  1.0
  H  H14  1  0.27751972  0.74733164  0.35527702  1.0
  H  H15  1  0.27751972  0.25266836  0.85527702  1.0
  H  H16  1  0.64636892  0.27719287  0.22007200  1.0
  H  H17  1  0.64636892  0.72280713  0.72007200  1.0
  H  H18  1  0.35363108  0.27719287  0.27992800  1.0
  H  H19  1  0.35363108  0.72280713  0.77992800  1.0
  H  H20  1  0.45150888  0.71281815  0.87342718  1.0
  H  H21  1  0.45150888  0.28718185  0.37342718  1.0
  H  H22  1  0.54849112  0.71281815  0.62657282  1.0
  H  H23  1  0.54849112  0.28718185  0.12657282  1.0
  C  C24  1  0.85906322  0.82389141  0.42630028  1.0
  C  C25  1  0.85906322  0.17610859  0.92630028  1.0
  C  C26  1  0.14093678  0.82389141  0.07369972  1.0
  C  C27  1  0.14093678  0.17610859  0.57369972  1.0
  N  N28  1  0.99130689  0.98688850  0.46084381  1.0
  N  N29  1  0.99130689  0.01311150  0.96084381  1.0
  N  N30  1  0.00869311  0.98688850  0.03915619  1.0
  N  N31  1  0.00869311  0.01311150  0.53915619  1.0
  N  N32  1  0.82454606  0.80167724  0.34343370  1.0
  N  N33  1  0.82454606  0.19832276  0.84343370  1.0
  N  N34  1  0.17545394  0.80167724  0.15656630  1.0
  N  N35  1  0.17545394  0.19832276  0.65656630  1.0
  N  N36  1  0.75637361  0.48142422  0.13535121  1.0
  N  N37  1  0.75637361  0.51857578  0.63535121  1.0
  N  N38  1  0.24362639  0.48142422  0.36464879  1.0
  N  N39  1  0.24362639  0.51857578  0.86464879  1.0
  N  N40  1  0.75210216  0.66832166  0.46357544  1.0
  N  N41  1  0.75210216  0.33167834  0.96357544  1.0
  N  N42  1  0.24789784  0.66832166  0.03642456  1.0
  N  N43  1  0.24789784  0.33167834  0.53642456  1.0
  N  N44  1  0.69425996  0.63185245  0.32949875  1.0
  N  N45  1  0.69425996  0.36814755  0.82949875  1.0
  N  N46  1  0.30574004  0.63185245  0.17050125  1.0
  N  N47  1  0.30574004  0.36814755  0.67050125  1.0
  N  N48  1  0.65231317  0.22017213  0.15901214  1.0
  N  N49  1  0.65231317  0.77982787  0.65901214  1.0
  N  N50  1  0.34768683  0.22017213  0.34098786  1.0
  N  N51  1  0.34768683  0.77982787  0.84098786  1.0
  N  N52  1  0.65116329  0.55045606  0.40189644  1.0
  N  N53  1  0.65116329  0.44954394  0.90189644  1.0
  N  N54  1  0.34883671  0.55045606  0.09810356  1.0
  N  N55  1  0.34883671  0.44954394  0.59810356  1.0
  O  O56  1  0.00000000  0.20492082  0.25000000  1.0
  O  O57  1  -0.00000000  0.79507918  0.75000000  1.0
