# generated using pymatgen
data_Zr4Rh2N
_symmetry_space_group_name_H-M   'P 1'
_cell_length_a   8.77853025
_cell_length_b   8.77853025
_cell_length_c   8.77853025
_cell_angle_alpha   60.00000000
_cell_angle_beta   60.00000000
_cell_angle_gamma   60.00000000
_symmetry_Int_Tables_number   1
_chemical_formula_structural   Zr4Rh2N
_chemical_formula_sum   'Zr16 Rh8 N4'
_cell_volume   478.35512598
_cell_formula_units_Z   4
loop_
 _symmetry_equiv_pos_site_id
 _symmetry_equiv_pos_as_xyz
  1  'x, y, z'
loop_
 _atom_site_type_symbol
 _atom_site_label
 _atom_site_symmetry_multiplicity
 _atom_site_fract_x
 _atom_site_fract_y
 _atom_site_fract_z
 _atom_site_occupancy
  Zr  Zr0  1  1.12500000  0.62500000  0.62500000  1.0
  Zr  Zr1  1  0.62500000  1.12500000  -0.37500000  1.0
  Zr  Zr2  1  -0.37500000  0.62500000  1.12500000  1.0
  Zr  Zr3  1  -0.37500000  0.62500000  0.62500000  1.0
  Zr  Zr4  1  0.81727803  0.81727803  -0.81727803  1.0
  Zr  Zr5  1  0.18272197  1.18272197  -0.18272197  1.0
  Zr  Zr6  1  0.81727803  -0.81727803  0.81727803  1.0
  Zr  Zr7  1  0.18272197  -0.18272197  0.18272197  1.0
  Zr  Zr8  1  -0.81727803  0.81727803  0.81727803  1.0
  Zr  Zr9  1  -0.18272197  0.18272197  0.18272197  1.0
  Zr  Zr10  1  0.43272197  1.43272197  0.06727803  1.0
  Zr  Zr11  1  0.06727803  0.06727803  0.43272197  1.0
  Zr  Zr12  1  0.43272197  1.06727803  0.43272197  1.0
  Zr  Zr13  1  0.06727803  1.43272197  0.06727803  1.0
  Zr  Zr14  1  0.06727803  1.43272197  0.43272197  1.0
  Zr  Zr15  1  0.43272197  1.06727803  0.06727803  1.0
  Rh  Rh16  1  -0.22630266  0.40876755  0.40876755  1.0
  Rh  Rh17  1  0.40876755  -0.22630266  0.40876755  1.0
  Rh  Rh18  1  0.40876755  1.40876755  -0.22630266  1.0
  Rh  Rh19  1  0.40876755  1.40876755  0.40876755  1.0
  Rh  Rh20  1  0.47630266  0.84123245  -0.15876755  1.0
  Rh  Rh21  1  0.84123245  0.47630266  0.84123245  1.0
  Rh  Rh22  1  0.84123245  0.84123245  -0.52369734  1.0
  Rh  Rh23  1  0.84123245  0.84123245  0.84123245  1.0
  N  N24  1  0.62500000  1.12500000  0.12500000  1.0
  N  N25  1  0.12500000  1.62500000  0.12500000  1.0
  N  N26  1  0.12500000  0.12500000  1.62500000  1.0
  N  N27  1  0.12500000  0.12500000  0.12500000  1.0
