# generated using pymatgen
data_YbWO5
_symmetry_space_group_name_H-M   'P 1'
_cell_length_a   5.26874193
_cell_length_b   12.63220725
_cell_length_c   6.84619551
_cell_angle_alpha   90.00000000
_cell_angle_beta   116.71897421
_cell_angle_gamma   90.00000000
_symmetry_Int_Tables_number   1
_chemical_formula_structural   YbWO5
_chemical_formula_sum   'Yb4 W4 O20'
_cell_volume   407.00068611
_cell_formula_units_Z   4
loop_
 _symmetry_equiv_pos_site_id
 _symmetry_equiv_pos_as_xyz
  1  'x, y, z'
loop_
 _atom_site_type_symbol
 _atom_site_label
 _atom_site_symmetry_multiplicity
 _atom_site_fract_x
 _atom_site_fract_y
 _atom_site_fract_z
 _atom_site_occupancy
  W  W0  1  0.88466998  0.36175526  0.34627129  1.0
  W  W1  1  0.88466998  0.13824474  0.84627129  1.0
  W  W2  1  0.11533002  0.86175526  0.15372871  1.0
  W  W3  1  0.11533002  0.63824474  0.65372871  1.0
  O  O4  1  0.78908480  0.22629734  0.28822876  1.0
  O  O5  1  0.78908480  0.27370266  0.78822876  1.0
  O  O6  1  0.21091520  0.72629734  0.21177124  1.0
  O  O7  1  0.21091520  0.77370266  0.71177124  1.0
  O  O8  1  0.78103650  0.64268180  0.41586919  1.0
  O  O9  1  0.78103650  0.85731820  0.91586919  1.0
  O  O10  1  0.21896350  0.14268180  0.08413081  1.0
  O  O11  1  0.21896350  0.35731820  0.58413081  1.0
  O  O12  1  0.67728757  0.43191952  0.46363967  1.0
  O  O13  1  0.67728757  0.06808048  0.96363967  1.0
  O  O14  1  0.32271243  0.93191952  0.03636033  1.0
  O  O15  1  0.32271243  0.56808048  0.53636033  1.0
  O  O16  1  0.50403436  0.41365278  0.05518883  1.0
  O  O17  1  0.50403436  0.08634722  0.55518883  1.0
  O  O18  1  0.49596564  0.91365278  0.44481117  1.0
  O  O19  1  0.49596564  0.58634722  0.94481117  1.0
  O  O20  1  0.99001413  0.92897100  0.34023264  1.0
  O  O21  1  0.99001413  0.57102900  0.84023264  1.0
  O  O22  1  0.00998587  0.42897100  0.15976736  1.0
  O  O23  1  0.00998587  0.07102900  0.65976736  1.0
  Yb  Yb24  1  0.64106974  0.05568350  0.29093347  1.0
  Yb  Yb25  1  0.64106974  0.44431650  0.79093347  1.0
  Yb  Yb26  1  0.35893026  0.55568350  0.20906653  1.0
  Yb  Yb27  1  0.35893026  0.94431650  0.70906653  1.0
