# generated using pymatgen
data_AuSCl5
_symmetry_space_group_name_H-M   'P 1'
_cell_length_a   8.20432901
_cell_length_b   8.49982319
_cell_length_c   13.90921709
_cell_angle_alpha   90.00000000
_cell_angle_beta   114.27397807
_cell_angle_gamma   90.00000000
_symmetry_Int_Tables_number   1
_chemical_formula_structural   AuSCl5
_chemical_formula_sum   'Au4 S4 Cl20'
_cell_volume   884.20962085
_cell_formula_units_Z   4
loop_
 _symmetry_equiv_pos_site_id
 _symmetry_equiv_pos_as_xyz
  1  'x, y, z'
loop_
 _atom_site_type_symbol
 _atom_site_label
 _atom_site_symmetry_multiplicity
 _atom_site_fract_x
 _atom_site_fract_y
 _atom_site_fract_z
 _atom_site_occupancy
  Au  Au0  1  0.91321692  0.33131832  0.34573676  1.0
  Au  Au1  1  0.91321692  0.16868168  0.84573676  1.0
  Au  Au2  1  0.08678308  0.83131832  0.15426324  1.0
  Au  Au3  1  0.08678308  0.66868168  0.65426324  1.0
  S  S4  1  0.76337234  0.28348405  0.45621720  1.0
  S  S5  1  0.76337234  0.21651595  0.95621720  1.0
  S  S6  1  0.23662766  0.78348405  0.04378280  1.0
  S  S7  1  0.23662766  0.71651595  0.54378280  1.0
  Cl  Cl8  1  0.91233577  0.87893778  0.24609620  1.0
  Cl  Cl9  1  0.91233577  0.62106222  0.74609620  1.0
  Cl  Cl10  1  0.08766423  0.37893778  0.25390380  1.0
  Cl  Cl11  1  0.08766423  0.12106222  0.75390380  1.0
  Cl  Cl12  1  0.83814768  0.83249141  0.99232421  1.0
  Cl  Cl13  1  0.83814768  0.66750859  0.49232421  1.0
  Cl  Cl14  1  0.16185232  0.33249141  0.50767579  1.0
  Cl  Cl15  1  0.16185232  0.16750859  0.00767579  1.0
  Cl  Cl16  1  0.76285177  0.04451957  0.45744654  1.0
  Cl  Cl17  1  0.76285177  0.45548043  0.95744654  1.0
  Cl  Cl18  1  0.23714823  0.54451957  0.04255346  1.0
  Cl  Cl19  1  0.23714823  0.95548043  0.54255346  1.0
  Cl  Cl20  1  0.66123104  0.32158877  0.19110262  1.0
  Cl  Cl21  1  0.66123104  0.17841123  0.69110262  1.0
  Cl  Cl22  1  0.33876896  0.82158877  0.30889738  1.0
  Cl  Cl23  1  0.33876896  0.67841123  0.80889738  1.0
  Cl  Cl24  1  0.50085390  0.33571936  0.37997663  1.0
  Cl  Cl25  1  0.50085390  0.16428064  0.87997663  1.0
  Cl  Cl26  1  0.49914610  0.83571936  0.12002337  1.0
  Cl  Cl27  1  0.49914610  0.66428064  0.62002337  1.0
