# generated using pymatgen
data_SiP2O7
_symmetry_space_group_name_H-M   'P 1'
_cell_length_a   7.74870172
_cell_length_b   7.74870172
_cell_length_c   7.74870172
_cell_angle_alpha   90.00000000
_cell_angle_beta   90.00000000
_cell_angle_gamma   90.00000000
_symmetry_Int_Tables_number   1
_chemical_formula_structural   SiP2O7
_chemical_formula_sum   'Si4 P8 O28'
_cell_volume   465.25048078
_cell_formula_units_Z   4
loop_
 _symmetry_equiv_pos_site_id
 _symmetry_equiv_pos_as_xyz
  1  'x, y, z'
loop_
 _atom_site_type_symbol
 _atom_site_label
 _atom_site_symmetry_multiplicity
 _atom_site_fract_x
 _atom_site_fract_y
 _atom_site_fract_z
 _atom_site_occupancy
  Si  Si0  1  -0.00000000  0.50000000  -0.00000000  1.0
  Si  Si1  1  0.00000000  0.00000000  0.50000000  1.0
  Si  Si2  1  0.50000000  0.50000000  0.50000000  1.0
  Si  Si3  1  0.50000000  0.00000000  0.00000000  1.0
  P  P4  1  0.38075171  0.88075171  0.61924829  1.0
  P  P5  1  0.38075171  0.61924829  0.11924829  1.0
  P  P6  1  0.88075171  0.88075171  0.88075171  1.0
  P  P7  1  0.88075171  0.61924829  0.38075171  1.0
  P  P8  1  0.61924829  0.38075171  0.88075171  1.0
  P  P9  1  0.61924829  0.11924829  0.38075171  1.0
  P  P10  1  0.11924829  0.38075171  0.61924829  1.0
  P  P11  1  0.11924829  0.11924829  0.11924829  1.0
  O  O12  1  0.43894019  0.69440862  0.60236712  1.0
  O  O13  1  0.43894019  0.80559138  0.10236712  1.0
  O  O14  1  0.93894019  0.69440862  0.89763288  1.0
  O  O15  1  0.93894019  0.80559138  0.39763288  1.0
  O  O16  1  0.19440862  0.89763288  0.56105981  1.0
  O  O17  1  0.19440862  0.60236712  0.06105981  1.0
  O  O18  1  0.69440862  0.89763288  0.93894019  1.0
  O  O19  1  0.69440862  0.60236712  0.43894019  1.0
  O  O20  1  0.39763288  0.93894019  0.80559138  1.0
  O  O21  1  0.39763288  0.56105981  0.30559138  1.0
  O  O22  1  0.89763288  0.93894019  0.69440862  1.0
  O  O23  1  0.89763288  0.56105981  0.19440862  1.0
  O  O24  1  0.56105981  0.19440862  0.89763288  1.0
  O  O25  1  0.56105981  0.30559138  0.39763288  1.0
  O  O26  1  0.06105981  0.19440862  0.60236712  1.0
  O  O27  1  0.06105981  0.30559138  0.10236712  1.0
  O  O28  1  0.80559138  0.39763288  0.93894019  1.0
  O  O29  1  0.80559138  0.10236712  0.43894019  1.0
  O  O30  1  0.30559138  0.39763288  0.56105981  1.0
  O  O31  1  0.30559138  0.10236712  0.06105981  1.0
  O  O32  1  0.60236712  0.43894019  0.69440862  1.0
  O  O33  1  0.60236712  0.06105981  0.19440862  1.0
  O  O34  1  0.10236712  0.43894019  0.80559138  1.0
  O  O35  1  0.10236712  0.06105981  0.30559138  1.0
  O  O36  1  0.50000000  0.00000000  0.50000000  1.0
  O  O37  1  0.50000000  0.50000000  0.00000000  1.0
  O  O38  1  -0.00000000  0.00000000  -0.00000000  1.0
  O  O39  1  0.00000000  0.50000000  0.50000000  1.0
