# generated using pymatgen
data_BaLaMn2O5
_symmetry_space_group_name_H-M   'P 1'
_cell_length_a   5.65286034
_cell_length_b   5.65286034
_cell_length_c   7.80969594
_cell_angle_alpha   90.00000000
_cell_angle_beta   90.00000000
_cell_angle_gamma   90.00000000
_symmetry_Int_Tables_number   1
_chemical_formula_structural   BaLaMn2O5
_chemical_formula_sum   'Ba2 La2 Mn4 O10'
_cell_volume   249.55750674
_cell_formula_units_Z   2
loop_
 _symmetry_equiv_pos_site_id
 _symmetry_equiv_pos_as_xyz
  1  'x, y, z'
loop_
 _atom_site_type_symbol
 _atom_site_label
 _atom_site_symmetry_multiplicity
 _atom_site_fract_x
 _atom_site_fract_y
 _atom_site_fract_z
 _atom_site_occupancy
  Ba  Ba0  1  0.00000000  0.00000000  0.00000000  1.0
  Ba  Ba1  1  0.50000000  0.50000000  0.00000000  1.0
  Mn  Mn2  1  0.50000000  0.00000000  0.74110967  1.0
  Mn  Mn3  1  0.00000000  0.50000000  0.25889033  1.0
  Mn  Mn4  1  0.50000000  0.00000000  0.25886511  1.0
  Mn  Mn5  1  0.00000000  0.50000000  0.74113489  1.0
  O  O6  1  0.75000274  0.25000274  0.29751455  1.0
  O  O7  1  0.75000274  0.74999726  0.29751455  1.0
  O  O8  1  0.25000274  0.75000274  0.70248545  1.0
  O  O9  1  0.25000274  0.24999726  0.70248545  1.0
  O  O10  1  0.74999726  0.75000274  0.70248545  1.0
  O  O11  1  0.74999726  0.24999726  0.70248545  1.0
  O  O12  1  0.24999726  0.25000274  0.29751455  1.0
  O  O13  1  0.24999726  0.74999726  0.29751455  1.0
  O  O14  1  0.50000000  0.00000000  -0.00002572  1.0
  O  O15  1  0.00000000  0.50000000  1.00002572  1.0
  La  La16  1  0.00000000  0.00000000  0.50000000  1.0
  La  La17  1  0.50000000  0.50000000  0.50000000  1.0
