# generated using pymatgen
data_Rb3BiO3
_symmetry_space_group_name_H-M   'P 1'
_cell_length_a   8.97831674
_cell_length_b   8.97831674
_cell_length_c   8.97831674
_cell_angle_alpha   90.00000000
_cell_angle_beta   90.00000000
_cell_angle_gamma   90.00000000
_symmetry_Int_Tables_number   1
_chemical_formula_structural   Rb3BiO3
_chemical_formula_sum   'Rb12 Bi4 O12'
_cell_volume   723.74365207
_cell_formula_units_Z   4
loop_
 _symmetry_equiv_pos_site_id
 _symmetry_equiv_pos_as_xyz
  1  'x, y, z'
loop_
 _atom_site_type_symbol
 _atom_site_label
 _atom_site_symmetry_multiplicity
 _atom_site_fract_x
 _atom_site_fract_y
 _atom_site_fract_z
 _atom_site_occupancy
  Rb  Rb0  1  0.46696950  0.96696950  0.53303050  1.0
  Rb  Rb1  1  0.96696950  0.53303050  0.46696950  1.0
  Rb  Rb2  1  0.53303050  0.46696950  0.96696950  1.0
  Rb  Rb3  1  0.03303050  0.03303050  0.03303050  1.0
  Rb  Rb4  1  0.96196272  0.46196272  0.03803728  1.0
  Rb  Rb5  1  0.46196272  0.03803728  0.96196272  1.0
  Rb  Rb6  1  0.03803728  0.96196272  0.46196272  1.0
  Rb  Rb7  1  0.53803728  0.53803728  0.53803728  1.0
  Rb  Rb8  1  0.73110976  0.23110976  0.26889024  1.0
  Rb  Rb9  1  0.23110976  0.26889024  0.73110976  1.0
  Rb  Rb10  1  0.26889024  0.73110976  0.23110976  1.0
  Rb  Rb11  1  0.76889024  0.76889024  0.76889024  1.0
  Bi  Bi12  1  0.23766375  0.73766375  0.76233625  1.0
  Bi  Bi13  1  0.73766375  0.76233625  0.23766375  1.0
  Bi  Bi14  1  0.76233625  0.23766375  0.73766375  1.0
  Bi  Bi15  1  0.26233625  0.26233625  0.26233625  1.0
  O  O16  1  0.46523333  0.74670904  0.80778592  1.0
  O  O17  1  0.96523333  0.75329096  0.19221408  1.0
  O  O18  1  0.24670904  0.69221408  0.53476667  1.0
  O  O19  1  0.74670904  0.80778592  0.46523333  1.0
  O  O20  1  0.19221408  0.96523333  0.75329096  1.0
  O  O21  1  0.69221408  0.53476667  0.24670904  1.0
  O  O22  1  0.53476667  0.24670904  0.69221408  1.0
  O  O23  1  0.03476667  0.25329096  0.30778592  1.0
  O  O24  1  0.75329096  0.19221408  0.96523333  1.0
  O  O25  1  0.25329096  0.30778592  0.03476667  1.0
  O  O26  1  0.80778592  0.46523333  0.74670904  1.0
  O  O27  1  0.30778592  0.03476667  0.25329096  1.0
