# generated using pymatgen
data_Sc2AlB6
_symmetry_space_group_name_H-M   'P 1'
_cell_length_a   8.93566029
_cell_length_b   11.22323730
_cell_length_c   3.42565575
_cell_angle_alpha   90.00000000
_cell_angle_beta   90.00000000
_cell_angle_gamma   90.00000000
_symmetry_Int_Tables_number   1
_chemical_formula_structural   Sc2AlB6
_chemical_formula_sum   'Sc8 Al4 B24'
_cell_volume   343.54886120
_cell_formula_units_Z   4
loop_
 _symmetry_equiv_pos_site_id
 _symmetry_equiv_pos_as_xyz
  1  'x, y, z'
loop_
 _atom_site_type_symbol
 _atom_site_label
 _atom_site_symmetry_multiplicity
 _atom_site_fract_x
 _atom_site_fract_y
 _atom_site_fract_z
 _atom_site_occupancy
  Sc  Sc0  1  0.18053588  0.91307468  0.50000000  1.0
  Sc  Sc1  1  0.68053588  0.58692532  0.50000000  1.0
  Sc  Sc2  1  0.81946412  0.08692532  0.50000000  1.0
  Sc  Sc3  1  0.31946412  0.41307468  0.50000000  1.0
  Sc  Sc4  1  0.05634112  0.62828532  0.50000000  1.0
  Sc  Sc5  1  0.55634112  0.87171468  0.50000000  1.0
  Sc  Sc6  1  0.94365888  0.37171468  0.50000000  1.0
  Sc  Sc7  1  0.44365888  0.12828532  0.50000000  1.0
  Al  Al8  1  0.35924135  0.68002123  0.50000000  1.0
  Al  Al9  1  0.85924135  0.81997877  0.50000000  1.0
  Al  Al10  1  0.64075865  0.31997877  0.50000000  1.0
  Al  Al11  1  0.14075865  0.18002123  0.50000000  1.0
  B  B12  1  0.44877362  0.56340182  0.00000000  1.0
  B  B13  1  0.94877362  0.93659818  0.00000000  1.0
  B  B14  1  0.55122638  0.43659818  0.00000000  1.0
  B  B15  1  0.05122638  0.06340182  0.00000000  1.0
  B  B16  1  0.40006359  0.97243727  0.00000000  1.0
  B  B17  1  0.90006359  0.52756273  0.00000000  1.0
  B  B18  1  0.59993641  0.02756273  0.00000000  1.0
  B  B19  1  0.09993641  0.47243727  0.00000000  1.0
  B  B20  1  0.36934938  0.81941299  0.00000000  1.0
  B  B21  1  0.86934938  0.68058701  0.00000000  1.0
  B  B22  1  0.63065062  0.18058701  0.00000000  1.0
  B  B23  1  0.13065062  0.31941299  0.00000000  1.0
  B  B24  1  0.24668428  0.57804311  0.00000000  1.0
  B  B25  1  0.74668428  0.92195689  0.00000000  1.0
  B  B26  1  0.75331572  0.42195689  0.00000000  1.0
  B  B27  1  0.25331572  0.07804311  0.00000000  1.0
  B  B28  1  0.20235633  0.73817805  0.00000000  1.0
  B  B29  1  0.70235633  0.76182195  0.00000000  1.0
  B  B30  1  0.79764367  0.26182195  0.00000000  1.0
  B  B31  1  0.29764367  0.23817805  0.00000000  1.0
  B  B32  1  0.02202321  0.78829750  0.00000000  1.0
  B  B33  1  0.52202321  0.71170250  0.00000000  1.0
  B  B34  1  0.97797679  0.21170250  0.00000000  1.0
  B  B35  1  0.47797679  0.28829750  0.00000000  1.0
