# generated using pymatgen
data_ScGa2Ni
_symmetry_space_group_name_H-M   'P 1'
_cell_length_a   5.20596956
_cell_length_b   5.20596956
_cell_length_c   6.47310000
_cell_angle_alpha   90.00000000
_cell_angle_beta   90.00000000
_cell_angle_gamma   134.20569155
_symmetry_Int_Tables_number   1
_chemical_formula_structural   ScGa2Ni
_chemical_formula_sum   'Sc2 Ga4 Ni2'
_cell_volume   125.75886668
_cell_formula_units_Z   2
loop_
 _symmetry_equiv_pos_site_id
 _symmetry_equiv_pos_as_xyz
  1  'x, y, z'
loop_
 _atom_site_type_symbol
 _atom_site_label
 _atom_site_symmetry_multiplicity
 _atom_site_fract_x
 _atom_site_fract_y
 _atom_site_fract_z
 _atom_site_occupancy
  Sc  Sc0  1  0.42446401  0.57553599  0.75000000  1.0
  Sc  Sc1  1  -0.42446401  0.42446401  0.25000000  1.0
  Ga  Ga2  1  0.13696865  0.86303135  0.95032957  1.0
  Ga  Ga3  1  0.13696865  0.86303135  0.54967043  1.0
  Ga  Ga4  1  -0.13696865  0.13696865  0.45032957  1.0
  Ga  Ga5  1  -0.13696865  0.13696865  0.04967043  1.0
  Ni  Ni6  1  -0.29360115  0.29360115  0.75000000  1.0
  Ni  Ni7  1  0.29360115  0.70639885  0.25000000  1.0
