# generated using pymatgen
data_Gd(Al3Ni)3
_symmetry_space_group_name_H-M   'P 1'
_cell_length_a   10.10018326
_cell_length_b   10.10018326
_cell_length_c   10.10018326
_cell_angle_alpha   42.39415581
_cell_angle_beta   42.39415581
_cell_angle_gamma   42.39415581
_symmetry_Int_Tables_number   1
_chemical_formula_structural   Gd(Al3Ni)3
_chemical_formula_sum   'Gd2 Al18 Ni6'
_cell_volume   424.02028503
_cell_formula_units_Z   2
loop_
 _symmetry_equiv_pos_site_id
 _symmetry_equiv_pos_as_xyz
  1  'x, y, z'
loop_
 _atom_site_type_symbol
 _atom_site_label
 _atom_site_symmetry_multiplicity
 _atom_site_fract_x
 _atom_site_fract_y
 _atom_site_fract_z
 _atom_site_occupancy
  Gd  Gd0  1  0.83315157  0.83315157  0.83315157  1.0
  Gd  Gd1  1  1.16684843  1.16684843  0.16684843  1.0
  Al  Al2  1  1.56802746  0.23880695  0.89712052  1.0
  Al  Al3  1  1.10287948  0.76119305  0.43197254  1.0
  Al  Al4  1  1.76119305  0.43197254  0.10287948  1.0
  Al  Al5  1  1.43197254  0.10287948  0.76119305  1.0
  Al  Al6  1  1.89712052  0.56802746  0.23880695  1.0
  Al  Al7  1  1.23880695  0.89712052  0.56802746  1.0
  Al  Al8  1  1.29216333  0.50000000  0.70783667  1.0
  Al  Al9  1  1.50000000  0.70783667  0.29216333  1.0
  Al  Al10  1  1.70783667  0.29216333  0.50000000  1.0
  Al  Al11  1  0.66589504  -0.00000000  -0.66589504  1.0
  Al  Al12  1  -0.00000000  0.33410496  -0.33410496  1.0
  Al  Al13  1  0.33410496  -0.33410496  0.00000000  1.0
  Al  Al14  1  0.94843679  0.94843679  0.94843679  1.0
  Al  Al15  1  1.05156321  1.05156321  0.05156321  1.0
  Al  Al16  1  0.71783752  0.71783752  0.71783752  1.0
  Al  Al17  1  1.28216248  1.28216248  0.28216248  1.0
  Al  Al18  1  1.61364122  0.61364122  0.61364122  1.0
  Al  Al19  1  1.38635878  0.38635878  0.38635878  1.0
  Ni  Ni20  1  1.58194258  0.92154349  0.24233442  1.0
  Ni  Ni21  1  0.75766558  1.07845651  0.41805742  1.0
  Ni  Ni22  1  1.07845651  1.41805742  -0.24233442  1.0
  Ni  Ni23  1  1.41805742  0.75766558  0.07845651  1.0
  Ni  Ni24  1  1.24233442  1.58194258  -0.07845651  1.0
  Ni  Ni25  1  0.92154349  1.24233442  0.58194258  1.0
