# generated using pymatgen
data_GePtSe
_symmetry_space_group_name_H-M   'P 1'
_cell_length_a   6.09542712
_cell_length_b   6.14284583
_cell_length_c   6.07001835
_cell_angle_alpha   90.00000000
_cell_angle_beta   90.00000000
_cell_angle_gamma   90.00000000
_symmetry_Int_Tables_number   1
_chemical_formula_structural   GePtSe
_chemical_formula_sum   'Ge4 Pt4 Se4'
_cell_volume   227.28132994
_cell_formula_units_Z   4
loop_
 _symmetry_equiv_pos_site_id
 _symmetry_equiv_pos_as_xyz
  1  'x, y, z'
loop_
 _atom_site_type_symbol
 _atom_site_label
 _atom_site_symmetry_multiplicity
 _atom_site_fract_x
 _atom_site_fract_y
 _atom_site_fract_z
 _atom_site_occupancy
  Ge  Ge0  1  0.38094631  0.62486450  0.61850615  1.0
  Ge  Ge1  1  0.88094631  0.37513550  0.61850615  1.0
  Ge  Ge2  1  0.61905369  0.37513550  0.11850615  1.0
  Ge  Ge3  1  0.11905369  0.62486450  0.11850615  1.0
  Pt  Pt4  1  0.50835644  0.25885301  0.49633978  1.0
  Pt  Pt5  1  1.00835644  0.74114699  0.49633978  1.0
  Pt  Pt6  1  0.49164356  0.74114699  -0.00366022  1.0
  Pt  Pt7  1  -0.00835644  0.25885301  -0.00366022  1.0
  Se  Se8  1  0.38306869  0.13661760  0.88395407  1.0
  Se  Se9  1  0.88306869  0.86338240  0.88395407  1.0
  Se  Se10  1  0.61693131  0.86338240  0.38395407  1.0
  Se  Se11  1  0.11693131  0.13661760  0.38395407  1.0
