# generated using pymatgen
data_Cs2Ti(Si2O5)3
_symmetry_space_group_name_H-M   'P 1'
_cell_length_a   7.61653098
_cell_length_b   7.61653098
_cell_length_c   15.48090324
_cell_angle_alpha   76.33171004
_cell_angle_beta   103.66828996
_cell_angle_gamma   119.82411666
_symmetry_Int_Tables_number   1
_chemical_formula_structural   Cs2Ti(Si2O5)3
_chemical_formula_sum   'Cs4 Ti2 Si12 O30'
_cell_volume   749.50945669
_cell_formula_units_Z   2
loop_
 _symmetry_equiv_pos_site_id
 _symmetry_equiv_pos_as_xyz
  1  'x, y, z'
loop_
 _atom_site_type_symbol
 _atom_site_label
 _atom_site_symmetry_multiplicity
 _atom_site_fract_x
 _atom_site_fract_y
 _atom_site_fract_z
 _atom_site_occupancy
  Cs  Cs0  1  1.10124681  0.64668149  0.45925411  1.0
  Cs  Cs1  1  0.35331851  -0.10124681  0.95925411  1.0
  Cs  Cs2  1  0.84151186  -0.56563820  0.13411055  1.0
  Cs  Cs3  1  1.56563820  0.15848814  0.63411055  1.0
  Ti  Ti4  1  1.20597800  0.31175888  0.04081546  1.0
  Ti  Ti5  1  0.68824112  -0.20597800  0.54081546  1.0
  Si  Si6  1  0.92101966  -0.05131138  0.19264811  1.0
  Si  Si7  1  1.05131138  0.07898034  0.69264811  1.0
  Si  Si8  1  0.90309460  0.03120542  0.87967576  1.0
  Si  Si9  1  0.96879458  0.09690540  0.37967576  1.0
  Si  Si10  1  0.45714208  -0.34455919  0.19669552  1.0
  Si  Si11  1  1.34455919  0.54285792  0.69669552  1.0
  Si  Si12  1  1.61762300  0.15118359  0.38783010  1.0
  Si  Si13  1  0.84881641  -0.61762300  0.88783010  1.0
  Si  Si14  1  1.33323577  -0.00154872  0.20059350  1.0
  Si  Si15  1  1.00154872  -0.33323577  0.70059350  1.0
  Si  Si16  1  1.43914990  0.42798613  0.40080614  1.0
  Si  Si17  1  0.57201387  -0.43914990  0.90080614  1.0
  O  O18  1  0.09110936  -0.13987115  0.21842981  1.0
  O  O19  1  1.13987115  0.90889064  0.71842981  1.0
  O  O20  1  0.87093565  -0.10805140  0.44917673  1.0
  O  O21  1  1.10805140  0.12906435  -0.05082327  1.0
  O  O22  1  0.93445256  0.05158597  0.27712859  1.0
  O  O23  1  0.94841403  0.06554744  0.77712859  1.0
  O  O24  1  0.69663830  -0.25694765  0.18264385  1.0
  O  O25  1  1.25694765  0.30336170  0.68264385  1.0
  O  O26  1  0.49712132  -0.43836338  0.47878044  1.0
  O  O27  1  1.43836338  0.50287868  0.97878044  1.0
  O  O28  1  1.42685574  0.55413332  0.30070427  1.0
  O  O29  1  0.44586668  -0.42685574  0.80070427  1.0
  O  O30  1  1.29909821  0.50237849  0.12667278  1.0
  O  O31  1  0.49762151  -0.29909821  0.62667278  1.0
  O  O32  1  1.75754399  0.14243284  0.87131664  1.0
  O  O33  1  0.85756716  -0.75754399  0.37131664  1.0
  O  O34  1  1.55579076  -0.03673493  0.46813371  1.0
  O  O35  1  1.03673493  -0.55579076  0.96813371  1.0
  O  O36  1  0.41135663  -0.14797723  0.17777127  1.0
  O  O37  1  1.14797723  0.58864337  0.67777127  1.0
  O  O38  1  1.46883052  0.09274277  0.29264038  1.0
  O  O39  1  0.90725723  -0.46883052  0.79264038  1.0
  O  O40  1  1.65448494  0.39124163  0.91251736  1.0
  O  O41  1  0.60875837  -0.65448494  0.41251736  1.0
  O  O42  1  1.35961725  0.17479746  0.11584639  1.0
  O  O43  1  0.82520254  -0.35961725  0.61584639  1.0
  O  O44  1  1.21468034  0.22675666  0.41133360  1.0
  O  O45  1  0.77324334  -0.21468034  0.91133360  1.0
  O  O46  1  0.96323869  0.11407452  0.10357492  1.0
  O  O47  1  0.88592548  0.03676131  0.60357492  1.0
