# generated using pymatgen
data_Ba3Si6N4O9
_symmetry_space_group_name_H-M   'P 1'
_cell_length_a   7.31766210
_cell_length_b   7.31766210
_cell_length_c   6.87177224
_cell_angle_alpha   90.00000000
_cell_angle_beta   90.00000000
_cell_angle_gamma   120.00000000
_symmetry_Int_Tables_number   1
_chemical_formula_structural   Ba3Si6N4O9
_chemical_formula_sum   'Ba3 Si6 N4 O9'
_cell_volume   318.67213601
_cell_formula_units_Z   1
loop_
 _symmetry_equiv_pos_site_id
 _symmetry_equiv_pos_as_xyz
  1  'x, y, z'
loop_
 _atom_site_type_symbol
 _atom_site_label
 _atom_site_symmetry_multiplicity
 _atom_site_fract_x
 _atom_site_fract_y
 _atom_site_fract_z
 _atom_site_occupancy
  Ba  Ba0  1  0.00000000  0.00000000  0.58988500  1.0
  Ba  Ba1  1  0.66666667  0.33333333  0.65251119  1.0
  Ba  Ba2  1  0.33333333  0.66666667  0.46870973  1.0
  Si  Si3  1  0.70939658  0.59212237  0.16207835  1.0
  Si  Si4  1  0.88272579  0.29060342  0.16207835  1.0
  Si  Si5  1  0.40787763  0.11727421  0.16207835  1.0
  Si  Si6  1  0.29330158  0.41310473  0.95042476  1.0
  Si  Si7  1  0.11980315  0.70669842  0.95042476  1.0
  Si  Si8  1  0.58689527  0.88019685  0.95042476  1.0
  N  N9  1  0.46388707  0.37174726  0.09787473  1.0
  N  N10  1  0.90786019  0.53611293  0.09787473  1.0
  N  N11  1  0.62825274  0.09213981  0.09787473  1.0
  N  N12  1  0.33333333  0.66666667  -0.00092374  1.0
  O  O13  1  0.70865053  0.64989544  0.38846929  1.0
  O  O14  1  0.94124491  0.29134947  0.38846929  1.0
  O  O15  1  0.35010456  0.05875509  0.38846929  1.0
  O  O16  1  0.32291278  0.37591190  0.72331226  1.0
  O  O17  1  0.05299912  0.67708722  0.72331226  1.0
  O  O18  1  0.62408810  0.94700088  0.72331226  1.0
  O  O19  1  0.04150970  0.25638675  0.01121323  1.0
  O  O20  1  0.21487705  0.95849030  0.01121323  1.0
  O  O21  1  0.74361325  0.78512295  0.01121323  1.0
