# generated using pymatgen
data_La3(Al2Si3)2
_symmetry_space_group_name_H-M   'P 1'
_cell_length_a   4.21270562
_cell_length_b   4.21270562
_cell_length_c   18.42403904
_cell_angle_alpha   90.00000000
_cell_angle_beta   90.00000000
_cell_angle_gamma   120.00000000
_symmetry_Int_Tables_number   1
_chemical_formula_structural   La3(Al2Si3)2
_chemical_formula_sum   'La3 Al4 Si6'
_cell_volume   283.16377949
_cell_formula_units_Z   1
loop_
 _symmetry_equiv_pos_site_id
 _symmetry_equiv_pos_as_xyz
  1  'x, y, z'
loop_
 _atom_site_type_symbol
 _atom_site_label
 _atom_site_symmetry_multiplicity
 _atom_site_fract_x
 _atom_site_fract_y
 _atom_site_fract_z
 _atom_site_occupancy
  La  La0  1  0.00000000  0.00000000  0.11322470  1.0
  La  La1  1  0.00000000  0.00000000  0.88677530  1.0
  La  La2  1  0.00000000  0.00000000  0.50000000  1.0
  Al  Al3  1  0.33333333  0.66666667  0.35998158  1.0
  Al  Al4  1  0.66666667  0.33333333  0.64001842  1.0
  Al  Al5  1  0.33333333  0.66666667  0.74293185  1.0
  Al  Al6  1  0.66666667  0.33333333  0.25706815  1.0
  Si  Si7  1  0.33333333  0.66666667  -0.00305455  1.0
  Si  Si8  1  0.66666667  0.33333333  0.00305455  1.0
  Si  Si9  1  0.33333333  0.66666667  0.22135317  1.0
  Si  Si10  1  0.66666667  0.33333333  0.77864683  1.0
  Si  Si11  1  0.33333333  0.66666667  0.60405363  1.0
  Si  Si12  1  0.66666667  0.33333333  0.39594637  1.0
