# generated using pymatgen
data_CaSnPt
_symmetry_space_group_name_H-M   'P 1'
_cell_length_a   7.38073656
_cell_length_b   4.63294809
_cell_length_c   8.02070099
_cell_angle_alpha   90.00000000
_cell_angle_beta   90.00000000
_cell_angle_gamma   90.00000000
_symmetry_Int_Tables_number   1
_chemical_formula_structural   CaSnPt
_chemical_formula_sum   'Ca4 Sn4 Pt4'
_cell_volume   274.26441634
_cell_formula_units_Z   4
loop_
 _symmetry_equiv_pos_site_id
 _symmetry_equiv_pos_as_xyz
  1  'x, y, z'
loop_
 _atom_site_type_symbol
 _atom_site_label
 _atom_site_symmetry_multiplicity
 _atom_site_fract_x
 _atom_site_fract_y
 _atom_site_fract_z
 _atom_site_occupancy
  Ca  Ca0  1  1.01861580  0.75000000  0.68754512  1.0
  Ca  Ca1  1  0.51861580  0.75000000  0.81245488  1.0
  Ca  Ca2  1  -0.01861580  0.25000000  0.31245488  1.0
  Ca  Ca3  1  0.48138420  0.25000000  0.18754512  1.0
  Sn  Sn4  1  0.66882934  0.75000000  0.42496932  1.0
  Sn  Sn5  1  0.16882934  0.75000000  0.07503068  1.0
  Sn  Sn6  1  0.33117066  0.25000000  0.57503068  1.0
  Sn  Sn7  1  0.83117066  0.25000000  0.92496932  1.0
  Pt  Pt8  1  0.78896190  0.75000000  0.10413857  1.0
  Pt  Pt9  1  0.28896190  0.75000000  0.39586143  1.0
  Pt  Pt10  1  0.21103810  0.25000000  0.89586143  1.0
  Pt  Pt11  1  0.71103810  0.25000000  0.60413857  1.0
