# generated using pymatgen
data_V3GeN
_symmetry_space_group_name_H-M   'P 1'
_cell_length_a   5.29312655
_cell_length_b   5.29312655
_cell_length_c   7.76632087
_cell_angle_alpha   90.00000000
_cell_angle_beta   90.00000000
_cell_angle_gamma   146.76241000
_symmetry_Int_Tables_number   1
_chemical_formula_structural   V3GeN
_chemical_formula_sum   'V6 Ge2 N2'
_cell_volume   119.26396924
_cell_formula_units_Z   2
loop_
 _symmetry_equiv_pos_site_id
 _symmetry_equiv_pos_as_xyz
  1  'x, y, z'
loop_
 _atom_site_type_symbol
 _atom_site_label
 _atom_site_symmetry_multiplicity
 _atom_site_fract_x
 _atom_site_fract_y
 _atom_site_fract_z
 _atom_site_occupancy
  V  V0  1  0.37423412  0.62576588  0.95480163  1.0
  V  V1  1  0.37423412  0.62576588  0.54519837  1.0
  V  V2  1  -0.37423412  0.37423412  0.45480163  1.0
  V  V3  1  -0.37423412  0.37423412  0.04519837  1.0
  V  V4  1  0.03413453  0.96586547  0.75000000  1.0
  V  V5  1  -0.03413453  0.03413453  0.25000000  1.0
  Ge  Ge6  1  -0.25818984  0.25818984  0.75000000  1.0
  Ge  Ge7  1  0.25818984  0.74181016  0.25000000  1.0
  N  N8  1  0.00000000  0.00000000  0.00000000  1.0
  N  N9  1  0.00000000  0.00000000  0.50000000  1.0
