# generated using pymatgen
data_BiPtSe
_symmetry_space_group_name_H-M   'P 1'
_cell_length_a   6.54134906
_cell_length_b   6.54134906
_cell_length_c   6.54134906
_cell_angle_alpha   90.00000000
_cell_angle_beta   90.00000000
_cell_angle_gamma   90.00000000
_symmetry_Int_Tables_number   1
_chemical_formula_structural   BiPtSe
_chemical_formula_sum   'Bi4 Pt4 Se4'
_cell_volume   279.89940461
_cell_formula_units_Z   4
loop_
 _symmetry_equiv_pos_site_id
 _symmetry_equiv_pos_as_xyz
  1  'x, y, z'
loop_
 _atom_site_type_symbol
 _atom_site_label
 _atom_site_symmetry_multiplicity
 _atom_site_fract_x
 _atom_site_fract_y
 _atom_site_fract_z
 _atom_site_occupancy
  Bi  Bi0  1  0.12945592  0.62945592  0.87054408  1.0
  Bi  Bi1  1  0.62945592  0.87054408  0.12945592  1.0
  Bi  Bi2  1  0.87054408  0.12945592  0.62945592  1.0
  Bi  Bi3  1  0.37054408  0.37054408  0.37054408  1.0
  Pt  Pt4  1  0.48736151  0.98736151  0.51263849  1.0
  Pt  Pt5  1  0.98736151  0.51263849  0.48736151  1.0
  Pt  Pt6  1  0.51263849  0.48736151  0.98736151  1.0
  Pt  Pt7  1  0.01263849  0.01263849  0.01263849  1.0
  Se  Se8  1  0.87983599  0.37983599  0.12016401  1.0
  Se  Se9  1  0.37983599  0.12016401  0.87983599  1.0
  Se  Se10  1  0.12016401  0.87983599  0.37983599  1.0
  Se  Se11  1  0.62016401  0.62016401  0.62016401  1.0
