# generated using pymatgen
data_ZnSO4
_symmetry_space_group_name_H-M   'P 1'
_cell_length_a   8.71226484
_cell_length_b   6.83150872
_cell_length_c   4.84149154
_cell_angle_alpha   90.00000000
_cell_angle_beta   90.00000000
_cell_angle_gamma   90.00000000
_symmetry_Int_Tables_number   1
_chemical_formula_structural   ZnSO4
_chemical_formula_sum   'Zn4 S4 O16'
_cell_volume   288.15547354
_cell_formula_units_Z   4
loop_
 _symmetry_equiv_pos_site_id
 _symmetry_equiv_pos_as_xyz
  1  'x, y, z'
loop_
 _atom_site_type_symbol
 _atom_site_label
 _atom_site_symmetry_multiplicity
 _atom_site_fract_x
 _atom_site_fract_y
 _atom_site_fract_z
 _atom_site_occupancy
  Zn  Zn0  1  0.00000000  0.50000000  0.00000000  1.0
  Zn  Zn1  1  0.00000000  0.00000000  0.00000000  1.0
  Zn  Zn2  1  0.50000000  0.50000000  0.50000000  1.0
  Zn  Zn3  1  0.50000000  0.00000000  0.50000000  1.0
  S  S4  1  0.67774100  0.25000000  0.03307925  1.0
  S  S5  1  0.17774100  0.25000000  0.46692075  1.0
  S  S6  1  0.32225900  0.75000000  0.96692075  1.0
  S  S7  1  0.82225900  0.75000000  0.53307925  1.0
  O  O8  1  0.85225323  0.25000000  0.04820900  1.0
  O  O9  1  0.35225323  0.25000000  0.45179100  1.0
  O  O10  1  0.14774677  0.75000000  0.95179100  1.0
  O  O11  1  0.64774677  0.75000000  0.54820900  1.0
  O  O12  1  0.62479788  0.43185011  0.17067628  1.0
  O  O13  1  0.62479788  0.06814989  0.17067628  1.0
  O  O14  1  0.12479788  0.43185011  0.32932372  1.0
  O  O15  1  0.12479788  0.06814989  0.32932372  1.0
  O  O16  1  0.37520212  0.93185011  0.82932372  1.0
  O  O17  1  0.37520212  0.56814989  0.82932372  1.0
  O  O18  1  0.87520212  0.93185011  0.67067628  1.0
  O  O19  1  0.87520212  0.56814989  0.67067628  1.0
  O  O20  1  0.62434358  0.25000000  0.73917612  1.0
  O  O21  1  0.12434358  0.25000000  0.76082388  1.0
  O  O22  1  0.37565642  0.75000000  0.26082388  1.0
  O  O23  1  0.87565642  0.75000000  0.23917612  1.0
