# generated using pymatgen
data_KV(SO4)2
_symmetry_space_group_name_H-M   'P 1'
_cell_length_a   8.69119033
_cell_length_b   8.69119033
_cell_length_c   8.69119033
_cell_angle_alpha   32.47218096
_cell_angle_beta   32.47218096
_cell_angle_gamma   32.47218095
_symmetry_Int_Tables_number   1
_chemical_formula_structural   KV(SO4)2
_chemical_formula_sum   'K1 V1 S2 O8'
_cell_volume   168.26272828
_cell_formula_units_Z   1
loop_
 _symmetry_equiv_pos_site_id
 _symmetry_equiv_pos_as_xyz
  1  'x, y, z'
loop_
 _atom_site_type_symbol
 _atom_site_label
 _atom_site_symmetry_multiplicity
 _atom_site_fract_x
 _atom_site_fract_y
 _atom_site_fract_z
 _atom_site_occupancy
  K  K0  1  0.50000000  0.50000000  -0.50000000  1.0
  V  V1  1  0.00000000  -0.00000000  -0.00000000  1.0
  S  S2  1  0.26424508  0.26424508  0.26424508  1.0
  S  S3  1  0.73575492  -0.26424508  -0.26424508  1.0
  O  O4  1  0.20478453  0.20478453  0.20478453  1.0
  O  O5  1  0.79521547  -0.20478453  -0.20478453  1.0
  O  O6  1  0.40769976  -0.01222533  -0.24985048  1.0
  O  O7  1  1.24985048  -0.40769976  0.01222533  1.0
  O  O8  1  1.01222533  0.24985048  -0.40769976  1.0
  O  O9  1  0.59230024  0.01222533  0.24985048  1.0
  O  O10  1  0.75014952  -0.59230024  -0.01222533  1.0
  O  O11  1  0.98777467  -0.24985048  -0.59230024  1.0
