# generated using pymatgen
data_Hf7P4
_symmetry_space_group_name_H-M   'P 1'
_cell_length_a   8.07389795
_cell_length_b   8.07389795
_cell_length_c   14.70629929
_cell_angle_alpha   75.86004091
_cell_angle_beta   104.13995909
_cell_angle_gamma   154.74987214
_symmetry_Int_Tables_number   1
_chemical_formula_structural   Hf7P4
_chemical_formula_sum   'Hf14 P8'
_cell_volume   395.91934071
_cell_formula_units_Z   2
loop_
 _symmetry_equiv_pos_site_id
 _symmetry_equiv_pos_as_xyz
  1  'x, y, z'
loop_
 _atom_site_type_symbol
 _atom_site_label
 _atom_site_symmetry_multiplicity
 _atom_site_fract_x
 _atom_site_fract_y
 _atom_site_fract_z
 _atom_site_occupancy
  Hf  Hf0  1  0.99639362  0.00360638  0.83063642  1.0
  Hf  Hf1  1  0.00360638  -0.00360638  0.16936358  1.0
  Hf  Hf2  1  0.82377759  0.17622241  0.95907891  1.0
  Hf  Hf3  1  0.17622241  -0.17622241  0.04092109  1.0
  Hf  Hf4  1  0.79480152  0.20519848  0.70244319  1.0
  Hf  Hf5  1  0.20519848  -0.20519848  0.29755681  1.0
  Hf  Hf6  1  0.66090910  0.33909090  0.47115993  1.0
  Hf  Hf7  1  0.33909090  -0.33909090  0.52884007  1.0
  Hf  Hf8  1  0.56938701  0.43061299  0.66897365  1.0
  Hf  Hf9  1  0.43061299  -0.43061299  0.33102635  1.0
  Hf  Hf10  1  0.19689765  -0.19689765  0.81167672  1.0
  Hf  Hf11  1  0.80310235  0.19689765  0.18832328  1.0
  Hf  Hf12  1  -0.00000000  0.00000000  0.50000000  1.0
  Hf  Hf13  1  0.50000000  0.50000000  0.00000000  1.0
  P  P14  1  0.93699368  0.06300632  0.64739959  1.0
  P  P15  1  0.06300632  -0.06300632  0.35260041  1.0
  P  P16  1  0.82330144  0.17669856  0.38833193  1.0
  P  P17  1  0.17669856  -0.17669856  0.61166807  1.0
  P  P18  1  0.62433084  0.37566916  0.89962873  1.0
  P  P19  1  0.37566916  -0.37566916  0.10037127  1.0
  P  P20  1  0.37037560  -0.37037560  0.83900099  1.0
  P  P21  1  0.62962440  0.37037560  0.16099901  1.0
