# generated using pymatgen
data_CN3Cl
_symmetry_space_group_name_H-M   'P 1'
_cell_length_a   4.28921703
_cell_length_b   9.87998888
_cell_length_c   9.54104226
_cell_angle_alpha   90.00000000
_cell_angle_beta   89.90503470
_cell_angle_gamma   90.00000000
_symmetry_Int_Tables_number   1
_chemical_formula_structural   CN3Cl
_chemical_formula_sum   'C4 N12 Cl4'
_cell_volume   404.32416699
_cell_formula_units_Z   4
loop_
 _symmetry_equiv_pos_site_id
 _symmetry_equiv_pos_as_xyz
  1  'x, y, z'
loop_
 _atom_site_type_symbol
 _atom_site_label
 _atom_site_symmetry_multiplicity
 _atom_site_fract_x
 _atom_site_fract_y
 _atom_site_fract_z
 _atom_site_occupancy
  C  C0  1  0.91951897  0.34704280  0.39947471  1.0
  C  C1  1  0.91951897  0.15295720  0.89947471  1.0
  C  C2  1  0.08048103  0.84704280  0.10052529  1.0
  C  C3  1  0.08048103  0.65295720  0.60052529  1.0
  Cl  Cl4  1  0.77338924  0.09767837  0.36146499  1.0
  Cl  Cl5  1  0.77338924  0.40232163  0.86146499  1.0
  Cl  Cl6  1  0.22661076  0.59767837  0.13853501  1.0
  Cl  Cl7  1  0.22661076  0.90232163  0.63853501  1.0
  N  N8  1  0.88544219  0.03729902  -0.00471993  1.0
  N  N9  1  0.88544219  0.46270098  0.49528007  1.0
  N  N10  1  0.11455781  0.53729902  0.50471993  1.0
  N  N11  1  0.11455781  0.96270098  1.00471993  1.0
  N  N12  1  1.07241437  0.35730193  0.28456663  1.0
  N  N13  1  1.07241437  0.14269807  0.78456663  1.0
  N  N14  1  -0.07241437  0.85730193  0.21543337  1.0
  N  N15  1  -0.07241437  0.64269807  0.71543337  1.0
  N  N16  1  0.73889785  0.24369307  0.45003357  1.0
  N  N17  1  0.73889785  0.25630693  0.95003357  1.0
  N  N18  1  0.26110215  0.74369307  0.04996643  1.0
  N  N19  1  0.26110215  0.75630693  0.54996643  1.0
