# generated using pymatgen
data_Co(PO3)2
_symmetry_space_group_name_H-M   'P 1'
_cell_length_a   7.30603563
_cell_length_b   7.30603563
_cell_length_c   9.99798692
_cell_angle_alpha   67.25404171
_cell_angle_beta   112.74595829
_cell_angle_gamma   110.34843938
_symmetry_Int_Tables_number   1
_chemical_formula_structural   Co(PO3)2
_chemical_formula_sum   'Co4 P8 O24'
_cell_volume   441.39145981
_cell_formula_units_Z   4
loop_
 _symmetry_equiv_pos_site_id
 _symmetry_equiv_pos_as_xyz
  1  'x, y, z'
loop_
 _atom_site_type_symbol
 _atom_site_label
 _atom_site_symmetry_multiplicity
 _atom_site_fract_x
 _atom_site_fract_y
 _atom_site_fract_z
 _atom_site_occupancy
  Co  Co0  1  1.50000000  0.00000000  0.00000000  1.0
  Co  Co1  1  1.00000000  0.50000000  0.50000000  1.0
  Co  Co2  1  1.44757861  0.44757861  0.75000000  1.0
  Co  Co3  1  0.55242139  0.55242139  0.25000000  1.0
  P  P4  1  1.75133952  -0.23100200  0.52262239  1.0
  P  P5  1  1.23100200  -0.75133952  0.02262239  1.0
  P  P6  1  0.76899800  -0.24866048  0.97737761  1.0
  P  P7  1  1.24866048  0.23100200  0.47737761  1.0
  P  P8  1  0.81386608  0.20174445  0.80389844  1.0
  P  P9  1  0.79825555  0.18613392  0.30389844  1.0
  P  P10  1  0.20174445  -0.18613392  0.69610156  1.0
  P  P11  1  1.18613392  0.79825555  0.19610156  1.0
  O  O12  1  0.58408856  -0.34727861  0.59414772  1.0
  O  O13  1  1.34727861  -0.58408856  0.09414772  1.0
  O  O14  1  0.65272139  -0.41591144  0.90585228  1.0
  O  O15  1  0.41591144  0.34727861  0.40585228  1.0
  O  O16  1  0.81294019  -0.03603557  0.84731369  1.0
  O  O17  1  1.03603557  0.18705981  0.34731369  1.0
  O  O18  1  0.96396443  0.81294019  0.65268631  1.0
  O  O19  1  0.18705981  0.03603557  0.15268631  1.0
  O  O20  1  0.71434182  -0.00413905  0.43383535  1.0
  O  O21  1  1.00413905  0.28565818  0.93383535  1.0
  O  O22  1  0.99586095  0.71434182  0.06616465  1.0
  O  O23  1  0.28565818  0.00413905  0.56616465  1.0
  O  O24  1  0.30420123  -0.15220588  0.84845424  1.0
  O  O25  1  1.15220588  0.69579877  0.34845424  1.0
  O  O26  1  0.84779412  0.30420123  0.65154576  1.0
  O  O27  1  0.69579877  0.15220588  0.15154576  1.0
  O  O28  1  1.31446823  0.21417403  0.91728102  1.0
  O  O29  1  0.78582597  0.68553177  0.41728102  1.0
  O  O30  1  1.21417403  0.31446823  0.58271898  1.0
  O  O31  1  1.68553177  -0.21417403  0.08271898  1.0
  O  O32  1  1.62392003  0.21514580  0.82501763  1.0
  O  O33  1  0.78485420  0.37607997  0.32501763  1.0
  O  O34  1  1.21514580  0.62392003  0.67498237  1.0
  O  O35  1  1.37607997  -0.21514580  0.17498237  1.0
