# generated using pymatgen
data_Nb2Tl4S11
_symmetry_space_group_name_H-M   'P 1'
_cell_length_a   8.17669434
_cell_length_b   13.48163865
_cell_length_c   9.18270696
_cell_angle_alpha   107.80357363
_cell_angle_beta   94.99966968
_cell_angle_gamma   89.17522734
_symmetry_Int_Tables_number   1
_chemical_formula_structural   Nb2Tl4S11
_chemical_formula_sum   'Nb4 Tl8 S22'
_cell_volume   960.03408886
_cell_formula_units_Z   2
loop_
 _symmetry_equiv_pos_site_id
 _symmetry_equiv_pos_as_xyz
  1  'x, y, z'
loop_
 _atom_site_type_symbol
 _atom_site_label
 _atom_site_symmetry_multiplicity
 _atom_site_fract_x
 _atom_site_fract_y
 _atom_site_fract_z
 _atom_site_occupancy
  Nb  Nb0  1  0.83261253  0.69026967  -0.61117160  1.0
  Nb  Nb1  1  0.16738747  0.30973033  -0.38882840  1.0
  Nb  Nb2  1  0.62526589  0.80763781  -0.85880032  1.0
  Nb  Nb3  1  0.37473411  0.19236219  -0.14119968  1.0
  Tl  Tl4  1  -0.00182552  0.39027791  -0.76338885  1.0
  Tl  Tl5  1  1.00182552  0.60972209  -0.23661115  1.0
  Tl  Tl6  1  0.73094444  0.08480863  -0.92253229  1.0
  Tl  Tl7  1  0.26905556  0.91519137  -0.07746771  1.0
  Tl  Tl8  1  0.45203349  0.52439499  -0.74054566  1.0
  Tl  Tl9  1  0.54796651  0.47560501  -0.25945434  1.0
  Tl  Tl10  1  0.28661992  0.92359550  -0.53356912  1.0
  Tl  Tl11  1  0.71338008  0.07640450  -0.46643088  1.0
  S  S12  1  0.98258749  0.38040799  -0.18703104  1.0
  S  S13  1  0.01741251  0.61959201  -0.81296896  1.0
  S  S14  1  0.89078975  0.85503796  -0.92216125  1.0
  S  S15  1  0.10921025  0.14496204  -0.07783875  1.0
  S  S16  1  0.88553852  0.87244128  -0.68863636  1.0
  S  S17  1  0.11446148  0.12755872  -0.31136364  1.0
  S  S18  1  0.92089547  0.24373402  -0.57187787  1.0
  S  S19  1  0.07910453  0.75626598  -0.42812213  1.0
  S  S20  1  0.85852684  0.83293834  -0.37089481  1.0
  S  S21  1  0.14147316  0.16706166  -0.62910519  1.0
  S  S22  1  0.77152850  0.61446840  -0.89506264  1.0
  S  S23  1  0.22847150  0.38553160  -0.10493736  1.0
  S  S24  1  0.77194685  0.54488913  -0.54252097  1.0
  S  S25  1  0.22805315  0.45511087  -0.45747903  1.0
  S  S26  1  0.54436189  0.75238776  -0.63601528  1.0
  S  S27  1  0.45563811  0.24761224  -0.36398472  1.0
  S  S28  1  0.49440671  0.96651487  -0.78716792  1.0
  S  S29  1  0.50559329  0.03348513  -0.21283208  1.0
  S  S30  1  0.45012349  0.25075217  -0.86274800  1.0
  S  S31  1  0.54987651  0.74924783  -0.13725200  1.0
  S  S32  1  0.40273235  0.68841610  -0.00831225  1.0
  S  S33  1  0.59726765  0.31158390  -0.99168775  1.0
