# generated using pymatgen
data_LiSn5Rh3
_symmetry_space_group_name_H-M   'P 1'
_cell_length_a   5.46099384
_cell_length_b   9.89500312
_cell_length_c   12.95272107
_cell_angle_alpha   90.00000000
_cell_angle_beta   90.00000000
_cell_angle_gamma   90.00000000
_symmetry_Int_Tables_number   1
_chemical_formula_structural   LiSn5Rh3
_chemical_formula_sum   'Li4 Sn20 Rh12'
_cell_volume   699.92037373
_cell_formula_units_Z   4
loop_
 _symmetry_equiv_pos_site_id
 _symmetry_equiv_pos_as_xyz
  1  'x, y, z'
loop_
 _atom_site_type_symbol
 _atom_site_label
 _atom_site_symmetry_multiplicity
 _atom_site_fract_x
 _atom_site_fract_y
 _atom_site_fract_z
 _atom_site_occupancy
  Li  Li0  1  0.90691311  0.39085899  0.75000000  1.0
  Li  Li1  1  0.90691311  0.10914101  0.25000000  1.0
  Li  Li2  1  0.09308689  0.89085899  0.75000000  1.0
  Li  Li3  1  0.09308689  0.60914101  0.25000000  1.0
  Sn  Sn4  1  0.87423197  0.67375767  0.88735734  1.0
  Sn  Sn5  1  0.87423197  0.67375767  0.61264266  1.0
  Sn  Sn6  1  0.87423197  0.82624233  0.38735734  1.0
  Sn  Sn7  1  0.87423197  0.82624233  0.11264266  1.0
  Sn  Sn8  1  0.12576803  0.17375767  0.88735734  1.0
  Sn  Sn9  1  0.12576803  0.17375767  0.61264266  1.0
  Sn  Sn10  1  0.12576803  0.32624233  0.38735734  1.0
  Sn  Sn11  1  0.12576803  0.32624233  0.11264266  1.0
  Sn  Sn12  1  0.36616057  0.87323688  0.93672487  1.0
  Sn  Sn13  1  0.36616057  0.87323688  0.56327513  1.0
  Sn  Sn14  1  0.36616057  0.62676312  0.43672487  1.0
  Sn  Sn15  1  0.36616057  0.62676312  0.06327513  1.0
  Sn  Sn16  1  0.63383943  0.37323688  0.93672487  1.0
  Sn  Sn17  1  0.63383943  0.37323688  0.56327513  1.0
  Sn  Sn18  1  0.63383943  0.12676312  0.43672487  1.0
  Sn  Sn19  1  0.63383943  0.12676312  0.06327513  1.0
  Sn  Sn20  1  0.34332589  0.57529205  0.75000000  1.0
  Sn  Sn21  1  0.34332589  0.92470795  0.25000000  1.0
  Sn  Sn22  1  0.65667411  0.07529205  0.75000000  1.0
  Sn  Sn23  1  0.65667411  0.42470795  0.25000000  1.0
  Rh  Rh24  1  0.85236154  0.94794041  0.92192990  1.0
  Rh  Rh25  1  0.85236154  0.94794041  0.57807010  1.0
  Rh  Rh26  1  0.85236154  0.55205959  0.42192990  1.0
  Rh  Rh27  1  0.85236154  0.55205959  0.07807010  1.0
  Rh  Rh28  1  0.14763846  0.44794041  0.92192990  1.0
  Rh  Rh29  1  0.14763846  0.44794041  0.57807010  1.0
  Rh  Rh30  1  0.14763846  0.05205959  0.42192990  1.0
  Rh  Rh31  1  0.14763846  0.05205959  0.07807010  1.0
  Rh  Rh32  1  0.59575943  0.80501080  0.75000000  1.0
  Rh  Rh33  1  0.59575943  0.69498920  0.25000000  1.0
  Rh  Rh34  1  0.40424057  0.30501080  0.75000000  1.0
  Rh  Rh35  1  0.40424057  0.19498920  0.25000000  1.0
