# generated using pymatgen
data_LiBeH3
_symmetry_space_group_name_H-M   'P 1'
_cell_length_a   5.97251861
_cell_length_b   5.97251861
_cell_length_c   4.71778753
_cell_angle_alpha   75.36673054
_cell_angle_beta   104.63326946
_cell_angle_gamma   94.51783097
_symmetry_Int_Tables_number   1
_chemical_formula_structural   LiBeH3
_chemical_formula_sum   'Li4 Be4 H12'
_cell_volume   157.52744329
_cell_formula_units_Z   4
loop_
 _symmetry_equiv_pos_site_id
 _symmetry_equiv_pos_as_xyz
  1  'x, y, z'
loop_
 _atom_site_type_symbol
 _atom_site_label
 _atom_site_symmetry_multiplicity
 _atom_site_fract_x
 _atom_site_fract_y
 _atom_site_fract_z
 _atom_site_occupancy
  Li  Li0  1  0.10034826  0.10034826  0.25000000  1.0
  Li  Li1  1  0.89965174  0.89965174  0.75000000  1.0
  Li  Li2  1  0.71434736  0.71434736  0.25000000  1.0
  Li  Li3  1  0.28565264  0.28565264  0.75000000  1.0
  Be  Be4  1  0.62818485  0.19847081  0.23204967  1.0
  Be  Be5  1  1.19847081  -0.37181515  0.26795033  1.0
  Be  Be6  1  1.37181515  -0.19847081  0.76795033  1.0
  Be  Be7  1  0.80152919  0.37181515  0.73204967  1.0
  H  H8  1  0.79201897  0.01856717  0.33792042  1.0
  H  H9  1  1.01856717  -0.20798103  0.16207958  1.0
  H  H10  1  1.20798103  -0.01856717  0.66207958  1.0
  H  H11  1  0.98143283  0.20798103  0.83792042  1.0
  H  H12  1  0.87564120  0.60507674  0.65781048  1.0
  H  H13  1  1.60507674  -0.12435880  0.84218952  1.0
  H  H14  1  1.12435880  -0.60507674  0.34218952  1.0
  H  H15  1  0.39492326  0.12435880  0.15781048  1.0
  H  H16  1  0.64090670  0.34628521  0.44559099  1.0
  H  H17  1  1.34628521  -0.35909330  0.05440901  1.0
  H  H18  1  1.35909330  -0.34628521  0.55440901  1.0
  H  H19  1  0.65371479  0.35909330  0.94559099  1.0
