# generated using pymatgen
data_CdH7CSN3Cl2O
_symmetry_space_group_name_H-M   'P 1'
_cell_length_a   8.75577079
_cell_length_b   8.75577079
_cell_length_c   7.01616910
_cell_angle_alpha   70.51944401
_cell_angle_beta   109.48055599
_cell_angle_gamma   72.11936145
_symmetry_Int_Tables_number   1
_chemical_formula_structural   CdH7CSN3Cl2O
_chemical_formula_sum   'Cd2 H14 C2 S2 N6 Cl4 O2'
_cell_volume   421.82248582
_cell_formula_units_Z   2
loop_
 _symmetry_equiv_pos_site_id
 _symmetry_equiv_pos_as_xyz
  1  'x, y, z'
loop_
 _atom_site_type_symbol
 _atom_site_label
 _atom_site_symmetry_multiplicity
 _atom_site_fract_x
 _atom_site_fract_y
 _atom_site_fract_z
 _atom_site_occupancy
  Cd  Cd0  1  0.58934513  0.28036633  0.40625484  1.0
  Cd  Cd1  1  0.71963367  -0.58934513  0.90625484  1.0
  H  H2  1  0.52552992  -0.12835303  0.02065517  1.0
  H  H3  1  1.12835303  -0.52552992  0.52065517  1.0
  H  H4  1  0.63520707  -0.02178691  0.28972599  1.0
  H  H5  1  1.02178691  -0.63520707  0.78972599  1.0
  H  H6  1  1.24663156  -0.24240663  0.15763396  1.0
  H  H7  1  0.24240663  -0.24663156  0.65763396  1.0
  H  H8  1  0.42529930  0.08037874  0.85349137  1.0
  H  H9  1  0.91962126  -0.42529930  0.35349137  1.0
  H  H10  1  1.03467188  -0.24333619  0.06311479  1.0
  H  H11  1  0.24333619  -0.03467188  0.56311479  1.0
  H  H12  1  0.24055922  0.04252378  0.02731712  1.0
  H  H13  1  0.95747622  -0.24055922  0.52731712  1.0
  H  H14  1  1.11277069  -0.69682911  0.07249454  1.0
  H  H15  1  0.69682911  -0.11277069  0.57249454  1.0
  C  C16  1  0.99297346  -0.01381397  0.50017795  1.0
  C  C17  1  1.01381397  -0.99297346  1.00017795  1.0
  S  S18  1  0.78219009  0.09830790  0.91312239  1.0
  S  S19  1  0.90169210  -0.78219009  0.41312239  1.0
  N  N20  1  0.89916319  -0.10952432  0.50724033  1.0
  N  N21  1  1.10952432  -0.89916319  0.00724033  1.0
  N  N22  1  0.71243263  -0.02986145  0.44439859  1.0
  N  N23  1  1.02986145  -0.71243263  0.94439859  1.0
  N  N24  1  1.10573858  -0.17081255  0.06535354  1.0
  N  N25  1  0.17081255  -0.10573858  0.56535354  1.0
  Cl  Cl26  1  0.54778319  -0.41564422  0.43890718  1.0
  Cl  Cl27  1  1.41564422  -0.54778319  0.93890718  1.0
  Cl  Cl28  1  0.32162002  0.25321032  0.45612752  1.0
  Cl  Cl29  1  0.74678968  -0.32162002  0.95612752  1.0
  O  O30  1  0.45152651  -0.01017627  1.00438472  1.0
  O  O31  1  1.01017627  -0.45152651  0.50438472  1.0
