# generated using pymatgen
data_Cs2Li3(BO2)5
_symmetry_space_group_name_H-M   'P 1'
_cell_length_a   6.94794989
_cell_length_b   6.94794989
_cell_length_c   12.92511931
_cell_angle_alpha   90.00000000
_cell_angle_beta   90.00000000
_cell_angle_gamma   115.46584100
_symmetry_Int_Tables_number   1
_chemical_formula_structural   Cs2Li3(BO2)5
_chemical_formula_sum   'Cs4 Li6 B10 O20'
_cell_volume   563.32570388
_cell_formula_units_Z   2
loop_
 _symmetry_equiv_pos_site_id
 _symmetry_equiv_pos_as_xyz
  1  'x, y, z'
loop_
 _atom_site_type_symbol
 _atom_site_label
 _atom_site_symmetry_multiplicity
 _atom_site_fract_x
 _atom_site_fract_y
 _atom_site_fract_z
 _atom_site_occupancy
  Cs  Cs0  1  -0.22323336  1.22323336  0.25000000  1.0
  Cs  Cs1  1  0.22323336  0.77676664  0.75000000  1.0
  Cs  Cs2  1  0.69834436  0.69834436  0.00000000  1.0
  Cs  Cs3  1  0.30165564  0.30165564  0.50000000  1.0
  Li  Li4  1  0.17631918  0.55707764  0.04526524  1.0
  Li  Li5  1  -0.44292236  1.17631918  0.95473476  1.0
  Li  Li6  1  0.44292236  0.82368082  0.45473476  1.0
  Li  Li7  1  -0.17631918  1.44292236  0.54526524  1.0
  Li  Li8  1  0.33036909  0.66963091  0.25000000  1.0
  Li  Li9  1  -0.33036909  1.33036909  0.75000000  1.0
  B  B10  1  0.04889483  0.69757028  0.41950744  1.0
  B  B11  1  -0.30242972  1.04889483  0.58049256  1.0
  B  B12  1  0.30242972  0.95110517  0.08049256  1.0
  B  B13  1  -0.04889483  1.30242972  0.91950744  1.0
  B  B14  1  -0.26247602  1.71766846  0.33441626  1.0
  B  B15  1  0.71766846  0.73752398  0.66558374  1.0
  B  B16  1  -0.71766846  1.26247602  0.16558374  1.0
  B  B17  1  0.26247602  0.28233154  0.83441626  1.0
  B  B18  1  0.09965716  0.90034284  0.25000000  1.0
  B  B19  1  -0.09965716  1.09965716  0.75000000  1.0
  O  O20  1  0.17350975  0.81967389  0.15853274  1.0
  O  O21  1  -0.18032611  1.17350975  0.84146726  1.0
  O  O22  1  0.18032611  0.82649025  0.34146726  1.0
  O  O23  1  -0.17350975  1.18032611  0.65853274  1.0
  O  O24  1  0.29236077  0.45696357  0.15421299  1.0
  O  O25  1  -0.54303643  1.29236077  0.84578701  1.0
  O  O26  1  0.54303643  0.70763923  0.34578701  1.0
  O  O27  1  -0.29236077  1.54303643  0.65421299  1.0
  O  O28  1  -0.13433784  1.81307666  0.24913075  1.0
  O  O29  1  0.81307666  0.86566216  0.75086925  1.0
  O  O30  1  -0.81307666  1.13433784  0.25086925  1.0
  O  O31  1  0.13433784  0.18692334  0.74913075  1.0
  O  O32  1  -0.17417031  1.62890062  0.41035039  1.0
  O  O33  1  0.62890062  0.82582969  0.58964961  1.0
  O  O34  1  -0.62890062  1.17417031  0.08964961  1.0
  O  O35  1  0.17417031  0.37109938  0.91035039  1.0
  O  O36  1  -0.12889152  1.36392641  0.00017010  1.0
  O  O37  1  0.36392641  0.87110848  0.99982990  1.0
  O  O38  1  -0.36392641  1.12889152  0.49982990  1.0
  O  O39  1  0.12889152  0.63607359  0.50017010  1.0
