# generated using pymatgen
data_Zr9(In2Co)7
_symmetry_space_group_name_H-M   'P 1'
_cell_length_a   9.44736139
_cell_length_b   9.44736139
_cell_length_c   9.44736139
_cell_angle_alpha   60.00000000
_cell_angle_beta   60.00000000
_cell_angle_gamma   60.00000000
_symmetry_Int_Tables_number   1
_chemical_formula_structural   Zr9(In2Co)7
_chemical_formula_sum   'Zr9 In14 Co7'
_cell_volume   596.23379451
_cell_formula_units_Z   1
loop_
 _symmetry_equiv_pos_site_id
 _symmetry_equiv_pos_as_xyz
  1  'x, y, z'
loop_
 _atom_site_type_symbol
 _atom_site_label
 _atom_site_symmetry_multiplicity
 _atom_site_fract_x
 _atom_site_fract_y
 _atom_site_fract_z
 _atom_site_occupancy
  In  In0  1  1.15835732  0.50000000  0.50000000  1.0
  In  In1  1  1.50000000  -0.15835732  0.15835732  1.0
  In  In2  1  0.50000000  1.15835732  -0.15835732  1.0
  In  In3  1  0.84164268  0.50000000  -0.50000000  1.0
  In  In4  1  0.50000000  1.15835732  -0.50000000  1.0
  In  In5  1  -0.15835732  1.50000000  0.15835732  1.0
  In  In6  1  0.50000000  -0.50000000  1.15835732  1.0
  In  In7  1  -0.15835732  0.15835732  0.50000000  1.0
  In  In8  1  0.15835732  1.50000000  -0.15835732  1.0
  In  In9  1  0.50000000  0.84164268  -0.50000000  1.0
  In  In10  1  0.15835732  -0.15835732  1.50000000  1.0
  In  In11  1  -0.50000000  0.50000000  0.84164268  1.0
  In  In12  1  0.75000000  0.75000000  -0.25000000  1.0
  In  In13  1  1.25000000  0.25000000  0.25000000  1.0
  Co  Co14  1  -0.77995596  0.77995596  0.77995596  1.0
  Co  Co15  1  -0.22004404  0.22004404  0.77995596  1.0
  Co  Co16  1  0.77995596  0.77995596  -0.77995596  1.0
  Co  Co17  1  0.22004404  1.22004404  -0.22004404  1.0
  Co  Co18  1  0.22004404  -0.22004404  1.22004404  1.0
  Co  Co19  1  -0.22004404  0.22004404  0.22004404  1.0
  Co  Co20  1  0.00000000  0.00000000  0.00000000  1.0
  Zr  Zr21  1  0.87931148  0.87931148  -0.12068852  1.0
  Zr  Zr22  1  1.12068852  0.12068852  0.63793445  1.0
  Zr  Zr23  1  1.12068852  0.63793445  0.12068852  1.0
  Zr  Zr24  1  0.36206555  0.87931148  -0.12068852  1.0
  Zr  Zr25  1  1.63793445  0.12068852  0.12068852  1.0
  Zr  Zr26  1  0.87931148  0.36206555  -0.12068852  1.0
  Zr  Zr27  1  0.87931148  0.87931148  -0.63793445  1.0
  Zr  Zr28  1  1.12068852  0.12068852  0.12068852  1.0
  Zr  Zr29  1  -0.50000000  0.50000000  0.50000000  1.0
