# generated using pymatgen
data_CaGaH5
_symmetry_space_group_name_H-M   'P 1'
_cell_length_a   6.68676655
_cell_length_b   4.36671500
_cell_length_c   6.79715618
_cell_angle_alpha   90.00000000
_cell_angle_beta   102.72674267
_cell_angle_gamma   90.00000000
_symmetry_Int_Tables_number   1
_chemical_formula_structural   CaGaH5
_chemical_formula_sum   'Ca2 Ga2 H10'
_cell_volume   193.59546491
_cell_formula_units_Z   2
loop_
 _symmetry_equiv_pos_site_id
 _symmetry_equiv_pos_as_xyz
  1  'x, y, z'
loop_
 _atom_site_type_symbol
 _atom_site_label
 _atom_site_symmetry_multiplicity
 _atom_site_fract_x
 _atom_site_fract_y
 _atom_site_fract_z
 _atom_site_occupancy
  Ca  Ca0  1  0.82806710  0.50363513  0.33222375  1.0
  Ca  Ca1  1  0.17193290  1.00363513  0.66777625  1.0
  Ga  Ga2  1  0.71345544  0.25719699  0.79795992  1.0
  Ga  Ga3  1  0.28654456  0.75719699  0.20204008  1.0
  H  H4  1  0.91606147  0.05195896  0.85038754  1.0
  H  H5  1  0.08393853  0.55195896  0.14961246  1.0
  H  H6  1  0.88257340  0.00427897  0.41359988  1.0
  H  H7  1  0.11742660  0.50427897  0.58640012  1.0
  H  H8  1  0.72217497  0.51062364  0.63223598  1.0
  H  H9  1  0.27782503  0.01062364  0.36776402  1.0
  H  H10  1  0.68686811  0.43038215  0.99841110  1.0
  H  H11  1  0.31313189  0.93038215  0.00158890  1.0
  H  H12  1  0.51956495  0.04022416  0.72500086  1.0
  H  H13  1  0.48043505  0.54022416  0.27499914  1.0
