# generated using pymatgen
data_Cs2GeTe4
_symmetry_space_group_name_H-M   'P 1'
_cell_length_a   12.85814763
_cell_length_b   11.81037206
_cell_length_c   7.62050490
_cell_angle_alpha   90.00000000
_cell_angle_beta   90.00000000
_cell_angle_gamma   90.00000000
_symmetry_Int_Tables_number   1
_chemical_formula_structural   Cs2GeTe4
_chemical_formula_sum   'Cs8 Ge4 Te16'
_cell_volume   1157.24612082
_cell_formula_units_Z   4
loop_
 _symmetry_equiv_pos_site_id
 _symmetry_equiv_pos_as_xyz
  1  'x, y, z'
loop_
 _atom_site_type_symbol
 _atom_site_label
 _atom_site_symmetry_multiplicity
 _atom_site_fract_x
 _atom_site_fract_y
 _atom_site_fract_z
 _atom_site_occupancy
  Cs  Cs0  1  0.85292578  0.94187276  0.40083985  1.0
  Cs  Cs1  1  0.85292578  0.55812724  0.40083985  1.0
  Cs  Cs2  1  0.35292578  0.94187276  0.09916015  1.0
  Cs  Cs3  1  0.35292578  0.55812724  0.09916015  1.0
  Cs  Cs4  1  0.14707422  0.44187276  0.59916015  1.0
  Cs  Cs5  1  0.14707422  0.05812724  0.59916015  1.0
  Cs  Cs6  1  0.64707422  0.44187276  0.90083985  1.0
  Cs  Cs7  1  0.64707422  0.05812724  0.90083985  1.0
  Ge  Ge8  1  0.93583130  0.25000000  0.00869628  1.0
  Ge  Ge9  1  0.43583130  0.25000000  0.49130372  1.0
  Ge  Ge10  1  0.06416870  0.75000000  0.99130372  1.0
  Ge  Ge11  1  0.56416870  0.75000000  0.50869628  1.0
  Te  Te12  1  0.56715694  0.42212083  0.41121751  1.0
  Te  Te13  1  0.56715694  0.07787917  0.41121751  1.0
  Te  Te14  1  0.06715694  0.42212083  0.08878249  1.0
  Te  Te15  1  0.06715694  0.07787917  0.08878249  1.0
  Te  Te16  1  0.43284306  0.92212083  0.58878249  1.0
  Te  Te17  1  0.43284306  0.57787917  0.58878249  1.0
  Te  Te18  1  0.93284306  0.92212083  0.91121751  1.0
  Te  Te19  1  0.93284306  0.57787917  0.91121751  1.0
  Te  Te20  1  0.87836676  0.25000000  0.67705280  1.0
  Te  Te21  1  0.37836676  0.25000000  0.82294720  1.0
  Te  Te22  1  0.12163324  0.75000000  0.32294720  1.0
  Te  Te23  1  0.62163324  0.75000000  0.17705280  1.0
  Te  Te24  1  0.78842564  0.25000000  0.25505125  1.0
  Te  Te25  1  0.28842564  0.25000000  0.24494875  1.0
  Te  Te26  1  0.21157436  0.75000000  0.74494875  1.0
  Te  Te27  1  0.71157436  0.75000000  0.75505125  1.0
