# generated using pymatgen
data_C2O5F2
_symmetry_space_group_name_H-M   'P 1'
_cell_length_a   6.42676558
_cell_length_b   6.42676558
_cell_length_c   13.43087588
_cell_angle_alpha   90.00000000
_cell_angle_beta   90.00000000
_cell_angle_gamma   90.00000000
_symmetry_Int_Tables_number   1
_chemical_formula_structural   C2O5F2
_chemical_formula_sum   'C8 O20 F8'
_cell_volume   554.73970760
_cell_formula_units_Z   4
loop_
 _symmetry_equiv_pos_site_id
 _symmetry_equiv_pos_as_xyz
  1  'x, y, z'
loop_
 _atom_site_type_symbol
 _atom_site_label
 _atom_site_symmetry_multiplicity
 _atom_site_fract_x
 _atom_site_fract_y
 _atom_site_fract_z
 _atom_site_occupancy
  C  C0  1  0.24820431  0.80919381  0.95898514  1.0
  C  C1  1  0.74820431  0.69080619  0.79101486  1.0
  C  C2  1  0.19080619  0.75179569  0.54101486  1.0
  C  C3  1  0.69080619  0.74820431  0.20898514  1.0
  C  C4  1  0.75179569  0.19080619  0.45898514  1.0
  C  C5  1  0.25179569  0.30919381  0.29101486  1.0
  C  C6  1  0.80919381  0.24820431  0.04101486  1.0
  C  C7  1  0.30919381  0.25179569  0.70898514  1.0
  O  O8  1  0.36199609  0.63800391  0.25000000  1.0
  O  O9  1  0.86199609  0.86199609  0.50000000  1.0
  O  O10  1  0.63800391  0.36199609  0.75000000  1.0
  O  O11  1  0.13800391  0.13800391  0.00000000  1.0
  O  O12  1  0.15829034  0.92516278  0.03347158  1.0
  O  O13  1  0.65829034  0.57483722  0.71652842  1.0
  O  O14  1  0.07483722  0.84170966  0.46652842  1.0
  O  O15  1  0.57483722  0.65829034  0.28347158  1.0
  O  O16  1  0.84170966  0.07483722  0.53347158  1.0
  O  O17  1  0.34170966  0.42516278  0.21652842  1.0
  O  O18  1  0.92516278  0.15829034  0.96652842  1.0
  O  O19  1  0.42516278  0.34170966  0.78347158  1.0
  O  O20  1  0.30905879  0.85856603  0.87900665  1.0
  O  O21  1  0.80905879  0.64143397  0.87099335  1.0
  O  O22  1  0.14143397  0.69094121  0.62099335  1.0
  O  O23  1  0.64143397  0.80905879  0.12900665  1.0
  O  O24  1  0.69094121  0.14143397  0.37900665  1.0
  O  O25  1  0.19094121  0.35856603  0.37099335  1.0
  O  O26  1  0.85856603  0.30905879  0.12099335  1.0
  O  O27  1  0.35856603  0.19094121  0.62900665  1.0
  F  F28  1  0.25757166  0.61661766  0.99790376  1.0
  F  F29  1  0.75757166  0.88338234  0.75209624  1.0
  F  F30  1  0.38338234  0.74242834  0.50209624  1.0
  F  F31  1  0.88338234  0.75757166  0.24790376  1.0
  F  F32  1  0.74242834  0.38338234  0.49790376  1.0
  F  F33  1  0.24242834  0.11661766  0.25209624  1.0
  F  F34  1  0.61661766  0.25757166  0.00209624  1.0
  F  F35  1  0.11661766  0.24242834  0.74790376  1.0
