# generated using pymatgen
data_KTiI3
_symmetry_space_group_name_H-M   'P 1'
_cell_length_a   14.28337821
_cell_length_b   14.28337821
_cell_length_c   6.77171977
_cell_angle_alpha   90.00000000
_cell_angle_beta   90.00000000
_cell_angle_gamma   120.00000000
_symmetry_Int_Tables_number   1
_chemical_formula_structural   KTiI3
_chemical_formula_sum   'K6 Ti6 I18'
_cell_volume   1196.44153407
_cell_formula_units_Z   6
loop_
 _symmetry_equiv_pos_site_id
 _symmetry_equiv_pos_as_xyz
  1  'x, y, z'
loop_
 _atom_site_type_symbol
 _atom_site_label
 _atom_site_symmetry_multiplicity
 _atom_site_fract_x
 _atom_site_fract_y
 _atom_site_fract_z
 _atom_site_occupancy
  K  K0  1  0.00033255  0.69830312  0.27827125  1.0
  K  K1  1  0.69830312  0.69797058  0.77827125  1.0
  K  K2  1  0.69797058  0.99966745  0.27827125  1.0
  K  K3  1  0.30169688  0.30202942  0.27827125  1.0
  K  K4  1  0.99966745  0.30169688  0.77827125  1.0
  K  K5  1  0.30202942  0.00033255  0.77827125  1.0
  Ti  Ti6  1  0.33333333  0.66666667  0.26167617  1.0
  Ti  Ti7  1  0.66666667  0.33333333  0.76167617  1.0
  Ti  Ti8  1  0.33333333  0.66666667  0.81932120  1.0
  Ti  Ti9  1  0.66666667  0.33333333  0.31932120  1.0
  Ti  Ti10  1  0.00000000  0.00000000  0.03255524  1.0
  Ti  Ti11  1  0.00000000  0.00000000  0.53255524  1.0
  I  I12  1  0.16753602  0.99968553  0.28257103  1.0
  I  I13  1  0.99968553  0.83214951  0.78257103  1.0
  I  I14  1  0.83214951  0.83246398  0.28257103  1.0
  I  I15  1  0.00031447  0.16785049  0.28257103  1.0
  I  I16  1  0.83246398  0.00031447  0.78257103  1.0
  I  I17  1  0.16785049  0.16753602  0.78257103  1.0
  I  I18  1  0.42882950  0.86444491  0.04042231  1.0
  I  I19  1  0.86444491  0.43561541  0.54042231  1.0
  I  I20  1  0.43561541  0.57117050  0.04042231  1.0
  I  I21  1  0.13555509  0.56438459  0.04042231  1.0
  I  I22  1  0.57117050  0.13555509  0.54042231  1.0
  I  I23  1  0.56438459  0.42882950  0.54042231  1.0
  I  I24  1  0.75386594  0.51480250  0.04021787  1.0
  I  I25  1  0.51480250  0.76093656  0.54021787  1.0
  I  I26  1  0.76093656  0.24613406  0.04021787  1.0
  I  I27  1  0.48519750  0.23906344  0.04021787  1.0
  I  I28  1  0.24613406  0.48519750  0.54021787  1.0
  I  I29  1  0.23906344  0.75386594  0.54021787  1.0
