# generated using pymatgen
data_Tb2C3
_symmetry_space_group_name_H-M   'P 1'
_cell_length_a   7.10399963
_cell_length_b   7.10399963
_cell_length_c   7.10399963
_cell_angle_alpha   109.47122063
_cell_angle_beta   109.47122063
_cell_angle_gamma   109.47122063
_symmetry_Int_Tables_number   1
_chemical_formula_structural   Tb2C3
_chemical_formula_sum   'Tb8 C12'
_cell_volume   275.98590373
_cell_formula_units_Z   4
loop_
 _symmetry_equiv_pos_site_id
 _symmetry_equiv_pos_as_xyz
  1  'x, y, z'
loop_
 _atom_site_type_symbol
 _atom_site_label
 _atom_site_symmetry_multiplicity
 _atom_site_fract_x
 _atom_site_fract_y
 _atom_site_fract_z
 _atom_site_occupancy
  Tb  Tb0  1  1.39913976  1.39913976  1.39913976  1.0
  Tb  Tb1  1  1.50000000  1.00000000  1.10086024  1.0
  Tb  Tb2  1  0.89913976  0.89913976  0.89913976  1.0
  Tb  Tb3  1  0.50000000  1.00000000  0.60086024  1.0
  Tb  Tb4  1  1.00000000  1.10086024  1.50000000  1.0
  Tb  Tb5  1  1.10086024  0.50000000  1.00000000  1.0
  Tb  Tb6  1  1.00000000  0.60086024  1.50000000  1.0
  Tb  Tb7  1  0.60086024  1.50000000  1.00000000  1.0
  C  C8  1  1.20718226  0.95718226  1.25000000  1.0
  C  C9  1  0.45718226  0.70718226  0.75000000  1.0
  C  C10  1  0.25000000  1.20718226  0.95718226  1.0
  C  C11  1  0.75000000  1.29281774  0.54281774  1.0
  C  C12  1  0.70718226  0.75000000  0.45718226  1.0
  C  C13  1  0.79281774  0.25000000  1.04281774  1.0
  C  C14  1  0.95718226  0.25000000  1.20718226  1.0
  C  C15  1  0.54281774  0.75000000  0.29281774  1.0
  C  C16  1  0.75000000  1.45718226  0.70718226  1.0
  C  C17  1  0.25000000  1.04281774  0.79281774  1.0
  C  C18  1  0.29281774  0.54281774  0.75000000  1.0
  C  C19  1  1.04281774  0.79281774  1.25000000  1.0
