# generated using pymatgen
data_La(PdO2)2
_symmetry_space_group_name_H-M   'P 1'
_cell_length_a   6.69767902
_cell_length_b   6.69767902
_cell_length_c   6.69767902
_cell_angle_alpha   126.84650327
_cell_angle_beta   126.84650327
_cell_angle_gamma   78.50124707
_symmetry_Int_Tables_number   1
_chemical_formula_structural   La(PdO2)2
_chemical_formula_sum   'La2 Pd4 O8'
_cell_volume   186.28371834
_cell_formula_units_Z   2
loop_
 _symmetry_equiv_pos_site_id
 _symmetry_equiv_pos_as_xyz
  1  'x, y, z'
loop_
 _atom_site_type_symbol
 _atom_site_label
 _atom_site_symmetry_multiplicity
 _atom_site_fract_x
 _atom_site_fract_y
 _atom_site_fract_z
 _atom_site_occupancy
  La  La0  1  0.75000000  0.25000000  0.50000000  1.0
  La  La1  1  0.00000000  -0.00000000  -0.00000000  1.0
  Pd  Pd2  1  0.37500000  1.12500000  0.75000000  1.0
  Pd  Pd3  1  0.37500000  0.62500000  0.25000000  1.0
  Pd  Pd4  1  0.87500000  0.62500000  1.25000000  1.0
  Pd  Pd5  1  0.37500000  0.62500000  0.75000000  1.0
  O  O6  1  0.59219918  0.64604010  0.64166585  1.0
  O  O7  1  1.00437425  0.95053333  1.35833415  1.0
  O  O8  1  0.74562575  1.29946667  1.14166585  1.0
  O  O9  1  1.15780082  0.60395990  0.85833415  1.0
  O  O10  1  0.35395990  0.99562575  0.94615908  1.0
  O  O11  1  1.04946667  0.40780082  1.05384092  1.0
  O  O12  1  0.70053333  0.84219918  1.44615908  1.0
  O  O13  1  0.39604010  0.25437425  0.55384092  1.0
