# generated using pymatgen
data_Eu(GePt)2
_symmetry_space_group_name_H-M   'P 1'
_cell_length_a   9.76446505
_cell_length_b   4.49091184
_cell_length_c   8.90232413
_cell_angle_alpha   90.00000000
_cell_angle_beta   91.23174186
_cell_angle_gamma   90.00000000
_symmetry_Int_Tables_number   1
_chemical_formula_structural   Eu(GePt)2
_chemical_formula_sum   'Eu4 Ge8 Pt8'
_cell_volume   390.28874083
_cell_formula_units_Z   4
loop_
 _symmetry_equiv_pos_site_id
 _symmetry_equiv_pos_as_xyz
  1  'x, y, z'
loop_
 _atom_site_type_symbol
 _atom_site_label
 _atom_site_symmetry_multiplicity
 _atom_site_fract_x
 _atom_site_fract_y
 _atom_site_fract_z
 _atom_site_occupancy
  Eu  Eu0  1  0.25600655  0.75856848  0.87063198  1.0
  Eu  Eu1  1  0.25600655  0.74143152  0.37063198  1.0
  Eu  Eu2  1  0.74399345  0.25856848  0.62936802  1.0
  Eu  Eu3  1  0.74399345  0.24143152  0.12936802  1.0
  Ge  Ge4  1  0.88190492  0.81701426  0.89274103  1.0
  Ge  Ge5  1  0.88190492  0.68298574  0.39274103  1.0
  Ge  Ge6  1  0.11809508  0.31701426  0.60725897  1.0
  Ge  Ge7  1  0.11809508  0.18298574  0.10725897  1.0
  Ge  Ge8  1  0.49928144  0.76402069  0.62580077  1.0
  Ge  Ge9  1  0.49928144  0.73597931  0.12580077  1.0
  Ge  Ge10  1  0.50071856  0.26402069  0.87419923  1.0
  Ge  Ge11  1  0.50071856  0.23597931  0.37419923  1.0
  Pt  Pt12  1  0.00028211  0.82735207  0.64127222  1.0
  Pt  Pt13  1  0.00028211  0.67264793  0.14127222  1.0
  Pt  Pt14  1  0.99971789  0.32735207  0.85872778  1.0
  Pt  Pt15  1  0.99971789  0.17264793  0.35872778  1.0
  Pt  Pt16  1  0.62546066  0.76284868  0.87865243  1.0
  Pt  Pt17  1  0.62546066  0.73715132  0.37865243  1.0
  Pt  Pt18  1  0.37453934  0.26284868  0.62134757  1.0
  Pt  Pt19  1  0.37453934  0.23715132  0.12134757  1.0
