# generated using pymatgen
data_Bi2O3
_symmetry_space_group_name_H-M   'P 1'
_cell_length_a   9.70801706
_cell_length_b   9.70801706
_cell_length_c   9.70801706
_cell_angle_alpha   109.47122063
_cell_angle_beta   109.47122063
_cell_angle_gamma   109.47122063
_symmetry_Int_Tables_number   1
_chemical_formula_structural   Bi2O3
_chemical_formula_sum   'Bi16 O24'
_cell_volume   704.31948172
_cell_formula_units_Z   8
loop_
 _symmetry_equiv_pos_site_id
 _symmetry_equiv_pos_as_xyz
  1  'x, y, z'
loop_
 _atom_site_type_symbol
 _atom_site_label
 _atom_site_symmetry_multiplicity
 _atom_site_fract_x
 _atom_site_fract_y
 _atom_site_fract_z
 _atom_site_occupancy
  Bi  Bi0  1  0.00000000  0.50000000  0.50000000  1.0
  Bi  Bi1  1  1.00000000  1.00000000  1.00000000  1.0
  Bi  Bi2  1  0.50000000  1.00000000  0.50000000  1.0
  Bi  Bi3  1  0.50000000  0.50000000  0.00000000  1.0
  Bi  Bi4  1  0.72431676  0.75000000  0.47431676  1.0
  Bi  Bi5  1  0.77568324  0.25000000  1.02568324  1.0
  Bi  Bi6  1  0.25000000  1.02568324  0.77568324  1.0
  Bi  Bi7  1  0.75000000  1.47431676  0.72431676  1.0
  Bi  Bi8  1  0.47431676  0.72431676  0.75000000  1.0
  Bi  Bi9  1  1.02568324  0.77568324  1.25000000  1.0
  Bi  Bi10  1  1.27568324  1.25000000  1.52568324  1.0
  Bi  Bi11  1  0.22431676  0.75000000  0.97431676  1.0
  Bi  Bi12  1  0.75000000  0.97431676  0.22431676  1.0
  Bi  Bi13  1  0.25000000  0.52568324  0.27568324  1.0
  Bi  Bi14  1  1.52568324  1.27568324  1.25000000  1.0
  Bi  Bi15  1  0.97431676  1.22431676  0.75000000  1.0
  O  O16  1  1.46760350  0.74186361  1.01911107  1.0
  O  O17  1  1.27724746  0.75813639  1.22573990  1.0
  O  O18  1  1.03239650  1.05150756  1.27426010  1.0
  O  O19  1  1.22275254  1.44849244  1.48088893  1.0
  O  O20  1  1.44849244  1.48088893  1.22275254  1.0
  O  O21  1  1.05150756  1.27426010  1.03239650  1.0
  O  O22  1  1.75813639  1.22573990  1.27724746  1.0
  O  O23  1  0.74186361  1.01911107  0.46760350  1.0
  O  O24  1  1.22573990  1.27724746  1.75813639  1.0
  O  O25  1  1.01911107  0.46760350  0.74186361  1.0
  O  O26  1  1.48088893  1.22275254  1.44849244  1.0
  O  O27  1  1.27426010  1.03239650  1.05150756  1.0
  O  O28  1  0.53239650  1.25813639  0.98088893  1.0
  O  O29  1  0.72275254  1.24186361  0.77426010  1.0
  O  O30  1  0.96760350  0.94849244  0.72573990  1.0
  O  O31  1  0.77724746  0.55150756  0.51911107  1.0
  O  O32  1  0.55150756  0.51911107  0.77724746  1.0
  O  O33  1  0.94849244  0.72573990  0.96760350  1.0
  O  O34  1  0.24186361  0.77426010  0.72275254  1.0
  O  O35  1  1.25813639  0.98088893  1.53239650  1.0
  O  O36  1  0.77426010  0.72275254  0.24186361  1.0
  O  O37  1  0.98088893  1.53239650  1.25813639  1.0
  O  O38  1  0.51911107  0.77724746  0.55150756  1.0
  O  O39  1  0.72573990  0.96760350  0.94849244  1.0
