# generated using pymatgen
data_CsC4N3
_symmetry_space_group_name_H-M   'P 1'
_cell_length_a   7.52563410
_cell_length_b   7.52563410
_cell_length_c   7.52563410
_cell_angle_alpha   67.81216112
_cell_angle_beta   67.81216112
_cell_angle_gamma   67.81216112
_symmetry_Int_Tables_number   1
_chemical_formula_structural   CsC4N3
_chemical_formula_sum   'Cs2 C8 N6'
_cell_volume   351.43276688
_cell_formula_units_Z   2
loop_
 _symmetry_equiv_pos_site_id
 _symmetry_equiv_pos_as_xyz
  1  'x, y, z'
loop_
 _atom_site_type_symbol
 _atom_site_label
 _atom_site_symmetry_multiplicity
 _atom_site_fract_x
 _atom_site_fract_y
 _atom_site_fract_z
 _atom_site_occupancy
  Cs  Cs0  1  0.50000000  0.50000000  -0.50000000  1.0
  Cs  Cs1  1  0.00000000  -0.00000000  0.00000000  1.0
  C  C2  1  1.08265201  1.25000000  0.41734799  1.0
  C  C3  1  0.58265201  0.91734799  -0.25000000  1.0
  C  C4  1  0.75000000  0.58265201  -0.08265201  1.0
  C  C5  1  1.25000000  1.41734799  0.08265201  1.0
  C  C6  1  0.91734799  0.75000000  -0.41734799  1.0
  C  C7  1  1.41734799  1.08265201  0.25000000  1.0
  C  C8  1  1.25000000  1.25000000  0.25000000  1.0
  C  C9  1  0.75000000  0.75000000  -0.25000000  1.0
  N  N10  1  0.94290464  0.25000000  -0.44290464  1.0
  N  N11  1  0.44290464  0.05709536  -0.25000000  1.0
  N  N12  1  0.75000000  -0.55709536  0.05709536  1.0
  N  N13  1  0.25000000  0.55709536  -0.05709536  1.0
  N  N14  1  1.05709536  -0.25000000  -0.55709536  1.0
  N  N15  1  0.55709536  -0.05709536  0.25000000  1.0
