# generated using pymatgen
data_P2Os
_symmetry_space_group_name_H-M   'P 1'
_cell_length_a   5.12822745
_cell_length_b   5.93392999
_cell_length_c   2.94861560
_cell_angle_alpha   90.00000000
_cell_angle_beta   90.00000000
_cell_angle_gamma   90.00000000
_symmetry_Int_Tables_number   1
_chemical_formula_structural   P2Os
_chemical_formula_sum   'P4 Os2'
_cell_volume   89.72797285
_cell_formula_units_Z   2
loop_
 _symmetry_equiv_pos_site_id
 _symmetry_equiv_pos_as_xyz
  1  'x, y, z'
loop_
 _atom_site_type_symbol
 _atom_site_label
 _atom_site_symmetry_multiplicity
 _atom_site_fract_x
 _atom_site_fract_y
 _atom_site_fract_z
 _atom_site_occupancy
  P  P0  1  0.33715708  0.87202145  0.50000000  1.0
  P  P1  1  0.83715708  0.62797855  0.00000000  1.0
  P  P2  1  0.66284292  0.12797855  0.50000000  1.0
  P  P3  1  0.16284292  0.37202145  0.00000000  1.0
  Os  Os4  1  0.50000000  0.50000000  0.50000000  1.0
  Os  Os5  1  0.00000000  0.00000000  0.00000000  1.0
