# generated using pymatgen
data_BaSr2Mg(SiO4)2
_symmetry_space_group_name_H-M   'P 1'
_cell_length_a   5.55669837
_cell_length_b   5.55669837
_cell_length_c   7.07588215
_cell_angle_alpha   90.00000000
_cell_angle_beta   90.00000000
_cell_angle_gamma   120.00000000
_symmetry_Int_Tables_number   1
_chemical_formula_structural   BaSr2Mg(SiO4)2
_chemical_formula_sum   'Ba1 Sr2 Mg1 Si2 O8'
_cell_volume   189.21034124
_cell_formula_units_Z   1
loop_
 _symmetry_equiv_pos_site_id
 _symmetry_equiv_pos_as_xyz
  1  'x, y, z'
loop_
 _atom_site_type_symbol
 _atom_site_label
 _atom_site_symmetry_multiplicity
 _atom_site_fract_x
 _atom_site_fract_y
 _atom_site_fract_z
 _atom_site_occupancy
  Ba  Ba0  1  0.00000000  0.00000000  -0.00000000  1.0
  Sr  Sr1  1  0.33333333  0.66666667  0.66387183  1.0
  Sr  Sr2  1  0.66666667  0.33333333  0.33612817  1.0
  Mg  Mg3  1  0.00000000  0.00000000  0.50000000  1.0
  Si  Si4  1  0.33333333  0.66666667  0.22956017  1.0
  Si  Si5  1  0.66666667  0.33333333  0.77043983  1.0
  O  O6  1  0.65019223  0.82509612  0.32251894  1.0
  O  O7  1  0.82509612  0.65019223  0.67748106  1.0
  O  O8  1  0.82509612  0.17490388  0.67748106  1.0
  O  O9  1  0.17490388  0.82509612  0.32251894  1.0
  O  O10  1  0.17490388  0.34980777  0.32251894  1.0
  O  O11  1  0.34980777  0.17490388  0.67748106  1.0
  O  O12  1  0.33333333  0.66666667  0.00090007  1.0
  O  O13  1  0.66666667  0.33333333  0.99909993  1.0
