# generated using pymatgen
data_LiBeAs
_symmetry_space_group_name_H-M   'P 1'
_cell_length_a   3.74423127
_cell_length_b   3.74423127
_cell_length_c   6.19340245
_cell_angle_alpha   90.00000000
_cell_angle_beta   90.00000000
_cell_angle_gamma   90.00000000
_symmetry_Int_Tables_number   1
_chemical_formula_structural   LiBeAs
_chemical_formula_sum   'Li2 Be2 As2'
_cell_volume   86.82696750
_cell_formula_units_Z   2
loop_
 _symmetry_equiv_pos_site_id
 _symmetry_equiv_pos_as_xyz
  1  'x, y, z'
loop_
 _atom_site_type_symbol
 _atom_site_label
 _atom_site_symmetry_multiplicity
 _atom_site_fract_x
 _atom_site_fract_y
 _atom_site_fract_z
 _atom_site_occupancy
  Li  Li0  1  0.50000000  0.00000000  0.65438227  1.0
  Li  Li1  1  0.00000000  0.50000000  0.34561773  1.0
  Be  Be2  1  0.00000000  0.00000000  0.00000000  1.0
  Be  Be3  1  0.50000000  0.50000000  0.00000000  1.0
  As  As4  1  0.50000000  0.00000000  0.22479433  1.0
  As  As5  1  0.00000000  0.50000000  0.77520567  1.0
