# generated using pymatgen
data_InAgP2O7
_symmetry_space_group_name_H-M   'P 1'
_cell_length_a   7.56665462
_cell_length_b   8.57410931
_cell_length_c   9.94664424
_cell_angle_alpha   90.00000000
_cell_angle_beta   111.47330340
_cell_angle_gamma   90.00000000
_symmetry_Int_Tables_number   1
_chemical_formula_structural   InAgP2O7
_chemical_formula_sum   'In4 Ag4 P8 O28'
_cell_volume   600.51943833
_cell_formula_units_Z   4
loop_
 _symmetry_equiv_pos_site_id
 _symmetry_equiv_pos_as_xyz
  1  'x, y, z'
loop_
 _atom_site_type_symbol
 _atom_site_label
 _atom_site_symmetry_multiplicity
 _atom_site_fract_x
 _atom_site_fract_y
 _atom_site_fract_z
 _atom_site_occupancy
  In  In0  1  0.74408294  0.99598286  0.74411650  1.0
  In  In1  1  0.74408294  0.50401714  0.24411650  1.0
  In  In2  1  0.25591706  0.49598286  0.75588350  1.0
  In  In3  1  0.25591706  0.00401714  0.25588350  1.0
  Ag  Ag4  1  0.70099444  0.53988985  0.69157711  1.0
  Ag  Ag5  1  0.70099444  0.96011015  0.19157711  1.0
  Ag  Ag6  1  0.29900556  0.03988985  0.80842289  1.0
  Ag  Ag7  1  0.29900556  0.46011015  0.30842289  1.0
  P  P8  1  0.92032553  0.74391804  0.54097085  1.0
  P  P9  1  0.92032553  0.75608196  0.04097085  1.0
  P  P10  1  0.07967447  0.24391804  0.95902915  1.0
  P  P11  1  0.07967447  0.25608196  0.45902915  1.0
  P  P12  1  0.67825205  0.29289795  0.94253050  1.0
  P  P13  1  0.67825205  0.20710205  0.44253050  1.0
  P  P14  1  0.32174795  0.79289795  0.55746950  1.0
  P  P15  1  0.32174795  0.70710205  0.05746950  1.0
  O  O16  1  0.97192817  0.59586780  0.63822007  1.0
  O  O17  1  0.97192817  0.90413220  0.13822007  1.0
  O  O18  1  0.02807183  0.09586780  0.86177993  1.0
  O  O19  1  0.02807183  0.40413220  0.36177993  1.0
  O  O20  1  0.88266319  0.33783167  0.93246347  1.0
  O  O21  1  0.88266319  0.16216833  0.43246347  1.0
  O  O22  1  0.11733681  0.83783167  0.56753653  1.0
  O  O23  1  0.11733681  0.66216833  0.06753653  1.0
  O  O24  1  0.79848478  0.85881209  0.58511602  1.0
  O  O25  1  0.79848478  0.64118791  0.08511602  1.0
  O  O26  1  0.20151522  0.35881209  0.91488398  1.0
  O  O27  1  0.20151522  0.14118791  0.41488398  1.0
  O  O28  1  0.83045902  0.79310401  0.87933061  1.0
  O  O29  1  0.83045902  0.70689599  0.37933061  1.0
  O  O30  1  0.16954098  0.29310401  0.62066939  1.0
  O  O31  1  0.16954098  0.20689599  0.12066939  1.0
  O  O32  1  0.45233152  0.91184268  0.66352304  1.0
  O  O33  1  0.45233152  0.58815732  0.16352304  1.0
  O  O34  1  0.54766848  0.41184268  0.83647696  1.0
  O  O35  1  0.54766848  0.08815732  0.33647696  1.0
  O  O36  1  0.36395809  0.62113759  0.60863881  1.0
  O  O37  1  0.36395809  0.87886241  0.10863881  1.0
  O  O38  1  0.63604191  0.12113759  0.89136119  1.0
  O  O39  1  0.63604191  0.37886241  0.39136119  1.0
  O  O40  1  0.31016672  0.69347937  0.90108435  1.0
  O  O41  1  0.31016672  0.80652063  0.40108435  1.0
  O  O42  1  0.68983328  0.19347937  0.59891565  1.0
  O  O43  1  0.68983328  0.30652063  0.09891565  1.0
