# generated using pymatgen
data_Sr6Ga5N
_symmetry_space_group_name_H-M   'P 1'
_cell_length_a   14.21699862
_cell_length_b   14.21699862
_cell_length_c   14.21699862
_cell_angle_alpha   30.97812328
_cell_angle_beta   30.97812328
_cell_angle_gamma   30.97812328
_symmetry_Int_Tables_number   1
_chemical_formula_structural   Sr6Ga5N
_chemical_formula_sum   'Sr12 Ga10 N2'
_cell_volume   675.33054392
_cell_formula_units_Z   2
loop_
 _symmetry_equiv_pos_site_id
 _symmetry_equiv_pos_as_xyz
  1  'x, y, z'
loop_
 _atom_site_type_symbol
 _atom_site_label
 _atom_site_symmetry_multiplicity
 _atom_site_fract_x
 _atom_site_fract_y
 _atom_site_fract_z
 _atom_site_occupancy
  Sr  Sr0  1  0.24222822  0.36544561  -0.21574742  1.0
  Sr  Sr1  1  0.36544561  0.78425258  -0.75777178  1.0
  Sr  Sr2  1  0.78425258  0.24222822  -0.63455439  1.0
  Sr  Sr3  1  0.74222822  0.28425258  -0.13455439  1.0
  Sr  Sr4  1  1.28425258  -0.13455439  -0.25777178  1.0
  Sr  Sr5  1  0.86544561  -0.25777178  0.28425258  1.0
  Sr  Sr6  1  0.75777178  0.63455439  -0.78425258  1.0
  Sr  Sr7  1  0.63455439  0.21574742  -0.24222822  1.0
  Sr  Sr8  1  0.21574742  0.75777178  -0.36544561  1.0
  Sr  Sr9  1  0.25777178  0.71574742  -0.86544561  1.0
  Sr  Sr10  1  0.71574742  0.13455439  -0.74222822  1.0
  Sr  Sr11  1  0.13455439  0.25777178  -0.28425258  1.0
  Ga  Ga12  1  0.45923985  0.04076015  0.25000000  1.0
  Ga  Ga13  1  1.04076015  0.25000000  -0.54076015  1.0
  Ga  Ga14  1  0.25000000  0.45923985  0.04076015  1.0
  Ga  Ga15  1  0.95923985  -0.25000000  -0.45923985  1.0
  Ga  Ga16  1  0.75000000  -0.45923985  -0.04076015  1.0
  Ga  Ga17  1  0.54076015  -0.04076015  -0.25000000  1.0
  Ga  Ga18  1  0.30550193  0.30550193  0.30550193  1.0
  Ga  Ga19  1  0.80550193  -0.19449807  -0.19449807  1.0
  Ga  Ga20  1  0.69449807  -0.30550193  -0.30550193  1.0
  Ga  Ga21  1  0.19449807  0.19449807  0.19449807  1.0
  N  N22  1  0.50000000  0.50000000  -0.50000000  1.0
  N  N23  1  0.00000000  0.00000000  0.00000000  1.0
