# generated using pymatgen
data_K2CoBr4
_symmetry_space_group_name_H-M   'P 1'
_cell_length_a   9.51131065
_cell_length_b   7.62949555
_cell_length_c   13.58554686
_cell_angle_alpha   90.00000000
_cell_angle_beta   90.00000000
_cell_angle_gamma   90.00000000
_symmetry_Int_Tables_number   1
_chemical_formula_structural   K2CoBr4
_chemical_formula_sum   'K8 Co4 Br16'
_cell_volume   985.85561718
_cell_formula_units_Z   4
loop_
 _symmetry_equiv_pos_site_id
 _symmetry_equiv_pos_as_xyz
  1  'x, y, z'
loop_
 _atom_site_type_symbol
 _atom_site_label
 _atom_site_symmetry_multiplicity
 _atom_site_fract_x
 _atom_site_fract_y
 _atom_site_fract_z
 _atom_site_occupancy
  K  K0  1  0.88199295  0.75000000  0.43558168  1.0
  K  K1  1  0.38199295  0.75000000  0.06441832  1.0
  K  K2  1  0.11800705  0.25000000  0.56441832  1.0
  K  K3  1  0.61800705  0.25000000  0.93558168  1.0
  K  K4  1  0.52710814  0.75000000  0.67112987  1.0
  K  K5  1  0.02710814  0.75000000  0.82887013  1.0
  K  K6  1  0.47289186  0.25000000  0.32887013  1.0
  K  K7  1  0.97289186  0.25000000  0.17112987  1.0
  Co  Co8  1  0.77762287  0.75000000  0.06900372  1.0
  Co  Co9  1  0.27762287  0.75000000  0.43099628  1.0
  Co  Co10  1  0.22237713  0.25000000  0.93099628  1.0
  Co  Co11  1  0.72237713  0.25000000  0.56900372  1.0
  Br  Br12  1  0.67269935  1.00233130  0.14441420  1.0
  Br  Br13  1  0.67269935  0.49766870  0.14441420  1.0
  Br  Br14  1  0.17269935  1.00233130  0.35558580  1.0
  Br  Br15  1  0.17269935  0.49766870  0.35558580  1.0
  Br  Br16  1  0.32730065  0.50233130  0.85558580  1.0
  Br  Br17  1  0.32730065  -0.00233130  0.85558580  1.0
  Br  Br18  1  0.82730065  0.50233130  0.64441420  1.0
  Br  Br19  1  0.82730065  -0.00233130  0.64441420  1.0
  Br  Br20  1  1.02764770  0.75000000  0.08270040  1.0
  Br  Br21  1  0.52764770  0.75000000  0.41729960  1.0
  Br  Br22  1  -0.02764770  0.25000000  0.91729960  1.0
  Br  Br23  1  0.47235230  0.25000000  0.58270040  1.0
  Br  Br24  1  0.19602747  0.75000000  0.59879661  1.0
  Br  Br25  1  0.69602747  0.75000000  0.90120339  1.0
  Br  Br26  1  0.80397253  0.25000000  0.40120339  1.0
  Br  Br27  1  0.30397253  0.25000000  0.09879661  1.0
