# generated using pymatgen
data_NaNiF3
_symmetry_space_group_name_H-M   'P 1'
_cell_length_a   5.61679043
_cell_length_b   7.78154701
_cell_length_c   5.42900918
_cell_angle_alpha   90.00000000
_cell_angle_beta   90.00000000
_cell_angle_gamma   90.00000000
_symmetry_Int_Tables_number   1
_chemical_formula_structural   NaNiF3
_chemical_formula_sum   'Na4 Ni4 F12'
_cell_volume   237.28743468
_cell_formula_units_Z   4
loop_
 _symmetry_equiv_pos_site_id
 _symmetry_equiv_pos_as_xyz
  1  'x, y, z'
loop_
 _atom_site_type_symbol
 _atom_site_label
 _atom_site_symmetry_multiplicity
 _atom_site_fract_x
 _atom_site_fract_y
 _atom_site_fract_z
 _atom_site_occupancy
  Na  Na0  1  0.05778899  0.75000000  0.51581246  1.0
  Na  Na1  1  0.55778899  0.75000000  0.98418754  1.0
  Na  Na2  1  0.94221101  0.25000000  0.48418754  1.0
  Na  Na3  1  0.44221101  0.25000000  0.01581246  1.0
  Ni  Ni4  1  0.50000000  0.00000000  0.50000000  1.0
  Ni  Ni5  1  0.50000000  0.50000000  0.50000000  1.0
  Ni  Ni6  1  0.00000000  0.00000000  0.00000000  1.0
  Ni  Ni7  1  0.00000000  0.50000000  0.00000000  1.0
  F  F8  1  0.29946680  0.94591636  0.80272172  1.0
  F  F9  1  0.29946680  0.55408364  0.80272172  1.0
  F  F10  1  0.79946680  0.94591636  0.69727828  1.0
  F  F11  1  0.79946680  0.55408364  0.69727828  1.0
  F  F12  1  0.70053320  0.44591636  0.19727828  1.0
  F  F13  1  0.70053320  0.05408364  0.19727828  1.0
  F  F14  1  0.20053320  0.44591636  0.30272172  1.0
  F  F15  1  0.20053320  0.05408364  0.30272172  1.0
  F  F16  1  0.96378460  0.75000000  0.10379750  1.0
  F  F17  1  0.46378460  0.75000000  0.39620250  1.0
  F  F18  1  0.03621540  0.25000000  0.89620250  1.0
  F  F19  1  0.53621540  0.25000000  0.60379750  1.0
