# generated using pymatgen
data_CsSnSe3
_symmetry_space_group_name_H-M   'P 1'
_cell_length_a   8.02711522
_cell_length_b   7.22036315
_cell_length_c   8.37276470
_cell_angle_alpha   62.36427849
_cell_angle_beta   63.40262966
_cell_angle_gamma   73.60785030
_symmetry_Int_Tables_number   1
_chemical_formula_structural   CsSnSe3
_chemical_formula_sum   'Cs2 Sn2 Se6'
_cell_volume   382.71071708
_cell_formula_units_Z   2
loop_
 _symmetry_equiv_pos_site_id
 _symmetry_equiv_pos_as_xyz
  1  'x, y, z'
loop_
 _atom_site_type_symbol
 _atom_site_label
 _atom_site_symmetry_multiplicity
 _atom_site_fract_x
 _atom_site_fract_y
 _atom_site_fract_z
 _atom_site_occupancy
  Cs  Cs0  1  -0.68892278  -0.62573833  0.84860059  1.0
  Cs  Cs1  1  -0.31107722  0.62573833  0.15139941  1.0
  Sn  Sn2  1  -0.99321415  0.20915621  0.57233962  1.0
  Sn  Sn3  1  -0.00678585  -0.20915621  0.42766038  1.0
  Se  Se4  1  -0.89621583  -0.05753279  0.86874183  1.0
  Se  Se5  1  -0.10378417  0.05753279  0.13125817  1.0
  Se  Se6  1  -0.79660327  0.50229344  0.27201519  1.0
  Se  Se7  1  -0.20339673  -0.50229344  0.72798481  1.0
  Se  Se8  1  -0.73564507  -0.09373570  0.43352961  1.0
  Se  Se9  1  -0.26435493  0.09373570  0.56647039  1.0
