# generated using pymatgen
data_Ba5Ru2O13
_symmetry_space_group_name_H-M   'P 1'
_cell_length_a   6.56676222
_cell_length_b   6.56676222
_cell_length_c   17.67039336
_cell_angle_alpha   90.00000000
_cell_angle_beta   90.00000000
_cell_angle_gamma   120.00000000
_symmetry_Int_Tables_number   1
_chemical_formula_structural   Ba5Ru2O13
_chemical_formula_sum   'Ba10 Ru4 O26'
_cell_volume   659.90197921
_cell_formula_units_Z   2
loop_
 _symmetry_equiv_pos_site_id
 _symmetry_equiv_pos_as_xyz
  1  'x, y, z'
loop_
 _atom_site_type_symbol
 _atom_site_label
 _atom_site_symmetry_multiplicity
 _atom_site_fract_x
 _atom_site_fract_y
 _atom_site_fract_z
 _atom_site_occupancy
  Ba  Ba0  1  -0.00000000  -0.00000000  0.13437741  1.0
  Ba  Ba1  1  -0.00000000  0.00000000  0.63437741  1.0
  Ba  Ba2  1  -0.00000000  -0.00000000  0.36562259  1.0
  Ba  Ba3  1  0.00000000  0.00000000  0.86562259  1.0
  Ba  Ba4  1  0.33333333  0.66666667  0.25000000  1.0
  Ba  Ba5  1  0.66666667  0.33333333  0.75000000  1.0
  Ba  Ba6  1  0.33333333  0.66666667  0.02118847  1.0
  Ba  Ba7  1  0.66666667  0.33333333  0.52118847  1.0
  Ba  Ba8  1  0.33333333  0.66666667  0.47881153  1.0
  Ba  Ba9  1  0.66666667  0.33333333  0.97881153  1.0
  Ru  Ru10  1  0.33333333  0.66666667  0.66641964  1.0
  Ru  Ru11  1  0.66666667  0.33333333  0.16641964  1.0
  Ru  Ru12  1  0.33333333  0.66666667  0.83358036  1.0
  Ru  Ru13  1  0.66666667  0.33333333  0.33358036  1.0
  O  O14  1  0.06104809  0.33633932  0.75000000  1.0
  O  O15  1  0.72470877  0.06104809  0.25000000  1.0
  O  O16  1  0.66366068  0.72470877  0.75000000  1.0
  O  O17  1  0.93895191  0.66366068  0.25000000  1.0
  O  O18  1  0.27529123  0.93895191  0.75000000  1.0
  O  O19  1  0.33633932  0.27529123  0.25000000  1.0
  O  O20  1  0.66366068  0.93895191  0.75000000  1.0
  O  O21  1  0.72470877  0.66366068  0.25000000  1.0
  O  O22  1  0.06104809  0.72470877  0.75000000  1.0
  O  O23  1  0.33633932  0.06104809  0.25000000  1.0
  O  O24  1  0.27529123  0.33633932  0.75000000  1.0
  O  O25  1  0.93895191  0.27529123  0.25000000  1.0
  O  O26  1  0.47108305  0.94216610  0.60663235  1.0
  O  O27  1  0.52891695  0.47108305  0.10663235  1.0
  O  O28  1  0.05783390  0.52891695  0.60663235  1.0
  O  O29  1  0.52891695  0.05783390  0.10663235  1.0
  O  O30  1  0.47108305  0.52891695  0.60663235  1.0
  O  O31  1  0.94216610  0.47108305  0.10663235  1.0
  O  O32  1  0.05783390  0.52891695  0.89336765  1.0
  O  O33  1  0.52891695  0.05783390  0.39336765  1.0
  O  O34  1  0.47108305  0.52891695  0.89336765  1.0
  O  O35  1  0.94216610  0.47108305  0.39336765  1.0
  O  O36  1  0.47108305  0.94216610  0.89336765  1.0
  O  O37  1  0.52891695  0.47108305  0.39336765  1.0
  O  O38  1  0.00000000  0.00000000  0.00000000  1.0
  O  O39  1  -0.00000000  -0.00000000  0.50000000  1.0
