# generated using pymatgen
data_K2TcNO2F5
_symmetry_space_group_name_H-M   'P 1'
_cell_length_a   11.72629655
_cell_length_b   11.72629655
_cell_length_c   5.74144331
_cell_angle_alpha   90.00000000
_cell_angle_beta   90.00000000
_cell_angle_gamma   149.16652014
_symmetry_Int_Tables_number   1
_chemical_formula_structural   K2TcNO2F5
_chemical_formula_sum   'K4 Tc2 N2 O4 F10'
_cell_volume   404.64536575
_cell_formula_units_Z   2
loop_
 _symmetry_equiv_pos_site_id
 _symmetry_equiv_pos_as_xyz
  1  'x, y, z'
loop_
 _atom_site_type_symbol
 _atom_site_label
 _atom_site_symmetry_multiplicity
 _atom_site_fract_x
 _atom_site_fract_y
 _atom_site_fract_z
 _atom_site_occupancy
  F  F0  1  0.06240645  1.38026469  0.48747189  1.0
  F  F1  1  -0.06240645  1.61973531  0.98747189  1.0
  F  F2  1  -0.61973531  1.06240645  0.51252811  1.0
  F  F3  1  -0.38026469  0.93759355  0.01252811  1.0
  F  F4  1  -0.06240645  1.61973531  0.51252811  1.0
  F  F5  1  0.06240645  1.38026469  0.01252811  1.0
  F  F6  1  -0.38026469  0.93759355  0.48747189  1.0
  F  F7  1  -0.61973531  1.06240645  0.98747189  1.0
  F  F8  1  -0.23849060  1.23849060  0.25000000  1.0
  F  F9  1  -0.76150940  0.76150940  0.75000000  1.0
  O  O10  1  -1.02077212  1.02077212  0.25000000  1.0
  O  O11  1  0.02077212  0.97922788  0.75000000  1.0
  O  O12  1  -0.47839349  1.47839349  0.75000000  1.0
  O  O13  1  -0.52160651  0.52160651  0.25000000  1.0
  N  N14  1  -0.07278649  1.07278649  0.25000000  1.0
  N  N15  1  -0.92721351  0.92721351  0.75000000  1.0
  Tc  Tc16  1  -0.15000019  1.15000019  0.25000000  1.0
  Tc  Tc17  1  -0.84999981  0.84999981  0.75000000  1.0
  K  K18  1  -0.59746646  0.59746646  0.75000000  1.0
  K  K19  1  -0.40253354  1.40253354  0.25000000  1.0
  K  K20  1  -0.74592323  0.74592323  0.25000000  1.0
  K  K21  1  -0.25407677  1.25407677  0.75000000  1.0
