# generated using pymatgen
data_Zn3(BO3)2
_symmetry_space_group_name_H-M   'P 1'
_cell_length_a   10.09937312
_cell_length_b   8.40632805
_cell_length_c   6.46906867
_cell_angle_alpha   72.03284226
_cell_angle_beta   90.50772539
_cell_angle_gamma   90.41206436
_symmetry_Int_Tables_number   1
_chemical_formula_structural   Zn3(BO3)2
_chemical_formula_sum   'Zn12 B8 O24'
_cell_volume   522.40559872
_cell_formula_units_Z   4
loop_
 _symmetry_equiv_pos_site_id
 _symmetry_equiv_pos_as_xyz
  1  'x, y, z'
loop_
 _atom_site_type_symbol
 _atom_site_label
 _atom_site_symmetry_multiplicity
 _atom_site_fract_x
 _atom_site_fract_y
 _atom_site_fract_z
 _atom_site_occupancy
  Zn  Zn0  1  -0.91808434  -0.70913251  -0.97952827  1.0
  Zn  Zn1  1  -0.08191566  -0.29086749  -0.02047173  1.0
  Zn  Zn2  1  -0.65736957  -0.93179541  -0.89381418  1.0
  Zn  Zn3  1  -0.34263043  -0.06820459  -0.10618582  1.0
  Zn  Zn4  1  -0.17758234  -0.89481797  -0.77517275  1.0
  Zn  Zn5  1  -0.82241766  -0.10518203  -0.22482725  1.0
  Zn  Zn6  1  -0.57750634  -0.59674817  -0.74848937  1.0
  Zn  Zn7  1  -0.42249366  -0.40325183  -0.25151063  1.0
  Zn  Zn8  1  -0.67966866  -0.28293967  -0.55958976  1.0
  Zn  Zn9  1  -0.32033134  -0.71706033  -0.44041024  1.0
  Zn  Zn10  1  -0.83953553  -0.72022742  -0.47516765  1.0
  Zn  Zn11  1  -0.16046447  -0.27977258  -0.52483235  1.0
  B  B12  1  -0.82553019  -0.42324015  -0.84184828  1.0
  B  B13  1  -0.17446981  -0.57675985  -0.15815172  1.0
  B  B14  1  -0.32348357  -0.41366930  -0.82149476  1.0
  B  B15  1  -0.67651643  -0.58633070  -0.17850524  1.0
  B  B16  1  -0.91244867  -0.06554356  -0.66163245  1.0
  B  B17  1  -0.08755133  -0.93445644  -0.33836755  1.0
  B  B18  1  -0.58357631  -0.89707936  -0.33417384  1.0
  B  B19  1  -0.41642369  -0.10292064  -0.66582616  1.0
  O  O20  1  -0.61767092  -0.68888860  -0.99041343  1.0
  O  O21  1  -0.38232908  -0.31111140  -0.00958657  1.0
  O  O22  1  -0.89075882  -0.28689324  -0.97871772  1.0
  O  O23  1  -0.10924118  -0.71310676  -0.02128228  1.0
  O  O24  1  -0.34355809  -0.99513232  -0.83362642  1.0
  O  O25  1  -0.65644191  -0.00486768  -0.16637358  1.0
  O  O26  1  -0.84997206  -0.93621377  -0.81708055  1.0
  O  O27  1  -0.15002794  -0.06378623  -0.18291945  1.0
  O  O28  1  -0.69743736  -0.40496172  -0.77497441  1.0
  O  O29  1  -0.30256264  -0.59503828  -0.22502559  1.0
  O  O30  1  -0.88818185  -0.57763293  -0.76909685  1.0
  O  O31  1  -0.11181815  -0.42236707  -0.23090315  1.0
  O  O32  1  -0.39309119  -0.55146859  -0.69805141  1.0
  O  O33  1  -0.60690881  -0.44853141  -0.30194859  1.0
  O  O34  1  -0.64820398  -0.78187070  -0.50299887  1.0
  O  O35  1  -0.35179602  -0.21812930  -0.49700113  1.0
  O  O36  1  -0.83870752  -0.17651372  -0.49652539  1.0
  O  O37  1  -0.16129248  -0.82348628  -0.50347461  1.0
  O  O38  1  -0.44689735  -0.90364418  -0.32500469  1.0
  O  O39  1  -0.55310265  -0.09635582  -0.67499531  1.0
  O  O40  1  -0.95128896  -0.91528489  -0.33164911  1.0
  O  O41  1  -0.04871104  -0.08471511  -0.66835089  1.0
  O  O42  1  -0.80431253  -0.61807721  -0.23599400  1.0
  O  O43  1  -0.19568747  -0.38192279  -0.76400600  1.0
