# generated using pymatgen
data_K2EuTa5O15
_symmetry_space_group_name_H-M   'P 1'
_cell_length_a   12.68138832
_cell_length_b   12.68138832
_cell_length_c   3.94390872
_cell_angle_alpha   90.00000000
_cell_angle_beta   90.00000000
_cell_angle_gamma   90.00000000
_symmetry_Int_Tables_number   1
_chemical_formula_structural   K2EuTa5O15
_chemical_formula_sum   'K4 Eu2 Ta10 O30'
_cell_volume   634.24997216
_cell_formula_units_Z   2
loop_
 _symmetry_equiv_pos_site_id
 _symmetry_equiv_pos_as_xyz
  1  'x, y, z'
loop_
 _atom_site_type_symbol
 _atom_site_label
 _atom_site_symmetry_multiplicity
 _atom_site_fract_x
 _atom_site_fract_y
 _atom_site_fract_z
 _atom_site_occupancy
  K  K0  1  0.33043304  0.16956696  0.50000000  1.0
  K  K1  1  0.83043304  0.33043304  0.50000000  1.0
  K  K2  1  0.66956696  0.83043304  0.50000000  1.0
  K  K3  1  0.16956696  0.66956696  0.50000000  1.0
  Eu  Eu4  1  0.50000000  0.50000000  0.50000000  1.0
  Eu  Eu5  1  0.00000000  0.00000000  0.50000000  1.0
  Ta  Ta6  1  0.42356737  0.71305328  0.00000000  1.0
  Ta  Ta7  1  0.92356737  0.78694672  0.00000000  1.0
  Ta  Ta8  1  0.28694672  0.42356737  0.00000000  1.0
  Ta  Ta9  1  0.78694672  0.07643263  0.00000000  1.0
  Ta  Ta10  1  0.57643263  0.28694672  0.00000000  1.0
  Ta  Ta11  1  0.07643263  0.21305328  0.00000000  1.0
  Ta  Ta12  1  0.71305328  0.57643263  0.00000000  1.0
  Ta  Ta13  1  0.21305328  0.92356737  0.00000000  1.0
  Ta  Ta14  1  0.50000000  0.00000000  0.00000000  1.0
  Ta  Ta15  1  0.00000000  0.50000000  0.00000000  1.0
  O  O16  1  0.42291055  0.69270951  0.50000000  1.0
  O  O17  1  0.92291055  0.80729049  0.50000000  1.0
  O  O18  1  0.30729049  0.42291055  0.50000000  1.0
  O  O19  1  0.80729049  0.07708945  0.50000000  1.0
  O  O20  1  0.57708945  0.30729049  0.50000000  1.0
  O  O21  1  0.07708945  0.19270951  0.50000000  1.0
  O  O22  1  0.69270951  0.57708945  0.50000000  1.0
  O  O23  1  0.19270951  0.92291055  0.50000000  1.0
  O  O24  1  0.50131053  0.84265926  0.00000000  1.0
  O  O25  1  0.00131053  0.65734074  0.00000000  1.0
  O  O26  1  0.15734074  0.50131053  0.00000000  1.0
  O  O27  1  0.65734074  0.99868947  0.00000000  1.0
  O  O28  1  0.49868947  0.15734074  0.00000000  1.0
  O  O29  1  0.99868947  0.34265926  0.00000000  1.0
  O  O30  1  0.84265926  0.49868947  0.00000000  1.0
  O  O31  1  0.34265926  0.00131053  0.00000000  1.0
  O  O32  1  0.36707860  0.56130322  0.00000000  1.0
  O  O33  1  0.86707860  0.93869678  0.00000000  1.0
  O  O34  1  0.43869678  0.36707860  0.00000000  1.0
  O  O35  1  0.93869678  0.13292140  0.00000000  1.0
  O  O36  1  0.63292140  0.43869678  0.00000000  1.0
  O  O37  1  0.13292140  0.06130322  0.00000000  1.0
  O  O38  1  0.56130322  0.63292140  0.00000000  1.0
  O  O39  1  0.06130322  0.86707860  0.00000000  1.0
  O  O40  1  0.78414442  0.71585558  0.00000000  1.0
  O  O41  1  0.28414442  0.78414442  0.00000000  1.0
  O  O42  1  0.21585558  0.28414442  0.00000000  1.0
  O  O43  1  0.71585558  0.21585558  0.00000000  1.0
  O  O44  1  0.50000000  0.00000000  0.50000000  1.0
  O  O45  1  0.00000000  0.50000000  0.50000000  1.0
