# generated using pymatgen
data_Li2Ti6O13
_symmetry_space_group_name_H-M   'P 1'
_cell_length_a   7.86479112
_cell_length_b   7.86479112
_cell_length_c   9.37383824
_cell_angle_alpha   80.68836825
_cell_angle_beta   99.31163175
_cell_angle_gamma   152.31632304
_symmetry_Int_Tables_number   1
_chemical_formula_structural   Li2Ti6O13
_chemical_formula_sum   'Li2 Ti6 O13'
_cell_volume   265.61096113
_cell_formula_units_Z   1
loop_
 _symmetry_equiv_pos_site_id
 _symmetry_equiv_pos_as_xyz
  1  'x, y, z'
loop_
 _atom_site_type_symbol
 _atom_site_label
 _atom_site_symmetry_multiplicity
 _atom_site_fract_x
 _atom_site_fract_y
 _atom_site_fract_z
 _atom_site_occupancy
  Li  Li0  1  0.46644861  0.53355139  0.74259520  1.0
  Li  Li1  1  0.53355139  -0.53355139  0.25740480  1.0
  Ti  Ti2  1  0.88206250  0.11793750  0.91847543  1.0
  Ti  Ti3  1  0.11793750  -0.11793750  0.08152457  1.0
  Ti  Ti4  1  0.83427375  0.16572625  0.56666059  1.0
  Ti  Ti5  1  0.16572625  -0.16572625  0.43333941  1.0
  Ti  Ti6  1  0.22560218  -0.22560218  0.76296511  1.0
  Ti  Ti7  1  0.77439782  0.22560218  0.23703489  1.0
  O  O8  1  0.93135525  0.06864475  0.70368151  1.0
  O  O9  1  0.06864475  -0.06864475  0.29631849  1.0
  O  O10  1  0.86862045  0.13137955  0.38749814  1.0
  O  O11  1  0.13137955  -0.13137955  0.61250186  1.0
  O  O12  1  0.76170253  0.23829747  0.75667832  1.0
  O  O13  1  0.23829747  -0.23829747  0.24332168  1.0
  O  O14  1  0.70048049  0.29951951  0.42601326  1.0
  O  O15  1  0.29951951  -0.29951951  0.57398674  1.0
  O  O16  1  0.36408812  -0.36408812  0.87590525  1.0
  O  O17  1  0.63591188  0.36408812  0.12409475  1.0
  O  O18  1  0.16966056  -0.16966056  0.91753054  1.0
  O  O19  1  0.83033944  0.16966056  0.08246946  1.0
  O  O20  1  0.00000000  0.00000000  0.00000000  1.0
