# generated using pymatgen
data_YPS4
_symmetry_space_group_name_H-M   'P 1'
_cell_length_a   12.22944149
_cell_length_b   12.22944149
_cell_length_c   12.22944149
_cell_angle_alpha   127.46563748
_cell_angle_beta   127.46563748
_cell_angle_gamma   77.49228753
_symmetry_Int_Tables_number   1
_chemical_formula_structural   YPS4
_chemical_formula_sum   'Y8 P8 S32'
_cell_volume   1117.56614154
_cell_formula_units_Z   8
loop_
 _symmetry_equiv_pos_site_id
 _symmetry_equiv_pos_as_xyz
  1  'x, y, z'
loop_
 _atom_site_type_symbol
 _atom_site_label
 _atom_site_symmetry_multiplicity
 _atom_site_fract_x
 _atom_site_fract_y
 _atom_site_fract_z
 _atom_site_occupancy
  Y  Y0  1  0.75000000  0.75000000  -0.00000000  1.0
  Y  Y1  1  1.25000000  1.25000000  1.00000000  1.0
  Y  Y2  1  0.00000000  0.50000000  0.50000000  1.0
  Y  Y3  1  0.50000000  0.00000000  0.50000000  1.0
  Y  Y4  1  0.50000000  0.50000000  1.00000000  1.0
  Y  Y5  1  0.00000000  0.00000000  0.00000000  1.0
  Y  Y6  1  0.75000000  1.25000000  0.50000000  1.0
  Y  Y7  1  1.25000000  0.75000000  0.50000000  1.0
  P  P8  1  0.66367588  1.37500000  0.78867588  1.0
  P  P9  1  1.16367588  1.37500000  1.28867588  1.0
  P  P10  1  1.62500000  1.41367588  1.28867588  1.0
  P  P11  1  1.12500000  1.83632412  1.21132412  1.0
  P  P12  1  1.08632412  0.87500000  0.71132412  1.0
  P  P13  1  1.58632412  0.87500000  1.21132412  1.0
  P  P14  1  1.62500000  0.91367588  0.78867588  1.0
  P  P15  1  1.12500000  1.33632412  0.71132412  1.0
  S  S16  1  1.21151474  1.02927061  0.31013035  1.0
  S  S17  1  1.71151474  1.40138439  1.18224413  1.0
  S  S18  1  1.27927061  0.96151474  0.81013035  1.0
  S  S19  1  0.77927061  0.96914027  0.31775587  1.0
  S  S20  1  1.53848526  1.22072939  1.18986965  1.0
  S  S21  1  1.03848526  0.84861561  0.31775587  1.0
  S  S22  1  0.47072939  0.28848526  0.68986965  1.0
  S  S23  1  0.97072939  0.28085973  1.18224413  1.0
  S  S24  1  1.21914027  1.52927061  0.81775587  1.0
  S  S25  1  1.71914027  1.90138439  1.68986965  1.0
  S  S26  1  1.65138439  1.46151474  1.68224413  1.0
  S  S27  1  1.15138439  1.46914027  1.18986965  1.0
  S  S28  1  1.53085973  1.72072939  1.68224413  1.0
  S  S29  1  1.03085973  1.34861561  0.81013035  1.0
  S  S30  1  0.09861561  0.78848526  0.81775587  1.0
  S  S31  1  0.59861561  0.78085973  1.31013035  1.0
  S  S32  1  0.95930092  1.73562111  0.95085342  1.0
  S  S33  1  1.45930092  1.50844750  1.22367981  1.0
  S  S34  1  0.98562111  0.70930092  1.45085342  1.0
  S  S35  1  0.48562111  1.03476769  1.27632019  1.0
  S  S36  1  1.79069908  1.51437889  1.54914658  1.0
  S  S37  1  1.29069908  1.74155250  1.27632019  1.0
  S  S38  1  0.76437889  1.54069908  1.04914658  1.0
  S  S39  1  1.26437889  1.21523231  1.22367981  1.0
  S  S40  1  1.28476769  1.23562111  0.77632019  1.0
  S  S41  1  1.78476769  1.00844750  1.04914658  1.0
  S  S42  1  0.75844750  0.20930092  0.72367981  1.0
  S  S43  1  0.25844750  0.53476769  0.54914658  1.0
  S  S44  1  1.46523231  1.01437889  0.72367981  1.0
  S  S45  1  0.96523231  1.24155250  0.45085342  1.0
  S  S46  1  0.99155250  1.04069908  0.77632019  1.0
  S  S47  1  1.49155250  0.71523231  0.95085342  1.0
