# generated using pymatgen
data_Li2MnSiO4
_symmetry_space_group_name_H-M   'P 1'
_cell_length_a   6.30955730
_cell_length_b   5.41316983
_cell_length_c   5.03341643
_cell_angle_alpha   90.00000000
_cell_angle_beta   90.00000000
_cell_angle_gamma   90.00000000
_symmetry_Int_Tables_number   1
_chemical_formula_structural   Li2MnSiO4
_chemical_formula_sum   'Li4 Mn2 Si2 O8'
_cell_volume   171.91485427
_cell_formula_units_Z   2
loop_
 _symmetry_equiv_pos_site_id
 _symmetry_equiv_pos_as_xyz
  1  'x, y, z'
loop_
 _atom_site_type_symbol
 _atom_site_label
 _atom_site_symmetry_multiplicity
 _atom_site_fract_x
 _atom_site_fract_y
 _atom_site_fract_z
 _atom_site_occupancy
  Li  Li0  1  0.24941531  0.16904913  0.99462155  1.0
  Li  Li1  1  0.74941531  0.83095087  0.49462155  1.0
  Li  Li2  1  0.75058469  0.16904913  0.99462155  1.0
  Li  Li3  1  0.25058469  0.83095087  0.49462155  1.0
  Mn  Mn4  1  0.50000000  0.66719295  0.99318387  1.0
  Mn  Mn5  1  0.00000000  0.33280705  0.49318387  1.0
  Si  Si6  1  0.50000000  0.32340272  0.50081638  1.0
  Si  Si7  1  0.00000000  0.67659728  0.00081638  1.0
  O  O8  1  0.28596217  0.17976024  0.38906092  1.0
  O  O9  1  0.78596217  0.82023976  0.88906092  1.0
  O  O10  1  0.71403783  0.17976024  0.38906092  1.0
  O  O11  1  0.21403783  0.82023976  0.88906092  1.0
  O  O12  1  0.50000000  0.31765578  0.82942160  1.0
  O  O13  1  0.00000000  0.68234422  0.32942160  1.0
  O  O14  1  0.50000000  0.61611435  0.40151321  1.0
  O  O15  1  0.00000000  0.38388565  0.90151321  1.0
