# generated using pymatgen
data_Y10Cd3Ni
_symmetry_space_group_name_H-M   'P 1'
_cell_length_a   9.68339904
_cell_length_b   9.68339904
_cell_length_c   9.72743666
_cell_angle_alpha   90.00000000
_cell_angle_beta   90.00000000
_cell_angle_gamma   120.00000000
_symmetry_Int_Tables_number   1
_chemical_formula_structural   Y10Cd3Ni
_chemical_formula_sum   'Y20 Cd6 Ni2'
_cell_volume   789.92289439
_cell_formula_units_Z   2
loop_
 _symmetry_equiv_pos_site_id
 _symmetry_equiv_pos_as_xyz
  1  'x, y, z'
loop_
 _atom_site_type_symbol
 _atom_site_label
 _atom_site_symmetry_multiplicity
 _atom_site_fract_x
 _atom_site_fract_y
 _atom_site_fract_z
 _atom_site_occupancy
  Y  Y0  1  0.21053132  0.78946868  0.43660195  1.0
  Y  Y1  1  0.21053132  0.78946868  0.06339805  1.0
  Y  Y2  1  0.21053132  0.42106265  0.43660195  1.0
  Y  Y3  1  0.21053132  0.42106265  0.06339805  1.0
  Y  Y4  1  0.78946868  0.21053132  0.93660195  1.0
  Y  Y5  1  0.78946868  0.21053132  0.56339805  1.0
  Y  Y6  1  0.78946868  0.57893735  0.93660195  1.0
  Y  Y7  1  0.78946868  0.57893735  0.56339805  1.0
  Y  Y8  1  0.57893735  0.78946868  0.43660195  1.0
  Y  Y9  1  0.57893735  0.78946868  0.06339805  1.0
  Y  Y10  1  0.42106265  0.21053132  0.93660195  1.0
  Y  Y11  1  0.42106265  0.21053132  0.56339805  1.0
  Y  Y12  1  0.54420666  0.45579334  0.25000000  1.0
  Y  Y13  1  0.54420666  0.08841331  0.25000000  1.0
  Y  Y14  1  0.45579334  0.54420666  0.75000000  1.0
  Y  Y15  1  0.45579334  0.91158669  0.75000000  1.0
  Y  Y16  1  0.91158669  0.45579334  0.25000000  1.0
  Y  Y17  1  0.08841331  0.54420666  0.75000000  1.0
  Y  Y18  1  0.00000000  0.00000000  0.50000000  1.0
  Y  Y19  1  0.00000000  0.00000000  0.00000000  1.0
  Cd  Cd20  1  0.88447887  0.11552113  0.25000000  1.0
  Cd  Cd21  1  0.88447887  0.76895773  0.25000000  1.0
  Cd  Cd22  1  0.11552113  0.88447887  0.75000000  1.0
  Cd  Cd23  1  0.11552113  0.23104227  0.75000000  1.0
  Cd  Cd24  1  0.23104227  0.11552113  0.25000000  1.0
  Cd  Cd25  1  0.76895773  0.88447887  0.75000000  1.0
  Ni  Ni26  1  0.33333333  0.66666667  0.25000000  1.0
  Ni  Ni27  1  0.66666667  0.33333333  0.75000000  1.0
