# generated using pymatgen
data_ReSi2
_symmetry_space_group_name_H-M   'P 1'
_cell_length_a   4.52625369
_cell_length_b   4.52625369
_cell_length_c   4.52625369
_cell_angle_alpha   138.71710077
_cell_angle_beta   138.71710077
_cell_angle_gamma   59.80648143
_symmetry_Int_Tables_number   1
_chemical_formula_structural   ReSi2
_chemical_formula_sum   'Re1 Si2'
_cell_volume   39.95713240
_cell_formula_units_Z   1
loop_
 _symmetry_equiv_pos_site_id
 _symmetry_equiv_pos_as_xyz
  1  'x, y, z'
loop_
 _atom_site_type_symbol
 _atom_site_label
 _atom_site_symmetry_multiplicity
 _atom_site_fract_x
 _atom_site_fract_y
 _atom_site_fract_z
 _atom_site_occupancy
  Re  Re0  1  0.00000000  0.00000000  0.00000000  1.0
  Si  Si1  1  0.66844577  0.66844577  1.00000000  1.0
  Si  Si2  1  0.33155423  0.33155423  -0.00000000  1.0
