# generated using pymatgen
data_CaSO4
_symmetry_space_group_name_H-M   'P 1'
_cell_length_a   7.76276476
_cell_length_b   5.43393512
_cell_length_c   7.39899031
_cell_angle_alpha   90.00000000
_cell_angle_beta   90.00000000
_cell_angle_gamma   90.00000000
_symmetry_Int_Tables_number   1
_chemical_formula_structural   CaSO4
_chemical_formula_sum   'Ca4 S4 O16'
_cell_volume   312.10687323
_cell_formula_units_Z   4
loop_
 _symmetry_equiv_pos_site_id
 _symmetry_equiv_pos_as_xyz
  1  'x, y, z'
loop_
 _atom_site_type_symbol
 _atom_site_label
 _atom_site_symmetry_multiplicity
 _atom_site_fract_x
 _atom_site_fract_y
 _atom_site_fract_z
 _atom_site_occupancy
  Ca  Ca0  1  0.25009556  0.75000000  0.24991609  1.0
  Ca  Ca1  1  0.75009556  0.75000000  0.25008391  1.0
  Ca  Ca2  1  0.74990444  0.25000000  0.75008391  1.0
  Ca  Ca3  1  0.24990444  0.25000000  0.74991609  1.0
  S  S4  1  0.49991194  0.75000000  0.66948680  1.0
  S  S5  1  0.99991194  0.75000000  0.83051320  1.0
  S  S6  1  0.50008806  0.25000000  0.33051320  1.0
  S  S7  1  0.00008806  0.25000000  0.16948680  1.0
  O  O8  1  0.49989590  0.97843207  0.78547265  1.0
  O  O9  1  0.49989590  0.52156793  0.78547265  1.0
  O  O10  1  0.99989590  0.97843207  0.71452735  1.0
  O  O11  1  0.99989590  0.52156793  0.71452735  1.0
  O  O12  1  0.50010410  0.47843207  0.21452735  1.0
  O  O13  1  0.50010410  0.02156793  0.21452735  1.0
  O  O14  1  0.00010410  0.47843207  0.28547265  1.0
  O  O15  1  0.00010410  0.02156793  0.28547265  1.0
  O  O16  1  0.34004948  0.75000000  0.55872203  1.0
  O  O17  1  0.84004948  0.75000000  0.94127797  1.0
  O  O18  1  0.65995052  0.25000000  0.44127797  1.0
  O  O19  1  0.15995052  0.25000000  0.05872203  1.0
  O  O20  1  0.15979710  0.75000000  0.94123453  1.0
  O  O21  1  0.65979710  0.75000000  0.55876547  1.0
  O  O22  1  0.84020290  0.25000000  0.05876547  1.0
  O  O23  1  0.34020290  0.25000000  0.44123453  1.0
