# generated using pymatgen
data_Yb4Pt
_symmetry_space_group_name_H-M   'P 1'
_cell_length_a   7.85879550
_cell_length_b   7.85879550
_cell_length_c   7.85879550
_cell_angle_alpha   60.00000000
_cell_angle_beta   60.00000000
_cell_angle_gamma   60.00000000
_symmetry_Int_Tables_number   1
_chemical_formula_structural   Yb4Pt
_chemical_formula_sum   'Yb8 Pt2'
_cell_volume   343.20449406
_cell_formula_units_Z   2
loop_
 _symmetry_equiv_pos_site_id
 _symmetry_equiv_pos_as_xyz
  1  'x, y, z'
loop_
 _atom_site_type_symbol
 _atom_site_label
 _atom_site_symmetry_multiplicity
 _atom_site_fract_x
 _atom_site_fract_y
 _atom_site_fract_z
 _atom_site_occupancy
  Yb  Yb0  1  -0.11168737  0.88831263  0.33506210  1.0
  Yb  Yb1  1  0.88831263  -0.66493790  0.88831263  1.0
  Yb  Yb2  1  0.36168737  0.36168737  0.36168737  1.0
  Yb  Yb3  1  -0.08506210  0.36168737  0.36168737  1.0
  Yb  Yb4  1  -0.66493790  0.88831263  0.88831263  1.0
  Yb  Yb5  1  0.88831263  -0.11168737  0.88831263  1.0
  Yb  Yb6  1  0.36168737  -0.08506210  0.36168737  1.0
  Yb  Yb7  1  0.36168737  0.36168737  -0.08506210  1.0
  Pt  Pt8  1  0.50000000  0.50000000  -0.50000000  1.0
  Pt  Pt9  1  0.75000000  -0.25000000  0.75000000  1.0
