# generated using pymatgen
data_Cd8Ag5
_symmetry_space_group_name_H-M   'P 1'
_cell_length_a   8.77543170
_cell_length_b   8.77543170
_cell_length_c   8.77543170
_cell_angle_alpha   109.47122063
_cell_angle_beta   109.47122063
_cell_angle_gamma   109.47122063
_symmetry_Int_Tables_number   1
_chemical_formula_structural   Cd8Ag5
_chemical_formula_sum   'Cd16 Ag10'
_cell_volume   520.21584987
_cell_formula_units_Z   2
loop_
 _symmetry_equiv_pos_site_id
 _symmetry_equiv_pos_as_xyz
  1  'x, y, z'
loop_
 _atom_site_type_symbol
 _atom_site_label
 _atom_site_symmetry_multiplicity
 _atom_site_fract_x
 _atom_site_fract_y
 _atom_site_fract_z
 _atom_site_occupancy
  Cd  Cd0  1  0.77953682  0.77953682  0.77953682  1.0
  Cd  Cd1  1  1.00000000  1.00000000  0.22046318  1.0
  Cd  Cd2  1  1.00000000  0.22046318  1.00000000  1.0
  Cd  Cd3  1  0.22046318  1.00000000  1.00000000  1.0
  Cd  Cd4  1  0.37173105  0.65222553  0.65222553  1.0
  Cd  Cd5  1  0.65222553  0.37173105  0.65222553  1.0
  Cd  Cd6  1  1.00000000  0.71950552  1.34777447  1.0
  Cd  Cd7  1  0.71950552  1.00000000  1.34777447  1.0
  Cd  Cd8  1  0.65222553  0.65222553  0.37173105  1.0
  Cd  Cd9  1  1.28049448  1.28049448  0.62826895  1.0
  Cd  Cd10  1  1.00000000  1.34777447  0.71950552  1.0
  Cd  Cd11  1  1.28049448  0.62826895  1.28049448  1.0
  Cd  Cd12  1  0.62826895  1.28049448  1.28049448  1.0
  Cd  Cd13  1  1.34777447  1.00000000  0.71950552  1.0
  Cd  Cd14  1  0.71950552  1.34777447  1.00000000  1.0
  Cd  Cd15  1  1.34777447  0.71950552  1.00000000  1.0
  Ag  Ag16  1  0.64331546  0.64331546  0.00000000  1.0
  Ag  Ag17  1  0.64331546  -0.00000000  0.64331546  1.0
  Ag  Ag18  1  -0.00000000  0.64331546  0.64331546  1.0
  Ag  Ag19  1  0.35668454  -0.00000000  0.35668454  1.0
  Ag  Ag20  1  -0.00000000  0.35668454  0.35668454  1.0
  Ag  Ag21  1  0.35668454  0.35668454  0.00000000  1.0
  Ag  Ag22  1  0.34532011  0.34532011  0.34532011  1.0
  Ag  Ag23  1  1.00000000  1.00000000  0.65467989  1.0
  Ag  Ag24  1  1.00000000  0.65467989  1.00000000  1.0
  Ag  Ag25  1  0.65467989  1.00000000  1.00000000  1.0
