# generated using pymatgen
data_K5Bi4
_symmetry_space_group_name_H-M   'P 1'
_cell_length_a   6.96644315
_cell_length_b   6.96644315
_cell_length_c   11.70517293
_cell_angle_alpha   71.07198370
_cell_angle_beta   108.92801630
_cell_angle_gamma   132.25957088
_symmetry_Int_Tables_number   1
_chemical_formula_structural   K5Bi4
_chemical_formula_sum   'K5 Bi4'
_cell_volume   393.09044512
_cell_formula_units_Z   1
loop_
 _symmetry_equiv_pos_site_id
 _symmetry_equiv_pos_as_xyz
  1  'x, y, z'
loop_
 _atom_site_type_symbol
 _atom_site_label
 _atom_site_symmetry_multiplicity
 _atom_site_fract_x
 _atom_site_fract_y
 _atom_site_fract_z
 _atom_site_occupancy
  K  K0  1  0.90604737  -0.90604737  0.61462139  1.0
  K  K1  1  0.09395263  -0.09395263  0.38537861  1.0
  K  K2  1  0.24441351  -0.24441351  0.83404092  1.0
  K  K3  1  0.75558649  -0.75558649  0.16595908  1.0
  K  K4  1  0.00000000  0.00000000  0.00000000  1.0
  Bi  Bi5  1  0.60989567  0.39010433  0.60721851  1.0
  Bi  Bi6  1  1.39010433  -0.39010433  0.39278149  1.0
  Bi  Bi7  1  0.54540323  0.45459677  0.83073807  1.0
  Bi  Bi8  1  1.45459677  -0.45459677  0.16926193  1.0
