# generated using pymatgen
data_Ge2Pt3
_symmetry_space_group_name_H-M   'P 1'
_cell_length_a   6.38716679
_cell_length_b   6.38716679
_cell_length_c   7.65350728
_cell_angle_alpha   90.00000000
_cell_angle_beta   90.00000000
_cell_angle_gamma   147.95486594
_symmetry_Int_Tables_number   1
_chemical_formula_structural   Ge2Pt3
_chemical_formula_sum   'Ge4 Pt6'
_cell_volume   165.66613236
_cell_formula_units_Z   2
loop_
 _symmetry_equiv_pos_site_id
 _symmetry_equiv_pos_as_xyz
  1  'x, y, z'
loop_
 _atom_site_type_symbol
 _atom_site_label
 _atom_site_symmetry_multiplicity
 _atom_site_fract_x
 _atom_site_fract_y
 _atom_site_fract_z
 _atom_site_occupancy
  Ge  Ge0  1  0.25635546  0.74364454  0.75000000  1.0
  Ge  Ge1  1  -0.25635546  0.25635546  0.25000000  1.0
  Ge  Ge2  1  0.00000000  0.00000000  0.00000000  1.0
  Ge  Ge3  1  0.00000000  0.00000000  0.50000000  1.0
  Pt  Pt4  1  0.46606542  0.53393458  0.75000000  1.0
  Pt  Pt5  1  -0.46606542  0.46606542  0.25000000  1.0
  Pt  Pt6  1  0.33953036  0.66046964  0.44110583  1.0
  Pt  Pt7  1  0.33953036  0.66046964  0.05889417  1.0
  Pt  Pt8  1  -0.33953036  0.33953036  0.94110583  1.0
  Pt  Pt9  1  -0.33953036  0.33953036  0.55889417  1.0
