# generated using pymatgen
data_SrPd
_symmetry_space_group_name_H-M   'P 1'
_cell_length_a   6.08140528
_cell_length_b   6.08140528
_cell_length_c   4.54764555
_cell_angle_alpha   90.00000000
_cell_angle_beta   90.00000000
_cell_angle_gamma   139.00951807
_symmetry_Int_Tables_number   1
_chemical_formula_structural   SrPd
_chemical_formula_sum   'Sr2 Pd2'
_cell_volume   110.32004001
_cell_formula_units_Z   2
loop_
 _symmetry_equiv_pos_site_id
 _symmetry_equiv_pos_as_xyz
  1  'x, y, z'
loop_
 _atom_site_type_symbol
 _atom_site_label
 _atom_site_symmetry_multiplicity
 _atom_site_fract_x
 _atom_site_fract_y
 _atom_site_fract_z
 _atom_site_occupancy
  Sr  Sr0  1  -0.63897192  0.63897192  0.25000000  1.0
  Sr  Sr1  1  -0.36102808  1.36102808  0.75000000  1.0
  Pd  Pd2  1  -0.92803769  0.92803769  0.25000000  1.0
  Pd  Pd3  1  -0.07196231  1.07196231  0.75000000  1.0
