# generated using pymatgen
data_Y2B3C2
_symmetry_space_group_name_H-M   'P 1'
_cell_length_a   7.06557559
_cell_length_b   7.06557559
_cell_length_c   3.64356179
_cell_angle_alpha   90.00000000
_cell_angle_beta   90.00000000
_cell_angle_gamma   152.25060087
_symmetry_Int_Tables_number   1
_chemical_formula_structural   Y2B3C2
_chemical_formula_sum   'Y2 B3 C2'
_cell_volume   84.69135705
_cell_formula_units_Z   1
loop_
 _symmetry_equiv_pos_site_id
 _symmetry_equiv_pos_as_xyz
  1  'x, y, z'
loop_
 _atom_site_type_symbol
 _atom_site_label
 _atom_site_symmetry_multiplicity
 _atom_site_fract_x
 _atom_site_fract_y
 _atom_site_fract_z
 _atom_site_occupancy
  Y  Y0  1  -0.63631918  0.63631918  0.50000000  1.0
  Y  Y1  1  -0.36368082  1.36368082  0.50000000  1.0
  B  B2  1  -0.78270043  0.78270043  0.00000000  1.0
  B  B3  1  -0.21729957  1.21729957  0.00000000  1.0
  B  B4  1  0.00000000  0.00000000  0.00000000  1.0
  C  C5  1  -0.89499479  0.89499479  0.00000000  1.0
  C  C6  1  -0.10500521  1.10500521  0.00000000  1.0
