# generated using pymatgen
data_Mg(AlS2)2
_symmetry_space_group_name_H-M   'P 1'
_cell_length_a   13.28347858
_cell_length_b   13.28347858
_cell_length_c   13.28347858
_cell_angle_alpha   16.07467593
_cell_angle_beta   16.07467593
_cell_angle_gamma   16.07467593
_symmetry_Int_Tables_number   1
_chemical_formula_structural   Mg(AlS2)2
_chemical_formula_sum   'Mg1 Al2 S4'
_cell_volume   156.64610281
_cell_formula_units_Z   1
loop_
 _symmetry_equiv_pos_site_id
 _symmetry_equiv_pos_as_xyz
  1  'x, y, z'
loop_
 _atom_site_type_symbol
 _atom_site_label
 _atom_site_symmetry_multiplicity
 _atom_site_fract_x
 _atom_site_fract_y
 _atom_site_fract_z
 _atom_site_occupancy
  Mg  Mg0  1  0.00058114  0.00058114  0.00058114  1.0
  Al  Al1  1  0.75751558  -0.24248442  -0.24248442  1.0
  Al  Al2  1  0.24362722  0.24362722  0.24362722  1.0
  S  S3  1  0.88565274  -0.11434726  -0.11434726  1.0
  S  S4  1  0.11547430  0.11547430  0.11547430  1.0
  S  S5  1  0.29887576  0.29887576  0.29887576  1.0
  S  S6  1  0.70227326  -0.29772674  -0.29772674  1.0
