# generated using pymatgen
data_BiSeO6
_symmetry_space_group_name_H-M   'P 1'
_cell_length_a   6.33985855
_cell_length_b   12.93430533
_cell_length_c   7.35386524
_cell_angle_alpha   90.00000000
_cell_angle_beta   121.80194124
_cell_angle_gamma   90.00000000
_symmetry_Int_Tables_number   1
_chemical_formula_structural   BiSeO6
_chemical_formula_sum   'Bi4 Se4 O24'
_cell_volume   512.49934619
_cell_formula_units_Z   4
loop_
 _symmetry_equiv_pos_site_id
 _symmetry_equiv_pos_as_xyz
  1  'x, y, z'
loop_
 _atom_site_type_symbol
 _atom_site_label
 _atom_site_symmetry_multiplicity
 _atom_site_fract_x
 _atom_site_fract_y
 _atom_site_fract_z
 _atom_site_occupancy
  O  O0  1  0.85845501  0.76696511  0.28470939  1.0
  O  O1  1  0.85845501  0.73303489  0.78470939  1.0
  O  O2  1  0.14154499  0.26696511  0.21529061  1.0
  O  O3  1  0.14154499  0.23303489  0.71529061  1.0
  O  O4  1  0.82581000  0.10447280  0.38020367  1.0
  O  O5  1  0.82581000  0.39552720  0.88020367  1.0
  O  O6  1  0.17419000  0.60447280  0.11979633  1.0
  O  O7  1  0.17419000  0.89552720  0.61979633  1.0
  O  O8  1  0.62278654  0.27422267  0.03333874  1.0
  O  O9  1  0.62278654  0.22577733  0.53333874  1.0
  O  O10  1  0.37721346  0.77422267  0.46666126  1.0
  O  O11  1  0.37721346  0.72577733  0.96666126  1.0
  O  O12  1  0.36034714  0.04303310  0.37983920  1.0
  O  O13  1  0.36034714  0.45696690  0.87983920  1.0
  O  O14  1  0.63965286  0.54303310  0.12016080  1.0
  O  O15  1  0.63965286  0.95696690  0.62016080  1.0
  O  O16  1  0.54971401  0.45292655  0.41226703  1.0
  O  O17  1  0.54971401  0.04707345  0.91226703  1.0
  O  O18  1  0.45028599  0.95292655  0.08773297  1.0
  O  O19  1  0.45028599  0.54707345  0.58773297  1.0
  O  O20  1  0.95212242  0.42524757  0.30332567  1.0
  O  O21  1  0.95212242  0.07475243  0.80332567  1.0
  O  O22  1  0.04787758  0.92524757  0.19667433  1.0
  O  O23  1  0.04787758  0.57475243  0.69667433  1.0
  Bi  Bi24  1  0.41478767  0.12864677  0.10301163  1.0
  Bi  Bi25  1  0.41478767  0.37135323  0.60301163  1.0
  Bi  Bi26  1  0.58521233  0.62864677  0.39698837  1.0
  Bi  Bi27  1  0.58521233  0.87135323  0.89698837  1.0
  Se  Se28  1  0.88579031  0.33860683  0.10870639  1.0
  Se  Se29  1  0.88579031  0.16139317  0.60870639  1.0
  Se  Se30  1  0.11420969  0.83860683  0.39129361  1.0
  Se  Se31  1  0.11420969  0.66139317  0.89129361  1.0
