# generated using pymatgen
data_K3ReC4(N2O)2
_symmetry_space_group_name_H-M   'P 1'
_cell_length_a   7.02610093
_cell_length_b   6.46759010
_cell_length_c   7.99638344
_cell_angle_alpha   61.84581450
_cell_angle_beta   61.09867545
_cell_angle_gamma   74.50262074
_symmetry_Int_Tables_number   1
_chemical_formula_structural   K3ReC4(N2O)2
_chemical_formula_sum   'K3 Re1 C4 N4 O2'
_cell_volume   280.11452974
_cell_formula_units_Z   1
loop_
 _symmetry_equiv_pos_site_id
 _symmetry_equiv_pos_as_xyz
  1  'x, y, z'
loop_
 _atom_site_type_symbol
 _atom_site_label
 _atom_site_symmetry_multiplicity
 _atom_site_fract_x
 _atom_site_fract_y
 _atom_site_fract_z
 _atom_site_occupancy
  K  K0  1  -0.33310461  -0.15885690  0.69882054  1.0
  K  K1  1  -0.66689539  0.15885690  0.30117946  1.0
  K  K2  1  0.00000000  0.00000000  0.00000000  1.0
  Re  Re3  1  -0.50000000  -0.50000000  0.50000000  1.0
  C  C4  1  -0.59679529  0.64560084  0.25140457  1.0
  C  C5  1  -0.40320471  -0.64560084  0.74859543  1.0
  C  C6  1  -0.78889715  -0.34060354  0.66592630  1.0
  C  C7  1  -0.21110285  0.34060354  0.33407370  1.0
  N  N8  1  -0.65461903  0.72460167  0.11669734  1.0
  N  N9  1  -0.34538097  -0.72460167  0.88330266  1.0
  N  N10  1  -0.94241278  -0.23363223  0.74237849  1.0
  N  N11  1  -0.05758722  0.23363223  0.25762151  1.0
  O  O12  1  -0.63695169  0.23665459  0.61009662  1.0
  O  O13  1  -0.36304831  -0.23665459  0.38990338  1.0
