# generated using pymatgen
data_Sc2B6Ir
_symmetry_space_group_name_H-M   'P 1'
_cell_length_a   8.91613960
_cell_length_b   11.20894658
_cell_length_c   3.46618135
_cell_angle_alpha   90.00000000
_cell_angle_beta   90.00000000
_cell_angle_gamma   90.00000000
_symmetry_Int_Tables_number   1
_chemical_formula_structural   Sc2B6Ir
_chemical_formula_sum   'Sc8 B24 Ir4'
_cell_volume   346.41200948
_cell_formula_units_Z   4
loop_
 _symmetry_equiv_pos_site_id
 _symmetry_equiv_pos_as_xyz
  1  'x, y, z'
loop_
 _atom_site_type_symbol
 _atom_site_label
 _atom_site_symmetry_multiplicity
 _atom_site_fract_x
 _atom_site_fract_y
 _atom_site_fract_z
 _atom_site_occupancy
  Sc  Sc0  1  0.18239809  0.91412861  0.50000000  1.0
  Sc  Sc1  1  0.68239809  0.58587139  0.50000000  1.0
  Sc  Sc2  1  0.81760191  0.08587139  0.50000000  1.0
  Sc  Sc3  1  0.31760191  0.41412861  0.50000000  1.0
  Sc  Sc4  1  0.05565206  0.62518085  0.50000000  1.0
  Sc  Sc5  1  0.55565206  0.87481915  0.50000000  1.0
  Sc  Sc6  1  0.94434794  0.37481915  0.50000000  1.0
  Sc  Sc7  1  0.44434794  0.12518085  0.50000000  1.0
  B  B8  1  0.44610028  0.56362648  0.00000000  1.0
  B  B9  1  0.94610028  0.93637352  0.00000000  1.0
  B  B10  1  0.55389972  0.43637352  0.00000000  1.0
  B  B11  1  0.05389972  0.06362648  0.00000000  1.0
  B  B12  1  0.39707431  0.97197156  0.00000000  1.0
  B  B13  1  0.89707431  0.52802844  0.00000000  1.0
  B  B14  1  0.60292569  0.02802844  0.00000000  1.0
  B  B15  1  0.10292569  0.47197156  0.00000000  1.0
  B  B16  1  0.36918970  0.81887227  0.00000000  1.0
  B  B17  1  0.86918970  0.68112773  0.00000000  1.0
  B  B18  1  0.63081030  0.18112773  0.00000000  1.0
  B  B19  1  0.13081030  0.31887227  0.00000000  1.0
  B  B20  1  0.24735680  0.57761023  0.00000000  1.0
  B  B21  1  0.74735680  0.92238977  0.00000000  1.0
  B  B22  1  0.75264320  0.42238977  0.00000000  1.0
  B  B23  1  0.25264320  0.07761023  0.00000000  1.0
  B  B24  1  0.20447840  0.73698158  0.00000000  1.0
  B  B25  1  0.70447840  0.76301842  0.00000000  1.0
  B  B26  1  0.79552160  0.26301842  0.00000000  1.0
  B  B27  1  0.29552160  0.23698158  0.00000000  1.0
  B  B28  1  0.02074288  0.78681058  0.00000000  1.0
  B  B29  1  0.52074288  0.71318942  0.00000000  1.0
  B  B30  1  0.97925712  0.21318942  0.00000000  1.0
  B  B31  1  0.47925712  0.28681058  0.00000000  1.0
  Ir  Ir32  1  0.36016285  0.67983182  0.50000000  1.0
  Ir  Ir33  1  0.86016285  0.82016818  0.50000000  1.0
  Ir  Ir34  1  0.63983715  0.32016818  0.50000000  1.0
  Ir  Ir35  1  0.13983715  0.17983182  0.50000000  1.0
