# generated using pymatgen
data_V5B6
_symmetry_space_group_name_H-M   'P 1'
_cell_length_a   10.69768275
_cell_length_b   10.69768275
_cell_length_c   3.03917633
_cell_angle_alpha   90.00000000
_cell_angle_beta   90.00000000
_cell_angle_gamma   164.04122464
_symmetry_Int_Tables_number   1
_chemical_formula_structural   V5B6
_chemical_formula_sum   'V5 B6'
_cell_volume   95.62736349
_cell_formula_units_Z   1
loop_
 _symmetry_equiv_pos_site_id
 _symmetry_equiv_pos_as_xyz
  1  'x, y, z'
loop_
 _atom_site_type_symbol
 _atom_site_label
 _atom_site_symmetry_multiplicity
 _atom_site_fract_x
 _atom_site_fract_y
 _atom_site_fract_z
 _atom_site_occupancy
  V  V0  1  -0.80567650  0.80567650  0.50000000  1.0
  V  V1  1  -0.19432350  1.19432350  0.50000000  1.0
  V  V2  1  -0.61661699  0.61661699  0.00000000  1.0
  V  V3  1  -0.38338301  1.38338301  0.00000000  1.0
  V  V4  1  0.00000000  0.00000000  0.00000000  1.0
  B  B5  1  -0.91511085  0.91511085  0.50000000  1.0
  B  B6  1  -0.08488915  1.08488915  0.50000000  1.0
  B  B7  1  -0.54086105  0.54086105  0.50000000  1.0
  B  B8  1  -0.45913895  1.45913895  0.50000000  1.0
  B  B9  1  -0.72621387  0.72621387  0.00000000  1.0
  B  B10  1  -0.27378613  1.27378613  0.00000000  1.0
