# generated using pymatgen
data_Cs3VS4
_symmetry_space_group_name_H-M   'P 1'
_cell_length_a   9.85061365
_cell_length_b   11.68683671
_cell_length_c   9.89483942
_cell_angle_alpha   90.00000000
_cell_angle_beta   90.00000000
_cell_angle_gamma   90.00000000
_symmetry_Int_Tables_number   1
_chemical_formula_structural   Cs3VS4
_chemical_formula_sum   'Cs12 V4 S16'
_cell_volume   1139.11878183
_cell_formula_units_Z   4
loop_
 _symmetry_equiv_pos_site_id
 _symmetry_equiv_pos_as_xyz
  1  'x, y, z'
loop_
 _atom_site_type_symbol
 _atom_site_label
 _atom_site_symmetry_multiplicity
 _atom_site_fract_x
 _atom_site_fract_y
 _atom_site_fract_z
 _atom_site_occupancy
  Cs  Cs0  1  0.45439624  0.95800921  0.79064936  1.0
  Cs  Cs1  1  0.45439624  0.54199079  0.79064936  1.0
  Cs  Cs2  1  0.95439624  0.95800921  0.70935064  1.0
  Cs  Cs3  1  0.95439624  0.54199079  0.70935064  1.0
  Cs  Cs4  1  0.54560376  0.45800921  0.20935064  1.0
  Cs  Cs5  1  0.54560376  0.04199079  0.20935064  1.0
  Cs  Cs6  1  0.04560376  0.45800921  0.29064936  1.0
  Cs  Cs7  1  0.04560376  0.04199079  0.29064936  1.0
  Cs  Cs8  1  0.14782604  0.75000000  0.08537548  1.0
  Cs  Cs9  1  0.64782604  0.75000000  0.41462452  1.0
  Cs  Cs10  1  0.85217396  0.25000000  0.91462452  1.0
  Cs  Cs11  1  0.35217396  0.25000000  0.58537548  1.0
  V  V12  1  0.22229693  0.75000000  0.51542052  1.0
  V  V13  1  0.72229693  0.75000000  0.98457948  1.0
  V  V14  1  0.77770307  0.25000000  0.48457948  1.0
  V  V15  1  0.27770307  0.25000000  0.01542052  1.0
  S  S16  1  0.17168074  0.40256009  0.95171612  1.0
  S  S17  1  0.17168074  0.09743991  0.95171612  1.0
  S  S18  1  0.67168074  0.40256009  0.54828388  1.0
  S  S19  1  0.67168074  0.09743991  0.54828388  1.0
  S  S20  1  0.82831926  0.90256009  0.04828388  1.0
  S  S21  1  0.82831926  0.59743991  0.04828388  1.0
  S  S22  1  0.32831926  0.90256009  0.45171612  1.0
  S  S23  1  0.32831926  0.59743991  0.45171612  1.0
  S  S24  1  0.51853711  0.75000000  0.06706690  1.0
  S  S25  1  0.01853711  0.75000000  0.43293310  1.0
  S  S26  1  0.48146289  0.25000000  0.93293310  1.0
  S  S27  1  0.98146289  0.25000000  0.56706690  1.0
  S  S28  1  0.21074545  0.75000000  0.73400468  1.0
  S  S29  1  0.71074545  0.75000000  0.76599532  1.0
  S  S30  1  0.78925455  0.25000000  0.26599532  1.0
  S  S31  1  0.28925455  0.25000000  0.23400468  1.0
