# generated using pymatgen
data_NaAlO2
_symmetry_space_group_name_H-M   'P 1'
_cell_length_a   5.41058001
_cell_length_b   5.41058001
_cell_length_c   7.10150101
_cell_angle_alpha   90.00000000
_cell_angle_beta   90.00000000
_cell_angle_gamma   90.00000000
_symmetry_Int_Tables_number   1
_chemical_formula_structural   NaAlO2
_chemical_formula_sum   'Na4 Al4 O8'
_cell_volume   207.89201097
_cell_formula_units_Z   4
loop_
 _symmetry_equiv_pos_site_id
 _symmetry_equiv_pos_as_xyz
  1  'x, y, z'
loop_
 _atom_site_type_symbol
 _atom_site_label
 _atom_site_symmetry_multiplicity
 _atom_site_fract_x
 _atom_site_fract_y
 _atom_site_fract_z
 _atom_site_occupancy
  Na  Na0  1  0.20417523  0.79582477  0.25000000  1.0
  Na  Na1  1  0.70417523  0.70417523  0.50000000  1.0
  Na  Na2  1  0.79582477  0.20417523  0.75000000  1.0
  Na  Na3  1  0.29582477  0.29582477  0.00000000  1.0
  Al  Al4  1  0.80776288  0.19223712  0.25000000  1.0
  Al  Al5  1  0.30776288  0.30776288  0.50000000  1.0
  Al  Al6  1  0.19223712  0.80776288  0.75000000  1.0
  Al  Al7  1  0.69223712  0.69223712  0.00000000  1.0
  O  O8  1  0.37030720  0.73002468  0.95151003  1.0
  O  O9  1  0.87030720  0.76997532  0.79848997  1.0
  O  O10  1  0.26997532  0.62969280  0.54848997  1.0
  O  O11  1  0.76997532  0.87030720  0.20151003  1.0
  O  O12  1  0.62969280  0.26997532  0.45151003  1.0
  O  O13  1  0.12969280  0.23002468  0.29848997  1.0
  O  O14  1  0.73002468  0.37030720  0.04848997  1.0
  O  O15  1  0.23002468  0.12969280  0.70151003  1.0
