# generated using pymatgen
data_TlSb3S5
_symmetry_space_group_name_H-M   'P 1'
_cell_length_a   7.57045738
_cell_length_b   16.05452064
_cell_length_c   9.15050364
_cell_angle_alpha   90.00000000
_cell_angle_beta   114.21717167
_cell_angle_gamma   90.00000000
_symmetry_Int_Tables_number   1
_chemical_formula_structural   TlSb3S5
_chemical_formula_sum   'Tl4 Sb12 S20'
_cell_volume   1014.28026246
_cell_formula_units_Z   4
loop_
 _symmetry_equiv_pos_site_id
 _symmetry_equiv_pos_as_xyz
  1  'x, y, z'
loop_
 _atom_site_type_symbol
 _atom_site_label
 _atom_site_symmetry_multiplicity
 _atom_site_fract_x
 _atom_site_fract_y
 _atom_site_fract_z
 _atom_site_occupancy
  Tl  Tl0  1  0.95642812  0.25897626  0.96489512  1.0
  Tl  Tl1  1  0.95642812  0.24102374  0.46489512  1.0
  Tl  Tl2  1  0.04357188  0.75897626  0.53510488  1.0
  Tl  Tl3  1  0.04357188  0.74102374  0.03510488  1.0
  Sb  Sb4  1  0.45728363  0.09783225  0.11041561  1.0
  Sb  Sb5  1  0.45728363  0.40216775  0.61041561  1.0
  Sb  Sb6  1  0.54271637  0.59783225  0.38958439  1.0
  Sb  Sb7  1  0.54271637  0.90216775  0.88958439  1.0
  Sb  Sb8  1  -0.01095207  0.50038157  0.28446879  1.0
  Sb  Sb9  1  -0.01095207  0.99961843  0.78446879  1.0
  Sb  Sb10  1  0.01095207  0.00038157  0.21553121  1.0
  Sb  Sb11  1  0.01095207  0.49961843  0.71553121  1.0
  Sb  Sb12  1  0.49639516  0.37080005  0.06419677  1.0
  Sb  Sb13  1  0.49639516  0.12919995  0.56419677  1.0
  Sb  Sb14  1  0.50360484  0.87080005  0.43580323  1.0
  Sb  Sb15  1  0.50360484  0.62919995  0.93580323  1.0
  S  S16  1  0.79588408  0.87097432  0.16074181  1.0
  S  S17  1  0.79588408  0.62902568  0.66074181  1.0
  S  S18  1  0.20411592  0.37097432  0.33925819  1.0
  S  S19  1  0.20411592  0.12902568  0.83925819  1.0
  S  S20  1  0.77700765  0.44024557  0.40134400  1.0
  S  S21  1  0.77700765  0.05975443  0.90134400  1.0
  S  S22  1  0.22299235  0.94024557  0.09865600  1.0
  S  S23  1  0.22299235  0.55975443  0.59865600  1.0
  S  S24  1  0.74201363  0.44139272  0.99783892  1.0
  S  S25  1  0.74201363  0.05860728  0.49783892  1.0
  S  S26  1  0.25798637  0.94139272  0.50216108  1.0
  S  S27  1  0.25798637  0.55860728  0.00216108  1.0
  S  S28  1  0.65830414  0.22940276  0.11292128  1.0
  S  S29  1  0.65830414  0.27059724  0.61292128  1.0
  S  S30  1  0.34169586  0.72940276  0.38707872  1.0
  S  S31  1  0.34169586  0.77059724  0.88707872  1.0
  S  S32  1  0.28181350  0.15670538  0.26450704  1.0
  S  S33  1  0.28181350  0.34329462  0.76450704  1.0
  S  S34  1  0.71818650  0.65670538  0.23549296  1.0
  S  S35  1  0.71818650  0.84329462  0.73549296  1.0
