# generated using pymatgen
data_Ba2ZrO4
_symmetry_space_group_name_H-M   'P 1'
_cell_length_a   7.40848834
_cell_length_b   7.40848834
_cell_length_c   7.40848834
_cell_angle_alpha   146.88290521
_cell_angle_beta   146.88290521
_cell_angle_gamma   47.53719148
_symmetry_Int_Tables_number   1
_chemical_formula_structural   Ba2ZrO4
_chemical_formula_sum   'Ba2 Zr1 O4'
_cell_volume   120.90103555
_cell_formula_units_Z   1
loop_
 _symmetry_equiv_pos_site_id
 _symmetry_equiv_pos_as_xyz
  1  'x, y, z'
loop_
 _atom_site_type_symbol
 _atom_site_label
 _atom_site_symmetry_multiplicity
 _atom_site_fract_x
 _atom_site_fract_y
 _atom_site_fract_z
 _atom_site_occupancy
  Ba  Ba0  1  0.64709475  0.64709475  1.00000000  1.0
  Ba  Ba1  1  0.35290525  0.35290525  -0.00000000  1.0
  Zr  Zr2  1  0.00000000  0.00000000  0.00000000  1.0
  O  O3  1  0.84304746  0.84304746  1.00000000  1.0
  O  O4  1  0.15695254  0.15695254  -0.00000000  1.0
  O  O5  1  0.50000000  0.00000000  0.50000000  1.0
  O  O6  1  0.00000000  0.50000000  0.50000000  1.0
