# generated using pymatgen
data_PH5NO4
_symmetry_space_group_name_H-M   'P 1'
_cell_length_a   4.49947687
_cell_length_b   8.34502714
_cell_length_c   11.06237551
_cell_angle_alpha   90.00000000
_cell_angle_beta   101.30458179
_cell_angle_gamma   90.00000000
_symmetry_Int_Tables_number   1
_chemical_formula_structural   PH5NO4
_chemical_formula_sum   'P4 H20 N4 O16'
_cell_volume   407.31425879
_cell_formula_units_Z   4
loop_
 _symmetry_equiv_pos_site_id
 _symmetry_equiv_pos_as_xyz
  1  'x, y, z'
loop_
 _atom_site_type_symbol
 _atom_site_label
 _atom_site_symmetry_multiplicity
 _atom_site_fract_x
 _atom_site_fract_y
 _atom_site_fract_z
 _atom_site_occupancy
  P  P0  1  0.49366086  0.81643433  0.68114472  1.0
  P  P1  1  0.49366086  0.68356567  0.18114472  1.0
  P  P2  1  0.50633914  0.31643433  0.81885528  1.0
  P  P3  1  0.50633914  0.18356567  0.31885528  1.0
  H  H4  1  0.96656625  0.42476622  0.84261005  1.0
  H  H5  1  0.96656625  0.07523378  0.34261005  1.0
  H  H6  1  0.03343375  0.92476622  0.65738995  1.0
  H  H7  1  0.03343375  0.57523378  0.15738995  1.0
  H  H8  1  0.91741736  0.91634448  0.88211039  1.0
  H  H9  1  0.91741736  0.58365552  0.38211039  1.0
  H  H10  1  0.08258264  0.41634448  0.61788961  1.0
  H  H11  1  0.08258264  0.08365552  0.11788961  1.0
  H  H12  1  0.82780873  0.64250018  0.52216925  1.0
  H  H13  1  0.82780873  0.85749982  0.02216925  1.0
  H  H14  1  0.17219127  0.14250018  0.97783075  1.0
  H  H15  1  0.17219127  0.35749982  0.47783075  1.0
  H  H16  1  0.35222529  0.62477496  0.79498990  1.0
  H  H17  1  0.35222529  0.87522504  0.29498990  1.0
  H  H18  1  0.64777471  0.12477496  0.70501010  1.0
  H  H19  1  0.64777471  0.37522504  0.20501010  1.0
  H  H20  1  0.20914490  0.86612770  1.00678326  1.0
  H  H21  1  0.20914490  0.63387230  0.50678326  1.0
  H  H22  1  0.79085510  0.36612770  0.49321674  1.0
  H  H23  1  0.79085510  0.13387230  -0.00678326  1.0
  N  N24  1  0.99101866  0.91778710  0.97904983  1.0
  N  N25  1  0.99101866  0.58221290  0.47904983  1.0
  N  N26  1  0.00898134  0.41778710  0.52095017  1.0
  N  N27  1  0.00898134  0.08221290  0.02095017  1.0
  O  O28  1  0.79317741  0.41212070  0.88847447  1.0
  O  O29  1  0.79317741  0.08787930  0.38847447  1.0
  O  O30  1  0.20682259  0.91212070  0.61152553  1.0
  O  O31  1  0.20682259  0.58787930  0.11152553  1.0
  O  O32  1  0.75515504  0.93644255  0.72529892  1.0
  O  O33  1  0.75515504  0.56355745  0.22529892  1.0
  O  O34  1  0.24484496  0.43644255  0.77470108  1.0
  O  O35  1  0.24484496  0.06355745  0.27470108  1.0
  O  O36  1  0.56236893  0.68486633  0.59456880  1.0
  O  O37  1  0.56236893  0.81513367  0.09456880  1.0
  O  O38  1  0.43763107  0.18486633  0.90543120  1.0
  O  O39  1  0.43763107  0.31513367  0.40543120  1.0
  O  O40  1  0.40877863  0.74223286  0.80276128  1.0
  O  O41  1  0.40877863  0.75776714  0.30276128  1.0
  O  O42  1  0.59122137  0.24223286  0.69723872  1.0
  O  O43  1  0.59122137  0.25776714  0.19723872  1.0
