# generated using pymatgen
data_CdI2
_symmetry_space_group_name_H-M   'P 1'
_cell_length_a   4.32845206
_cell_length_b   4.32845206
_cell_length_c   68.27855050
_cell_angle_alpha   90.00000000
_cell_angle_beta   90.00000000
_cell_angle_gamma   120.00000000
_symmetry_Int_Tables_number   1
_chemical_formula_structural   CdI2
_chemical_formula_sum   'Cd9 I18'
_cell_volume   1107.84792268
_cell_formula_units_Z   9
loop_
 _symmetry_equiv_pos_site_id
 _symmetry_equiv_pos_as_xyz
  1  'x, y, z'
loop_
 _atom_site_type_symbol
 _atom_site_label
 _atom_site_symmetry_multiplicity
 _atom_site_fract_x
 _atom_site_fract_y
 _atom_site_fract_z
 _atom_site_occupancy
  Cd  Cd0  1  0.00000000  0.00000000  0.02780880  1.0
  Cd  Cd1  1  0.00000000  0.00000000  0.13889888  1.0
  Cd  Cd2  1  0.00000000  0.00000000  0.24998484  1.0
  Cd  Cd3  1  0.00000000  0.00000000  0.58334592  1.0
  Cd  Cd4  1  0.00000000  0.00000000  0.69443867  1.0
  Cd  Cd5  1  0.00000000  0.00000000  0.80554550  1.0
  Cd  Cd6  1  0.66666667  0.33333333  0.36111613  1.0
  Cd  Cd7  1  0.66666667  0.33333333  0.47219251  1.0
  Cd  Cd8  1  0.33333333  0.66666667  0.91666869  1.0
  I  I9  1  0.00000000  0.00000000  0.38629446  1.0
  I  I10  1  0.00000000  0.00000000  0.49737214  1.0
  I  I11  1  0.00000000  0.00000000  0.89149999  1.0
  I  I12  1  0.66666667  0.33333333  0.05298850  1.0
  I  I13  1  0.66666667  0.33333333  0.16407870  1.0
  I  I14  1  0.66666667  0.33333333  0.27516494  1.0
  I  I15  1  0.66666667  0.33333333  0.60851433  1.0
  I  I16  1  0.66666667  0.33333333  0.71960780  1.0
  I  I17  1  0.66666667  0.33333333  0.83071177  1.0
  I  I18  1  0.66666667  0.33333333  0.94183545  1.0
  I  I19  1  0.33333333  0.66666667  0.00262920  1.0
  I  I20  1  0.33333333  0.66666667  0.11371910  1.0
  I  I21  1  0.33333333  0.66666667  0.22480476  1.0
  I  I22  1  0.33333333  0.66666667  0.33593861  1.0
  I  I23  1  0.33333333  0.66666667  0.44701321  1.0
  I  I24  1  0.33333333  0.66666667  0.55817921  1.0
  I  I25  1  0.33333333  0.66666667  0.66927017  1.0
  I  I26  1  0.33333333  0.66666667  0.78037773  1.0
