# generated using pymatgen
data_TiCdO3
_symmetry_space_group_name_H-M   'P 1'
_cell_length_a   5.47849302
_cell_length_b   5.34492812
_cell_length_c   7.80092624
_cell_angle_alpha   90.00000000
_cell_angle_beta   90.00000000
_cell_angle_gamma   90.00000000
_symmetry_Int_Tables_number   1
_chemical_formula_structural   TiCdO3
_chemical_formula_sum   'Ti4 Cd4 O12'
_cell_volume   228.42790346
_cell_formula_units_Z   4
loop_
 _symmetry_equiv_pos_site_id
 _symmetry_equiv_pos_as_xyz
  1  'x, y, z'
loop_
 _atom_site_type_symbol
 _atom_site_label
 _atom_site_symmetry_multiplicity
 _atom_site_fract_x
 _atom_site_fract_y
 _atom_site_fract_z
 _atom_site_occupancy
  Ti  Ti0  1  0.51019253  0.49844240  0.01174557  1.0
  Ti  Ti1  1  1.01019253  1.00155760  0.01174557  1.0
  Ti  Ti2  1  0.48980747  0.50155760  0.51174557  1.0
  Ti  Ti3  1  -0.01019253  -0.00155760  0.51174557  1.0
  Cd  Cd4  1  0.46374305  0.98913433  0.25910267  1.0
  Cd  Cd5  1  0.96374305  0.51086567  0.25910267  1.0
  Cd  Cd6  1  0.53625695  0.01086567  0.75910267  1.0
  Cd  Cd7  1  0.03625695  0.48913433  0.75910267  1.0
  O  O8  1  0.18931229  0.69831170  0.04197570  1.0
  O  O9  1  0.68931229  0.80168830  0.04197570  1.0
  O  O10  1  0.81068771  0.30168830  0.54197570  1.0
  O  O11  1  0.31068771  0.19831170  0.54197570  1.0
  O  O12  1  0.22185043  0.70717380  0.44476057  1.0
  O  O13  1  0.72185043  0.79282620  0.44476057  1.0
  O  O14  1  0.77814957  0.29282620  0.94476057  1.0
  O  O15  1  0.27814957  0.20717380  0.94476057  1.0
  O  O16  1  0.02974859  0.09360405  0.24201549  1.0
  O  O17  1  0.52974859  0.40639595  0.24201549  1.0
  O  O18  1  0.97025141  0.90639595  0.74201549  1.0
  O  O19  1  0.47025141  0.59360405  0.74201549  1.0
