# generated using pymatgen
data_Sm2Si5Rh3
_symmetry_space_group_name_H-M   'P 1'
_cell_length_a   8.29143848
_cell_length_b   8.29143848
_cell_length_c   8.29143848
_cell_angle_alpha   106.62902415
_cell_angle_beta   87.20219026
_cell_angle_gamma   139.69729585
_symmetry_Int_Tables_number   1
_chemical_formula_structural   Sm2Si5Rh3
_chemical_formula_sum   'Sm4 Si10 Rh6'
_cell_volume   339.82506396
_cell_formula_units_Z   2
loop_
 _symmetry_equiv_pos_site_id
 _symmetry_equiv_pos_as_xyz
  1  'x, y, z'
loop_
 _atom_site_type_symbol
 _atom_site_label
 _atom_site_symmetry_multiplicity
 _atom_site_fract_x
 _atom_site_fract_y
 _atom_site_fract_z
 _atom_site_occupancy
  Sm  Sm0  1  0.63308945  0.73225537  0.36534482  1.0
  Sm  Sm1  1  0.86691055  0.23225537  1.09916592  1.0
  Sm  Sm2  1  0.13308945  0.76774463  0.90083408  1.0
  Sm  Sm3  1  1.36691055  1.26774463  1.63465518  1.0
  Si  Si4  1  0.89601750  0.65878297  1.55480046  1.0
  Si  Si5  1  0.60398250  1.15878297  0.76276547  1.0
  Si  Si6  1  1.39601750  0.84121703  1.23723453  1.0
  Si  Si7  1  0.10398250  0.34121703  0.44519954  1.0
  Si  Si8  1  0.46703288  0.75000000  0.71703288  1.0
  Si  Si9  1  0.96703288  1.25000000  0.71703288  1.0
  Si  Si10  1  1.53296712  1.25000000  1.28296712  1.0
  Si  Si11  1  1.03296712  0.75000000  1.28296712  1.0
  Si  Si12  1  0.75000000  0.75000000  -0.00000000  1.0
  Si  Si13  1  0.25000000  0.25000000  0.00000000  1.0
  Rh  Rh14  1  0.86070273  0.89798044  0.75868317  1.0
  Rh  Rh15  1  0.63929727  0.39798044  1.03727772  1.0
  Rh  Rh16  1  0.36070273  0.60201956  0.96272228  1.0
  Rh  Rh17  1  1.13929727  1.10201956  1.24131683  1.0
  Rh  Rh18  1  0.75000000  1.25000000  0.50000000  1.0
  Rh  Rh19  1  0.25000000  0.75000000  0.50000000  1.0
