# generated using pymatgen
data_Y2(Al3Rh)3
_symmetry_space_group_name_H-M   'P 1'
_cell_length_a   7.54191877
_cell_length_b   7.54191877
_cell_length_c   9.49580820
_cell_angle_alpha   90.00000000
_cell_angle_beta   90.00000000
_cell_angle_gamma   60.61532894
_symmetry_Int_Tables_number   1
_chemical_formula_structural   Y2(Al3Rh)3
_chemical_formula_sum   'Y4 Al18 Rh6'
_cell_volume   470.63675081
_cell_formula_units_Z   2
loop_
 _symmetry_equiv_pos_site_id
 _symmetry_equiv_pos_as_xyz
  1  'x, y, z'
loop_
 _atom_site_type_symbol
 _atom_site_label
 _atom_site_symmetry_multiplicity
 _atom_site_fract_x
 _atom_site_fract_y
 _atom_site_fract_z
 _atom_site_occupancy
  Y  Y0  1  -0.00517965  1.32811450  0.25000000  1.0
  Y  Y1  1  0.32811450  0.99482035  0.75000000  1.0
  Y  Y2  1  -0.32811450  1.00517965  0.25000000  1.0
  Y  Y3  1  0.00517965  0.67188550  0.75000000  1.0
  Al  Al4  1  0.00109742  0.66442887  0.42529915  1.0
  Al  Al5  1  0.00109742  0.66442887  0.07470085  1.0
  Al  Al6  1  -0.33557113  1.00109742  0.92529915  1.0
  Al  Al7  1  -0.33557113  1.00109742  0.57470085  1.0
  Al  Al8  1  0.33557113  0.99890258  0.42529915  1.0
  Al  Al9  1  0.33557113  0.99890258  0.07470085  1.0
  Al  Al10  1  -0.00109742  1.33557113  0.92529915  1.0
  Al  Al11  1  -0.00109742  1.33557113  0.57470085  1.0
  Al  Al12  1  0.33975439  0.45013372  0.25000000  1.0
  Al  Al13  1  -0.54986628  1.33975439  0.75000000  1.0
  Al  Al14  1  0.54986628  0.66024561  0.25000000  1.0
  Al  Al15  1  -0.33975439  1.54986628  0.75000000  1.0
  Al  Al16  1  0.33316810  0.66683190  0.95002349  1.0
  Al  Al17  1  0.33316810  0.66683190  0.54997651  1.0
  Al  Al18  1  -0.33316810  1.33316810  0.45002349  1.0
  Al  Al19  1  -0.33316810  1.33316810  0.04997651  1.0
  Al  Al20  1  0.12881596  0.87118404  0.25000000  1.0
  Al  Al21  1  -0.12881596  1.12881596  0.75000000  1.0
  Rh  Rh22  1  0.67189360  0.67189360  0.50000000  1.0
  Rh  Rh23  1  0.67189360  0.67189360  0.00000000  1.0
  Rh  Rh24  1  0.32810640  0.32810640  0.50000000  1.0
  Rh  Rh25  1  0.32810640  0.32810640  0.00000000  1.0
  Rh  Rh26  1  0.00000000  0.00000000  0.50000000  1.0
  Rh  Rh27  1  0.00000000  0.00000000  0.00000000  1.0
