# generated using pymatgen
data_Na3YN6
_symmetry_space_group_name_H-M   'P 1'
_cell_length_a   12.24060261
_cell_length_b   11.69646611
_cell_length_c   6.25263089
_cell_angle_alpha   79.73287218
_cell_angle_beta   70.09288712
_cell_angle_gamma   30.17424070
_symmetry_Int_Tables_number   1
_chemical_formula_structural   Na3YN6
_chemical_formula_sum   'Na6 Y2 N12'
_cell_volume   410.09921930
_cell_formula_units_Z   2
loop_
 _symmetry_equiv_pos_site_id
 _symmetry_equiv_pos_as_xyz
  1  'x, y, z'
loop_
 _atom_site_type_symbol
 _atom_site_label
 _atom_site_symmetry_multiplicity
 _atom_site_fract_x
 _atom_site_fract_y
 _atom_site_fract_z
 _atom_site_occupancy
  Na  Na0  1  0.00000000  1.00000000  -0.00000000  1.0
  Na  Na1  1  0.25000000  0.25000000  0.25000000  1.0
  Na  Na2  1  0.33708884  0.33708884  -0.33708884  1.0
  Na  Na3  1  -0.33708884  0.66291116  0.33708884  1.0
  Na  Na4  1  -0.08708884  0.91291116  0.58708884  1.0
  Na  Na5  1  0.58708884  0.58708884  -0.08708884  1.0
  Y  Y6  1  0.50000000  0.50000000  0.50000000  1.0
  Y  Y7  1  0.75000000  -0.25000000  0.75000000  1.0
  N  N8  1  0.73122200  0.26877800  0.73122200  1.0
  N  N9  1  0.26877800  0.73122200  0.26877800  1.0
  N  N10  1  0.51877800  -0.01877800  0.51877800  1.0
  N  N11  1  0.98122200  -0.48122200  0.98122200  1.0
  N  N12  1  1.36908938  -0.22433727  0.66763183  1.0
  N  N13  1  0.18761605  0.66763183  -0.22433727  1.0
  N  N14  1  0.66763183  0.18761605  1.36908938  1.0
  N  N15  1  -0.22433727  1.36908938  0.18761605  1.0
  N  N16  1  -0.11908938  0.47433727  0.58236817  1.0
  N  N17  1  0.06238395  0.58236817  0.47433727  1.0
  N  N18  1  -0.41763183  1.06238395  0.88091062  1.0
  N  N19  1  -0.52566273  0.88091062  1.06238395  1.0
