# generated using pymatgen
data_Cr2As6O19
_symmetry_space_group_name_H-M   'P 1'
_cell_length_a   11.24436824
_cell_length_b   13.40787593
_cell_length_c   5.16264212
_cell_angle_alpha   90.00000000
_cell_angle_beta   90.00000000
_cell_angle_gamma   90.00000000
_symmetry_Int_Tables_number   1
_chemical_formula_structural   Cr2As6O19
_chemical_formula_sum   'Cr4 As12 O38'
_cell_volume   778.33590147
_cell_formula_units_Z   2
loop_
 _symmetry_equiv_pos_site_id
 _symmetry_equiv_pos_as_xyz
  1  'x, y, z'
loop_
 _atom_site_type_symbol
 _atom_site_label
 _atom_site_symmetry_multiplicity
 _atom_site_fract_x
 _atom_site_fract_y
 _atom_site_fract_z
 _atom_site_occupancy
  As  As0  1  0.85534295  0.12012455  0.51013486  1.0
  As  As1  1  0.85534295  0.87987545  0.51013486  1.0
  As  As2  1  0.14465705  0.12012455  0.51013486  1.0
  As  As3  1  0.14465705  0.87987545  0.51013486  1.0
  As  As4  1  0.64465705  0.37987545  0.48986514  1.0
  As  As5  1  0.64465705  0.62012455  0.48986514  1.0
  As  As6  1  0.35534295  0.37987545  0.48986514  1.0
  As  As7  1  0.35534295  0.62012455  0.48986514  1.0
  As  As8  1  0.50000000  0.11944287  0.00271232  1.0
  As  As9  1  0.50000000  0.88055713  0.00271232  1.0
  As  As10  1  0.00000000  0.38055713  0.99728768  1.0
  As  As11  1  0.00000000  0.61944287  0.99728768  1.0
  O  O12  1  0.82882784  0.00000000  0.36691984  1.0
  O  O13  1  0.17117216  0.00000000  0.36691984  1.0
  O  O14  1  0.67117216  0.50000000  0.63308016  1.0
  O  O15  1  0.32882784  0.50000000  0.63308016  1.0
  O  O16  1  0.86391884  0.19667389  0.24891245  1.0
  O  O17  1  0.86391884  0.80332611  0.24891245  1.0
  O  O18  1  0.13608116  0.19667389  0.24891245  1.0
  O  O19  1  0.13608116  0.80332611  0.24891245  1.0
  O  O20  1  0.63608116  0.30332611  0.75108755  1.0
  O  O21  1  0.63608116  0.69667389  0.75108755  1.0
  O  O22  1  0.36391884  0.30332611  0.75108755  1.0
  O  O23  1  0.36391884  0.69667389  0.75108755  1.0
  O  O24  1  0.62336440  0.18248482  0.15298779  1.0
  O  O25  1  0.62336440  0.81751518  0.15298779  1.0
  O  O26  1  0.37663560  0.18248482  0.15298779  1.0
  O  O27  1  0.37663560  0.81751518  0.15298779  1.0
  O  O28  1  0.87663560  0.31751518  0.84701221  1.0
  O  O29  1  0.87663560  0.68248482  0.84701221  1.0
  O  O30  1  0.12336440  0.31751518  0.84701221  1.0
  O  O31  1  0.12336440  0.68248482  0.84701221  1.0
  O  O32  1  0.50000000  0.00000000  0.17362105  1.0
  O  O33  1  0.00000000  0.50000000  0.82637895  1.0
  O  O34  1  0.76677659  0.13246233  0.77563051  1.0
  O  O35  1  0.76677659  0.86753767  0.77563051  1.0
  O  O36  1  0.23322341  0.13246233  0.77563051  1.0
  O  O37  1  0.23322341  0.86753767  0.77563051  1.0
  O  O38  1  0.73322341  0.36753767  0.22436949  1.0
  O  O39  1  0.73322341  0.63246233  0.22436949  1.0
  O  O40  1  0.26677659  0.36753767  0.22436949  1.0
  O  O41  1  0.26677659  0.63246233  0.22436949  1.0
  O  O42  1  0.00000000  0.11162479  0.65484673  1.0
  O  O43  1  -0.00000000  0.88837521  0.65484673  1.0
  O  O44  1  0.50000000  0.38837521  0.34515327  1.0
  O  O45  1  0.50000000  0.61162479  0.34515327  1.0
  O  O46  1  0.50000000  0.11149175  0.68194063  1.0
  O  O47  1  0.50000000  0.88850825  0.68194063  1.0
  O  O48  1  -0.00000000  0.38850825  0.31805937  1.0
  O  O49  1  0.00000000  0.61149175  0.31805937  1.0
  Cr  Cr50  1  0.75000000  0.25000000  -0.00000000  1.0
  Cr  Cr51  1  0.75000000  0.75000000  0.00000000  1.0
  Cr  Cr52  1  0.25000000  0.25000000  0.00000000  1.0
  Cr  Cr53  1  0.25000000  0.75000000  -0.00000000  1.0
