# generated using pymatgen
data_MgH2
_symmetry_space_group_name_H-M   'P 1'
_cell_length_a   4.76455014
_cell_length_b   9.31837503
_cell_length_c   4.89136284
_cell_angle_alpha   90.00000000
_cell_angle_beta   90.00000000
_cell_angle_gamma   90.00000000
_symmetry_Int_Tables_number   1
_chemical_formula_structural   MgH2
_chemical_formula_sum   'Mg8 H16'
_cell_volume   217.16606748
_cell_formula_units_Z   8
loop_
 _symmetry_equiv_pos_site_id
 _symmetry_equiv_pos_as_xyz
  1  'x, y, z'
loop_
 _atom_site_type_symbol
 _atom_site_label
 _atom_site_symmetry_multiplicity
 _atom_site_fract_x
 _atom_site_fract_y
 _atom_site_fract_z
 _atom_site_occupancy
  Mg  Mg0  1  0.27466487  0.11705531  0.02955584  1.0
  Mg  Mg1  1  0.27466487  0.38294469  0.52955584  1.0
  Mg  Mg2  1  0.77466487  0.11705531  0.47044416  1.0
  Mg  Mg3  1  0.77466487  0.38294469  0.97044416  1.0
  Mg  Mg4  1  0.72533513  0.61705531  0.47044416  1.0
  Mg  Mg5  1  0.72533513  0.88294469  0.97044416  1.0
  Mg  Mg6  1  0.22533513  0.61705531  0.02955584  1.0
  Mg  Mg7  1  0.22533513  0.88294469  0.52955584  1.0
  H  H8  1  0.51455227  0.47354258  0.24236437  1.0
  H  H9  1  0.51455227  0.02645742  0.74236437  1.0
  H  H10  1  0.01455227  0.47354258  0.25763563  1.0
  H  H11  1  0.01455227  0.02645742  0.75763563  1.0
  H  H12  1  0.48544773  0.97354258  0.25763563  1.0
  H  H13  1  0.48544773  0.52645742  0.75763563  1.0
  H  H14  1  0.98544773  0.97354258  0.24236437  1.0
  H  H15  1  0.98544773  0.52645742  0.74236437  1.0
  H  H16  1  0.16950380  0.20159532  0.38156688  1.0
  H  H17  1  0.16950380  0.29840468  0.88156688  1.0
  H  H18  1  0.66950380  0.20159532  0.11843312  1.0
  H  H19  1  0.66950380  0.29840468  0.61843312  1.0
  H  H20  1  0.83049620  0.70159532  0.11843312  1.0
  H  H21  1  0.83049620  0.79840468  0.61843312  1.0
  H  H22  1  0.33049620  0.70159532  0.38156688  1.0
  H  H23  1  0.33049620  0.79840468  0.88156688  1.0
