# generated using pymatgen
data_Gd2AlNi2
_symmetry_space_group_name_H-M   'P 1'
_cell_length_a   5.44528264
_cell_length_b   5.44528264
_cell_length_c   5.44528264
_cell_angle_alpha   134.66863702
_cell_angle_beta   120.24295343
_cell_angle_gamma   78.07253301
_symmetry_Int_Tables_number   1
_chemical_formula_structural   Gd2AlNi2
_chemical_formula_sum   'Gd2 Al1 Ni2'
_cell_volume   96.30117107
_cell_formula_units_Z   1
loop_
 _symmetry_equiv_pos_site_id
 _symmetry_equiv_pos_as_xyz
  1  'x, y, z'
loop_
 _atom_site_type_symbol
 _atom_site_label
 _atom_site_symmetry_multiplicity
 _atom_site_fract_x
 _atom_site_fract_y
 _atom_site_fract_z
 _atom_site_occupancy
  Gd  Gd0  1  0.70205736  0.20205736  0.50000000  1.0
  Gd  Gd1  1  0.29794264  0.79794264  0.50000000  1.0
  Al  Al2  1  0.00000000  0.00000000  0.00000000  1.0
  Ni  Ni3  1  0.26432320  0.50000000  0.76432320  1.0
  Ni  Ni4  1  0.73567680  0.50000000  1.23567680  1.0
