# generated using pymatgen
data_NaFeBP2H3O10
_symmetry_space_group_name_H-M   'P 1'
_cell_length_a   6.74391838
_cell_length_b   6.74391838
_cell_length_c   9.29309498
_cell_angle_alpha   70.09394175
_cell_angle_beta   109.90605825
_cell_angle_gamma   103.08399748
_symmetry_Int_Tables_number   1
_chemical_formula_structural   NaFeBP2H3O10
_chemical_formula_sum   'Na2 Fe2 B2 P4 H6 O20'
_cell_volume   370.72973034
_cell_formula_units_Z   2
loop_
 _symmetry_equiv_pos_site_id
 _symmetry_equiv_pos_as_xyz
  1  'x, y, z'
loop_
 _atom_site_type_symbol
 _atom_site_label
 _atom_site_symmetry_multiplicity
 _atom_site_fract_x
 _atom_site_fract_y
 _atom_site_fract_z
 _atom_site_occupancy
  Fe  Fe0  1  1.00000000  0.50000000  -0.00000000  1.0
  Fe  Fe1  1  1.50000000  0.00000000  0.50000000  1.0
  Na  Na2  1  0.86739386  0.86739386  0.25000000  1.0
  Na  Na3  1  0.13260614  0.13260614  0.75000000  1.0
  O  O4  1  0.68830949  0.46710145  0.25182741  1.0
  O  O5  1  0.53289855  0.31169051  0.75182741  1.0
  O  O6  1  1.46710145  -0.31169051  0.24817259  1.0
  O  O7  1  1.31169051  -0.46710145  0.74817259  1.0
  O  O8  1  0.96864610  0.63922218  0.54223665  1.0
  O  O9  1  0.36077782  0.03135390  0.04223665  1.0
  O  O10  1  1.63922218  -0.03135390  0.95776335  1.0
  O  O11  1  1.03135390  -0.63922218  0.45776335  1.0
  O  O12  1  1.31402456  -0.57091285  0.10280083  1.0
  O  O13  1  1.57091285  -0.31402456  0.60280083  1.0
  O  O14  1  0.42908715  0.31402456  0.39719917  1.0
  O  O15  1  0.68597544  0.57091285  0.89719917  1.0
  O  O16  1  1.07061761  -0.27653574  0.10947673  1.0
  O  O17  1  1.27653574  -0.07061761  0.60947673  1.0
  O  O18  1  0.72346426  0.07061761  0.39052327  1.0
  O  O19  1  0.92938239  0.27653574  0.89052327  1.0
  O  O20  1  0.92239563  0.27485053  0.19200813  1.0
  O  O21  1  0.72514947  0.07760437  0.69200813  1.0
  O  O22  1  1.27485053  -0.07760437  0.30799187  1.0
  O  O23  1  1.07760437  -0.27485053  0.80799187  1.0
  H  H24  1  1.33426740  -0.69724809  0.08169325  1.0
  H  H25  1  1.69724809  -0.33426740  0.58169325  1.0
  H  H26  1  0.30275191  0.33426740  0.41830675  1.0
  H  H27  1  0.66573260  0.69724809  0.91830675  1.0
  H  H28  1  1.00000000  0.50000000  0.50000000  1.0
  H  H29  1  1.50000000  0.00000000  0.00000000  1.0
  P  P30  1  0.84218253  0.29065976  0.32347429  1.0
  P  P31  1  0.70934024  0.15781747  0.82347429  1.0
  P  P32  1  1.29065976  -0.15781747  0.17652571  1.0
  P  P33  1  1.15781747  -0.29065976  0.67652571  1.0
  B  B34  1  0.46975441  0.46975441  0.25000000  1.0
  B  B35  1  0.53024559  0.53024559  0.75000000  1.0
