# generated using pymatgen
data_BaNb8O14
_symmetry_space_group_name_H-M   'P 1'
_cell_length_a   9.45082773
_cell_length_b   10.33289223
_cell_length_c   5.98346978
_cell_angle_alpha   90.00000000
_cell_angle_beta   90.00000000
_cell_angle_gamma   90.00000000
_symmetry_Int_Tables_number   1
_chemical_formula_structural   BaNb8O14
_chemical_formula_sum   'Ba2 Nb16 O28'
_cell_volume   584.31205824
_cell_formula_units_Z   2
loop_
 _symmetry_equiv_pos_site_id
 _symmetry_equiv_pos_as_xyz
  1  'x, y, z'
loop_
 _atom_site_type_symbol
 _atom_site_label
 _atom_site_symmetry_multiplicity
 _atom_site_fract_x
 _atom_site_fract_y
 _atom_site_fract_z
 _atom_site_occupancy
  Ba  Ba0  1  0.50000000  0.50000000  0.50000000  1.0
  Ba  Ba1  1  0.00000000  0.00000000  0.50000000  1.0
  Nb  Nb2  1  0.37617892  0.92372407  0.73181417  1.0
  Nb  Nb3  1  0.37617892  0.92372407  0.26818583  1.0
  Nb  Nb4  1  0.87617892  0.57627593  0.73181417  1.0
  Nb  Nb5  1  0.87617892  0.57627593  0.26818583  1.0
  Nb  Nb6  1  0.62382108  0.07627593  0.73181417  1.0
  Nb  Nb7  1  0.62382108  0.07627593  0.26818583  1.0
  Nb  Nb8  1  0.12382108  0.42372407  0.73181417  1.0
  Nb  Nb9  1  0.12382108  0.42372407  0.26818583  1.0
  Nb  Nb10  1  0.11925097  0.66501043  0.50000000  1.0
  Nb  Nb11  1  0.61925097  0.83498957  0.50000000  1.0
  Nb  Nb12  1  0.88074903  0.33498957  0.50000000  1.0
  Nb  Nb13  1  0.38074903  0.16501043  0.50000000  1.0
  Nb  Nb14  1  0.38247613  0.66399764  0.00000000  1.0
  Nb  Nb15  1  0.88247613  0.83600236  0.00000000  1.0
  Nb  Nb16  1  0.61752387  0.33600236  0.00000000  1.0
  Nb  Nb17  1  0.11752387  0.16399764  0.00000000  1.0
  O  O18  1  0.49419749  0.74670954  0.74698754  1.0
  O  O19  1  0.49419749  0.74670954  0.25301246  1.0
  O  O20  1  0.99419749  0.75329046  0.74698754  1.0
  O  O21  1  0.99419749  0.75329046  0.25301246  1.0
  O  O22  1  0.50580251  0.25329046  0.74698754  1.0
  O  O23  1  0.50580251  0.25329046  0.25301246  1.0
  O  O24  1  0.00580251  0.24670954  0.74698754  1.0
  O  O25  1  0.00580251  0.24670954  0.25301246  1.0
  O  O26  1  0.25575963  0.58743005  0.75046542  1.0
  O  O27  1  0.25575963  0.58743005  0.24953458  1.0
  O  O28  1  0.75575963  0.91256995  0.75046542  1.0
  O  O29  1  0.75575963  0.91256995  0.24953458  1.0
  O  O30  1  0.74424037  0.41256995  0.75046542  1.0
  O  O31  1  0.74424037  0.41256995  0.24953458  1.0
  O  O32  1  0.24424037  0.08743005  0.75046542  1.0
  O  O33  1  0.24424037  0.08743005  0.24953458  1.0
  O  O34  1  0.24396593  0.84459792  0.50000000  1.0
  O  O35  1  0.74396593  0.65540208  0.50000000  1.0
  O  O36  1  0.75603407  0.15540208  0.50000000  1.0
  O  O37  1  0.25603407  0.34459792  0.50000000  1.0
  O  O38  1  0.26924975  0.82195997  0.00000000  1.0
  O  O39  1  0.76924975  0.67804003  0.00000000  1.0
  O  O40  1  0.73075025  0.17804003  0.00000000  1.0
  O  O41  1  0.23075025  0.32195997  0.00000000  1.0
  O  O42  1  0.50000000  0.00000000  0.00000000  1.0
  O  O43  1  0.00000000  0.50000000  0.00000000  1.0
  O  O44  1  0.50000000  0.50000000  0.00000000  1.0
  O  O45  1  0.00000000  0.00000000  0.00000000  1.0
