# generated using pymatgen
data_VS2
_symmetry_space_group_name_H-M   'P 1'
_cell_length_a   3.18542705
_cell_length_b   3.18542705
_cell_length_c   13.94151894
_cell_angle_alpha   90.00000000
_cell_angle_beta   90.00000000
_cell_angle_gamma   120.00564608
_symmetry_Int_Tables_number   1
_chemical_formula_structural   VS2
_chemical_formula_sum   'V2 S4'
_cell_volume   122.50430199
_cell_formula_units_Z   2
loop_
 _symmetry_equiv_pos_site_id
 _symmetry_equiv_pos_as_xyz
  1  'x, y, z'
loop_
 _atom_site_type_symbol
 _atom_site_label
 _atom_site_symmetry_multiplicity
 _atom_site_fract_x
 _atom_site_fract_y
 _atom_site_fract_z
 _atom_site_occupancy
  V  V0  1  0.00000000  0.00000000  -0.00000000  1.0
  V  V1  1  0.00000000  0.00000000  0.50000000  1.0
  S  S2  1  -0.33328581  1.33328581  0.89481476  1.0
  S  S3  1  0.33328581  0.66671419  0.10518524  1.0
  S  S4  1  0.33328581  0.66671419  0.39481476  1.0
  S  S5  1  -0.33328581  1.33328581  0.60518524  1.0
