# generated using pymatgen
data_ZrGe2Ru
_symmetry_space_group_name_H-M   'P 1'
_cell_length_a   9.34536283
_cell_length_b   10.52387720
_cell_length_c   8.11179848
_cell_angle_alpha   90.00000000
_cell_angle_beta   90.00000000
_cell_angle_gamma   90.00000000
_symmetry_Int_Tables_number   1
_chemical_formula_structural   ZrGe2Ru
_chemical_formula_sum   'Zr12 Ge24 Ru12'
_cell_volume   797.79092632
_cell_formula_units_Z   12
loop_
 _symmetry_equiv_pos_site_id
 _symmetry_equiv_pos_as_xyz
  1  'x, y, z'
loop_
 _atom_site_type_symbol
 _atom_site_label
 _atom_site_symmetry_multiplicity
 _atom_site_fract_x
 _atom_site_fract_y
 _atom_site_fract_z
 _atom_site_occupancy
  Zr  Zr0  1  0.17495022  0.55014742  0.75931118  1.0
  Zr  Zr1  1  0.17495022  0.55014742  0.24068882  1.0
  Zr  Zr2  1  0.67495022  0.94985258  0.75931118  1.0
  Zr  Zr3  1  0.67495022  0.94985258  0.24068882  1.0
  Zr  Zr4  1  0.82504978  0.44985258  0.75931118  1.0
  Zr  Zr5  1  0.82504978  0.44985258  0.24068882  1.0
  Zr  Zr6  1  0.32504978  0.05014742  0.75931118  1.0
  Zr  Zr7  1  0.32504978  0.05014742  0.24068882  1.0
  Zr  Zr8  1  0.16330655  0.82031924  -0.00000000  1.0
  Zr  Zr9  1  0.66330655  0.67968076  0.00000000  1.0
  Zr  Zr10  1  0.83669345  0.17968076  -0.00000000  1.0
  Zr  Zr11  1  0.33669345  0.32031924  0.00000000  1.0
  Ge  Ge12  1  0.15838553  0.81926239  0.65342574  1.0
  Ge  Ge13  1  0.15838553  0.81926239  0.34657426  1.0
  Ge  Ge14  1  0.65838553  0.68073761  0.65342574  1.0
  Ge  Ge15  1  0.65838553  0.68073761  0.34657426  1.0
  Ge  Ge16  1  0.84161447  0.18073761  0.65342574  1.0
  Ge  Ge17  1  0.84161447  0.18073761  0.34657426  1.0
  Ge  Ge18  1  0.34161447  0.31926239  0.65342574  1.0
  Ge  Ge19  1  0.34161447  0.31926239  0.34657426  1.0
  Ge  Ge20  1  0.46206570  0.88493282  0.50000000  1.0
  Ge  Ge21  1  0.96206570  0.61506718  0.50000000  1.0
  Ge  Ge22  1  0.53793430  0.11506718  0.50000000  1.0
  Ge  Ge23  1  0.03793430  0.38493282  0.50000000  1.0
  Ge  Ge24  1  0.36803373  0.59841132  0.50000000  1.0
  Ge  Ge25  1  0.86803373  0.90158868  0.50000000  1.0
  Ge  Ge26  1  0.63196627  0.40158868  0.50000000  1.0
  Ge  Ge27  1  0.13196627  0.09841132  0.50000000  1.0
  Ge  Ge28  1  0.46039173  0.88454268  0.00000000  1.0
  Ge  Ge29  1  0.96039173  0.61545732  0.00000000  1.0
  Ge  Ge30  1  0.53960827  0.11545732  0.00000000  1.0
  Ge  Ge31  1  0.03960827  0.38454268  0.00000000  1.0
  Ge  Ge32  1  0.36887989  0.60304324  0.00000000  1.0
  Ge  Ge33  1  0.86887989  0.89695676  0.00000000  1.0
  Ge  Ge34  1  0.63112011  0.39695676  0.00000000  1.0
  Ge  Ge35  1  0.13112011  0.10304324  0.00000000  1.0
  Ru  Ru36  1  0.40788291  0.75849307  0.74820280  1.0
  Ru  Ru37  1  0.40788291  0.75849307  0.25179720  1.0
  Ru  Ru38  1  0.90788291  0.74150693  0.74820280  1.0
  Ru  Ru39  1  0.90788291  0.74150693  0.25179720  1.0
  Ru  Ru40  1  0.59211709  0.24150693  0.74820280  1.0
  Ru  Ru41  1  0.59211709  0.24150693  0.25179720  1.0
  Ru  Ru42  1  0.09211709  0.25849307  0.74820280  1.0
  Ru  Ru43  1  0.09211709  0.25849307  0.25179720  1.0
  Ru  Ru44  1  0.50000000  0.50000000  0.75337728  1.0
  Ru  Ru45  1  0.50000000  0.50000000  0.24662272  1.0
  Ru  Ru46  1  0.00000000  0.00000000  0.75337728  1.0
  Ru  Ru47  1  0.00000000  0.00000000  0.24662272  1.0
