# generated using pymatgen
data_Mg7TiH16
_symmetry_space_group_name_H-M   'P 1'
_cell_length_a   6.62755911
_cell_length_b   6.62755911
_cell_length_c   6.62755911
_cell_angle_alpha   60.00000000
_cell_angle_beta   60.00000000
_cell_angle_gamma   60.00000000
_symmetry_Int_Tables_number   1
_chemical_formula_structural   Mg7TiH16
_chemical_formula_sum   'Mg7 Ti1 H16'
_cell_volume   205.84761132
_cell_formula_units_Z   1
loop_
 _symmetry_equiv_pos_site_id
 _symmetry_equiv_pos_as_xyz
  1  'x, y, z'
loop_
 _atom_site_type_symbol
 _atom_site_label
 _atom_site_symmetry_multiplicity
 _atom_site_fract_x
 _atom_site_fract_y
 _atom_site_fract_z
 _atom_site_occupancy
  Ti  Ti0  1  0.00000000  0.00000000  0.00000000  1.0
  H  H1  1  0.88085821  0.88085821  -0.11914179  1.0
  H  H2  1  1.11914179  0.11914179  0.64257464  1.0
  H  H3  1  1.11914179  0.64257464  0.11914179  1.0
  H  H4  1  0.35742536  0.88085821  -0.11914179  1.0
  H  H5  1  1.64257464  0.11914179  0.11914179  1.0
  H  H6  1  0.88085821  0.35742536  -0.11914179  1.0
  H  H7  1  0.88085821  0.88085821  -0.64257464  1.0
  H  H8  1  1.11914179  0.11914179  0.11914179  1.0
  H  H9  1  0.62754077  0.62754077  -0.37245923  1.0
  H  H10  1  0.37245923  1.37245923  -0.11737769  1.0
  H  H11  1  1.37245923  -0.11737769  0.37245923  1.0
  H  H12  1  1.11737769  0.62754077  0.62754077  1.0
  H  H13  1  -0.11737769  1.37245923  0.37245923  1.0
  H  H14  1  0.62754077  1.11737769  -0.37245923  1.0
  H  H15  1  0.62754077  0.62754077  1.11737769  1.0
  H  H16  1  1.37245923  0.37245923  0.37245923  1.0
  Mg  Mg17  1  1.50000000  -0.00000000  0.00000000  1.0
  Mg  Mg18  1  1.00000000  0.50000000  -0.50000000  1.0
  Mg  Mg19  1  -0.00000000  1.50000000  0.00000000  1.0
  Mg  Mg20  1  0.50000000  1.00000000  -0.50000000  1.0
  Mg  Mg21  1  0.00000000  0.00000000  0.50000000  1.0
  Mg  Mg22  1  0.50000000  -0.50000000  1.00000000  1.0
  Mg  Mg23  1  -0.50000000  0.50000000  0.50000000  1.0
