# generated using pymatgen
data_ScAl2Ni
_symmetry_space_group_name_H-M   'P 1'
_cell_length_a   5.17345342
_cell_length_b   5.17345342
_cell_length_c   6.70120305
_cell_angle_alpha   90.00000000
_cell_angle_beta   90.00000000
_cell_angle_gamma   134.28779623
_symmetry_Int_Tables_number   1
_chemical_formula_structural   ScAl2Ni
_chemical_formula_sum   'Sc2 Al4 Ni2'
_cell_volume   128.38985918
_cell_formula_units_Z   2
loop_
 _symmetry_equiv_pos_site_id
 _symmetry_equiv_pos_as_xyz
  1  'x, y, z'
loop_
 _atom_site_type_symbol
 _atom_site_label
 _atom_site_symmetry_multiplicity
 _atom_site_fract_x
 _atom_site_fract_y
 _atom_site_fract_z
 _atom_site_occupancy
  Sc  Sc0  1  0.43302705  0.56697295  0.75000000  1.0
  Sc  Sc1  1  -0.43302705  0.43302705  0.25000000  1.0
  Al  Al2  1  0.14628795  0.85371205  0.94901130  1.0
  Al  Al3  1  0.14628795  0.85371205  0.55098870  1.0
  Al  Al4  1  -0.14628795  0.14628795  0.44901130  1.0
  Al  Al5  1  -0.14628795  0.14628795  0.05098870  1.0
  Ni  Ni6  1  -0.28965882  0.28965882  0.75000000  1.0
  Ni  Ni7  1  0.28965882  0.71034118  0.25000000  1.0
