# generated using pymatgen
data_Ni4Mo
_symmetry_space_group_name_H-M   'P 1'
_cell_length_a   4.42535176
_cell_length_b   4.42535176
_cell_length_c   4.42535176
_cell_angle_alpha   99.29981307
_cell_angle_beta   99.29981307
_cell_angle_gamma   132.59399338
_symmetry_Int_Tables_number   1
_chemical_formula_structural   Ni4Mo
_chemical_formula_sum   'Ni4 Mo1'
_cell_volume   58.41788535
_cell_formula_units_Z   1
loop_
 _symmetry_equiv_pos_site_id
 _symmetry_equiv_pos_as_xyz
  1  'x, y, z'
loop_
 _atom_site_type_symbol
 _atom_site_label
 _atom_site_symmetry_multiplicity
 _atom_site_fract_x
 _atom_site_fract_y
 _atom_site_fract_z
 _atom_site_occupancy
  Ni  Ni0  1  0.80076655  0.59958746  0.40035401  1.0
  Ni  Ni1  1  0.59958746  0.19923345  0.79882091  1.0
  Ni  Ni2  1  1.19923345  1.40041254  1.59964599  1.0
  Ni  Ni3  1  0.40041254  0.80076655  1.20117909  1.0
  Mo  Mo4  1  0.00000000  0.00000000  0.00000000  1.0
