# generated using pymatgen
data_K2Ti6O13
_symmetry_space_group_name_H-M   'P 1'
_cell_length_a   8.11262940
_cell_length_b   8.11262940
_cell_length_c   9.21951928
_cell_angle_alpha   80.15126177
_cell_angle_beta   99.84873823
_cell_angle_gamma   152.83593679
_symmetry_Int_Tables_number   1
_chemical_formula_structural   K2Ti6O13
_chemical_formula_sum   'K2 Ti6 O13'
_cell_volume   272.69683966
_cell_formula_units_Z   1
loop_
 _symmetry_equiv_pos_site_id
 _symmetry_equiv_pos_as_xyz
  1  'x, y, z'
loop_
 _atom_site_type_symbol
 _atom_site_label
 _atom_site_symmetry_multiplicity
 _atom_site_fract_x
 _atom_site_fract_y
 _atom_site_fract_z
 _atom_site_occupancy
  K  K0  1  0.54436850  0.45563150  0.75012437  1.0
  K  K1  1  0.45563150  -0.45563150  0.24987563  1.0
  Ti  Ti2  1  0.88532506  0.11467494  0.90422827  1.0
  Ti  Ti3  1  0.11467494  -0.11467494  0.09577173  1.0
  Ti  Ti4  1  0.82840848  0.17159152  0.56223907  1.0
  Ti  Ti5  1  0.17159152  -0.17159152  0.43776093  1.0
  Ti  Ti6  1  0.23142964  -0.23142964  0.77662969  1.0
  Ti  Ti7  1  0.76857036  0.23142964  0.22337031  1.0
  O  O8  1  0.92104616  0.07895384  0.71028913  1.0
  O  O9  1  0.07895384  -0.07895384  0.28971087  1.0
  O  O10  1  0.86530463  0.13469537  0.38576866  1.0
  O  O11  1  0.13469537  -0.13469537  0.61423134  1.0
  O  O12  1  0.76013699  0.23986301  0.76058075  1.0
  O  O13  1  0.23986301  -0.23986301  0.23941925  1.0
  O  O14  1  0.70325171  0.29674829  0.42863770  1.0
  O  O15  1  0.29674829  -0.29674829  0.57136230  1.0
  O  O16  1  0.35777864  -0.35777864  0.88843229  1.0
  O  O17  1  0.64222136  0.35777864  0.11156771  1.0
  O  O18  1  0.16622606  -0.16622606  0.91399858  1.0
  O  O19  1  0.83377394  0.16622606  0.08600142  1.0
  O  O20  1  0.00000000  0.00000000  0.00000000  1.0
