# generated using pymatgen
data_AlF3
_symmetry_space_group_name_H-M   'P 1'
_cell_length_a   7.05091188
_cell_length_b   7.05091188
_cell_length_c   7.29458052
_cell_angle_alpha   90.00000000
_cell_angle_beta   90.00000000
_cell_angle_gamma   119.98880578
_symmetry_Int_Tables_number   1
_chemical_formula_structural   AlF3
_chemical_formula_sum   'Al6 F18'
_cell_volume   314.10185839
_cell_formula_units_Z   6
loop_
 _symmetry_equiv_pos_site_id
 _symmetry_equiv_pos_as_xyz
  1  'x, y, z'
loop_
 _atom_site_type_symbol
 _atom_site_label
 _atom_site_symmetry_multiplicity
 _atom_site_fract_x
 _atom_site_fract_y
 _atom_site_fract_z
 _atom_site_occupancy
  Al  Al0  1  0.00000000  1.50000000  0.50000000  1.0
  Al  Al1  1  0.00000000  1.50000000  0.00000000  1.0
  Al  Al2  1  0.50000000  1.00000000  0.00000000  1.0
  Al  Al3  1  0.50000000  1.00000000  0.50000000  1.0
  Al  Al4  1  0.00000000  0.00000000  0.50000000  1.0
  Al  Al5  1  0.00000000  0.00000000  0.00000000  1.0
  F  F6  1  0.07819066  0.28908102  0.49426624  1.0
  F  F7  1  0.07819066  0.28908102  0.00573376  1.0
  F  F8  1  -0.71091898  1.07819066  0.99426624  1.0
  F  F9  1  -0.71091898  1.07819066  0.50573376  1.0
  F  F10  1  0.71091898  0.92180934  0.49426624  1.0
  F  F11  1  0.71091898  0.92180934  0.00573376  1.0
  F  F12  1  -0.07819066  1.71091898  0.99426624  1.0
  F  F13  1  -0.07819066  1.71091898  0.50573376  1.0
  F  F14  1  -0.00957844  1.49905548  0.25000000  1.0
  F  F15  1  0.49905548  0.99042156  0.75000000  1.0
  F  F16  1  -0.49905548  1.00957844  0.25000000  1.0
  F  F17  1  0.00957844  0.50094452  0.75000000  1.0
  F  F18  1  0.28897928  0.71102072  0.49331047  1.0
  F  F19  1  0.28897928  0.71102072  0.00668953  1.0
  F  F20  1  -0.28897928  1.28897928  0.99331047  1.0
  F  F21  1  -0.28897928  1.28897928  0.50668953  1.0
  F  F22  1  0.00505827  0.99494173  0.25000000  1.0
  F  F23  1  -0.00505827  1.00505827  0.75000000  1.0
