# generated using pymatgen
data_Ge4Se9
_symmetry_space_group_name_H-M   'P 1'
_cell_length_a   18.15442499
_cell_length_b   7.17643378
_cell_length_c   13.80042778
_cell_angle_alpha   90.00000000
_cell_angle_beta   90.00000000
_cell_angle_gamma   90.00000000
_symmetry_Int_Tables_number   1
_chemical_formula_structural   Ge4Se9
_chemical_formula_sum   'Ge16 Se36'
_cell_volume   1797.97532961
_cell_formula_units_Z   4
loop_
 _symmetry_equiv_pos_site_id
 _symmetry_equiv_pos_as_xyz
  1  'x, y, z'
loop_
 _atom_site_type_symbol
 _atom_site_label
 _atom_site_symmetry_multiplicity
 _atom_site_fract_x
 _atom_site_fract_y
 _atom_site_fract_z
 _atom_site_occupancy
  Ge  Ge0  1  0.33091782  0.18211776  0.66148090  1.0
  Ge  Ge1  1  0.83091782  0.81788224  0.66148090  1.0
  Ge  Ge2  1  0.66908218  0.81788224  0.16148090  1.0
  Ge  Ge3  1  0.16908218  0.18211776  0.16148090  1.0
  Ge  Ge4  1  0.27577004  0.68252480  0.66165682  1.0
  Ge  Ge5  1  0.77577004  0.31747520  0.66165682  1.0
  Ge  Ge6  1  0.72422996  0.31747520  0.16165682  1.0
  Ge  Ge7  1  0.22422996  0.68252480  0.16165682  1.0
  Ge  Ge8  1  0.14617887  0.31935380  0.59598536  1.0
  Ge  Ge9  1  0.64617887  0.68064620  0.59598536  1.0
  Ge  Ge10  1  0.85382113  0.68064620  0.09598536  1.0
  Ge  Ge11  1  0.35382113  0.31935380  0.09598536  1.0
  Ge  Ge12  1  0.95919677  0.18237434  0.59468980  1.0
  Ge  Ge13  1  0.45919677  0.81762566  0.59468980  1.0
  Ge  Ge14  1  0.04080323  0.81762566  0.09468980  1.0
  Ge  Ge15  1  0.54080323  0.18237434  0.09468980  1.0
  Se  Se16  1  0.45555190  0.15164273  0.61019040  1.0
  Se  Se17  1  0.95555190  0.84835727  0.61019040  1.0
  Se  Se18  1  0.54444810  0.84835727  0.11019040  1.0
  Se  Se19  1  0.04444810  0.15164273  0.11019040  1.0
  Se  Se20  1  0.44723200  0.25422773  0.97790560  1.0
  Se  Se21  1  0.94723200  0.74577227  0.97790560  1.0
  Se  Se22  1  0.55276800  0.74577227  0.47790560  1.0
  Se  Se23  1  0.05276800  0.25422773  0.47790560  1.0
  Se  Se24  1  0.32441342  0.44697574  0.76845344  1.0
  Se  Se25  1  0.82441342  0.55302426  0.76845344  1.0
  Se  Se26  1  0.67558658  0.55302426  0.26845344  1.0
  Se  Se27  1  0.17558658  0.44697574  0.26845344  1.0
  Se  Se28  1  0.25545961  0.20245798  0.52037513  1.0
  Se  Se29  1  0.75545961  0.79754202  0.52037513  1.0
  Se  Se30  1  0.74454039  0.79754202  0.02037513  1.0
  Se  Se31  1  0.24454039  0.20245798  0.02037513  1.0
  Se  Se32  1  0.14989793  0.65261681  0.61649992  1.0
  Se  Se33  1  0.64989793  0.34738319  0.61649992  1.0
  Se  Se34  1  0.85010207  0.34738319  0.11649992  1.0
  Se  Se35  1  0.35010207  0.65261681  0.11649992  1.0
  Se  Se36  1  0.10984443  0.16868264  0.74456615  1.0
  Se  Se37  1  0.60984443  0.83131736  0.74456615  1.0
  Se  Se38  1  0.89015557  0.83131736  0.24456615  1.0
  Se  Se39  1  0.39015557  0.16868264  0.24456615  1.0
  Se  Se40  1  0.99485277  0.32755016  0.74520482  1.0
  Se  Se41  1  0.49485277  0.67244984  0.74520482  1.0
  Se  Se42  1  0.00514723  0.67244984  0.24520482  1.0
  Se  Se43  1  0.50514723  0.32755016  0.24520482  1.0
  Se  Se44  1  0.85024023  0.30272026  0.51942912  1.0
  Se  Se45  1  0.35024023  0.69727974  0.51942912  1.0
  Se  Se46  1  0.14975977  0.69727974  0.01942912  1.0
  Se  Se47  1  0.64975977  0.30272026  0.01942912  1.0
  Se  Se48  1  0.78478122  0.05420824  0.76916255  1.0
  Se  Se49  1  0.28478122  0.94579176  0.76916255  1.0
  Se  Se50  1  0.21521878  0.94579176  0.26916255  1.0
  Se  Se51  1  0.71521878  0.05420824  0.26916255  1.0
