# generated using pymatgen
data_Rb4Nb2Si8O23
_symmetry_space_group_name_H-M   'P 1'
_cell_length_a   6.98709083
_cell_length_b   11.21553726
_cell_length_c   8.00094535
_cell_angle_alpha   103.92679846
_cell_angle_beta   108.33611335
_cell_angle_gamma   89.16794110
_symmetry_Int_Tables_number   1
_chemical_formula_structural   Rb4Nb2Si8O23
_chemical_formula_sum   'Rb4 Nb2 Si8 O23'
_cell_volume   576.38147636
_cell_formula_units_Z   1
loop_
 _symmetry_equiv_pos_site_id
 _symmetry_equiv_pos_as_xyz
  1  'x, y, z'
loop_
 _atom_site_type_symbol
 _atom_site_label
 _atom_site_symmetry_multiplicity
 _atom_site_fract_x
 _atom_site_fract_y
 _atom_site_fract_z
 _atom_site_occupancy
  Rb  Rb0  1  0.67645148  0.85806432  -0.28899777  1.0
  Rb  Rb1  1  0.32354852  0.14193568  -0.71100223  1.0
  Rb  Rb2  1  0.28489210  0.48750222  -0.76710682  1.0
  Rb  Rb3  1  0.71510790  0.51249778  -0.23289318  1.0
  Nb  Nb4  1  0.78609851  0.31146052  -0.73571700  1.0
  Nb  Nb5  1  0.21390149  0.68853948  -0.26428300  1.0
  Si  Si6  1  0.83942294  -0.00296915  -0.69974987  1.0
  Si  Si7  1  0.16057706  1.00296915  -0.30025013  1.0
  Si  Si8  1  0.83356081  0.62716295  -0.68259920  1.0
  Si  Si9  1  0.16643919  0.37283705  -0.31740080  1.0
  Si  Si10  1  0.49390705  0.79299654  -0.81268484  1.0
  Si  Si11  1  0.50609295  0.20700346  -0.18731516  1.0
  Si  Si12  1  0.04534113  0.78449060  -0.87913159  1.0
  Si  Si13  1  0.95465887  0.21550940  -0.12086841  1.0
  O  O14  1  0.95711304  0.69004319  -0.78807186  1.0
  O  O15  1  0.04288696  0.30995681  -0.21192814  1.0
  O  O16  1  0.98657434  0.27248776  -0.91033042  1.0
  O  O17  1  0.01342566  0.72751224  -0.08966958  1.0
  O  O18  1  0.93266842  0.91553261  -0.85304658  1.0
  O  O19  1  0.06733158  0.08446739  -0.14695342  1.0
  O  O20  1  0.94977749  0.65425815  -0.46568974  1.0
  O  O21  1  0.05022251  0.34574185  -0.53431026  1.0
  O  O22  1  0.79885915  0.13208822  -0.72916532  1.0
  O  O23  1  0.20114085  0.86791178  -0.27083468  1.0
  O  O24  1  0.79905746  0.48146373  -0.78050883  1.0
  O  O25  1  0.20094254  0.51853627  -0.21949117  1.0
  O  O26  1  0.62173609  0.35160398  -0.60355253  1.0
  O  O27  1  0.37826391  0.64839602  -0.39644747  1.0
  O  O28  1  0.62480440  0.92700926  -0.71886118  1.0
  O  O29  1  0.37519560  0.07299074  -0.28113882  1.0
  O  O30  1  0.61374498  0.69122562  -0.70650656  1.0
  O  O31  1  0.38625502  0.30877438  -0.29349344  1.0
  O  O32  1  0.54893570  0.25429453  -0.97170306  1.0
  O  O33  1  0.45106430  0.74570547  -0.02829694  1.0
  O  O34  1  0.28683979  0.81619076  -0.75698693  1.0
  O  O35  1  0.71316021  0.18380924  -0.24301307  1.0
  O  O36  1  -0.00000000  0.00000000  -0.50000000  1.0
