# generated using pymatgen
data_KPb2Br5
_symmetry_space_group_name_H-M   'P 1'
_cell_length_a   9.22534863
_cell_length_b   9.88508694
_cell_length_c   13.05146741
_cell_angle_alpha   90.00000000
_cell_angle_beta   90.02992194
_cell_angle_gamma   90.00000000
_symmetry_Int_Tables_number   1
_chemical_formula_structural   KPb2Br5
_chemical_formula_sum   'K4 Pb8 Br20'
_cell_volume   1190.20717682
_cell_formula_units_Z   4
loop_
 _symmetry_equiv_pos_site_id
 _symmetry_equiv_pos_as_xyz
  1  'x, y, z'
loop_
 _atom_site_type_symbol
 _atom_site_label
 _atom_site_symmetry_multiplicity
 _atom_site_fract_x
 _atom_site_fract_y
 _atom_site_fract_z
 _atom_site_occupancy
  K  K0  1  0.49958335  0.41139618  0.17169561  1.0
  K  K1  1  0.49958335  0.08860382  0.67169561  1.0
  K  K2  1  0.50041665  0.91139618  0.32830439  1.0
  K  K3  1  0.50041665  0.58860382  0.82830439  1.0
  Pb  Pb4  1  0.99976165  0.55970515  0.16863751  1.0
  Pb  Pb5  1  0.99976165  -0.05970515  0.66863751  1.0
  Pb  Pb6  1  0.00023835  1.05970515  0.33136249  1.0
  Pb  Pb7  1  0.00023835  0.44029485  0.83136249  1.0
  Pb  Pb8  1  0.73551160  0.49910082  0.50002492  1.0
  Pb  Pb9  1  0.73551160  0.00089918  1.00002492  1.0
  Pb  Pb10  1  0.26448840  0.99910082  -0.00002492  1.0
  Pb  Pb11  1  0.26448840  0.50089918  0.49997508  1.0
  Br  Br12  1  0.49905123  0.31405594  0.43464371  1.0
  Br  Br13  1  0.49905123  0.18594406  0.93464371  1.0
  Br  Br14  1  0.50094877  0.81405594  0.06535629  1.0
  Br  Br15  1  0.50094877  0.68594406  0.56535629  1.0
  Br  Br16  1  0.99914931  0.84509789  0.11192185  1.0
  Br  Br17  1  0.99914931  0.65490211  0.61192185  1.0
  Br  Br18  1  0.00085069  0.34509789  0.38807815  1.0
  Br  Br19  1  0.00085069  0.15490211  0.88807815  1.0
  Br  Br20  1  0.78166358  0.00089591  0.50006677  1.0
  Br  Br21  1  0.78166358  0.49910409  1.00006677  1.0
  Br  Br22  1  0.21833642  0.50089591  -0.00006677  1.0
  Br  Br23  1  0.21833642  0.99910409  0.49993323  1.0
  Br  Br24  1  0.73178674  0.64035131  0.29365754  1.0
  Br  Br25  1  0.73178674  0.85964869  0.79365754  1.0
  Br  Br26  1  0.26821326  0.14035131  0.20634246  1.0
  Br  Br27  1  0.26821326  0.35964869  0.70634246  1.0
  Br  Br28  1  0.73165169  0.14109188  0.20673817  1.0
  Br  Br29  1  0.73165169  0.35890812  0.70673817  1.0
  Br  Br30  1  0.26834831  0.64109188  0.29326183  1.0
  Br  Br31  1  0.26834831  0.85890812  0.79326183  1.0
