# generated using pymatgen
data_Gd3CuSiS7
_symmetry_space_group_name_H-M   'P 1'
_cell_length_a   10.00873922
_cell_length_b   10.00873922
_cell_length_c   5.73333875
_cell_angle_alpha   90.00000000
_cell_angle_beta   90.00000000
_cell_angle_gamma   120.00000000
_symmetry_Int_Tables_number   1
_chemical_formula_structural   Gd3CuSiS7
_chemical_formula_sum   'Gd6 Cu2 Si2 S14'
_cell_volume   497.38992244
_cell_formula_units_Z   2
loop_
 _symmetry_equiv_pos_site_id
 _symmetry_equiv_pos_as_xyz
  1  'x, y, z'
loop_
 _atom_site_type_symbol
 _atom_site_label
 _atom_site_symmetry_multiplicity
 _atom_site_fract_x
 _atom_site_fract_y
 _atom_site_fract_z
 _atom_site_occupancy
  Gd  Gd0  1  0.23052156  0.87377753  0.03626632  1.0
  Gd  Gd1  1  0.87377753  0.64325597  0.53626632  1.0
  Gd  Gd2  1  0.64325597  0.76947844  0.03626632  1.0
  Gd  Gd3  1  0.12622247  0.35674403  0.03626632  1.0
  Gd  Gd4  1  0.76947844  0.12622247  0.53626632  1.0
  Gd  Gd5  1  0.35674403  0.23052156  0.53626632  1.0
  Cu  Cu6  1  0.00000000  0.00000000  0.00143429  1.0
  Cu  Cu7  1  0.00000000  0.00000000  0.50143429  1.0
  Si  Si8  1  0.33333333  0.66666667  0.62423866  1.0
  Si  Si9  1  0.66666667  0.33333333  0.12423866  1.0
  S  S10  1  0.90924921  0.74478026  0.01507370  1.0
  S  S11  1  0.74478026  0.83553105  0.51507370  1.0
  S  S12  1  0.83553105  0.09075079  0.01507370  1.0
  S  S13  1  0.25521974  0.16446895  0.01507370  1.0
  S  S14  1  0.09075079  0.25521974  0.51507370  1.0
  S  S15  1  0.16446895  0.90924921  0.51507370  1.0
  S  S16  1  0.58570278  0.47721619  0.27228903  1.0
  S  S17  1  0.47721619  0.89151341  0.77228903  1.0
  S  S18  1  0.89151341  0.41429722  0.27228903  1.0
  S  S19  1  0.52278381  0.10848659  0.27228903  1.0
  S  S20  1  0.41429722  0.52278381  0.77228903  1.0
  S  S21  1  0.10848659  0.58570278  0.77228903  1.0
  S  S22  1  0.33333333  0.66666667  0.25553991  1.0
  S  S23  1  0.66666667  0.33333333  0.75553991  1.0
