# generated using pymatgen
data_Rh2S3
_symmetry_space_group_name_H-M   'P 1'
_cell_length_a   8.54194507
_cell_length_b   6.03899234
_cell_length_c   6.17727996
_cell_angle_alpha   90.00000000
_cell_angle_beta   90.00000000
_cell_angle_gamma   90.00000000
_symmetry_Int_Tables_number   1
_chemical_formula_structural   Rh2S3
_chemical_formula_sum   'Rh8 S12'
_cell_volume   318.65338589
_cell_formula_units_Z   4
loop_
 _symmetry_equiv_pos_site_id
 _symmetry_equiv_pos_as_xyz
  1  'x, y, z'
loop_
 _atom_site_type_symbol
 _atom_site_label
 _atom_site_symmetry_multiplicity
 _atom_site_fract_x
 _atom_site_fract_y
 _atom_site_fract_z
 _atom_site_occupancy
  Rh  Rh0  1  0.10713228  0.25143883  0.53191252  1.0
  Rh  Rh1  1  0.10713228  0.74856117  0.03191252  1.0
  Rh  Rh2  1  0.60713228  0.75143883  0.96808748  1.0
  Rh  Rh3  1  0.60713228  0.24856117  0.46808748  1.0
  Rh  Rh4  1  0.89286772  0.25143883  0.96808748  1.0
  Rh  Rh5  1  0.89286772  0.74856117  0.46808748  1.0
  Rh  Rh6  1  0.39286772  0.75143883  0.53191252  1.0
  Rh  Rh7  1  0.39286772  0.24856117  0.03191252  1.0
  S  S8  1  0.15104525  0.39026371  0.89370748  1.0
  S  S9  1  0.15104525  0.60973629  0.39370748  1.0
  S  S10  1  0.65104525  0.89026371  0.60629252  1.0
  S  S11  1  0.65104525  0.10973629  0.10629252  1.0
  S  S12  1  0.84895475  0.39026371  0.60629252  1.0
  S  S13  1  0.84895475  0.60973629  0.10629252  1.0
  S  S14  1  0.34895475  0.89026371  0.89370748  1.0
  S  S15  1  0.34895475  0.10973629  0.39370748  1.0
  S  S16  1  0.50000000  0.45364021  0.75000000  1.0
  S  S17  1  0.50000000  0.54635979  0.25000000  1.0
  S  S18  1  0.00000000  0.95364021  0.75000000  1.0
  S  S19  1  0.00000000  0.04635979  0.25000000  1.0
