# generated using pymatgen
data_Lu2Fe3O7
_symmetry_space_group_name_H-M   'P 1'
_cell_length_a   3.47817190
_cell_length_b   3.47817190
_cell_length_c   28.80059139
_cell_angle_alpha   90.00000000
_cell_angle_beta   90.00000000
_cell_angle_gamma   120.00000000
_symmetry_Int_Tables_number   1
_chemical_formula_structural   Lu2Fe3O7
_chemical_formula_sum   'Lu4 Fe6 O14'
_cell_volume   301.74085898
_cell_formula_units_Z   2
loop_
 _symmetry_equiv_pos_site_id
 _symmetry_equiv_pos_as_xyz
  1  'x, y, z'
loop_
 _atom_site_type_symbol
 _atom_site_label
 _atom_site_symmetry_multiplicity
 _atom_site_fract_x
 _atom_site_fract_y
 _atom_site_fract_z
 _atom_site_occupancy
  Lu  Lu0  1  0.33333333  0.66666667  0.35249008  1.0
  Lu  Lu1  1  0.33333333  0.66666667  0.14750992  1.0
  Lu  Lu2  1  0.66666667  0.33333333  0.85249008  1.0
  Lu  Lu3  1  0.66666667  0.33333333  0.64750992  1.0
  Fe  Fe4  1  0.33333333  0.66666667  0.95817512  1.0
  Fe  Fe5  1  0.33333333  0.66666667  0.54182488  1.0
  Fe  Fe6  1  0.66666667  0.33333333  0.45817512  1.0
  Fe  Fe7  1  0.66666667  0.33333333  0.04182488  1.0
  Fe  Fe8  1  0.00000000  -0.00000000  0.25000000  1.0
  Fe  Fe9  1  -0.00000000  0.00000000  0.75000000  1.0
  O  O10  1  0.33333333  0.66666667  0.46627573  1.0
  O  O11  1  0.33333333  0.66666667  0.03372427  1.0
  O  O12  1  0.66666667  0.33333333  0.96627573  1.0
  O  O13  1  0.66666667  0.33333333  0.53372427  1.0
  O  O14  1  0.33333333  0.66666667  0.89106736  1.0
  O  O15  1  0.33333333  0.66666667  0.60893264  1.0
  O  O16  1  0.66666667  0.33333333  0.39106736  1.0
  O  O17  1  0.66666667  0.33333333  0.10893264  1.0
  O  O18  1  0.00000000  0.00000000  0.31989092  1.0
  O  O19  1  0.00000000  0.00000000  0.18010908  1.0
  O  O20  1  0.00000000  0.00000000  0.81989092  1.0
  O  O21  1  0.00000000  0.00000000  0.68010908  1.0
  O  O22  1  0.33333333  0.66666667  0.25000000  1.0
  O  O23  1  0.66666667  0.33333333  0.75000000  1.0
