# generated using pymatgen
data_Rb3NaRe2O9
_symmetry_space_group_name_H-M   'P 1'
_cell_length_a   6.26931396
_cell_length_b   6.26931396
_cell_length_c   14.62946349
_cell_angle_alpha   90.00000000
_cell_angle_beta   90.00000000
_cell_angle_gamma   120.00000000
_symmetry_Int_Tables_number   1
_chemical_formula_structural   Rb3NaRe2O9
_chemical_formula_sum   'Rb6 Na2 Re4 O18'
_cell_volume   497.96528849
_cell_formula_units_Z   2
loop_
 _symmetry_equiv_pos_site_id
 _symmetry_equiv_pos_as_xyz
  1  'x, y, z'
loop_
 _atom_site_type_symbol
 _atom_site_label
 _atom_site_symmetry_multiplicity
 _atom_site_fract_x
 _atom_site_fract_y
 _atom_site_fract_z
 _atom_site_occupancy
  Rb  Rb0  1  0.33333333  0.66666667  0.38957623  1.0
  Rb  Rb1  1  0.33333333  0.66666667  0.11042377  1.0
  Rb  Rb2  1  0.66666667  0.33333333  0.88957623  1.0
  Rb  Rb3  1  0.66666667  0.33333333  0.61042377  1.0
  Rb  Rb4  1  0.00000000  0.00000000  0.25000000  1.0
  Rb  Rb5  1  0.00000000  0.00000000  0.75000000  1.0
  Na  Na6  1  0.00000000  0.00000000  0.50000000  1.0
  Na  Na7  1  0.00000000  0.00000000  0.00000000  1.0
  Re  Re8  1  0.33333333  0.66666667  0.84975068  1.0
  Re  Re9  1  0.33333333  0.66666667  0.65024932  1.0
  Re  Re10  1  0.66666667  0.33333333  0.34975068  1.0
  Re  Re11  1  0.66666667  0.33333333  0.15024932  1.0
  O  O12  1  0.18725063  0.81274937  0.90557951  1.0
  O  O13  1  0.18725063  0.81274937  0.59442049  1.0
  O  O14  1  0.18725063  0.37450127  0.90557951  1.0
  O  O15  1  0.18725063  0.37450127  0.59442049  1.0
  O  O16  1  0.81274937  0.18725063  0.40557951  1.0
  O  O17  1  0.81274937  0.18725063  0.09442049  1.0
  O  O18  1  0.81274937  0.62549873  0.40557951  1.0
  O  O19  1  0.81274937  0.62549873  0.09442049  1.0
  O  O20  1  0.62549873  0.81274937  0.90557951  1.0
  O  O21  1  0.62549873  0.81274937  0.59442049  1.0
  O  O22  1  0.37450127  0.18725063  0.40557951  1.0
  O  O23  1  0.37450127  0.18725063  0.09442049  1.0
  O  O24  1  0.53488745  0.46511255  0.25000000  1.0
  O  O25  1  0.53488745  0.06977491  0.25000000  1.0
  O  O26  1  0.46511255  0.53488745  0.75000000  1.0
  O  O27  1  0.46511255  0.93022509  0.75000000  1.0
  O  O28  1  0.93022509  0.46511255  0.25000000  1.0
  O  O29  1  0.06977491  0.53488745  0.75000000  1.0
