# generated using pymatgen
data_CsSb
_symmetry_space_group_name_H-M   'P 1'
_cell_length_a   7.52937931
_cell_length_b   7.80446480
_cell_length_c   13.51726580
_cell_angle_alpha   90.00000000
_cell_angle_beta   90.00000000
_cell_angle_gamma   90.00000000
_symmetry_Int_Tables_number   1
_chemical_formula_structural   CsSb
_chemical_formula_sum   'Cs8 Sb8'
_cell_volume   794.31205921
_cell_formula_units_Z   8
loop_
 _symmetry_equiv_pos_site_id
 _symmetry_equiv_pos_as_xyz
  1  'x, y, z'
loop_
 _atom_site_type_symbol
 _atom_site_label
 _atom_site_symmetry_multiplicity
 _atom_site_fract_x
 _atom_site_fract_y
 _atom_site_fract_z
 _atom_site_occupancy
  Cs  Cs0  1  0.40426498  0.89713354  0.91834731  1.0
  Cs  Cs1  1  0.90426498  0.60286646  0.08165269  1.0
  Cs  Cs2  1  0.59573502  0.39713354  0.58165269  1.0
  Cs  Cs3  1  0.09573502  0.10286646  0.41834731  1.0
  Cs  Cs4  1  0.82881116  0.84682618  0.71235258  1.0
  Cs  Cs5  1  0.32881116  0.65317382  0.28764742  1.0
  Cs  Cs6  1  0.17118884  0.34682618  0.78764742  1.0
  Cs  Cs7  1  0.67118884  0.15317382  0.21235258  1.0
  Sb  Sb8  1  0.32797109  0.82104962  0.61278754  1.0
  Sb  Sb9  1  0.82797109  0.67895038  0.38721246  1.0
  Sb  Sb10  1  0.67202891  0.32104962  0.88721246  1.0
  Sb  Sb11  1  0.17202891  0.17895038  0.11278754  1.0
  Sb  Sb12  1  0.08926191  0.56525466  0.53194994  1.0
  Sb  Sb13  1  0.58926191  0.93474534  0.46805006  1.0
  Sb  Sb14  1  0.91073809  0.06525466  0.96805006  1.0
  Sb  Sb15  1  0.41073809  0.43474534  0.03194994  1.0
