# generated using pymatgen
data_NaH9O5
_symmetry_space_group_name_H-M   'P 1'
_cell_length_a   6.48053196
_cell_length_b   6.36626282
_cell_length_c   12.97053812
_cell_angle_alpha   90.00000000
_cell_angle_beta   90.00000000
_cell_angle_gamma   90.00000000
_symmetry_Int_Tables_number   1
_chemical_formula_structural   NaH9O5
_chemical_formula_sum   'Na4 H36 O20'
_cell_volume   535.12250400
_cell_formula_units_Z   4
loop_
 _symmetry_equiv_pos_site_id
 _symmetry_equiv_pos_as_xyz
  1  'x, y, z'
loop_
 _atom_site_type_symbol
 _atom_site_label
 _atom_site_symmetry_multiplicity
 _atom_site_fract_x
 _atom_site_fract_y
 _atom_site_fract_z
 _atom_site_occupancy
  Na  Na0  1  0.50429045  0.74530442  0.50230532  1.0
  Na  Na1  1  1.00429045  0.75469558  0.49769468  1.0
  Na  Na2  1  0.49570955  0.24530442  0.99769468  1.0
  Na  Na3  1  -0.00429045  0.25469558  0.00230532  1.0
  H  H4  1  0.40767168  0.83031700  0.79897716  1.0
  H  H5  1  0.90767168  0.66968300  0.20102284  1.0
  H  H6  1  0.59232832  0.33031700  0.70102284  1.0
  H  H7  1  0.09232832  0.16968300  0.29897716  1.0
  H  H8  1  0.30141682  0.96517438  0.23581784  1.0
  H  H9  1  0.80141682  0.53482562  0.76418216  1.0
  H  H10  1  0.69858318  0.46517438  0.26418216  1.0
  H  H11  1  0.19858318  0.03482562  0.73581784  1.0
  H  H12  1  0.26203778  0.55611058  0.85530709  1.0
  H  H13  1  0.76203778  0.94388942  0.14469291  1.0
  H  H14  1  0.73796222  0.05611058  0.64469291  1.0
  H  H15  1  0.23796222  0.44388942  0.35530709  1.0
  H  H16  1  0.26218686  0.88371554  0.05050243  1.0
  H  H17  1  0.76218686  0.61628446  0.94949757  1.0
  H  H18  1  0.73781314  0.38371554  0.44949757  1.0
  H  H19  1  0.23781314  0.11628446  0.55050243  1.0
  H  H20  1  0.25221772  0.68330469  0.68945028  1.0
  H  H21  1  0.75221772  0.81669531  0.31054972  1.0
  H  H22  1  0.74778228  0.18330469  0.81054972  1.0
  H  H23  1  0.24778228  0.31669531  0.18945028  1.0
  H  H24  1  0.23926009  0.89743909  0.92561708  1.0
  H  H25  1  0.73926009  0.60256091  0.07438292  1.0
  H  H26  1  0.76073991  0.39743909  0.57438292  1.0
  H  H27  1  0.26073991  0.10256091  0.42561708  1.0
  H  H28  1  0.23333407  0.45672760  0.64115395  1.0
  H  H29  1  0.73333407  0.04327240  0.35884605  1.0
  H  H30  1  0.76666593  0.95672760  0.85884605  1.0
  H  H31  1  0.26666593  0.54327240  0.14115395  1.0
  H  H32  1  0.98075018  0.69328696  0.80103319  1.0
  H  H33  1  0.48075018  0.80671304  0.19896681  1.0
  H  H34  1  0.01924982  0.19328696  0.69896681  1.0
  H  H35  1  0.51924982  0.30671304  0.30103319  1.0
  H  H36  1  0.77045579  0.82728445  0.68605871  1.0
  H  H37  1  0.27045579  0.67271555  0.31394129  1.0
  H  H38  1  0.22954421  0.32728445  0.81394129  1.0
  H  H39  1  0.72954421  0.17271555  0.18605871  1.0
  O  O40  1  0.33024729  0.82481108  0.19959852  1.0
  O  O41  1  0.83024729  0.67518892  0.80040148  1.0
  O  O42  1  0.66975271  0.32481108  0.30040148  1.0
  O  O43  1  0.16975271  0.17518892  0.69959852  1.0
  O  O44  1  0.25794786  0.81805854  0.79884109  1.0
  O  O45  1  0.75794786  0.68194146  0.20115891  1.0
  O  O46  1  0.74205214  0.31805854  0.70115891  1.0
  O  O47  1  0.24205214  0.18194146  0.29884109  1.0
  O  O48  1  0.25398894  0.40726607  0.87815182  1.0
  O  O49  1  0.75398894  0.09273393  0.12184818  1.0
  O  O50  1  0.74601106  0.90726607  0.62184818  1.0
  O  O51  1  0.24601106  0.59273393  0.37815182  1.0
  O  O52  1  0.25159378  0.60390939  0.62193505  1.0
  O  O53  1  0.75159378  0.89609061  0.37806495  1.0
  O  O54  1  0.74840622  0.10390939  0.87806495  1.0
  O  O55  1  0.24840622  0.39609061  0.12193505  1.0
  O  O56  1  0.23604435  0.97742751  0.99218627  1.0
  O  O57  1  0.73604435  0.52257249  0.00781373  1.0
  O  O58  1  0.76395565  0.47742751  0.50781373  1.0
  O  O59  1  0.26395565  0.02257249  0.49218627  1.0
