# generated using pymatgen
data_Gd(FeGe)2
_symmetry_space_group_name_H-M   'P 1'
_cell_length_a   6.06958347
_cell_length_b   6.06958347
_cell_length_c   6.06958347
_cell_angle_alpha   141.89613524
_cell_angle_beta   141.89613524
_cell_angle_gamma   54.98528483
_symmetry_Int_Tables_number   1
_chemical_formula_structural   Gd(FeGe)2
_chemical_formula_sum   'Gd1 Fe2 Ge2'
_cell_volume   84.53985780
_cell_formula_units_Z   1
loop_
 _symmetry_equiv_pos_site_id
 _symmetry_equiv_pos_as_xyz
  1  'x, y, z'
loop_
 _atom_site_type_symbol
 _atom_site_label
 _atom_site_symmetry_multiplicity
 _atom_site_fract_x
 _atom_site_fract_y
 _atom_site_fract_z
 _atom_site_occupancy
  Gd  Gd0  1  0.00000000  0.00000000  0.00000000  1.0
  Fe  Fe1  1  0.25000000  0.75000000  0.50000000  1.0
  Fe  Fe2  1  0.75000000  0.25000000  0.50000000  1.0
  Ge  Ge3  1  0.61859041  0.61859041  1.00000000  1.0
  Ge  Ge4  1  0.38140959  0.38140959  0.00000000  1.0
