# generated using pymatgen
data_Ag6Mo2ClO7F3
_symmetry_space_group_name_H-M   'P 1'
_cell_length_a   7.59201968
_cell_length_b   7.59201968
_cell_length_c   5.94818753
_cell_angle_alpha   90.00000000
_cell_angle_beta   90.00000000
_cell_angle_gamma   120.00000000
_symmetry_Int_Tables_number   1
_chemical_formula_structural   Ag6Mo2ClO7F3
_chemical_formula_sum   'Ag6 Mo2 Cl1 O7 F3'
_cell_volume   296.91349246
_cell_formula_units_Z   1
loop_
 _symmetry_equiv_pos_site_id
 _symmetry_equiv_pos_as_xyz
  1  'x, y, z'
loop_
 _atom_site_type_symbol
 _atom_site_label
 _atom_site_symmetry_multiplicity
 _atom_site_fract_x
 _atom_site_fract_y
 _atom_site_fract_z
 _atom_site_occupancy
  Ag  Ag0  1  0.30980391  0.15490195  0.35347034  1.0
  Ag  Ag1  1  0.84509805  0.15490195  0.35347034  1.0
  Ag  Ag2  1  0.84509805  0.69019609  0.35347034  1.0
  Ag  Ag3  1  0.65937763  0.82968882  0.80467027  1.0
  Ag  Ag4  1  0.17031118  0.82968882  0.80467027  1.0
  Ag  Ag5  1  0.17031118  0.34062237  0.80467027  1.0
  Mo  Mo6  1  0.66666667  0.33333333  0.85743361  1.0
  Mo  Mo7  1  0.33333333  0.66666667  0.29446554  1.0
  Cl  Cl8  1  0.00000000  0.00000000  0.04489930  1.0
  O  O9  1  0.42238944  0.21119472  0.72611828  1.0
  O  O10  1  0.78880528  0.21119472  0.72611828  1.0
  O  O11  1  0.78880528  0.57761056  0.72611828  1.0
  O  O12  1  0.58484368  0.79242184  0.40919906  1.0
  O  O13  1  0.20757816  0.79242184  0.40919906  1.0
  O  O14  1  0.20757816  0.41515632  0.40919906  1.0
  O  O15  1  0.33333333  0.66666667  -0.01112049  1.0
  F  F16  1  0.89617913  0.44808957  0.10521607  1.0
  F  F17  1  0.55191043  0.44808957  0.10521607  1.0
  F  F18  1  0.55191043  0.10382087  0.10521607  1.0
