# generated using pymatgen
data_GeF2
_symmetry_space_group_name_H-M   'P 1'
_cell_length_a   5.15299650
_cell_length_b   5.16901688
_cell_length_c   8.32477651
_cell_angle_alpha   90.00000000
_cell_angle_beta   90.00000000
_cell_angle_gamma   90.00000000
_symmetry_Int_Tables_number   1
_chemical_formula_structural   GeF2
_chemical_formula_sum   'Ge4 F8'
_cell_volume   221.73812996
_cell_formula_units_Z   4
loop_
 _symmetry_equiv_pos_site_id
 _symmetry_equiv_pos_as_xyz
  1  'x, y, z'
loop_
 _atom_site_type_symbol
 _atom_site_label
 _atom_site_symmetry_multiplicity
 _atom_site_fract_x
 _atom_site_fract_y
 _atom_site_fract_z
 _atom_site_occupancy
  Ge  Ge0  1  0.21981544  0.53004221  0.62485191  1.0
  Ge  Ge1  1  0.71981544  0.96995779  0.37514809  1.0
  Ge  Ge2  1  0.78018456  0.03004221  0.87514809  1.0
  Ge  Ge3  1  0.28018456  0.46995779  0.12485191  1.0
  F  F4  1  0.47516051  0.85862193  0.52980934  1.0
  F  F5  1  0.97516051  0.64137807  0.47019066  1.0
  F  F6  1  0.52483949  0.35862193  0.97019066  1.0
  F  F7  1  0.02483949  0.14137807  0.02980934  1.0
  F  F8  1  0.10778898  0.77180675  0.78070812  1.0
  F  F9  1  0.60778898  0.72819325  0.21929188  1.0
  F  F10  1  0.89221102  0.27180675  0.71929188  1.0
  F  F11  1  0.39221102  0.22819325  0.28070812  1.0
