# generated using pymatgen
data_Ca2MnAs2(H2O5)2
_symmetry_space_group_name_H-M   'P 1'
_cell_length_a   5.93579157
_cell_length_b   13.18504034
_cell_length_c   5.80444717
_cell_angle_alpha   90.00000000
_cell_angle_beta   108.10741725
_cell_angle_gamma   90.00000000
_symmetry_Int_Tables_number   1
_chemical_formula_structural   Ca2MnAs2(H2O5)2
_chemical_formula_sum   'Ca4 Mn2 As4 H8 O20'
_cell_volume   431.77937892
_cell_formula_units_Z   2
loop_
 _symmetry_equiv_pos_site_id
 _symmetry_equiv_pos_as_xyz
  1  'x, y, z'
loop_
 _atom_site_type_symbol
 _atom_site_label
 _atom_site_symmetry_multiplicity
 _atom_site_fract_x
 _atom_site_fract_y
 _atom_site_fract_z
 _atom_site_occupancy
  Ca  Ca0  1  0.43457017  0.87874839  0.76567207  1.0
  Ca  Ca1  1  0.43457017  0.62125161  0.26567207  1.0
  Ca  Ca2  1  0.56542983  0.37874839  0.73432793  1.0
  Ca  Ca3  1  0.56542983  0.12125161  0.23432793  1.0
  Mn  Mn4  1  0.00000000  0.00000000  0.00000000  1.0
  Mn  Mn5  1  0.00000000  0.50000000  0.50000000  1.0
  As  As6  1  0.77792856  0.62134224  0.93398642  1.0
  As  As7  1  0.77792856  0.87865776  0.43398642  1.0
  As  As8  1  0.22207144  0.12134224  0.56601358  1.0
  As  As9  1  0.22207144  0.37865776  0.06601358  1.0
  H  H10  1  0.89245297  0.21071754  0.99843094  1.0
  H  H11  1  0.89245297  0.28928246  0.49843094  1.0
  H  H12  1  0.10754703  0.71071754  0.50156906  1.0
  H  H13  1  0.10754703  0.78928246  0.00156906  1.0
  H  H14  1  0.31433351  0.65555358  0.69838950  1.0
  H  H15  1  0.31433351  0.84444642  0.19838950  1.0
  H  H16  1  0.68566649  0.15555358  0.80161050  1.0
  H  H17  1  0.68566649  0.34444642  0.30161050  1.0
  O  O18  1  0.05550401  0.82606994  0.50557830  1.0
  O  O19  1  0.05550401  0.67393006  1.00557830  1.0
  O  O20  1  0.94449599  0.32606994  -0.00557830  1.0
  O  O21  1  0.94449599  0.17393006  0.49442170  1.0
  O  O22  1  0.80360850  0.35675953  0.46528768  1.0
  O  O23  1  0.80360850  0.14324047  0.96528768  1.0
  O  O24  1  0.19639150  0.85675953  0.03471232  1.0
  O  O25  1  0.19639150  0.64324047  0.53471232  1.0
  O  O26  1  0.75451148  0.96131657  0.66250963  1.0
  O  O27  1  0.75451148  0.53868343  0.16250963  1.0
  O  O28  1  0.24548852  0.46131657  0.83749037  1.0
  O  O29  1  0.24548852  0.03868343  0.33749037  1.0
  O  O30  1  0.71295336  0.55211447  0.66276778  1.0
  O  O31  1  0.71295336  0.94788553  0.16276778  1.0
  O  O32  1  0.28704664  0.05211447  0.83723222  1.0
  O  O33  1  0.28704664  0.44788553  0.33723222  1.0
  O  O34  1  0.55008164  0.70702718  0.92212350  1.0
  O  O35  1  0.55008164  0.79297282  0.42212350  1.0
  O  O36  1  0.44991836  0.20702718  0.57787650  1.0
  O  O37  1  0.44991836  0.29297282  0.07787650  1.0
