# generated using pymatgen
data_Sb3O2F5
_symmetry_space_group_name_H-M   'P 1'
_cell_length_a   13.59780394
_cell_length_b   6.02868844
_cell_length_c   9.75205652
_cell_angle_alpha   90.00000000
_cell_angle_beta   110.70468847
_cell_angle_gamma   90.00000000
_symmetry_Int_Tables_number   1
_chemical_formula_structural   Sb3O2F5
_chemical_formula_sum   'Sb12 O8 F20'
_cell_volume   747.81160936
_cell_formula_units_Z   4
loop_
 _symmetry_equiv_pos_site_id
 _symmetry_equiv_pos_as_xyz
  1  'x, y, z'
loop_
 _atom_site_type_symbol
 _atom_site_label
 _atom_site_symmetry_multiplicity
 _atom_site_fract_x
 _atom_site_fract_y
 _atom_site_fract_z
 _atom_site_occupancy
  Sb  Sb0  1  0.86190227  0.54278795  0.90457033  1.0
  Sb  Sb1  1  0.86190227  0.45721205  0.40457033  1.0
  Sb  Sb2  1  0.13809773  0.54278795  0.59542967  1.0
  Sb  Sb3  1  0.13809773  0.45721205  0.09542967  1.0
  Sb  Sb4  1  0.70951671  0.93315031  0.60612222  1.0
  Sb  Sb5  1  0.70951671  0.06684969  0.10612222  1.0
  Sb  Sb6  1  0.29048329  0.93315031  0.89387778  1.0
  Sb  Sb7  1  0.29048329  0.06684969  0.39387778  1.0
  Sb  Sb8  1  0.50000000  0.57010377  0.75000000  1.0
  Sb  Sb9  1  0.50000000  0.42989623  0.25000000  1.0
  Sb  Sb10  1  -0.00000000  0.86737527  0.75000000  1.0
  Sb  Sb11  1  -0.00000000  0.13262473  0.25000000  1.0
  O  O12  1  0.99172458  0.65128295  0.58403579  1.0
  O  O13  1  0.99172458  0.34871705  0.08403579  1.0
  O  O14  1  0.00827542  0.65128295  0.91596421  1.0
  O  O15  1  0.00827542  0.34871705  0.41596421  1.0
  O  O16  1  0.83796763  0.75270322  0.71444902  1.0
  O  O17  1  0.83796763  0.24729678  0.21444902  1.0
  O  O18  1  0.16203237  0.75270322  0.78555098  1.0
  O  O19  1  0.16203237  0.24729678  0.28555098  1.0
  F  F20  1  0.85785067  0.28672340  0.77319220  1.0
  F  F21  1  0.85785067  0.71327660  0.27319220  1.0
  F  F22  1  0.14214933  0.28672340  0.72680780  1.0
  F  F23  1  0.14214933  0.71327660  0.22680780  1.0
  F  F24  1  0.79997428  0.95352349  0.99390426  1.0
  F  F25  1  0.79997428  0.04647651  0.49390426  1.0
  F  F26  1  0.20002572  0.95352349  0.50609574  1.0
  F  F27  1  0.20002572  0.04647651  0.00609574  1.0
  F  F28  1  0.65630881  0.71716707  0.44261534  1.0
  F  F29  1  0.65630881  0.28283293  0.94261534  1.0
  F  F30  1  0.34369119  0.71716707  0.05738466  1.0
  F  F31  1  0.34369119  0.28283293  0.55738466  1.0
  F  F32  1  0.64535910  0.64300913  0.71922294  1.0
  F  F33  1  0.64535910  0.35699087  0.21922294  1.0
  F  F34  1  0.35464090  0.64300913  0.78077706  1.0
  F  F35  1  0.35464090  0.35699087  0.28077706  1.0
  F  F36  1  0.55128437  0.79408724  0.90731056  1.0
  F  F37  1  0.55128437  0.20591276  0.40731056  1.0
  F  F38  1  0.44871563  0.79408724  0.59268944  1.0
  F  F39  1  0.44871563  0.20591276  0.09268944  1.0
