# generated using pymatgen
data_CuN3
_symmetry_space_group_name_H-M   'P 1'
_cell_length_a   5.54318060
_cell_length_b   5.54318060
_cell_length_c   5.97493095
_cell_angle_alpha   90.00000000
_cell_angle_beta   90.00000000
_cell_angle_gamma   144.43528097
_symmetry_Int_Tables_number   1
_chemical_formula_structural   CuN3
_chemical_formula_sum   'Cu2 N6'
_cell_volume   106.78048908
_cell_formula_units_Z   2
loop_
 _symmetry_equiv_pos_site_id
 _symmetry_equiv_pos_as_xyz
  1  'x, y, z'
loop_
 _atom_site_type_symbol
 _atom_site_label
 _atom_site_symmetry_multiplicity
 _atom_site_fract_x
 _atom_site_fract_y
 _atom_site_fract_z
 _atom_site_occupancy
  Cu  Cu0  1  -0.98068789  0.98068789  0.25000000  1.0
  Cu  Cu1  1  -0.01931211  1.01931211  0.75000000  1.0
  N  N2  1  -0.80384823  0.80384823  0.25000000  1.0
  N  N3  1  -0.19615177  1.19615177  0.75000000  1.0
  N  N4  1  -0.69384257  0.69384257  0.25000000  1.0
  N  N5  1  -0.30615743  1.30615743  0.75000000  1.0
  N  N6  1  -0.57940572  0.57940572  0.25000000  1.0
  N  N7  1  -0.42059428  1.42059428  0.75000000  1.0
