# generated using pymatgen
data_InH3C2O5
_symmetry_space_group_name_H-M   'P 1'
_cell_length_a   9.49936662
_cell_length_b   9.49936662
_cell_length_c   9.49936662
_cell_angle_alpha   96.15491108
_cell_angle_beta   96.15491108
_cell_angle_gamma   141.77306130
_symmetry_Int_Tables_number   1
_chemical_formula_structural   InH3C2O5
_chemical_formula_sum   'In4 H12 C8 O20'
_cell_volume   501.17758896
_cell_formula_units_Z   4
loop_
 _symmetry_equiv_pos_site_id
 _symmetry_equiv_pos_as_xyz
  1  'x, y, z'
loop_
 _atom_site_type_symbol
 _atom_site_label
 _atom_site_symmetry_multiplicity
 _atom_site_fract_x
 _atom_site_fract_y
 _atom_site_fract_z
 _atom_site_occupancy
  In  In0  1  0.87500000  0.77002605  0.39502605  1.0
  In  In1  1  1.37500000  1.47997395  1.60497395  1.0
  In  In2  1  1.22997395  1.62500000  1.10497395  1.0
  In  In3  1  1.52002605  1.12500000  0.89502605  1.0
  H  H4  1  0.45872151  0.14179566  0.42975916  1.0
  H  H5  1  0.29127849  0.22103766  0.18307415  1.0
  H  H6  1  0.71203649  1.02896234  1.57024084  1.0
  H  H7  1  1.03796351  1.10820434  1.81692585  1.0
  H  H8  1  0.85820434  1.28796351  1.31692585  1.0
  H  H9  1  0.89179566  0.70872151  0.92975916  1.0
  H  H10  1  0.97103766  0.54127849  0.68307415  1.0
  H  H11  1  0.77896234  0.96203649  1.07024084  1.0
  H  H12  1  1.25340440  1.12500000  0.62840440  1.0
  H  H13  1  1.49659560  1.62500000  1.37159560  1.0
  H  H14  1  0.87500000  1.50340440  1.12840440  1.0
  H  H15  1  1.37500000  0.74659560  0.87159560  1.0
  C  C16  1  1.33624575  1.97091352  1.34161513  1.0
  C  C17  1  0.41375425  1.25536938  1.13466777  1.0
  C  C18  1  1.62929839  0.99463062  0.65838487  1.0
  C  C19  1  1.12070161  0.27908648  0.86533223  1.0
  C  C20  1  1.02908648  1.37070161  1.36533223  1.0
  C  C21  1  0.72091352  0.58624575  0.84161513  1.0
  C  C22  1  1.00536938  0.66375425  0.63466777  1.0
  C  C23  1  0.74463062  0.87929839  1.15838487  1.0
  O  O24  1  1.17594611  1.12500000  0.55094611  1.0
  O  O25  1  1.57405389  1.62500000  1.44905389  1.0
  O  O26  1  0.87500000  1.42594611  1.05094611  1.0
  O  O27  1  1.37500000  0.82405389  0.94905389  1.0
  O  O28  1  1.11213633  0.80528169  0.31141851  1.0
  O  O29  1  0.63786367  0.44928218  0.19314536  1.0
  O  O30  1  1.49386319  1.80071782  1.68858149  1.0
  O  O31  1  1.25613681  1.44471831  1.80685464  1.0
  O  O32  1  1.19471831  1.50613681  1.30685464  1.0
  O  O33  1  0.55528169  0.36213633  0.81141851  1.0
  O  O34  1  1.19928218  0.88786367  0.69314536  1.0
  O  O35  1  0.55071782  0.74386319  1.18858149  1.0
  O  O36  1  0.43485258  0.95576048  1.27523854  1.0
  O  O37  1  0.31514742  1.09038596  1.02090789  1.0
  O  O38  1  0.68052193  0.15961404  0.72476146  1.0
  O  O39  1  1.06947807  0.29423952  0.97909211  1.0
  O  O40  1  1.04423952  1.31947807  1.47909211  1.0
  O  O41  1  0.70576048  0.68485258  0.77523854  1.0
  O  O42  1  0.84038596  0.56514742  0.52090789  1.0
  O  O43  1  0.90961404  0.93052193  1.22476146  1.0
