# generated using pymatgen
data_LiScAs2O7
_symmetry_space_group_name_H-M   'P 1'
_cell_length_a   5.56117484
_cell_length_b   5.56117484
_cell_length_c   4.93643285
_cell_angle_alpha   81.22788927
_cell_angle_beta   98.77211073
_cell_angle_gamma   77.04153270
_symmetry_Int_Tables_number   1
_chemical_formula_structural   LiScAs2O7
_chemical_formula_sum   'Li1 Sc1 As2 O7'
_cell_volume   144.24994427
_cell_formula_units_Z   1
loop_
 _symmetry_equiv_pos_site_id
 _symmetry_equiv_pos_as_xyz
  1  'x, y, z'
loop_
 _atom_site_type_symbol
 _atom_site_label
 _atom_site_symmetry_multiplicity
 _atom_site_fract_x
 _atom_site_fract_y
 _atom_site_fract_z
 _atom_site_occupancy
  Li  Li0  1  0.00255721  0.00255721  -0.00000000  1.0
  Sc  Sc1  1  0.62017530  -0.37982470  0.00000000  1.0
  As  As2  1  1.06947721  0.50018236  0.59173370  1.0
  As  As3  1  1.50018236  0.06947721  0.40826630  1.0
  O  O4  1  1.28932958  0.63131508  0.74766169  1.0
  O  O5  1  1.63131508  0.28932958  0.25233831  1.0
  O  O6  1  0.89505780  -0.61142602  0.81957176  1.0
  O  O7  1  0.38857398  -0.10494220  0.18042824  1.0
  O  O8  1  0.69442226  -0.08686042  0.72138175  1.0
  O  O9  1  0.91313958  -0.30557774  0.27861825  1.0
  O  O10  1  1.20496962  0.20496962  0.50000000  1.0
