# generated using pymatgen
data_CoGe(OF)6
_symmetry_space_group_name_H-M   'P 1'
_cell_length_a   5.75327520
_cell_length_b   7.48227269
_cell_length_c   10.31415778
_cell_angle_alpha   90.00000000
_cell_angle_beta   120.20005629
_cell_angle_gamma   90.00000000
_symmetry_Int_Tables_number   1
_chemical_formula_structural   CoGe(OF)6
_chemical_formula_sum   'Co2 Ge2 O12 F12'
_cell_volume   383.73733355
_cell_formula_units_Z   2
loop_
 _symmetry_equiv_pos_site_id
 _symmetry_equiv_pos_as_xyz
  1  'x, y, z'
loop_
 _atom_site_type_symbol
 _atom_site_label
 _atom_site_symmetry_multiplicity
 _atom_site_fract_x
 _atom_site_fract_y
 _atom_site_fract_z
 _atom_site_occupancy
  Co  Co0  1  0.00000000  0.50000000  0.00000000  1.0
  Co  Co1  1  0.00000000  0.00000000  0.50000000  1.0
  Ge  Ge2  1  0.50000000  0.50000000  0.50000000  1.0
  Ge  Ge3  1  0.50000000  0.00000000  -0.00000000  1.0
  O  O4  1  0.84562123  0.42294803  0.10339675  1.0
  O  O5  1  0.84562123  0.07705197  0.60339675  1.0
  O  O6  1  0.15437877  0.92294803  0.39660325  1.0
  O  O7  1  0.15437877  0.57705197  0.89660325  1.0
  O  O8  1  0.90788487  0.20674360  0.39465366  1.0
  O  O9  1  0.90788487  0.29325640  0.89465366  1.0
  O  O10  1  0.09211513  0.70674360  0.10534634  1.0
  O  O11  1  0.09211513  0.79325640  0.60534634  1.0
  O  O12  1  0.66163201  0.92137200  0.38578190  1.0
  O  O13  1  0.66163201  0.57862800  0.88578190  1.0
  O  O14  1  0.33836799  0.42137200  0.11421810  1.0
  O  O15  1  0.33836799  0.07862800  0.61421810  1.0
  F  F16  1  0.81307248  0.12389731  0.05060486  1.0
  F  F17  1  0.81307248  0.37610269  0.55060486  1.0
  F  F18  1  0.18692752  0.62389731  0.44939514  1.0
  F  F19  1  0.18692752  0.87610269  0.94939514  1.0
  F  F20  1  0.49424653  0.58905719  0.33256197  1.0
  F  F21  1  0.49424653  -0.08905719  0.83256197  1.0
  F  F22  1  0.50575347  1.08905719  0.16743803  1.0
  F  F23  1  0.50575347  0.41094281  0.66743803  1.0
  F  F24  1  0.29634632  0.30931583  0.39197987  1.0
  F  F25  1  0.29634632  0.19068417  0.89197987  1.0
  F  F26  1  0.70365368  0.80931583  0.10802013  1.0
  F  F27  1  0.70365368  0.69068417  0.60802013  1.0
