# generated using pymatgen
data_LaGeIr
_symmetry_space_group_name_H-M   'P 1'
_cell_length_a   7.81041525
_cell_length_b   7.81041525
_cell_length_c   7.81041525
_cell_angle_alpha   147.40604629
_cell_angle_beta   147.40604629
_cell_angle_gamma   46.76293830
_symmetry_Int_Tables_number   1
_chemical_formula_structural   LaGeIr
_chemical_formula_sum   'La2 Ge2 Ir2'
_cell_volume   137.75100132
_cell_formula_units_Z   2
loop_
 _symmetry_equiv_pos_site_id
 _symmetry_equiv_pos_as_xyz
  1  'x, y, z'
loop_
 _atom_site_type_symbol
 _atom_site_label
 _atom_site_symmetry_multiplicity
 _atom_site_fract_x
 _atom_site_fract_y
 _atom_site_fract_z
 _atom_site_occupancy
  La  La0  1  0.57769391  0.57769391  1.00000000  1.0
  La  La1  1  0.32769391  0.82769391  0.50000000  1.0
  Ge  Ge2  1  -0.00145755  -0.00145755  -0.00000000  1.0
  Ge  Ge3  1  0.74854245  0.24854245  0.50000000  1.0
  Ir  Ir4  1  0.17076364  0.17076364  0.00000000  1.0
  Ir  Ir5  1  0.92076364  0.42076364  0.50000000  1.0
