# generated using pymatgen
data_SnP2PbO8
_symmetry_space_group_name_H-M   'P 1'
_cell_length_a   4.93088950
_cell_length_b   15.08051332
_cell_length_c   10.03086880
_cell_angle_alpha   90.00000000
_cell_angle_beta   116.82022166
_cell_angle_gamma   90.00000000
_symmetry_Int_Tables_number   1
_chemical_formula_structural   SnP2PbO8
_chemical_formula_sum   'Sn4 P8 Pb4 O32'
_cell_volume   665.66001051
_cell_formula_units_Z   4
loop_
 _symmetry_equiv_pos_site_id
 _symmetry_equiv_pos_as_xyz
  1  'x, y, z'
loop_
 _atom_site_type_symbol
 _atom_site_label
 _atom_site_symmetry_multiplicity
 _atom_site_fract_x
 _atom_site_fract_y
 _atom_site_fract_z
 _atom_site_occupancy
  Sn  Sn0  1  0.68328908  0.35866650  0.44850831  1.0
  Sn  Sn1  1  0.68328908  0.14133350  0.94850831  1.0
  Sn  Sn2  1  0.31671092  0.85866650  0.05149169  1.0
  Sn  Sn3  1  0.31671092  0.64133350  0.55149169  1.0
  P  P4  1  0.95080627  0.97660670  0.20401993  1.0
  P  P5  1  0.95080627  0.52339330  0.70401993  1.0
  P  P6  1  0.04919373  0.47660670  0.29598007  1.0
  P  P7  1  0.04919373  0.02339330  0.79598007  1.0
  P  P8  1  0.67397686  0.76169637  0.39076510  1.0
  P  P9  1  0.67397686  0.73830363  0.89076510  1.0
  P  P10  1  0.32602314  0.26169637  0.10923490  1.0
  P  P11  1  0.32602314  0.23830363  0.60923490  1.0
  Pb  Pb12  1  0.61966369  0.10002987  0.40965349  1.0
  Pb  Pb13  1  0.61966369  0.39997013  0.90965349  1.0
  Pb  Pb14  1  0.38033631  0.60002987  0.09034651  1.0
  Pb  Pb15  1  0.38033631  0.89997013  0.59034651  1.0
  O  O16  1  0.97707043  0.06156720  0.12174445  1.0
  O  O17  1  0.97707043  0.43843280  0.62174445  1.0
  O  O18  1  0.02292957  0.56156720  0.37825555  1.0
  O  O19  1  0.02292957  0.93843280  0.87825555  1.0
  O  O20  1  0.97046453  0.24983139  0.03567773  1.0
  O  O21  1  0.97046453  0.25016861  0.53567773  1.0
  O  O22  1  0.02953547  0.74983139  0.46432227  1.0
  O  O23  1  0.02953547  0.75016861  0.96432227  1.0
  O  O24  1  0.93006764  0.39178523  0.33795028  1.0
  O  O25  1  0.93006764  0.10821477  0.83795028  1.0
  O  O26  1  0.06993236  0.89178523  0.16204972  1.0
  O  O27  1  0.06993236  0.60821477  0.66204972  1.0
  O  O28  1  0.86307331  0.49689978  0.12696737  1.0
  O  O29  1  0.86307331  0.00310022  0.62696737  1.0
  O  O30  1  0.13692669  0.99689978  0.37303263  1.0
  O  O31  1  0.13692669  0.50310022  0.87303263  1.0
  O  O32  1  0.61166107  0.84786438  0.45074014  1.0
  O  O33  1  0.61166107  0.65213562  0.95074014  1.0
  O  O34  1  0.38833893  0.34786438  0.04925986  1.0
  O  O35  1  0.38833893  0.15213562  0.54925986  1.0
  O  O36  1  0.48077836  0.17762757  0.08281493  1.0
  O  O37  1  0.48077836  0.32237243  0.58281493  1.0
  O  O38  1  0.51922164  0.67762757  0.41718507  1.0
  O  O39  1  0.51922164  0.82237243  0.91718507  1.0
  O  O40  1  0.43421599  0.26496059  0.28317301  1.0
  O  O41  1  0.43421599  0.23503941  0.78317301  1.0
  O  O42  1  0.56578401  0.76496059  0.21682699  1.0
  O  O43  1  0.56578401  0.73503941  0.71682699  1.0
  O  O44  1  0.39071297  0.46066529  0.33432330  1.0
  O  O45  1  0.39071297  0.03933471  0.83432330  1.0
  O  O46  1  0.60928703  0.96066529  0.16567670  1.0
  O  O47  1  0.60928703  0.53933471  0.66567670  1.0
