# generated using pymatgen
data_Na10CaSn12
_symmetry_space_group_name_H-M   'P 1'
_cell_length_a   9.79095873
_cell_length_b   9.79095873
_cell_length_c   9.79095873
_cell_angle_alpha   109.47122063
_cell_angle_beta   109.47122063
_cell_angle_gamma   109.47122063
_symmetry_Int_Tables_number   1
_chemical_formula_structural   Na10CaSn12
_chemical_formula_sum   'Na10 Ca1 Sn12'
_cell_volume   722.52648132
_cell_formula_units_Z   1
loop_
 _symmetry_equiv_pos_site_id
 _symmetry_equiv_pos_as_xyz
  1  'x, y, z'
loop_
 _atom_site_type_symbol
 _atom_site_label
 _atom_site_symmetry_multiplicity
 _atom_site_fract_x
 _atom_site_fract_y
 _atom_site_fract_z
 _atom_site_occupancy
  Na  Na0  1  0.25000000  0.75000000  0.50000000  1.0
  Na  Na1  1  0.75000000  0.25000000  0.50000000  1.0
  Na  Na2  1  0.25000000  0.50000000  0.75000000  1.0
  Na  Na3  1  0.50000000  0.25000000  0.75000000  1.0
  Na  Na4  1  0.75000000  0.50000000  0.25000000  1.0
  Na  Na5  1  0.50000000  0.75000000  0.25000000  1.0
  Na  Na6  1  0.38418963  0.38418963  0.38418963  1.0
  Na  Na7  1  1.00000000  1.00000000  0.61581037  1.0
  Na  Na8  1  1.00000000  0.61581037  1.00000000  1.0
  Na  Na9  1  0.61581037  1.00000000  1.00000000  1.0
  Ca  Ca10  1  0.00000000  0.00000000  0.00000000  1.0
  Sn  Sn11  1  0.81715460  0.62897345  0.62897345  1.0
  Sn  Sn12  1  0.62897345  0.81715460  0.62897345  1.0
  Sn  Sn13  1  1.00000000  1.18818115  0.37102655  1.0
  Sn  Sn14  1  1.18818115  1.00000000  0.37102655  1.0
  Sn  Sn15  1  0.62897345  0.62897345  0.81715460  1.0
  Sn  Sn16  1  0.81181885  0.81181885  0.18284540  1.0
  Sn  Sn17  1  1.00000000  0.37102655  1.18818115  1.0
  Sn  Sn18  1  0.81181885  0.18284540  0.81181885  1.0
  Sn  Sn19  1  0.18284540  0.81181885  0.81181885  1.0
  Sn  Sn20  1  0.37102655  1.00000000  1.18818115  1.0
  Sn  Sn21  1  1.18818115  0.37102655  1.00000000  1.0
  Sn  Sn22  1  0.37102655  1.18818115  1.00000000  1.0
