# generated using pymatgen
data_HgSeO3
_symmetry_space_group_name_H-M   'P 1'
_cell_length_a   5.34908494
_cell_length_b   9.40378707
_cell_length_c   7.05262194
_cell_angle_alpha   90.00000000
_cell_angle_beta   89.88971774
_cell_angle_gamma   90.00000000
_symmetry_Int_Tables_number   1
_chemical_formula_structural   HgSeO3
_chemical_formula_sum   'Hg4 Se4 O12'
_cell_volume   354.75790410
_cell_formula_units_Z   4
loop_
 _symmetry_equiv_pos_site_id
 _symmetry_equiv_pos_as_xyz
  1  'x, y, z'
loop_
 _atom_site_type_symbol
 _atom_site_label
 _atom_site_symmetry_multiplicity
 _atom_site_fract_x
 _atom_site_fract_y
 _atom_site_fract_z
 _atom_site_occupancy
  Hg  Hg0  1  0.80094846  0.34818855  0.04298108  1.0
  Hg  Hg1  1  0.80094846  0.15181145  0.54298108  1.0
  Hg  Hg2  1  0.19905154  0.84818855  0.45701892  1.0
  Hg  Hg3  1  0.19905154  0.65181145  0.95701892  1.0
  Se  Se4  1  0.74687741  0.94210678  0.17975752  1.0
  Se  Se5  1  0.74687741  0.55789322  0.67975752  1.0
  Se  Se6  1  0.25312259  0.44210678  0.32024248  1.0
  Se  Se7  1  0.25312259  0.05789322  0.82024248  1.0
  O  O8  1  0.93345039  0.40217052  0.32459820  1.0
  O  O9  1  0.93345039  0.09782948  0.82459820  1.0
  O  O10  1  0.06654961  0.90217052  0.17540180  1.0
  O  O11  1  0.06654961  0.59782948  0.67540180  1.0
  O  O12  1  0.74139493  0.12362438  0.24485562  1.0
  O  O13  1  0.74139493  0.37637562  0.74485562  1.0
  O  O14  1  0.25860507  0.62362438  0.25514438  1.0
  O  O15  1  0.25860507  0.87637562  0.75514438  1.0
  O  O16  1  0.66616938  0.86625933  0.38845945  1.0
  O  O17  1  0.66616938  0.63374067  0.88845945  1.0
  O  O18  1  0.33383062  0.36625933  0.11154055  1.0
  O  O19  1  0.33383062  0.13374067  0.61154055  1.0
