# generated using pymatgen
data_KCa2Cd2Sb3
_symmetry_space_group_name_H-M   'P 1'
_cell_length_a   12.45617637
_cell_length_b   4.81562971
_cell_length_c   16.16235320
_cell_angle_alpha   90.00000000
_cell_angle_beta   90.00000000
_cell_angle_gamma   90.00000000
_symmetry_Int_Tables_number   1
_chemical_formula_structural   KCa2Cd2Sb3
_chemical_formula_sum   'K4 Ca8 Cd8 Sb12'
_cell_volume   969.48797627
_cell_formula_units_Z   4
loop_
 _symmetry_equiv_pos_site_id
 _symmetry_equiv_pos_as_xyz
  1  'x, y, z'
loop_
 _atom_site_type_symbol
 _atom_site_label
 _atom_site_symmetry_multiplicity
 _atom_site_fract_x
 _atom_site_fract_y
 _atom_site_fract_z
 _atom_site_occupancy
  K  K0  1  0.59083578  0.75000000  0.54488432  1.0
  K  K1  1  0.09083578  0.75000000  0.95511568  1.0
  K  K2  1  0.40916422  0.25000000  0.45511568  1.0
  K  K3  1  0.90916422  0.25000000  0.04488432  1.0
  Ca  Ca4  1  0.89721809  0.75000000  0.42428886  1.0
  Ca  Ca5  1  0.39721809  0.75000000  0.07571114  1.0
  Ca  Ca6  1  0.10278191  0.25000000  0.57571114  1.0
  Ca  Ca7  1  0.60278191  0.25000000  0.92428886  1.0
  Ca  Ca8  1  0.64231355  0.75000000  0.27860377  1.0
  Ca  Ca9  1  0.14231355  0.75000000  0.22139623  1.0
  Ca  Ca10  1  0.35768645  0.25000000  0.72139623  1.0
  Ca  Ca11  1  0.85768645  0.25000000  0.77860377  1.0
  Cd  Cd12  1  0.70009529  0.75000000  0.07427887  1.0
  Cd  Cd13  1  0.20009529  0.75000000  0.42572113  1.0
  Cd  Cd14  1  0.29990471  0.25000000  0.92572113  1.0
  Cd  Cd15  1  0.79990471  0.25000000  0.57427887  1.0
  Cd  Cd16  1  0.62860372  0.75000000  0.78267929  1.0
  Cd  Cd17  1  0.12860372  0.75000000  0.71732071  1.0
  Cd  Cd18  1  0.37139628  0.25000000  0.21732071  1.0
  Cd  Cd19  1  0.87139628  0.25000000  0.28267929  1.0
  Sb  Sb20  1  0.92013992  0.75000000  0.62472968  1.0
  Sb  Sb21  1  0.42013992  0.75000000  0.87527032  1.0
  Sb  Sb22  1  0.07986008  0.25000000  0.37527032  1.0
  Sb  Sb23  1  0.57986008  0.25000000  0.12472968  1.0
  Sb  Sb24  1  0.88495463  0.75000000  0.19206701  1.0
  Sb  Sb25  1  0.38495463  0.75000000  0.30793299  1.0
  Sb  Sb26  1  0.11504537  0.25000000  0.80793299  1.0
  Sb  Sb27  1  0.61504537  0.25000000  0.69206701  1.0
  Sb  Sb28  1  0.29384742  0.75000000  0.58984548  1.0
  Sb  Sb29  1  0.79384742  0.75000000  0.91015452  1.0
  Sb  Sb30  1  0.70615258  0.25000000  0.41015452  1.0
  Sb  Sb31  1  0.20615258  0.25000000  0.08984548  1.0
