# generated using pymatgen
data_MnPH6NO5
_symmetry_space_group_name_H-M   'P 1'
_cell_length_a   5.77716091
_cell_length_b   9.03319983
_cell_length_c   4.89520162
_cell_angle_alpha   90.00000000
_cell_angle_beta   90.00000000
_cell_angle_gamma   90.00000000
_symmetry_Int_Tables_number   1
_chemical_formula_structural   MnPH6NO5
_chemical_formula_sum   'Mn2 P2 H12 N2 O10'
_cell_volume   255.46221013
_cell_formula_units_Z   2
loop_
 _symmetry_equiv_pos_site_id
 _symmetry_equiv_pos_as_xyz
  1  'x, y, z'
loop_
 _atom_site_type_symbol
 _atom_site_label
 _atom_site_symmetry_multiplicity
 _atom_site_fract_x
 _atom_site_fract_y
 _atom_site_fract_z
 _atom_site_occupancy
  Mn  Mn0  1  0.50000000  0.47517007  0.94450463  1.0
  Mn  Mn1  1  0.00000000  0.52482993  0.44450463  1.0
  P  P2  1  0.50000000  0.69757737  0.50501164  1.0
  P  P3  1  0.00000000  0.30242263  0.00501164  1.0
  H  H4  1  0.14744419  0.91582600  0.54317446  1.0
  H  H5  1  0.64744419  0.08417400  0.04317446  1.0
  H  H6  1  0.85255581  0.91582600  0.54317446  1.0
  H  H7  1  0.35255581  0.08417400  0.04317446  1.0
  H  H8  1  0.13497246  0.69091535  -0.00577839  1.0
  H  H9  1  0.63497246  0.30908465  0.49422161  1.0
  H  H10  1  0.86502754  0.69091535  -0.00577839  1.0
  H  H11  1  0.36502754  0.30908465  0.49422161  1.0
  H  H12  1  0.50000000  0.95458091  0.22554079  1.0
  H  H13  1  0.00000000  0.04541909  0.72554079  1.0
  H  H14  1  0.50000000  0.95155582  0.86978414  1.0
  H  H15  1  -0.00000000  0.04844418  0.36978414  1.0
  N  N16  1  0.50000000  0.01909018  0.04591361  1.0
  N  N17  1  0.00000000  0.98090982  0.54591361  1.0
  O  O18  1  0.28349229  0.62611932  0.65134103  1.0
  O  O19  1  0.78349229  0.37388068  0.15134103  1.0
  O  O20  1  0.71650771  0.62611932  0.65134103  1.0
  O  O21  1  0.21650771  0.37388068  0.15134103  1.0
  O  O22  1  0.50000000  0.86896160  0.54781120  1.0
  O  O23  1  0.00000000  0.13103840  0.04781120  1.0
  O  O24  1  0.50000000  0.66276650  0.19731048  1.0
  O  O25  1  -0.00000000  0.33723350  0.69731048  1.0
  O  O26  1  0.50000000  0.29583629  0.61514932  1.0
  O  O27  1  -0.00000000  0.70416371  0.11514932  1.0
