# generated using pymatgen
data_Cd2Si(P2O7)2
_symmetry_space_group_name_H-M   'P 1'
_cell_length_a   9.15122620
_cell_length_b   9.15122620
_cell_length_c   12.73698306
_cell_angle_alpha   77.35874838
_cell_angle_beta   102.64125162
_cell_angle_gamma   146.51417326
_symmetry_Int_Tables_number   1
_chemical_formula_structural   Cd2Si(P2O7)2
_chemical_formula_sum   'Cd4 Si2 P8 O28'
_cell_volume   572.93357445
_cell_formula_units_Z   2
loop_
 _symmetry_equiv_pos_site_id
 _symmetry_equiv_pos_as_xyz
  1  'x, y, z'
loop_
 _atom_site_type_symbol
 _atom_site_label
 _atom_site_symmetry_multiplicity
 _atom_site_fract_x
 _atom_site_fract_y
 _atom_site_fract_z
 _atom_site_occupancy
  Cd  Cd0  1  0.58743725  0.09741785  0.63168384  1.0
  Cd  Cd1  1  0.90258215  0.41256275  0.13168384  1.0
  Cd  Cd2  1  1.09741785  0.58743725  0.86831616  1.0
  Cd  Cd3  1  0.41256275  -0.09741785  0.36831616  1.0
  Si  Si4  1  0.63443942  0.63443942  0.75000000  1.0
  Si  Si5  1  0.36556058  0.36556058  0.25000000  1.0
  P  P6  1  0.72974004  -0.03213780  0.86849835  1.0
  P  P7  1  1.03213780  0.27025996  0.36849835  1.0
  P  P8  1  0.96786220  0.72974004  0.63150165  1.0
  P  P9  1  0.27025996  0.03213780  0.13150165  1.0
  P  P10  1  0.45920303  0.19745112  0.91575545  1.0
  P  P11  1  0.80254888  0.54079697  0.41575545  1.0
  P  P12  1  1.19745112  0.45920303  0.58424455  1.0
  P  P13  1  0.54079697  -0.19745112  0.08424455  1.0
  O  O14  1  0.77525778  -0.13864236  0.82168505  1.0
  O  O15  1  1.13864236  0.22474222  0.32168505  1.0
  O  O16  1  0.86135764  0.77525778  0.67831495  1.0
  O  O17  1  0.22474222  0.13864236  0.17831495  1.0
  O  O18  1  0.62054948  -0.20194899  0.98386380  1.0
  O  O19  1  1.20194899  0.37945052  0.48386380  1.0
  O  O20  1  0.79805101  0.62054948  0.51613620  1.0
  O  O21  1  0.37945052  0.20194899  0.01613620  1.0
  O  O22  1  0.50589211  -0.11977306  0.80162092  1.0
  O  O23  1  1.11977306  0.49410789  0.30162092  1.0
  O  O24  1  0.88022694  0.50589211  0.69837908  1.0
  O  O25  1  0.49410789  0.11977306  0.19837908  1.0
  O  O26  1  0.68053533  0.28520162  0.45149450  1.0
  O  O27  1  0.71479838  0.31946467  0.95149450  1.0
  O  O28  1  1.28520162  0.68053533  0.04850550  1.0
  O  O29  1  0.31946467  -0.28520162  0.54850550  1.0
  O  O30  1  0.22436465  -0.07362389  0.87324410  1.0
  O  O31  1  1.07362389  0.77563535  0.37324410  1.0
  O  O32  1  0.92637611  0.22436465  0.62675590  1.0
  O  O33  1  0.77563535  0.07362389  0.12675590  1.0
  O  O34  1  0.25998165  -0.00751331  0.61778741  1.0
  O  O35  1  1.00751331  0.74001835  0.11778741  1.0
  O  O36  1  0.99248669  0.25998165  0.88221259  1.0
  O  O37  1  0.74001835  0.00751331  0.38221259  1.0
  O  O38  1  0.51565718  0.39292007  0.83080142  1.0
  O  O39  1  0.60707993  0.48434282  0.33080142  1.0
  O  O40  1  1.39292007  0.51565718  0.66919858  1.0
  O  O41  1  0.48434282  -0.39292007  0.16919858  1.0
