# generated using pymatgen
data_TlSe
_symmetry_space_group_name_H-M   'P 1'
_cell_length_a   6.84158108
_cell_length_b   6.84158108
_cell_length_c   6.84158108
_cell_angle_alpha   105.87554607
_cell_angle_beta   105.87554607
_cell_angle_gamma   116.93006212
_symmetry_Int_Tables_number   1
_chemical_formula_structural   TlSe
_chemical_formula_sum   'Tl4 Se4'
_cell_volume   243.34547113
_cell_formula_units_Z   4
loop_
 _symmetry_equiv_pos_site_id
 _symmetry_equiv_pos_as_xyz
  1  'x, y, z'
loop_
 _atom_site_type_symbol
 _atom_site_label
 _atom_site_symmetry_multiplicity
 _atom_site_fract_x
 _atom_site_fract_y
 _atom_site_fract_z
 _atom_site_occupancy
  Tl  Tl0  1  0.75000000  0.25000000  0.50000000  1.0
  Tl  Tl1  1  0.25000000  0.75000000  0.50000000  1.0
  Tl  Tl2  1  0.25000000  0.25000000  0.00000000  1.0
  Tl  Tl3  1  0.75000000  0.75000000  0.00000000  1.0
  Se  Se4  1  0.82302647  0.32302647  1.14605295  1.0
  Se  Se5  1  0.67697353  0.82302647  0.50000000  1.0
  Se  Se6  1  0.32302647  0.17697353  0.50000000  1.0
  Se  Se7  1  1.17697353  0.67697353  0.85394705  1.0
