# generated using pymatgen
data_Ni3(PO4)2
_symmetry_space_group_name_H-M   'P 1'
_cell_length_a   5.89073199
_cell_length_b   4.73682704
_cell_length_c   10.23336028
_cell_angle_alpha   90.00000000
_cell_angle_beta   90.77402311
_cell_angle_gamma   90.00000000
_symmetry_Int_Tables_number   1
_chemical_formula_structural   Ni3(PO4)2
_chemical_formula_sum   'Ni6 P4 O16'
_cell_volume   285.51927083
_cell_formula_units_Z   2
loop_
 _symmetry_equiv_pos_site_id
 _symmetry_equiv_pos_as_xyz
  1  'x, y, z'
loop_
 _atom_site_type_symbol
 _atom_site_label
 _atom_site_symmetry_multiplicity
 _atom_site_fract_x
 _atom_site_fract_y
 _atom_site_fract_z
 _atom_site_occupancy
  Ni  Ni0  1  0.74360418  0.98717762  0.27458901  1.0
  Ni  Ni1  1  0.74360418  0.51282238  0.77458901  1.0
  Ni  Ni2  1  0.25639582  0.48717762  0.22541099  1.0
  Ni  Ni3  1  0.25639582  0.01282238  0.72541099  1.0
  Ni  Ni4  1  -0.00000000  0.50000000  0.50000000  1.0
  Ni  Ni5  1  0.00000000  0.00000000  0.00000000  1.0
  P  P6  1  0.75224265  0.42351010  0.09574994  1.0
  P  P7  1  0.75224265  0.07648990  0.59574994  1.0
  P  P8  1  0.24775735  0.92351010  0.40425006  1.0
  P  P9  1  0.24775735  0.57648990  0.90425006  1.0
  O  O10  1  0.96755959  0.26388482  0.16185119  1.0
  O  O11  1  0.96755959  0.23611518  0.66185119  1.0
  O  O12  1  0.03244041  0.76388482  0.33814881  1.0
  O  O13  1  0.03244041  0.73611518  0.83814881  1.0
  O  O14  1  0.75670608  0.19004128  0.45269939  1.0
  O  O15  1  0.75670608  0.30995872  0.95269939  1.0
  O  O16  1  0.24329392  0.69004128  0.04730061  1.0
  O  O17  1  0.24329392  0.80995872  0.54730061  1.0
  O  O18  1  0.55199275  0.30109483  0.17507034  1.0
  O  O19  1  0.55199275  0.19890517  0.67507034  1.0
  O  O20  1  0.44800725  0.80109483  0.32492966  1.0
  O  O21  1  0.44800725  0.69890517  0.82492966  1.0
  O  O22  1  0.23136758  0.24868095  0.39724280  1.0
  O  O23  1  0.23136758  0.25131905  0.89724280  1.0
  O  O24  1  0.76863242  0.74868095  0.10275720  1.0
  O  O25  1  0.76863242  0.75131905  0.60275720  1.0
