# generated using pymatgen
data_Cu2S
_symmetry_space_group_name_H-M   'P 1'
_cell_length_a   4.09789335
_cell_length_b   4.09789335
_cell_length_c   10.66254137
_cell_angle_alpha   90.00000000
_cell_angle_beta   90.00000000
_cell_angle_gamma   90.00000000
_symmetry_Int_Tables_number   1
_chemical_formula_structural   Cu2S
_chemical_formula_sum   'Cu8 S4'
_cell_volume   179.05317704
_cell_formula_units_Z   4
loop_
 _symmetry_equiv_pos_site_id
 _symmetry_equiv_pos_as_xyz
  1  'x, y, z'
loop_
 _atom_site_type_symbol
 _atom_site_label
 _atom_site_symmetry_multiplicity
 _atom_site_fract_x
 _atom_site_fract_y
 _atom_site_fract_z
 _atom_site_occupancy
  Cu  Cu0  1  0.92088344  0.58314339  0.08124130  1.0
  Cu  Cu1  1  0.07911656  0.41685661  0.58124130  1.0
  Cu  Cu2  1  0.08314339  0.57911656  0.33124130  1.0
  Cu  Cu3  1  -0.08314339  0.42088344  0.83124130  1.0
  Cu  Cu4  1  0.41685661  0.07911656  0.41875870  1.0
  Cu  Cu5  1  0.58314339  0.92088344  0.91875870  1.0
  Cu  Cu6  1  0.57911656  0.08314339  0.66875870  1.0
  Cu  Cu7  1  0.42088344  -0.08314339  0.16875870  1.0
  S  S8  1  0.57772250  0.42227750  0.25000000  1.0
  S  S9  1  0.42227750  0.57772250  0.75000000  1.0
  S  S10  1  -0.07772250  -0.07772250  0.50000000  1.0
  S  S11  1  0.07772250  0.07772250  -0.00000000  1.0
