# generated using pymatgen
data_Na4TeO5
_symmetry_space_group_name_H-M   'P 1'
_cell_length_a   5.85355801
_cell_length_b   5.82148250
_cell_length_c   8.80216559
_cell_angle_alpha   69.99426818
_cell_angle_beta   69.59646060
_cell_angle_gamma   77.63926315
_symmetry_Int_Tables_number   1
_chemical_formula_structural   Na4TeO5
_chemical_formula_sum   'Na8 Te2 O10'
_cell_volume   262.62916026
_cell_formula_units_Z   2
loop_
 _symmetry_equiv_pos_site_id
 _symmetry_equiv_pos_as_xyz
  1  'x, y, z'
loop_
 _atom_site_type_symbol
 _atom_site_label
 _atom_site_symmetry_multiplicity
 _atom_site_fract_x
 _atom_site_fract_y
 _atom_site_fract_z
 _atom_site_occupancy
  Na  Na0  1  -0.50624645  0.58548240  0.30283400  1.0
  Na  Na1  1  -0.49375355  -0.58548240  0.69716600  1.0
  Na  Na2  1  -0.99612487  -0.29756851  0.59990212  1.0
  Na  Na3  1  -0.00387513  0.29756851  0.40009788  1.0
  Na  Na4  1  -0.48717436  -0.20999788  0.89994243  1.0
  Na  Na5  1  -0.51282564  0.20999788  0.10005757  1.0
  Na  Na6  1  -0.00000000  0.50000000  0.00000000  1.0
  Na  Na7  1  -0.50000000  0.00000000  0.50000000  1.0
  Te  Te8  1  -0.99287253  0.10433562  0.79611116  1.0
  Te  Te9  1  -0.00712747  -0.10433562  0.20388884  1.0
  O  O10  1  -0.21064146  0.05468191  0.68468114  1.0
  O  O11  1  -0.78935854  -0.05468191  0.31531886  1.0
  O  O12  1  -0.80445351  -0.88343039  0.96111042  1.0
  O  O13  1  -0.19554649  0.88343039  0.03888958  1.0
  O  O14  1  -0.76995731  0.31503464  0.59479392  1.0
  O  O15  1  -0.23004269  -0.31503464  0.40520608  1.0
  O  O16  1  -0.21775681  -0.60167479  0.84616766  1.0
  O  O17  1  -0.78224319  0.60167479  0.15383234  1.0
  O  O18  1  -0.77412971  -0.19855459  0.75932235  1.0
  O  O19  1  -0.22587029  0.19855459  0.24067765  1.0
