# generated using pymatgen
data_SrSi3Pd
_symmetry_space_group_name_H-M   'P 1'
_cell_length_a   5.88782590
_cell_length_b   5.88782590
_cell_length_c   5.88782590
_cell_angle_alpha   136.90109834
_cell_angle_beta   136.90109834
_cell_angle_gamma   62.59025697
_symmetry_Int_Tables_number   1
_chemical_formula_structural   SrSi3Pd
_chemical_formula_sum   'Sr1 Si3 Pd1'
_cell_volume   94.12176206
_cell_formula_units_Z   1
loop_
 _symmetry_equiv_pos_site_id
 _symmetry_equiv_pos_as_xyz
  1  'x, y, z'
loop_
 _atom_site_type_symbol
 _atom_site_label
 _atom_site_symmetry_multiplicity
 _atom_site_fract_x
 _atom_site_fract_y
 _atom_site_fract_z
 _atom_site_occupancy
  Sr  Sr0  1  0.58210630  0.58210630  1.00000000  1.0
  Si  Si1  1  0.83862719  0.33862719  0.50000000  1.0
  Si  Si2  1  0.33862719  0.83862719  0.50000000  1.0
  Si  Si3  1  -0.02476422  -0.02476422  -0.00000000  1.0
  Pd  Pd4  1  0.22320354  0.22320354  0.00000000  1.0
