# generated using pymatgen
data_Lu2O3
_symmetry_space_group_name_H-M   'P 1'
_cell_length_a   9.05804732
_cell_length_b   9.05804732
_cell_length_c   9.05804732
_cell_angle_alpha   109.47122063
_cell_angle_beta   109.47122063
_cell_angle_gamma   109.47122063
_symmetry_Int_Tables_number   1
_chemical_formula_structural   Lu2O3
_chemical_formula_sum   'Lu16 O24'
_cell_volume   572.11306449
_cell_formula_units_Z   8
loop_
 _symmetry_equiv_pos_site_id
 _symmetry_equiv_pos_as_xyz
  1  'x, y, z'
loop_
 _atom_site_type_symbol
 _atom_site_label
 _atom_site_symmetry_multiplicity
 _atom_site_fract_x
 _atom_site_fract_y
 _atom_site_fract_z
 _atom_site_occupancy
  Lu  Lu0  1  1.71687059  1.46687059  1.25000000  1.0
  Lu  Lu1  1  1.21687059  0.96687059  1.25000000  1.0
  Lu  Lu2  1  0.75000000  0.78312941  0.03312941  1.0
  Lu  Lu3  1  0.25000000  1.21687059  0.96687059  1.0
  Lu  Lu4  1  0.25000000  0.71687059  0.46687059  1.0
  Lu  Lu5  1  0.75000000  1.28312941  0.53312941  1.0
  Lu  Lu6  1  1.46687059  1.25000000  1.71687059  1.0
  Lu  Lu7  1  0.96687059  0.25000000  1.21687059  1.0
  Lu  Lu8  1  0.03312941  0.75000000  0.78312941  1.0
  Lu  Lu9  1  0.53312941  0.75000000  0.28312941  1.0
  Lu  Lu10  1  0.28312941  0.53312941  0.75000000  1.0
  Lu  Lu11  1  0.78312941  1.03312941  0.75000000  1.0
  Lu  Lu12  1  1.00000000  0.50000000  1.00000000  1.0
  Lu  Lu13  1  0.50000000  0.50000000  0.50000000  1.0
  Lu  Lu14  1  1.00000000  1.00000000  1.50000000  1.0
  Lu  Lu15  1  1.50000000  1.00000000  1.00000000  1.0
  O  O16  1  0.54415627  0.53230813  0.77155088  1.0
  O  O17  1  1.04415627  0.27260539  1.01184814  1.0
  O  O18  1  0.26075725  0.77260539  0.72844912  1.0
  O  O19  1  0.76075725  1.03230813  0.48815186  1.0
  O  O20  1  0.51184814  1.23924275  0.96769187  1.0
  O  O21  1  1.01184814  1.04415627  0.27260539  1.0
  O  O22  1  0.77155088  0.54415627  0.53230813  1.0
  O  O23  1  1.27155088  0.73924275  1.22739461  1.0
  O  O24  1  0.77260539  0.72844912  0.26075725  1.0
  O  O25  1  1.27260539  1.01184814  1.04415627  1.0
  O  O26  1  0.96769187  0.51184814  1.23924275  1.0
  O  O27  1  1.46769187  1.22844912  1.45584373  1.0
  O  O28  1  1.73924275  1.22739461  1.27155088  1.0
  O  O29  1  1.23924275  0.96769187  1.51184814  1.0
  O  O30  1  1.45584373  1.46769187  1.22844912  1.0
  O  O31  1  0.95584373  1.72739461  0.98815186  1.0
  O  O32  1  1.22844912  1.45584373  1.46769187  1.0
  O  O33  1  0.72844912  1.26075725  0.77260539  1.0
  O  O34  1  1.48815186  0.76075725  1.03230813  1.0
  O  O35  1  0.98815186  0.95584373  1.72739461  1.0
  O  O36  1  1.03230813  1.48815186  0.76075725  1.0
  O  O37  1  0.53230813  0.77155088  0.54415627  1.0
  O  O38  1  1.22739461  1.27155088  1.73924275  1.0
  O  O39  1  0.72739461  0.98815186  0.95584373  1.0
