# generated using pymatgen
data_Ba5Ga5Sn
_symmetry_space_group_name_H-M   'P 1'
_cell_length_a   6.06963137
_cell_length_b   6.06963137
_cell_length_c   10.95972383
_cell_angle_alpha   90.00000000
_cell_angle_beta   90.00000000
_cell_angle_gamma   120.00000000
_symmetry_Int_Tables_number   1
_chemical_formula_structural   Ba5Ga5Sn
_chemical_formula_sum   'Ba5 Ga5 Sn1'
_cell_volume   349.66718248
_cell_formula_units_Z   1
loop_
 _symmetry_equiv_pos_site_id
 _symmetry_equiv_pos_as_xyz
  1  'x, y, z'
loop_
 _atom_site_type_symbol
 _atom_site_label
 _atom_site_symmetry_multiplicity
 _atom_site_fract_x
 _atom_site_fract_y
 _atom_site_fract_z
 _atom_site_occupancy
  Ba  Ba0  1  0.66666667  0.33333333  0.79728089  1.0
  Ba  Ba1  1  0.66666667  0.33333333  0.20271911  1.0
  Ba  Ba2  1  0.00000000  0.00000000  0.66838180  1.0
  Ba  Ba3  1  -0.00000000  -0.00000000  0.33161820  1.0
  Ba  Ba4  1  0.33333333  0.66666667  -0.00000000  1.0
  Ga  Ga5  1  0.97004651  0.48502325  0.50000000  1.0
  Ga  Ga6  1  0.51497675  0.48502325  0.50000000  1.0
  Ga  Ga7  1  0.51497675  0.02995349  0.50000000  1.0
  Ga  Ga8  1  0.33333333  0.66666667  0.67440592  1.0
  Ga  Ga9  1  0.33333333  0.66666667  0.32559408  1.0
  Sn  Sn10  1  -0.00000000  0.00000000  -0.00000000  1.0
