# generated using pymatgen
data_Na3VO4
_symmetry_space_group_name_H-M   'P 1'
_cell_length_a   7.79486650
_cell_length_b   7.79486650
_cell_length_c   7.79486650
_cell_angle_alpha   90.00000000
_cell_angle_beta   90.00000000
_cell_angle_gamma   90.00000000
_symmetry_Int_Tables_number   1
_chemical_formula_structural   Na3VO4
_chemical_formula_sum   'Na12 V4 O16'
_cell_volume   473.61565095
_cell_formula_units_Z   4
loop_
 _symmetry_equiv_pos_site_id
 _symmetry_equiv_pos_as_xyz
  1  'x, y, z'
loop_
 _atom_site_type_symbol
 _atom_site_label
 _atom_site_symmetry_multiplicity
 _atom_site_fract_x
 _atom_site_fract_y
 _atom_site_fract_z
 _atom_site_occupancy
  Na  Na0  1  0.51188710  0.01188710  0.48811290  1.0
  Na  Na1  1  0.01188710  0.48811290  0.51188710  1.0
  Na  Na2  1  0.48811290  0.51188710  0.01188710  1.0
  Na  Na3  1  -0.01188710  -0.01188710  -0.01188710  1.0
  Na  Na4  1  0.28905050  0.78905050  0.71094950  1.0
  Na  Na5  1  0.78905050  0.71094950  0.28905050  1.0
  Na  Na6  1  0.71094950  0.28905050  0.78905050  1.0
  Na  Na7  1  0.21094950  0.21094950  0.21094950  1.0
  Na  Na8  1  0.76321424  0.26321424  0.23678576  1.0
  Na  Na9  1  0.26321424  0.23678576  0.76321424  1.0
  Na  Na10  1  0.23678576  0.76321424  0.26321424  1.0
  Na  Na11  1  0.73678576  0.73678576  0.73678576  1.0
  V  V12  1  0.99783623  0.49783623  0.00216377  1.0
  V  V13  1  0.49783623  0.00216377  0.99783623  1.0
  V  V14  1  0.00216377  0.99783623  0.49783623  1.0
  V  V15  1  0.50216377  0.50216377  0.50216377  1.0
  O  O16  1  0.53875605  0.96196492  0.78290357  1.0
  O  O17  1  1.03875605  0.53803508  0.21709643  1.0
  O  O18  1  0.46196492  0.71709643  0.46124395  1.0
  O  O19  1  0.96196492  0.78290357  0.53875605  1.0
  O  O20  1  0.21709643  1.03875605  0.53803508  1.0
  O  O21  1  0.71709643  0.46124395  0.46196492  1.0
  O  O22  1  0.46124395  0.46196492  0.71709643  1.0
  O  O23  1  -0.03875605  0.03803508  0.28290357  1.0
  O  O24  1  0.53803508  0.21709643  1.03875605  1.0
  O  O25  1  0.03803508  0.28290357  -0.03875605  1.0
  O  O26  1  0.78290357  0.53875605  0.96196492  1.0
  O  O27  1  0.28290357  -0.03875605  0.03803508  1.0
  O  O28  1  0.12329021  0.62329021  0.87670979  1.0
  O  O29  1  0.62329021  0.87670979  0.12329021  1.0
  O  O30  1  0.87670979  0.12329021  0.62329021  1.0
  O  O31  1  0.37670979  0.37670979  0.37670979  1.0
