# generated using pymatgen
data_Cs4CO4
_symmetry_space_group_name_H-M   'P 1'
_cell_length_a   7.59651848
_cell_length_b   7.59651848
_cell_length_c   7.73635662
_cell_angle_alpha   68.13216902
_cell_angle_beta   111.86783098
_cell_angle_gamma   140.10170066
_symmetry_Int_Tables_number   1
_chemical_formula_structural   Cs4CO4
_chemical_formula_sum   'Cs4 C1 O4'
_cell_volume   262.92047499
_cell_formula_units_Z   1
loop_
 _symmetry_equiv_pos_site_id
 _symmetry_equiv_pos_as_xyz
  1  'x, y, z'
loop_
 _atom_site_type_symbol
 _atom_site_label
 _atom_site_symmetry_multiplicity
 _atom_site_fract_x
 _atom_site_fract_y
 _atom_site_fract_z
 _atom_site_occupancy
  Cs  Cs0  1  1.49524972  -0.25325010  0.67945166  1.0
  Cs  Cs1  1  0.74674990  -0.50475028  0.32054834  1.0
  Cs  Cs2  1  1.43257222  0.16915608  0.87310371  1.0
  Cs  Cs3  1  1.16915608  -0.56742778  0.12689629  1.0
  C  C4  1  0.96162232  0.96162232  -0.00000000  1.0
  O  O5  1  1.18279402  0.05728355  0.15379894  1.0
  O  O6  1  1.05728355  -0.81720598  0.84620106  1.0
  O  O7  1  1.73686425  -0.13378205  0.05775515  1.0
  O  O8  1  0.86621795  -0.26313575  0.94224485  1.0
