# generated using pymatgen
data_Gd2Fe2Si2C
_symmetry_space_group_name_H-M   'P 1'
_cell_length_a   5.67351721
_cell_length_b   5.67351721
_cell_length_c   6.81363956
_cell_angle_alpha   53.38652334
_cell_angle_beta   126.61347666
_cell_angle_gamma   139.21537342
_symmetry_Int_Tables_number   1
_chemical_formula_structural   Gd2Fe2Si2C
_chemical_formula_sum   'Gd2 Fe2 Si2 C1'
_cell_volume   110.52208474
_cell_formula_units_Z   1
loop_
 _symmetry_equiv_pos_site_id
 _symmetry_equiv_pos_as_xyz
  1  'x, y, z'
loop_
 _atom_site_type_symbol
 _atom_site_label
 _atom_site_symmetry_multiplicity
 _atom_site_fract_x
 _atom_site_fract_y
 _atom_site_fract_z
 _atom_site_occupancy
  Gd  Gd0  1  1.44039370  -0.44039370  0.70463486  1.0
  Gd  Gd1  1  0.55960630  0.44039370  0.29536514  1.0
  Fe  Fe2  1  0.80020956  0.19979044  0.90665122  1.0
  Fe  Fe3  1  1.19979044  -0.19979044  0.09334878  1.0
  Si  Si4  1  0.83527812  -0.83527812  0.27790203  1.0
  Si  Si5  1  0.16472188  -0.16472188  0.72209797  1.0
  C  C6  1  0.00000000  0.00000000  0.00000000  1.0
