# generated using pymatgen
data_TlBi(SO4)2
_symmetry_space_group_name_H-M   'P 1'
_cell_length_a   7.59970270
_cell_length_b   11.11517409
_cell_length_c   10.81976253
_cell_angle_alpha   61.15094233
_cell_angle_beta   69.99524062
_cell_angle_gamma   70.37349996
_symmetry_Int_Tables_number   1
_chemical_formula_structural   TlBi(SO4)2
_chemical_formula_sum   'Tl4 Bi4 S8 O32'
_cell_volume   735.85667000
_cell_formula_units_Z   4
loop_
 _symmetry_equiv_pos_site_id
 _symmetry_equiv_pos_as_xyz
  1  'x, y, z'
loop_
 _atom_site_type_symbol
 _atom_site_label
 _atom_site_symmetry_multiplicity
 _atom_site_fract_x
 _atom_site_fract_y
 _atom_site_fract_z
 _atom_site_occupancy
  Tl  Tl0  1  0.50000000  0.50000000  0.50000000  1.0
  Tl  Tl1  1  0.50000000  -0.00000000  -0.00000000  1.0
  Tl  Tl2  1  0.00000000  0.00000000  0.50000000  1.0
  Tl  Tl3  1  -0.00000000  0.50000000  -0.00000000  1.0
  Bi  Bi4  1  0.03929272  0.75000337  0.21070423  1.0
  Bi  Bi5  1  0.96070728  0.24999663  0.78929577  1.0
  Bi  Bi6  1  0.46071137  0.24997775  0.28930325  1.0
  Bi  Bi7  1  0.53928863  0.75002225  0.71069675  1.0
  S  S8  1  0.04384755  0.38719129  0.39515453  1.0
  S  S9  1  0.95615245  0.61280871  0.60484547  1.0
  S  S10  1  0.44184012  0.11277842  0.61922562  1.0
  S  S11  1  0.55815988  0.88722158  0.38077438  1.0
  S  S12  1  0.45613878  0.61278603  0.10484766  1.0
  S  S13  1  0.54386122  0.38721397  0.89515234  1.0
  S  S14  1  0.94185584  0.11279845  0.11919900  1.0
  S  S15  1  0.05814416  0.88720155  0.88080100  1.0
  O  O16  1  0.04873836  0.97296170  0.20907011  1.0
  O  O17  1  0.95126164  0.02703830  0.79092989  1.0
  O  O18  1  0.07305357  0.68361734  0.45778106  1.0
  O  O19  1  0.92694643  0.31638266  0.54221894  1.0
  O  O20  1  0.07453140  0.47298783  0.68323711  1.0
  O  O21  1  0.92546860  0.52701217  0.31676289  1.0
  O  O22  1  0.08140895  0.20199006  0.00260778  1.0
  O  O23  1  0.91859105  0.79800994  0.99739222  1.0
  O  O24  1  0.10435475  0.29799412  0.31170357  1.0
  O  O25  1  0.89564525  0.70200588  0.68829643  1.0
  O  O26  1  0.22530962  0.40572474  0.40451786  1.0
  O  O27  1  0.77469038  0.59427526  0.59548214  1.0
  O  O28  1  0.27465453  0.59425591  0.09551130  1.0
  O  O29  1  0.72534547  0.40574409  0.90448870  1.0
  O  O30  1  0.31511461  0.18357623  0.71580095  1.0
  O  O31  1  0.68488539  0.81642377  0.28419905  1.0
  O  O32  1  0.32773826  0.09425412  0.54248987  1.0
  O  O33  1  0.67226174  0.90574588  0.45751013  1.0
  O  O34  1  0.39567123  0.70197361  0.18830074  1.0
  O  O35  1  0.60432877  0.29802639  0.81169926  1.0
  O  O36  1  0.42698490  0.31640618  0.04222715  1.0
  O  O37  1  0.57301510  0.68359382  0.95777285  1.0
  O  O38  1  0.45129654  0.02706358  0.29088251  1.0
  O  O39  1  0.54870346  0.97293642  0.70911749  1.0
  O  O40  1  0.58141224  0.20194932  0.50263861  1.0
  O  O41  1  0.41858776  0.79805068  0.49736139  1.0
  O  O42  1  0.57452696  0.47296121  0.18322077  1.0
  O  O43  1  0.42547304  0.52703879  0.81677923  1.0
  O  O44  1  0.81512311  0.18358397  0.21578287  1.0
  O  O45  1  0.18487689  0.81641603  0.78421713  1.0
  O  O46  1  0.82775296  0.09428133  0.04245564  1.0
  O  O47  1  0.17224704  0.90571867  0.95754436  1.0
