# generated using pymatgen
data_CrPb5F12
_symmetry_space_group_name_H-M   'P 1'
_cell_length_a   8.48394866
_cell_length_b   6.29466745
_cell_length_c   11.93197205
_cell_angle_alpha   90.00000000
_cell_angle_beta   97.85218874
_cell_angle_gamma   90.00000000
_symmetry_Int_Tables_number   1
_chemical_formula_structural   CrPb5F12
_chemical_formula_sum   'Cr2 Pb10 F24'
_cell_volume   631.23607840
_cell_formula_units_Z   2
loop_
 _symmetry_equiv_pos_site_id
 _symmetry_equiv_pos_as_xyz
  1  'x, y, z'
loop_
 _atom_site_type_symbol
 _atom_site_label
 _atom_site_symmetry_multiplicity
 _atom_site_fract_x
 _atom_site_fract_y
 _atom_site_fract_z
 _atom_site_occupancy
  Cr  Cr0  1  0.75601991  0.75000000  0.09121548  1.0
  Cr  Cr1  1  0.24398009  0.25000000  0.90878452  1.0
  Pb  Pb2  1  0.42327663  0.75000000  0.76213586  1.0
  Pb  Pb3  1  0.57672337  0.25000000  0.23786414  1.0
  Pb  Pb4  1  0.16466210  0.25000000  0.59761400  1.0
  Pb  Pb5  1  0.83533790  0.75000000  0.40238600  1.0
  Pb  Pb6  1  0.35473536  0.75000000  0.41243424  1.0
  Pb  Pb7  1  0.64526464  0.25000000  0.58756576  1.0
  Pb  Pb8  1  0.08077919  0.25000000  0.25951233  1.0
  Pb  Pb9  1  0.91922081  0.75000000  0.74048767  1.0
  Pb  Pb10  1  0.18858238  0.75000000  0.08392336  1.0
  Pb  Pb11  1  0.81141762  0.25000000  0.91607664  1.0
  F  F12  1  0.12927416  0.47946485  0.42166660  1.0
  F  F13  1  0.87072584  0.97946485  0.57833340  1.0
  F  F14  1  0.87072584  0.52053515  0.57833340  1.0
  F  F15  1  0.12927416  0.02053515  0.42166660  1.0
  F  F16  1  0.40516346  0.50312930  0.59125588  1.0
  F  F17  1  0.59483654  0.00312930  0.40874412  1.0
  F  F18  1  0.59483654  0.49687070  0.40874412  1.0
  F  F19  1  0.40516346  0.99687070  0.59125588  1.0
  F  F20  1  0.31043858  0.49929297  0.22967134  1.0
  F  F21  1  0.68956142  0.99929297  0.77032866  1.0
  F  F22  1  0.68956142  0.50070703  0.77032866  1.0
  F  F23  1  0.31043858  0.00070703  0.22967134  1.0
  F  F24  1  0.73740264  0.44592388  0.08626465  1.0
  F  F25  1  0.26259736  -0.05407612  0.91373535  1.0
  F  F26  1  0.26259736  0.55407612  0.91373535  1.0
  F  F27  1  0.73740264  1.05407612  0.08626465  1.0
  F  F28  1  0.83325569  0.25000000  0.33068601  1.0
  F  F29  1  0.16674431  0.75000000  0.66931399  1.0
  F  F30  1  0.63825522  0.75000000  0.21955619  1.0
  F  F31  1  0.36174478  0.25000000  0.78044381  1.0
  F  F32  1  0.90244565  0.75000000  0.97327698  1.0
  F  F33  1  0.09755435  0.25000000  0.02672302  1.0
  F  F34  1  0.98844095  0.75000000  0.21621044  1.0
  F  F35  1  0.01155905  0.25000000  0.78378956  1.0
