# generated using pymatgen
data_KAl3H6(SO7)2
_symmetry_space_group_name_H-M   'P 1'
_cell_length_a   7.15678031
_cell_length_b   7.15678031
_cell_length_c   7.15678031
_cell_angle_alpha   59.18977115
_cell_angle_beta   59.18977115
_cell_angle_gamma   59.18977115
_symmetry_Int_Tables_number   1
_chemical_formula_structural   KAl3H6(SO7)2
_chemical_formula_sum   'K1 Al3 H6 S2 O14'
_cell_volume   254.41668169
_cell_formula_units_Z   1
loop_
 _symmetry_equiv_pos_site_id
 _symmetry_equiv_pos_as_xyz
  1  'x, y, z'
loop_
 _atom_site_type_symbol
 _atom_site_label
 _atom_site_symmetry_multiplicity
 _atom_site_fract_x
 _atom_site_fract_y
 _atom_site_fract_z
 _atom_site_occupancy
  K  K0  1  1.50000000  0.50000000  0.50000000  1.0
  Al  Al1  1  0.50000000  -0.00000000  -0.50000000  1.0
  Al  Al2  1  0.50000000  -0.50000000  0.00000000  1.0
  Al  Al3  1  -0.00000000  0.50000000  -0.50000000  1.0
  H  H4  1  1.19187507  1.19187507  -0.22134481  1.0
  H  H5  1  1.19187507  0.77865519  0.19187507  1.0
  H  H6  1  1.22134481  0.80812493  0.80812493  1.0
  H  H7  1  1.80812493  0.22134481  0.80812493  1.0
  H  H8  1  1.80812493  0.80812493  0.22134481  1.0
  H  H9  1  0.77865519  1.19187507  0.19187507  1.0
  S  S10  1  0.80174412  0.80174412  0.80174412  1.0
  S  S11  1  1.19825588  1.19825588  0.19825588  1.0
  O  O12  1  1.23366604  0.23366604  0.61229957  1.0
  O  O13  1  1.23366604  0.61229957  0.23366604  1.0
  O  O14  1  1.38770043  0.76633396  0.76633396  1.0
  O  O15  1  1.76633396  0.38770043  0.76633396  1.0
  O  O16  1  1.76633396  0.76633396  0.38770043  1.0
  O  O17  1  1.61229957  0.23366604  0.23366604  1.0
  O  O18  1  1.34274699  1.34274699  -0.00313116  1.0
  O  O19  1  1.34274699  0.99686884  0.34274699  1.0
  O  O20  1  1.00313116  0.65725301  0.65725301  1.0
  O  O21  1  1.65725301  0.00313116  0.65725301  1.0
  O  O22  1  1.65725301  0.65725301  0.00313116  1.0
  O  O23  1  0.99686884  1.34274699  0.34274699  1.0
  O  O24  1  0.88517517  0.88517517  0.88517517  1.0
  O  O25  1  1.11482483  1.11482483  0.11482483  1.0
