# generated using pymatgen
data_Cu3Se2(ClO3)2
_symmetry_space_group_name_H-M   'P 1'
_cell_length_a   8.77923102
_cell_length_b   8.26596638
_cell_length_c   6.15070813
_cell_angle_alpha   90.75463586
_cell_angle_beta   93.87138411
_cell_angle_gamma   90.08082868
_symmetry_Int_Tables_number   1
_chemical_formula_structural   Cu3Se2(ClO3)2
_chemical_formula_sum   'Cu6 Se4 Cl4 O12'
_cell_volume   445.29135915
_cell_formula_units_Z   2
loop_
 _symmetry_equiv_pos_site_id
 _symmetry_equiv_pos_as_xyz
  1  'x, y, z'
loop_
 _atom_site_type_symbol
 _atom_site_label
 _atom_site_symmetry_multiplicity
 _atom_site_fract_x
 _atom_site_fract_y
 _atom_site_fract_z
 _atom_site_occupancy
  Cu  Cu0  1  -0.43413690  -0.90819692  -0.70055602  1.0
  Cu  Cu1  1  -0.56586310  -0.09180308  -0.29944398  1.0
  Cu  Cu2  1  -0.92469523  -0.31088339  -0.60403220  1.0
  Cu  Cu3  1  -0.07530477  -0.68911661  -0.39596780  1.0
  Cu  Cu4  1  -0.86725023  -0.90425079  -0.09211666  1.0
  Cu  Cu5  1  -0.13274977  -0.09574921  -0.90788334  1.0
  Se  Se6  1  -0.17932148  -0.69049170  -0.89660971  1.0
  Se  Se7  1  -0.82067852  -0.30950830  -0.10339029  1.0
  Se  Se8  1  -0.77583631  -0.80711418  -0.61916398  1.0
  Se  Se9  1  -0.22416369  -0.19288582  -0.38083602  1.0
  Cl  Cl10  1  -0.56447408  -0.77350675  -0.96730381  1.0
  Cl  Cl11  1  -0.43552592  -0.22649325  -0.03269619  1.0
  Cl  Cl12  1  -0.68410234  -0.38203872  -0.59527316  1.0
  Cl  Cl13  1  -0.31589766  -0.61796128  -0.40472684  1.0
  O  O14  1  -0.95784693  -0.26877714  -0.91170843  1.0
  O  O15  1  -0.04215307  -0.73122286  -0.08829157  1.0
  O  O16  1  -0.23256321  -0.88709739  -0.82241033  1.0
  O  O17  1  -0.76743679  -0.11290261  -0.17758967  1.0
  O  O18  1  -0.87231821  -0.94678477  -0.78446631  1.0
  O  O19  1  -0.12768179  -0.05321523  -0.21553369  1.0
  O  O20  1  -0.61636204  -0.92620914  -0.52433421  1.0
  O  O21  1  -0.38363796  -0.07379086  -0.47566579  1.0
  O  O22  1  -0.88346922  -0.81395510  -0.38126171  1.0
  O  O23  1  -0.11653078  -0.18604490  -0.61873829  1.0
  O  O24  1  -0.95583471  -0.36467025  -0.30966337  1.0
  O  O25  1  -0.04416529  -0.63532975  -0.69033663  1.0
