# generated using pymatgen
data_Na2ZnH8(SO6)2
_symmetry_space_group_name_H-M   'P 1'
_cell_length_a   5.56290969
_cell_length_b   8.36668053
_cell_length_c   11.19548309
_cell_angle_alpha   90.00000000
_cell_angle_beta   99.57532293
_cell_angle_gamma   90.00000000
_symmetry_Int_Tables_number   1
_chemical_formula_structural   Na2ZnH8(SO6)2
_chemical_formula_sum   'Na4 Zn2 H16 S4 O24'
_cell_volume   513.81265856
_cell_formula_units_Z   2
loop_
 _symmetry_equiv_pos_site_id
 _symmetry_equiv_pos_as_xyz
  1  'x, y, z'
loop_
 _atom_site_type_symbol
 _atom_site_label
 _atom_site_symmetry_multiplicity
 _atom_site_fract_x
 _atom_site_fract_y
 _atom_site_fract_z
 _atom_site_occupancy
  Na  Na0  1  0.87867417  0.92816588  0.63665019  1.0
  Na  Na1  1  0.87867417  0.57183412  0.13665019  1.0
  Na  Na2  1  0.12132583  0.42816588  0.86334981  1.0
  Na  Na3  1  0.12132583  0.07183412  0.36334981  1.0
  Zn  Zn4  1  0.00000000  0.00000000  0.00000000  1.0
  Zn  Zn5  1  -0.00000000  0.50000000  0.50000000  1.0
  H  H6  1  0.77542923  0.36838727  0.65688140  1.0
  H  H7  1  0.77542923  0.13161273  0.15688140  1.0
  H  H8  1  0.22457077  0.86838727  0.84311860  1.0
  H  H9  1  0.22457077  0.63161273  0.34311860  1.0
  H  H10  1  0.76792777  0.55794738  0.68242902  1.0
  H  H11  1  0.76792777  0.94205262  0.18242902  1.0
  H  H12  1  0.23207223  0.05794738  0.81757098  1.0
  H  H13  1  0.23207223  0.44205262  0.31757098  1.0
  H  H14  1  0.75457226  0.27085948  0.99107109  1.0
  H  H15  1  0.75457226  0.22914052  0.49107109  1.0
  H  H16  1  0.24542774  0.77085948  0.50892891  1.0
  H  H17  1  0.24542774  0.72914052  0.00892891  1.0
  H  H18  1  0.67159013  0.19735759  0.86371412  1.0
  H  H19  1  0.67159013  0.30264241  0.36371412  1.0
  H  H20  1  0.32840987  0.69735759  0.63628588  1.0
  H  H21  1  0.32840987  0.80264241  0.13628588  1.0
  S  S22  1  0.61930037  0.71309079  0.86188156  1.0
  S  S23  1  0.61930037  0.78690921  0.36188156  1.0
  S  S24  1  0.38069963  0.21309079  0.63811844  1.0
  S  S25  1  0.38069963  0.28690921  0.13811844  1.0
  O  O26  1  0.87541395  0.46775954  0.66449744  1.0
  O  O27  1  0.87541395  0.03224046  0.16449744  1.0
  O  O28  1  0.12458605  0.96775954  0.83550256  1.0
  O  O29  1  0.12458605  0.53224046  0.33550256  1.0
  O  O30  1  0.81958602  0.21527720  0.92489336  1.0
  O  O31  1  0.81958602  0.28472280  0.42489336  1.0
  O  O32  1  0.18041398  0.71527720  0.57510664  1.0
  O  O33  1  0.18041398  0.78472280  0.07510664  1.0
  O  O34  1  0.77813209  0.58432135  0.92162939  1.0
  O  O35  1  0.77813209  0.91567865  0.42162939  1.0
  O  O36  1  0.22186791  0.08432135  0.57837061  1.0
  O  O37  1  0.22186791  0.41567865  0.07837061  1.0
  O  O38  1  0.68185443  0.87069346  0.92259370  1.0
  O  O39  1  0.68185443  0.62930654  0.42259370  1.0
  O  O40  1  0.31814557  0.37069346  0.57740630  1.0
  O  O41  1  0.31814557  0.12930654  0.07740630  1.0
  O  O42  1  0.63922618  0.72316779  0.72916840  1.0
  O  O43  1  0.63922618  0.77683221  0.22916840  1.0
  O  O44  1  0.36077382  0.22316779  0.77083160  1.0
  O  O45  1  0.36077382  0.27683221  0.27083160  1.0
  O  O46  1  0.35511848  0.68002301  0.87026856  1.0
  O  O47  1  0.35511848  0.81997699  0.37026856  1.0
  O  O48  1  0.64488152  0.18002301  0.62973144  1.0
  O  O49  1  0.64488152  0.31997699  0.12973144  1.0
