# generated using pymatgen
data_Sr4PtO6
_symmetry_space_group_name_H-M   'P 1'
_cell_length_a   6.94485600
_cell_length_b   6.94485600
_cell_length_c   6.94485600
_cell_angle_alpha   90.21240276
_cell_angle_beta   90.21240276
_cell_angle_gamma   90.21240276
_symmetry_Int_Tables_number   1
_chemical_formula_structural   Sr4PtO6
_chemical_formula_sum   'Sr8 Pt2 O12'
_cell_volume   334.95060066
_cell_formula_units_Z   2
loop_
 _symmetry_equiv_pos_site_id
 _symmetry_equiv_pos_as_xyz
  1  'x, y, z'
loop_
 _atom_site_type_symbol
 _atom_site_label
 _atom_site_symmetry_multiplicity
 _atom_site_fract_x
 _atom_site_fract_y
 _atom_site_fract_z
 _atom_site_occupancy
  Sr  Sr0  1  0.88190994  1.25000000  -0.38190994  1.0
  Sr  Sr1  1  1.38190994  0.11809006  -0.25000000  1.0
  Sr  Sr2  1  0.75000000  0.38190994  0.11809006  1.0
  Sr  Sr3  1  1.25000000  0.61809006  -0.11809006  1.0
  Sr  Sr4  1  1.11809006  -0.25000000  0.38190994  1.0
  Sr  Sr5  1  0.61809006  0.88190994  0.25000000  1.0
  Sr  Sr6  1  0.25000000  0.25000000  0.25000000  1.0
  Sr  Sr7  1  0.75000000  0.75000000  0.75000000  1.0
  Pt  Pt8  1  0.50000000  0.50000000  0.50000000  1.0
  Pt  Pt9  1  0.00000000  0.00000000  0.00000000  1.0
  O  O10  1  1.21421452  0.42798350  -0.44281384  1.0
  O  O11  1  0.71421452  1.05718616  -0.07201650  1.0
  O  O12  1  0.94281384  0.07201650  0.28578548  1.0
  O  O13  1  1.44281384  -0.21421452  0.57201650  1.0
  O  O14  1  1.57201650  0.44281384  -0.21421452  1.0
  O  O15  1  1.07201650  0.28578548  -0.05718616  1.0
  O  O16  1  0.78578548  0.57201650  0.44281384  1.0
  O  O17  1  1.28578548  -0.05718616  0.07201650  1.0
  O  O18  1  0.55718616  1.21421452  -0.57201650  1.0
  O  O19  1  1.05718616  0.92798350  -0.28578548  1.0
  O  O20  1  0.92798350  0.71421452  0.05718616  1.0
  O  O21  1  0.42798350  0.55718616  0.21421452  1.0
