# generated using pymatgen
data_YInCo2
_symmetry_space_group_name_H-M   'P 1'
_cell_length_a   5.31548268
_cell_length_b   4.07849384
_cell_length_c   6.73402190
_cell_angle_alpha   90.00000000
_cell_angle_beta   90.00000000
_cell_angle_gamma   90.00000000
_symmetry_Int_Tables_number   1
_chemical_formula_structural   YInCo2
_chemical_formula_sum   'Y2 In2 Co4'
_cell_volume   145.98796074
_cell_formula_units_Z   2
loop_
 _symmetry_equiv_pos_site_id
 _symmetry_equiv_pos_as_xyz
  1  'x, y, z'
loop_
 _atom_site_type_symbol
 _atom_site_label
 _atom_site_symmetry_multiplicity
 _atom_site_fract_x
 _atom_site_fract_y
 _atom_site_fract_z
 _atom_site_occupancy
  Y  Y0  1  0.75000000  0.50000000  0.65777870  1.0
  Y  Y1  1  0.25000000  0.50000000  0.34222130  1.0
  In  In2  1  0.75000000  0.50000000  0.13223738  1.0
  In  In3  1  0.25000000  0.50000000  0.86776262  1.0
  Co  Co4  1  0.75000000  0.00000000  0.36487554  1.0
  Co  Co5  1  0.25000000  0.00000000  0.63512446  1.0
  Co  Co6  1  0.00000000  -0.00000000  -0.00000000  1.0
  Co  Co7  1  0.50000000  0.00000000  -0.00000000  1.0
