# generated using pymatgen
data_NaBrO3
_symmetry_space_group_name_H-M   'P 1'
_cell_length_a   7.26749678
_cell_length_b   7.26749678
_cell_length_c   7.26749678
_cell_angle_alpha   90.00000000
_cell_angle_beta   90.00000000
_cell_angle_gamma   90.00000000
_symmetry_Int_Tables_number   1
_chemical_formula_structural   NaBrO3
_chemical_formula_sum   'Na4 Br4 O12'
_cell_volume   383.84381228
_cell_formula_units_Z   4
loop_
 _symmetry_equiv_pos_site_id
 _symmetry_equiv_pos_as_xyz
  1  'x, y, z'
loop_
 _atom_site_type_symbol
 _atom_site_label
 _atom_site_symmetry_multiplicity
 _atom_site_fract_x
 _atom_site_fract_y
 _atom_site_fract_z
 _atom_site_occupancy
  Na  Na0  1  0.64279381  1.14279381  0.35720619  1.0
  Na  Na1  1  1.14279381  0.35720619  0.64279381  1.0
  Na  Na2  1  0.35720619  0.64279381  1.14279381  1.0
  Na  Na3  1  -0.14279381  -0.14279381  -0.14279381  1.0
  Br  Br4  1  -0.02556430  0.47443570  1.02556430  1.0
  Br  Br5  1  0.47443570  1.02556430  -0.02556430  1.0
  Br  Br6  1  1.02556430  -0.02556430  0.47443570  1.0
  Br  Br7  1  0.52556430  0.52556430  0.52556430  1.0
  O  O8  1  0.51503753  0.81134751  -0.10942305  1.0
  O  O9  1  0.01503753  0.68865249  0.10942305  1.0
  O  O10  1  0.31134751  0.60942305  0.48496247  1.0
  O  O11  1  0.81134751  -0.10942305  0.51503753  1.0
  O  O12  1  0.10942305  0.01503753  0.68865249  1.0
  O  O13  1  0.60942305  0.48496247  0.31134751  1.0
  O  O14  1  0.48496247  0.31134751  0.60942305  1.0
  O  O15  1  0.98496247  0.18865249  0.39057695  1.0
  O  O16  1  0.68865249  0.10942305  0.01503753  1.0
  O  O17  1  0.18865249  0.39057695  0.98496247  1.0
  O  O18  1  -0.10942305  0.51503753  0.81134751  1.0
  O  O19  1  0.39057695  0.98496247  0.18865249  1.0
