# generated using pymatgen
data_Cs2Te13
_symmetry_space_group_name_H-M   'P 1'
_cell_length_a   7.34025773
_cell_length_b   14.02023002
_cell_length_c   23.65205134
_cell_angle_alpha   90.00000000
_cell_angle_beta   90.00000000
_cell_angle_gamma   90.00000000
_symmetry_Int_Tables_number   1
_chemical_formula_structural   Cs2Te13
_chemical_formula_sum   'Cs8 Te52'
_cell_volume   2434.08231386
_cell_formula_units_Z   4
loop_
 _symmetry_equiv_pos_site_id
 _symmetry_equiv_pos_as_xyz
  1  'x, y, z'
loop_
 _atom_site_type_symbol
 _atom_site_label
 _atom_site_symmetry_multiplicity
 _atom_site_fract_x
 _atom_site_fract_y
 _atom_site_fract_z
 _atom_site_occupancy
  Cs  Cs0  1  0.87421758  0.25000000  0.00000000  1.0
  Cs  Cs1  1  0.12578242  0.75000000  0.50000000  1.0
  Cs  Cs2  1  0.12578242  0.75000000  0.00000000  1.0
  Cs  Cs3  1  0.87421758  0.25000000  0.50000000  1.0
  Cs  Cs4  1  0.63757901  0.98329483  0.75000000  1.0
  Cs  Cs5  1  0.36242099  0.01670517  0.25000000  1.0
  Cs  Cs6  1  0.63757901  0.51670517  0.25000000  1.0
  Cs  Cs7  1  0.36242099  0.48329483  0.75000000  1.0
  Te  Te8  1  0.29032653  0.40673813  0.95032920  1.0
  Te  Te9  1  0.70967347  0.59326187  0.45032920  1.0
  Te  Te10  1  0.29032653  0.09326187  0.04967080  1.0
  Te  Te11  1  0.70967347  0.90673813  0.54967080  1.0
  Te  Te12  1  0.70967347  0.59326187  0.04967080  1.0
  Te  Te13  1  0.29032653  0.40673813  0.54967080  1.0
  Te  Te14  1  0.70967347  0.90673813  0.95032920  1.0
  Te  Te15  1  0.29032653  0.09326187  0.45032920  1.0
  Te  Te16  1  0.06381335  0.54286485  0.89704901  1.0
  Te  Te17  1  0.93618665  0.45713515  0.39704901  1.0
  Te  Te18  1  0.06381335  0.95713515  0.10295099  1.0
  Te  Te19  1  0.93618665  0.04286485  0.60295099  1.0
  Te  Te20  1  0.93618665  0.45713515  0.10295099  1.0
  Te  Te21  1  0.06381335  0.54286485  0.60295099  1.0
  Te  Te22  1  0.93618665  0.04286485  0.89704901  1.0
  Te  Te23  1  0.06381335  0.95713515  0.39704901  1.0
  Te  Te24  1  0.69222429  0.47709729  0.92862672  1.0
  Te  Te25  1  0.30777571  0.52290271  0.42862672  1.0
  Te  Te26  1  0.69222429  0.02290271  0.07137328  1.0
  Te  Te27  1  0.30777571  0.97709729  0.57137328  1.0
  Te  Te28  1  0.30777571  0.52290271  0.07137328  1.0
  Te  Te29  1  0.69222429  0.47709729  0.57137328  1.0
  Te  Te30  1  0.30777571  0.97709729  0.92862672  1.0
  Te  Te31  1  0.69222429  0.02290271  0.42862672  1.0
  Te  Te32  1  0.73926884  0.33871451  0.83483833  1.0
  Te  Te33  1  0.26073116  0.66128549  0.33483833  1.0
  Te  Te34  1  0.73926884  0.16128549  0.16516167  1.0
  Te  Te35  1  0.26073116  0.83871451  0.66516167  1.0
  Te  Te36  1  0.26073116  0.66128549  0.16516167  1.0
  Te  Te37  1  0.73926884  0.33871451  0.66516167  1.0
  Te  Te38  1  0.26073116  0.83871451  0.83483833  1.0
  Te  Te39  1  0.73926884  0.16128549  0.33483833  1.0
  Te  Te40  1  0.53998198  0.17950500  0.87256728  1.0
  Te  Te41  1  0.46001802  0.82049500  0.37256728  1.0
  Te  Te42  1  0.53998198  0.32049500  0.12743272  1.0
  Te  Te43  1  0.46001802  0.67950500  0.62743272  1.0
  Te  Te44  1  0.46001802  0.82049500  0.12743272  1.0
  Te  Te45  1  0.53998198  0.17950500  0.62743272  1.0
  Te  Te46  1  0.46001802  0.67950500  0.87256728  1.0
  Te  Te47  1  0.53998198  0.32049500  0.37256728  1.0
  Te  Te48  1  0.18057582  0.24677885  0.84551347  1.0
  Te  Te49  1  0.81942418  0.75322115  0.34551347  1.0
  Te  Te50  1  0.18057582  0.25322115  0.15448653  1.0
  Te  Te51  1  0.81942418  0.74677885  0.65448653  1.0
  Te  Te52  1  0.81942418  0.75322115  0.15448653  1.0
  Te  Te53  1  0.18057582  0.24677885  0.65448653  1.0
  Te  Te54  1  0.81942418  0.74677885  0.84551347  1.0
  Te  Te55  1  0.18057582  0.25322115  0.34551347  1.0
  Te  Te56  1  0.10068644  0.13025741  0.75000000  1.0
  Te  Te57  1  0.89931356  0.86974259  0.25000000  1.0
  Te  Te58  1  0.10068644  0.36974259  0.25000000  1.0
  Te  Te59  1  0.89931356  0.63025741  0.75000000  1.0
