# generated using pymatgen
data_Na8SnSb4
_symmetry_space_group_name_H-M   'P 1'
_cell_length_a   10.55194059
_cell_length_b   10.55194059
_cell_length_c   10.55194059
_cell_angle_alpha   60.00000000
_cell_angle_beta   60.00000000
_cell_angle_gamma   60.00000000
_symmetry_Int_Tables_number   1
_chemical_formula_structural   Na8SnSb4
_chemical_formula_sum   'Na16 Sn2 Sb8'
_cell_volume   830.77231360
_cell_formula_units_Z   2
loop_
 _symmetry_equiv_pos_site_id
 _symmetry_equiv_pos_as_xyz
  1  'x, y, z'
loop_
 _atom_site_type_symbol
 _atom_site_label
 _atom_site_symmetry_multiplicity
 _atom_site_fract_x
 _atom_site_fract_y
 _atom_site_fract_z
 _atom_site_occupancy
  Na  Na0  1  0.62500000  -0.37500000  1.12500000  1.0
  Na  Na1  1  0.62500000  0.12500000  0.62500000  1.0
  Na  Na2  1  1.12500000  -0.37500000  0.62500000  1.0
  Na  Na3  1  0.62500000  -0.37500000  0.62500000  1.0
  Na  Na4  1  0.47984648  0.47984648  0.02015352  1.0
  Na  Na5  1  0.02015352  0.47984648  0.02015352  1.0
  Na  Na6  1  0.47984648  0.02015352  0.02015352  1.0
  Na  Na7  1  0.02015352  0.02015352  0.47984648  1.0
  Na  Na8  1  0.47984648  0.02015352  0.47984648  1.0
  Na  Na9  1  0.02015352  0.47984648  0.47984648  1.0
  Na  Na10  1  -0.22984648  0.77015352  0.22984648  1.0
  Na  Na11  1  0.22984648  0.77015352  0.22984648  1.0
  Na  Na12  1  -0.22984648  1.22984648  0.22984648  1.0
  Na  Na13  1  0.22984648  0.22984648  -0.22984648  1.0
  Na  Na14  1  0.77015352  0.22984648  0.77015352  1.0
  Na  Na15  1  0.22984648  0.77015352  -0.22984648  1.0
  Sn  Sn16  1  0.75000000  -0.25000000  0.75000000  1.0
  Sn  Sn17  1  0.50000000  0.50000000  -0.50000000  1.0
  Sb  Sb18  1  0.38841156  0.38841156  -0.16523467  1.0
  Sb  Sb19  1  0.38841156  -0.16523467  0.38841156  1.0
  Sb  Sb20  1  -0.16523467  0.38841156  0.38841156  1.0
  Sb  Sb21  1  0.38841156  0.38841156  0.38841156  1.0
  Sb  Sb22  1  -0.13841156  0.86158844  0.41523467  1.0
  Sb  Sb23  1  0.86158844  -0.58476533  0.86158844  1.0
  Sb  Sb24  1  -0.58476533  0.86158844  0.86158844  1.0
  Sb  Sb25  1  0.86158844  -0.13841156  0.86158844  1.0
