# generated using pymatgen
data_Cs2O3
_symmetry_space_group_name_H-M   'P 1'
_cell_length_a   8.57076427
_cell_length_b   8.57076427
_cell_length_c   8.57076427
_cell_angle_alpha   109.47122063
_cell_angle_beta   109.47122063
_cell_angle_gamma   109.47122063
_symmetry_Int_Tables_number   1
_chemical_formula_structural   Cs2O3
_chemical_formula_sum   'Cs8 O12'
_cell_volume   484.65953434
_cell_formula_units_Z   4
loop_
 _symmetry_equiv_pos_site_id
 _symmetry_equiv_pos_as_xyz
  1  'x, y, z'
loop_
 _atom_site_type_symbol
 _atom_site_label
 _atom_site_symmetry_multiplicity
 _atom_site_fract_x
 _atom_site_fract_y
 _atom_site_fract_z
 _atom_site_occupancy
  Cs  Cs0  1  1.40023647  1.40023647  1.40023647  1.0
  Cs  Cs1  1  1.50000000  1.00000000  1.09976353  1.0
  Cs  Cs2  1  0.90023647  0.90023647  0.90023647  1.0
  Cs  Cs3  1  0.50000000  1.00000000  0.59976353  1.0
  Cs  Cs4  1  1.00000000  1.09976353  1.50000000  1.0
  Cs  Cs5  1  1.09976353  0.50000000  1.00000000  1.0
  Cs  Cs6  1  1.00000000  0.59976353  1.50000000  1.0
  Cs  Cs7  1  0.59976353  1.50000000  1.00000000  1.0
  O  O8  1  1.19554648  0.94554648  1.25000000  1.0
  O  O9  1  0.44554648  0.69554648  0.75000000  1.0
  O  O10  1  0.25000000  1.19554648  0.94554648  1.0
  O  O11  1  0.75000000  1.30445352  0.55445352  1.0
  O  O12  1  0.69554648  0.75000000  0.44554648  1.0
  O  O13  1  0.80445352  0.25000000  1.05445352  1.0
  O  O14  1  0.94554648  0.25000000  1.19554648  1.0
  O  O15  1  0.55445352  0.75000000  0.30445352  1.0
  O  O16  1  0.75000000  1.44554648  0.69554648  1.0
  O  O17  1  0.25000000  1.05445352  0.80445352  1.0
  O  O18  1  0.30445352  0.55445352  0.75000000  1.0
  O  O19  1  1.05445352  0.80445352  1.25000000  1.0
