# generated using pymatgen
data_NiC2N3
_symmetry_space_group_name_H-M   'P 1'
_cell_length_a   10.73522413
_cell_length_b   10.73522413
_cell_length_c   10.73522413
_cell_angle_alpha   142.53963797
_cell_angle_beta   142.53963797
_cell_angle_gamma   54.01675835
_symmetry_Int_Tables_number   1
_chemical_formula_structural   NiC2N3
_chemical_formula_sum   'Ni4 C8 N12'
_cell_volume   454.62639588
_cell_formula_units_Z   4
loop_
 _symmetry_equiv_pos_site_id
 _symmetry_equiv_pos_as_xyz
  1  'x, y, z'
loop_
 _atom_site_type_symbol
 _atom_site_label
 _atom_site_symmetry_multiplicity
 _atom_site_fract_x
 _atom_site_fract_y
 _atom_site_fract_z
 _atom_site_occupancy
  C  C0  1  0.43840058  0.56159942  0.50000000  1.0
  C  C1  1  1.06159942  0.93840058  1.50000000  1.0
  C  C2  1  0.68840058  0.31159942  1.00000000  1.0
  C  C3  1  0.31159942  0.68840058  1.00000000  1.0
  C  C4  1  0.43840058  0.93840058  0.87680116  1.0
  C  C5  1  1.06159942  0.56159942  1.12319884  1.0
  C  C6  1  0.68840058  0.68840058  1.37680116  1.0
  C  C7  1  0.31159942  0.31159942  0.62319884  1.0
  N  N8  1  0.55786519  0.44213481  0.50000000  1.0
  N  N9  1  0.94213481  1.05786519  1.50000000  1.0
  N  N10  1  0.80786519  0.19213481  1.00000000  1.0
  N  N11  1  0.19213481  0.80786519  1.00000000  1.0
  N  N12  1  0.55786519  1.05786519  1.11573038  1.0
  N  N13  1  0.94213481  0.44213481  0.88426962  1.0
  N  N14  1  0.80786519  0.80786519  1.61573038  1.0
  N  N15  1  0.19213481  0.19213481  0.38426962  1.0
  N  N16  1  0.85102256  0.35102256  0.50000000  1.0
  N  N17  1  0.89897744  0.89897744  1.00000000  1.0
  N  N18  1  0.64897744  0.14897744  0.50000000  1.0
  N  N19  1  0.10102256  0.10102256  0.00000000  1.0
  Ni  Ni20  1  0.25000000  0.75000000  0.50000000  1.0
  Ni  Ni21  1  0.50000000  0.50000000  1.00000000  1.0
  Ni  Ni22  1  0.75000000  0.25000000  0.50000000  1.0
  Ni  Ni23  1  -0.00000000  0.00000000  0.00000000  1.0
