# generated using pymatgen
data_Ca(BO5)2
_symmetry_space_group_name_H-M   'P 1'
_cell_length_a   8.27538426
_cell_length_b   8.27538426
_cell_length_c   9.15398668
_cell_angle_alpha   80.49698345
_cell_angle_beta   99.50301655
_cell_angle_gamma   134.02255229
_symmetry_Int_Tables_number   1
_chemical_formula_structural   Ca(BO5)2
_chemical_formula_sum   'Ca2 B4 O20'
_cell_volume   443.46208837
_cell_formula_units_Z   2
loop_
 _symmetry_equiv_pos_site_id
 _symmetry_equiv_pos_as_xyz
  1  'x, y, z'
loop_
 _atom_site_type_symbol
 _atom_site_label
 _atom_site_symmetry_multiplicity
 _atom_site_fract_x
 _atom_site_fract_y
 _atom_site_fract_z
 _atom_site_occupancy
  Ca  Ca0  1  0.79991577  0.79991577  0.25000000  1.0
  Ca  Ca1  1  0.20008423  0.20008423  0.75000000  1.0
  B  B2  1  1.34886408  0.23993587  0.10791738  1.0
  B  B3  1  0.76006413  -0.34886408  0.60791738  1.0
  B  B4  1  1.23993587  -0.65113592  0.39208262  1.0
  B  B5  1  1.65113592  -0.23993587  0.89208262  1.0
  O  O6  1  1.23118376  -0.70795843  0.00834142  1.0
  O  O7  1  1.70795843  -0.23118376  0.50834142  1.0
  O  O8  1  1.29204157  0.23118376  0.49165858  1.0
  O  O9  1  0.76881624  -0.29204157  0.99165858  1.0
  O  O10  1  1.18235790  0.03719120  0.19419860  1.0
  O  O11  1  0.96280880  -0.18235790  0.69419860  1.0
  O  O12  1  1.03719120  -0.81764210  0.30580140  1.0
  O  O13  1  1.81764210  -0.03719120  0.80580140  1.0
  O  O14  1  1.37887970  0.16606206  0.99039737  1.0
  O  O15  1  0.83393794  -0.37887970  0.49039737  1.0
  O  O16  1  1.16606206  -0.62112030  0.50960263  1.0
  O  O17  1  1.62112030  -0.16606206  0.00960263  1.0
  O  O18  1  1.54383418  0.41348169  0.19434629  1.0
  O  O19  1  0.58651831  -0.54383418  0.69434629  1.0
  O  O20  1  1.41348169  -0.45616582  0.30565371  1.0
  O  O21  1  1.45616582  -0.41348169  0.80565371  1.0
  O  O22  1  1.44776578  -0.04912545  0.55473267  1.0
  O  O23  1  1.04912545  -0.44776578  0.05473267  1.0
  O  O24  1  0.95087455  -0.55223422  0.94526733  1.0
  O  O25  1  1.55223422  0.04912545  0.44526733  1.0
