# generated using pymatgen
data_Cs2Sb2SO5F6
_symmetry_space_group_name_H-M   'P 1'
_cell_length_a   9.21576261
_cell_length_b   9.21576261
_cell_length_c   14.92257882
_cell_angle_alpha   90.00000000
_cell_angle_beta   90.00000000
_cell_angle_gamma   90.00000000
_symmetry_Int_Tables_number   1
_chemical_formula_structural   Cs2Sb2SO5F6
_chemical_formula_sum   'Cs8 Sb8 S4 O20 F24'
_cell_volume   1267.37880392
_cell_formula_units_Z   4
loop_
 _symmetry_equiv_pos_site_id
 _symmetry_equiv_pos_as_xyz
  1  'x, y, z'
loop_
 _atom_site_type_symbol
 _atom_site_label
 _atom_site_symmetry_multiplicity
 _atom_site_fract_x
 _atom_site_fract_y
 _atom_site_fract_z
 _atom_site_occupancy
  S  S0  1  0.45022583  0.54977417  0.25000000  1.0
  S  S1  1  0.95022583  0.95022583  0.50000000  1.0
  S  S2  1  0.54977417  0.45022583  0.75000000  1.0
  S  S3  1  0.04977417  0.04977417  0.00000000  1.0
  F  F4  1  0.38869253  0.97610416  0.07558216  1.0
  F  F5  1  0.88869253  0.52389584  0.67441784  1.0
  F  F6  1  0.02389584  0.61130747  0.42441784  1.0
  F  F7  1  0.52389584  0.88869253  0.32558216  1.0
  F  F8  1  0.61130747  0.02389584  0.57558216  1.0
  F  F9  1  0.11130747  0.47610416  0.17441784  1.0
  F  F10  1  0.97610416  0.38869253  0.92441784  1.0
  F  F11  1  0.47610416  0.11130747  0.82558216  1.0
  F  F12  1  0.21258378  0.59166657  0.01323536  1.0
  F  F13  1  0.71258378  0.90833343  0.73676464  1.0
  F  F14  1  0.40833343  0.78741622  0.48676464  1.0
  F  F15  1  0.90833343  0.71258378  0.26323536  1.0
  F  F16  1  0.78741622  0.40833343  0.51323536  1.0
  F  F17  1  0.28741622  0.09166657  0.23676464  1.0
  F  F18  1  0.59166657  0.21258378  0.98676464  1.0
  F  F19  1  0.09166657  0.28741622  0.76323536  1.0
  F  F20  1  0.14070110  0.56549262  0.82248257  1.0
  F  F21  1  0.64070110  0.93450738  0.92751743  1.0
  F  F22  1  0.43450738  0.85929890  0.67751743  1.0
  F  F23  1  0.93450738  0.64070110  0.07248257  1.0
  F  F24  1  0.85929890  0.43450738  0.32248257  1.0
  F  F25  1  0.35929890  0.06549262  0.42751743  1.0
  F  F26  1  0.56549262  0.14070110  0.17751743  1.0
  F  F27  1  0.06549262  0.35929890  0.57248257  1.0
  O  O28  1  0.07927933  0.89138813  0.00580529  1.0
  O  O29  1  0.57927933  0.60861187  0.74419471  1.0
  O  O30  1  0.10861187  0.92072067  0.49419471  1.0
  O  O31  1  0.60861187  0.57927933  0.25580529  1.0
  O  O32  1  0.92072067  0.10861187  0.50580529  1.0
  O  O33  1  0.42072067  0.39138813  0.24419471  1.0
  O  O34  1  0.89138813  0.07927933  0.99419471  1.0
  O  O35  1  0.39138813  0.42072067  0.75580529  1.0
  O  O36  1  0.93370809  0.06629191  0.25000000  1.0
  O  O37  1  0.43370809  0.43370809  0.50000000  1.0
  O  O38  1  0.06629191  0.93370809  0.75000000  1.0
  O  O39  1  0.56629191  0.56629191  0.00000000  1.0
  O  O40  1  0.39233640  0.62967649  0.16846250  1.0
  O  O41  1  0.89233640  0.87032351  0.58153750  1.0
  O  O42  1  0.37032351  0.60766360  0.33153750  1.0
  O  O43  1  0.87032351  0.89233640  0.41846250  1.0
  O  O44  1  0.60766360  0.37032351  0.66846250  1.0
  O  O45  1  0.10766360  0.12967649  0.08153750  1.0
  O  O46  1  0.62967649  0.39233640  0.83153750  1.0
  O  O47  1  0.12967649  0.10766360  0.91846250  1.0
  Sb  Sb48  1  0.13350540  0.67438853  0.12508636  1.0
  Sb  Sb49  1  0.63350540  0.82561147  0.62491364  1.0
  Sb  Sb50  1  0.32561147  0.86649460  0.37491364  1.0
  Sb  Sb51  1  0.82561147  0.63350540  0.37508636  1.0
  Sb  Sb52  1  0.86649460  0.32561147  0.62508636  1.0
  Sb  Sb53  1  0.36649460  0.17438853  0.12491364  1.0
  Sb  Sb54  1  0.67438853  0.13350540  0.87491364  1.0
  Sb  Sb55  1  0.17438853  0.36649460  0.87508636  1.0
  Cs  Cs56  1  0.34893016  0.81503535  0.88129505  1.0
  Cs  Cs57  1  0.84893016  0.68496465  0.86870495  1.0
  Cs  Cs58  1  0.18496465  0.65106984  0.61870495  1.0
  Cs  Cs59  1  0.68496465  0.84893016  0.13129505  1.0
  Cs  Cs60  1  0.65106984  0.18496465  0.38129505  1.0
  Cs  Cs61  1  0.15106984  0.31503535  0.36870495  1.0
  Cs  Cs62  1  0.81503535  0.34893016  0.11870495  1.0
  Cs  Cs63  1  0.31503535  0.15106984  0.63129505  1.0
