# generated using pymatgen
data_MgTe2O5
_symmetry_space_group_name_H-M   'P 1'
_cell_length_a   7.51491566
_cell_length_b   10.89282687
_cell_length_c   6.02251339
_cell_angle_alpha   90.00000000
_cell_angle_beta   90.00000000
_cell_angle_gamma   90.00000000
_symmetry_Int_Tables_number   1
_chemical_formula_structural   MgTe2O5
_chemical_formula_sum   'Mg4 Te8 O20'
_cell_volume   492.99496696
_cell_formula_units_Z   4
loop_
 _symmetry_equiv_pos_site_id
 _symmetry_equiv_pos_as_xyz
  1  'x, y, z'
loop_
 _atom_site_type_symbol
 _atom_site_label
 _atom_site_symmetry_multiplicity
 _atom_site_fract_x
 _atom_site_fract_y
 _atom_site_fract_z
 _atom_site_occupancy
  Mg  Mg0  1  0.50000000  0.06065645  0.75000000  1.0
  Mg  Mg1  1  0.50000000  0.93934355  0.25000000  1.0
  Mg  Mg2  1  0.00000000  0.56065645  0.75000000  1.0
  Mg  Mg3  1  0.00000000  0.43934355  0.25000000  1.0
  Te  Te4  1  0.36141934  0.34876816  0.50810609  1.0
  Te  Te5  1  0.36141934  0.65123184  0.00810609  1.0
  Te  Te6  1  0.86141934  0.84876816  0.99189391  1.0
  Te  Te7  1  0.86141934  0.15123184  0.49189391  1.0
  Te  Te8  1  0.63858066  0.34876816  0.99189391  1.0
  Te  Te9  1  0.63858066  0.65123184  0.49189391  1.0
  Te  Te10  1  0.13858066  0.84876816  0.50810609  1.0
  Te  Te11  1  0.13858066  0.15123184  0.00810609  1.0
  O  O12  1  0.30968796  0.20646618  0.69635173  1.0
  O  O13  1  0.30968796  0.79353382  0.19635173  1.0
  O  O14  1  0.80968796  0.70646618  0.80364827  1.0
  O  O15  1  0.80968796  0.29353382  0.30364827  1.0
  O  O16  1  0.69031204  0.20646618  0.80364827  1.0
  O  O17  1  0.69031204  0.79353382  0.30364827  1.0
  O  O18  1  0.19031204  0.70646618  0.69635173  1.0
  O  O19  1  0.19031204  0.29353382  0.19635173  1.0
  O  O20  1  0.14370343  0.43926569  0.54867184  1.0
  O  O21  1  0.14370343  0.56073431  0.04867184  1.0
  O  O22  1  0.64370343  0.93926569  0.95132816  1.0
  O  O23  1  0.64370343  0.06073431  0.45132816  1.0
  O  O24  1  0.85629657  0.43926569  0.95132816  1.0
  O  O25  1  0.85629657  0.56073431  0.45132816  1.0
  O  O26  1  0.35629657  0.93926569  0.54867184  1.0
  O  O27  1  0.35629657  0.06073431  0.04867184  1.0
  O  O28  1  0.50000000  0.44836021  0.75000000  1.0
  O  O29  1  0.50000000  0.55163979  0.25000000  1.0
  O  O30  1  0.00000000  0.94836021  0.75000000  1.0
  O  O31  1  0.00000000  0.05163979  0.25000000  1.0
