# generated using pymatgen
data_AlPO4
_symmetry_space_group_name_H-M   'P 1'
_cell_length_a   5.13584644
_cell_length_b   5.13584644
_cell_length_c   7.18457467
_cell_angle_alpha   90.00000000
_cell_angle_beta   90.00000000
_cell_angle_gamma   90.13810221
_symmetry_Int_Tables_number   1
_chemical_formula_structural   AlPO4
_chemical_formula_sum   'Al2 P2 O8'
_cell_volume   189.50639134
_cell_formula_units_Z   2
loop_
 _symmetry_equiv_pos_site_id
 _symmetry_equiv_pos_as_xyz
  1  'x, y, z'
loop_
 _atom_site_type_symbol
 _atom_site_label
 _atom_site_symmetry_multiplicity
 _atom_site_fract_x
 _atom_site_fract_y
 _atom_site_fract_z
 _atom_site_occupancy
  Al  Al0  1  0.29482090  1.29482090  0.00000000  1.0
  Al  Al1  1  -0.29482090  0.70517910  0.50000000  1.0
  P  P2  1  -0.20409469  0.20409469  0.25000000  1.0
  P  P3  1  -0.79590531  0.79590531  0.75000000  1.0
  O  O4  1  0.08036960  1.24192452  0.18622544  1.0
  O  O5  1  -0.24192452  0.91963040  0.31377456  1.0
  O  O6  1  0.24192452  1.08036960  0.81377456  1.0
  O  O7  1  -0.08036960  0.75807548  0.68622544  1.0
  O  O8  1  0.26147707  1.61376873  0.91581383  1.0
  O  O9  1  -0.61376873  0.73852293  0.58418617  1.0
  O  O10  1  0.61376873  1.26147707  0.08418617  1.0
  O  O11  1  -0.26147707  0.38623127  0.41581383  1.0
