# generated using pymatgen
data_NaMnCl3
_symmetry_space_group_name_H-M   'P 1'
_cell_length_a   7.37380008
_cell_length_b   7.37380008
_cell_length_c   7.37380008
_cell_angle_alpha   53.57661719
_cell_angle_beta   53.57661719
_cell_angle_gamma   53.57661719
_symmetry_Int_Tables_number   1
_chemical_formula_structural   NaMnCl3
_chemical_formula_sum   'Na2 Mn2 Cl6'
_cell_volume   240.90389101
_cell_formula_units_Z   2
loop_
 _symmetry_equiv_pos_site_id
 _symmetry_equiv_pos_as_xyz
  1  'x, y, z'
loop_
 _atom_site_type_symbol
 _atom_site_label
 _atom_site_symmetry_multiplicity
 _atom_site_fract_x
 _atom_site_fract_y
 _atom_site_fract_z
 _atom_site_occupancy
  Na  Na0  1  0.14507065  0.14507065  0.14507065  1.0
  Na  Na1  1  0.85492935  -0.14507065  -0.14507065  1.0
  Mn  Mn2  1  0.34023681  0.34023681  -0.65976319  1.0
  Mn  Mn3  1  0.65976319  0.65976319  -0.34023681  1.0
  Cl  Cl4  1  0.45170846  0.06630315  -0.28822789  1.0
  Cl  Cl5  1  1.28822789  -0.45170846  -0.06630315  1.0
  Cl  Cl6  1  0.93369685  0.28822789  -0.45170846  1.0
  Cl  Cl7  1  0.54829154  -0.06630315  0.28822789  1.0
  Cl  Cl8  1  0.71177211  -0.54829154  0.06630315  1.0
  Cl  Cl9  1  1.06630315  -0.28822789  -0.54829154  1.0
