# generated using pymatgen
data_RbNa3Li12(SiO4)4
_symmetry_space_group_name_H-M   'P 1'
_cell_length_a   8.39779095
_cell_length_b   8.39779095
_cell_length_c   8.39779095
_cell_angle_alpha   98.22719750
_cell_angle_beta   98.22719750
_cell_angle_gamma   135.54514538
_symmetry_Int_Tables_number   1
_chemical_formula_structural   RbNa3Li12(SiO4)4
_chemical_formula_sum   'Rb1 Na3 Li12 Si4 O16'
_cell_volume   383.94929169
_cell_formula_units_Z   1
loop_
 _symmetry_equiv_pos_site_id
 _symmetry_equiv_pos_as_xyz
  1  'x, y, z'
loop_
 _atom_site_type_symbol
 _atom_site_label
 _atom_site_symmetry_multiplicity
 _atom_site_fract_x
 _atom_site_fract_y
 _atom_site_fract_z
 _atom_site_occupancy
  Rb  Rb0  1  0.50000000  0.50000000  -0.00000000  1.0
  Na  Na1  1  1.25000000  0.75000000  0.50000000  1.0
  Na  Na2  1  0.75000000  0.25000000  0.50000000  1.0
  Na  Na3  1  0.00000000  0.00000000  0.00000000  1.0
  Li  Li4  1  1.13657901  1.00929869  0.65832195  1.0
  Li  Li5  1  0.64902326  0.52174294  0.65832195  1.0
  Li  Li6  1  1.00929869  0.35097674  0.87271968  1.0
  Li  Li7  1  1.52174294  0.86342099  0.87271968  1.0
  Li  Li8  1  1.35097674  1.47825706  1.34167805  1.0
  Li  Li9  1  0.86342099  0.99070131  1.34167805  1.0
  Li  Li10  1  0.47825706  1.13657901  1.12728032  1.0
  Li  Li11  1  0.99070131  1.64902326  1.12728032  1.0
  Li  Li12  1  0.78618574  0.57408075  0.36026649  1.0
  Li  Li13  1  0.57408075  0.21381426  0.78789501  1.0
  Li  Li14  1  1.21381426  1.42591925  1.63973351  1.0
  Li  Li15  1  0.42591925  0.78618574  1.21210499  1.0
  Si  Si16  1  0.72007222  0.92467133  1.64474355  1.0
  Si  Si17  1  0.92467133  1.27992778  1.20459911  1.0
  Si  Si18  1  0.27992778  0.07532867  0.35525645  1.0
  Si  Si19  1  1.07532867  0.72007222  0.79540089  1.0
  O  O20  1  1.02003539  1.13182501  1.71807214  1.0
  O  O21  1  1.58624713  1.69803675  1.71807214  1.0
  O  O22  1  1.13182501  1.41375287  1.11178962  1.0
  O  O23  1  0.69803675  0.97996461  1.11178962  1.0
  O  O24  1  0.41375287  0.30196325  0.28192786  1.0
  O  O25  1  0.97996461  0.86817499  0.28192786  1.0
  O  O26  1  1.30196325  1.02003539  0.88821038  1.0
  O  O27  1  0.86817499  0.58624713  0.88821038  1.0
  O  O28  1  0.93537144  0.66178847  0.59715992  1.0
  O  O29  1  0.66178847  0.06462856  0.72641703  1.0
  O  O30  1  1.06462856  1.33821153  1.40284008  1.0
  O  O31  1  0.33821153  0.93537144  1.27358297  1.0
  O  O32  1  0.60687665  0.82607494  1.43295159  1.0
  O  O33  1  0.82607494  1.39312335  1.21919829  1.0
  O  O34  1  0.39312335  0.17392506  0.56704841  1.0
  O  O35  1  1.17392506  0.60687665  0.78080171  1.0
