# generated using pymatgen
data_Rb(CO)2
_symmetry_space_group_name_H-M   'P 1'
_cell_length_a   7.25304418
_cell_length_b   7.25304418
_cell_length_c   4.25813327
_cell_angle_alpha   96.77176940
_cell_angle_beta   83.22823060
_cell_angle_gamma   121.88498266
_symmetry_Int_Tables_number   1
_chemical_formula_structural   Rb(CO)2
_chemical_formula_sum   'Rb2 C4 O4'
_cell_volume   188.46741939
_cell_formula_units_Z   2
loop_
 _symmetry_equiv_pos_site_id
 _symmetry_equiv_pos_as_xyz
  1  'x, y, z'
loop_
 _atom_site_type_symbol
 _atom_site_label
 _atom_site_symmetry_multiplicity
 _atom_site_fract_x
 _atom_site_fract_y
 _atom_site_fract_z
 _atom_site_occupancy
  Rb  Rb0  1  0.67338257  -0.67338257  0.80606904  1.0
  Rb  Rb1  1  0.32661743  -0.32661743  0.19393096  1.0
  C  C2  1  0.83965850  -0.04972828  0.58223524  1.0
  C  C3  1  1.04972828  0.16034150  0.58223524  1.0
  C  C4  1  0.95027172  -0.16034150  0.41776476  1.0
  C  C5  1  1.16034150  0.04972828  0.41776476  1.0
  O  O6  1  0.64676385  -0.10727084  0.68083701  1.0
  O  O7  1  1.10727084  0.35323615  0.68083701  1.0
  O  O8  1  0.89272916  -0.35323615  0.31916299  1.0
  O  O9  1  1.35323615  0.10727084  0.31916299  1.0
