# generated using pymatgen
data_Cs2EuCl5
_symmetry_space_group_name_H-M   'P 1'
_cell_length_a   9.89239585
_cell_length_b   7.73053362
_cell_length_c   15.53399756
_cell_angle_alpha   90.00000000
_cell_angle_beta   90.00000000
_cell_angle_gamma   90.00000000
_symmetry_Int_Tables_number   1
_chemical_formula_structural   Cs2EuCl5
_chemical_formula_sum   'Cs8 Eu4 Cl20'
_cell_volume   1187.93914261
_cell_formula_units_Z   4
loop_
 _symmetry_equiv_pos_site_id
 _symmetry_equiv_pos_as_xyz
  1  'x, y, z'
loop_
 _atom_site_type_symbol
 _atom_site_label
 _atom_site_symmetry_multiplicity
 _atom_site_fract_x
 _atom_site_fract_y
 _atom_site_fract_z
 _atom_site_occupancy
  Cs  Cs0  1  0.84093930  0.75000000  0.41931521  1.0
  Cs  Cs1  1  0.34093930  0.75000000  0.08068479  1.0
  Cs  Cs2  1  0.15906070  0.25000000  0.58068479  1.0
  Cs  Cs3  1  0.65906070  0.25000000  0.91931521  1.0
  Cs  Cs4  1  0.52477057  0.75000000  0.71270464  1.0
  Cs  Cs5  1  0.02477057  0.75000000  0.78729536  1.0
  Cs  Cs6  1  0.47522943  0.25000000  0.28729536  1.0
  Cs  Cs7  1  0.97522943  0.25000000  0.21270464  1.0
  Eu  Eu8  1  0.82147464  0.75000000  0.06410785  1.0
  Eu  Eu9  1  0.32147464  0.75000000  0.43589215  1.0
  Eu  Eu10  1  0.17852536  0.25000000  0.93589215  1.0
  Eu  Eu11  1  0.67852536  0.25000000  0.56410785  1.0
  Cl  Cl12  1  0.66326023  0.49216748  0.11678588  1.0
  Cl  Cl13  1  0.66326023  0.00783252  0.11678588  1.0
  Cl  Cl14  1  0.16326023  0.49216748  0.38321412  1.0
  Cl  Cl15  1  0.16326023  0.00783252  0.38321412  1.0
  Cl  Cl16  1  0.33673977  0.99216748  0.88321412  1.0
  Cl  Cl17  1  0.33673977  0.50783252  0.88321412  1.0
  Cl  Cl18  1  0.83673977  0.99216748  0.61678588  1.0
  Cl  Cl19  1  0.83673977  0.50783252  0.61678588  1.0
  Cl  Cl20  1  0.97244726  0.75000000  0.20620833  1.0
  Cl  Cl21  1  0.47244726  0.75000000  0.29379167  1.0
  Cl  Cl22  1  0.02755274  0.25000000  0.79379167  1.0
  Cl  Cl23  1  0.52755274  0.25000000  0.70620833  1.0
  Cl  Cl24  1  0.71337848  0.75000000  0.90352860  1.0
  Cl  Cl25  1  0.21337848  0.75000000  0.59647140  1.0
  Cl  Cl26  1  0.28662152  0.25000000  0.09647140  1.0
  Cl  Cl27  1  0.78662152  0.25000000  0.40352860  1.0
  Cl  Cl28  1  0.00000000  0.00000000  0.00000000  1.0
  Cl  Cl29  1  0.00000000  0.50000000  -0.00000000  1.0
  Cl  Cl30  1  0.50000000  -0.00000000  0.50000000  1.0
  Cl  Cl31  1  0.50000000  0.50000000  0.50000000  1.0
