# generated using pymatgen
data_AgI3O8
_symmetry_space_group_name_H-M   'P 1'
_cell_length_a   13.32109801
_cell_length_b   13.32109801
_cell_length_c   13.32109801
_cell_angle_alpha   144.17673010
_cell_angle_beta   144.17673010
_cell_angle_gamma   51.56310086
_symmetry_Int_Tables_number   1
_chemical_formula_structural   AgI3O8
_chemical_formula_sum   'Ag4 I12 O32'
_cell_volume   805.33204934
_cell_formula_units_Z   4
loop_
 _symmetry_equiv_pos_site_id
 _symmetry_equiv_pos_as_xyz
  1  'x, y, z'
loop_
 _atom_site_type_symbol
 _atom_site_label
 _atom_site_symmetry_multiplicity
 _atom_site_fract_x
 _atom_site_fract_y
 _atom_site_fract_z
 _atom_site_occupancy
  Ag  Ag0  1  0.11648613  0.61648613  0.50000000  1.0
  Ag  Ag1  1  0.38351387  0.88351387  0.50000000  1.0
  Ag  Ag2  1  0.37113928  0.37113928  -0.00000000  1.0
  Ag  Ag3  1  0.62886072  0.62886072  1.00000000  1.0
  I  I4  1  0.49881893  1.03053980  0.97120183  1.0
  I  I5  1  0.96946020  0.94066203  1.46827913  1.0
  I  I6  1  1.05933797  0.52761710  1.02879817  1.0
  I  I7  1  0.47238290  0.50118107  0.53172087  1.0
  I  I8  1  0.25180899  0.77463158  0.97230536  1.0
  I  I9  1  1.22536842  1.19767378  1.47717740  1.0
  I  I10  1  0.80232622  0.27950363  1.02769464  1.0
  I  I11  1  0.72049637  0.74819101  0.52282260  1.0
  I  I12  1  0.59589172  0.09589172  0.50000000  1.0
  I  I13  1  0.90410828  0.40410828  0.50000000  1.0
  I  I14  1  0.15702343  0.15702343  0.00000000  1.0
  I  I15  1  0.84297657  0.84297657  1.00000000  1.0
  O  O16  1  0.28642209  1.02478056  0.72796693  1.0
  O  O17  1  0.97521944  0.70318637  1.26164152  1.0
  O  O18  1  1.29681363  0.55845516  1.27203307  1.0
  O  O19  1  0.44154484  0.71357791  0.73835848  1.0
  O  O20  1  0.03772333  0.80309284  0.76396980  1.0
  O  O21  1  1.19690716  0.96087696  1.23463049  1.0
  O  O22  1  1.03912304  0.27375354  1.23603020  1.0
  O  O23  1  0.72624646  0.96227667  0.76536951  1.0
  O  O24  1  0.38391409  1.17089408  1.13953915  1.0
  O  O25  1  0.82910592  0.96864507  1.21302001  1.0
  O  O26  1  1.03135493  0.24437494  0.86046085  1.0
  O  O27  1  0.75562506  0.61608591  0.78697999  1.0
  O  O28  1  0.58719117  1.25604553  1.18852816  1.0
  O  O29  1  0.74395447  0.93248263  1.33114564  1.0
  O  O30  1  1.06751737  0.39866301  0.81147184  1.0
  O  O31  1  0.60133699  0.41280883  0.66885436  1.0
  O  O32  1  0.59135895  0.91006282  0.82748374  1.0
  O  O33  1  1.08993718  0.91742092  1.68129613  1.0
  O  O34  1  1.08257908  0.76387521  1.17251626  1.0
  O  O35  1  0.23612479  0.40864105  0.31870387  1.0
  O  O36  1  0.34681226  1.00681998  1.17605855  1.0
  O  O37  1  0.99318002  1.16923857  1.33999228  1.0
  O  O38  1  0.83076143  0.17075370  0.82394145  1.0
  O  O39  1  0.82924630  0.65318774  0.66000772  1.0
  O  O40  1  0.33493061  0.63781887  0.82691066  1.0
  O  O41  1  1.36218113  1.18909180  1.69711175  1.0
  O  O42  1  0.81090820  0.50801995  1.17308934  1.0
  O  O43  1  0.49198005  0.66506939  0.30288825  1.0
  O  O44  1  0.77673007  1.41006228  1.27887244  1.0
  O  O45  1  0.58993772  0.86881016  1.36666779  1.0
  O  O46  1  1.13118984  0.49785764  0.72112756  1.0
  O  O47  1  0.50214236  0.22326993  0.63333221  1.0
