# generated using pymatgen
data_LiIO5
_symmetry_space_group_name_H-M   'P 1'
_cell_length_a   5.71450239
_cell_length_b   5.66662966
_cell_length_c   13.56321644
_cell_angle_alpha   90.00000000
_cell_angle_beta   103.46363168
_cell_angle_gamma   90.00000000
_symmetry_Int_Tables_number   1
_chemical_formula_structural   LiIO5
_chemical_formula_sum   'Li4 I4 O20'
_cell_volume   427.13341330
_cell_formula_units_Z   4
loop_
 _symmetry_equiv_pos_site_id
 _symmetry_equiv_pos_as_xyz
  1  'x, y, z'
loop_
 _atom_site_type_symbol
 _atom_site_label
 _atom_site_symmetry_multiplicity
 _atom_site_fract_x
 _atom_site_fract_y
 _atom_site_fract_z
 _atom_site_occupancy
  Li  Li0  1  0.65438414  0.91373996  0.24258184  1.0
  Li  Li1  1  0.65438414  0.58626004  0.74258184  1.0
  Li  Li2  1  0.34561586  0.41373996  0.25741816  1.0
  Li  Li3  1  0.34561586  0.08626004  0.75741816  1.0
  I  I4  1  0.88747829  0.42549786  0.38539931  1.0
  I  I5  1  0.88747829  0.07450214  0.88539931  1.0
  I  I6  1  0.11252171  0.92549786  0.11460069  1.0
  I  I7  1  0.11252171  0.57450214  0.61460069  1.0
  O  O8  1  0.93296798  0.12373234  0.32318027  1.0
  O  O9  1  0.93296798  0.37626766  0.82318027  1.0
  O  O10  1  0.06703202  0.62373234  0.17681973  1.0
  O  O11  1  0.06703202  0.87626766  0.67681973  1.0
  O  O12  1  0.85401287  0.67711846  0.48816576  1.0
  O  O13  1  0.85401287  0.82288154  0.98816576  1.0
  O  O14  1  0.14598713  0.17711846  0.01183424  1.0
  O  O15  1  0.14598713  0.32288154  0.51183424  1.0
  O  O16  1  0.83262939  0.07165138  0.14801678  1.0
  O  O17  1  0.83262939  0.42834862  0.64801678  1.0
  O  O18  1  0.16737061  0.57165138  0.35198322  1.0
  O  O19  1  0.16737061  0.92834862  0.85198322  1.0
  O  O20  1  0.64437871  0.22591539  0.41878409  1.0
  O  O21  1  0.64437871  0.27408461  0.91878409  1.0
  O  O22  1  0.35562129  0.72591539  0.08121591  1.0
  O  O23  1  0.35562129  0.77408461  0.58121591  1.0
  O  O24  1  0.33415036  0.08019116  0.21887658  1.0
  O  O25  1  0.33415036  0.41980884  0.71887658  1.0
  O  O26  1  0.66584964  0.58019116  0.28112342  1.0
  O  O27  1  0.66584964  0.91980884  0.78112342  1.0
