# generated using pymatgen
data_HgWO4
_symmetry_space_group_name_H-M   'P 1'
_cell_length_a   8.66197162
_cell_length_b   8.66197162
_cell_length_c   5.21149135
_cell_angle_alpha   90.00000000
_cell_angle_beta   90.00000000
_cell_angle_gamma   129.01686995
_symmetry_Int_Tables_number   1
_chemical_formula_structural   HgWO4
_chemical_formula_sum   'Hg4 W4 O16'
_cell_volume   303.80474236
_cell_formula_units_Z   4
loop_
 _symmetry_equiv_pos_site_id
 _symmetry_equiv_pos_as_xyz
  1  'x, y, z'
loop_
 _atom_site_type_symbol
 _atom_site_label
 _atom_site_symmetry_multiplicity
 _atom_site_fract_x
 _atom_site_fract_y
 _atom_site_fract_z
 _atom_site_occupancy
  Hg  Hg0  1  0.43331823  1.06668177  0.75000000  1.0
  Hg  Hg1  1  0.06668177  0.43331823  0.25000000  1.0
  Hg  Hg2  1  0.56668177  0.93331823  0.25000000  1.0
  Hg  Hg3  1  -0.06668177  0.56668177  0.75000000  1.0
  W  W4  1  -0.08296226  0.08296226  0.68398638  1.0
  W  W5  1  0.08296226  0.91703774  0.31601362  1.0
  W  W6  1  -0.41703774  0.41703774  0.18398638  1.0
  W  W7  1  0.41703774  0.58296226  0.81601362  1.0
  O  O8  1  0.61173409  0.88826591  0.75000000  1.0
  O  O9  1  -0.11173409  0.61173409  0.25000000  1.0
  O  O10  1  0.38826591  1.11173409  0.25000000  1.0
  O  O11  1  0.11173409  0.38826591  0.75000000  1.0
  O  O12  1  -0.31498082  0.31498082  -0.04517248  1.0
  O  O13  1  0.31498082  0.68501918  1.04517248  1.0
  O  O14  1  -0.18501918  0.18501918  0.45482752  1.0
  O  O15  1  0.18501918  0.81498082  0.54517248  1.0
  O  O16  1  0.84686676  0.84686676  0.50000000  1.0
  O  O17  1  0.34686676  0.34686676  -0.00000000  1.0
  O  O18  1  0.15313324  0.15313324  0.50000000  1.0
  O  O19  1  0.65313324  0.65313324  0.00000000  1.0
  O  O20  1  -0.42129390  0.42129390  0.51935960  1.0
  O  O21  1  0.42129390  0.57870610  0.48064040  1.0
  O  O22  1  -0.07870610  0.07870610  0.01935960  1.0
  O  O23  1  0.07870610  0.92129390  0.98064040  1.0
