# generated using pymatgen
data_NiH16C4S4(N4Cl)2
_symmetry_space_group_name_H-M   'P 1'
_cell_length_a   8.36350756
_cell_length_b   8.36350756
_cell_length_c   8.36350756
_cell_angle_alpha   108.58001841
_cell_angle_beta   108.58001841
_cell_angle_gamma   111.26871682
_symmetry_Int_Tables_number   1
_chemical_formula_structural   NiH16C4S4(N4Cl)2
_chemical_formula_sum   'Ni1 H16 C4 S4 N8 Cl2'
_cell_volume   450.00945800
_cell_formula_units_Z   1
loop_
 _symmetry_equiv_pos_site_id
 _symmetry_equiv_pos_as_xyz
  1  'x, y, z'
loop_
 _atom_site_type_symbol
 _atom_site_label
 _atom_site_symmetry_multiplicity
 _atom_site_fract_x
 _atom_site_fract_y
 _atom_site_fract_z
 _atom_site_occupancy
  Ni  Ni0  1  0.72907318  0.72907318  -0.00000000  1.0
  H  H1  1  0.20792702  0.87260985  0.66610828  1.0
  H  H2  1  0.87260985  1.20650156  1.66468282  1.0
  H  H3  1  1.20650156  0.54181874  1.33389172  1.0
  H  H4  1  0.54181874  0.20792702  0.33531718  1.0
  H  H5  1  0.79115647  1.11241960  1.01636343  1.0
  H  H6  1  1.11241960  1.09605617  1.32126313  1.0
  H  H7  1  1.09605617  1.77479304  0.98363657  1.0
  H  H8  1  1.77479304  1.79115647  1.67873687  1.0
  H  H9  1  0.36280026  1.13002239  0.79965619  1.0
  H  H10  1  1.13002239  1.33036620  0.76722214  1.0
  H  H11  1  1.33036620  1.56314407  1.20034381  1.0
  H  H12  1  0.56314407  0.36280026  0.23277786  1.0
  H  H13  1  0.70359067  1.27046097  0.99469542  1.0
  H  H14  1  1.27046097  1.27576555  0.56687030  1.0
  H  H15  1  1.27576555  1.70889525  1.00530458  1.0
  H  H16  1  0.70889525  0.70359067  0.43312970  1.0
  C  C17  1  0.49551863  0.97128398  0.84349627  1.0
  C  C18  1  0.97128398  1.12778771  1.47576535  1.0
  C  C19  1  1.12778771  0.65202236  1.15650373  1.0
  C  C20  1  0.65202236  0.49551863  0.52423465  1.0
  S  S21  1  0.45265868  0.73836795  0.79371801  1.0
  S  S22  1  0.73836795  0.94464993  1.28570926  1.0
  S  S23  1  0.94464993  1.65894067  1.20628199  1.0
  S  S24  1  1.65894067  1.45265868  1.71429074  1.0
  N  N25  1  0.34396810  0.99296107  0.76252392  1.0
  N  N26  1  0.99296107  1.23043714  1.64899296  1.0
  N  N27  1  1.23043714  0.58144418  1.23747608  1.0
  N  N28  1  0.58144418  0.34396810  0.35100704  1.0
  N  N29  1  0.67532751  1.13117313  0.96227869  1.0
  N  N30  1  1.13117313  1.16889444  0.45584562  1.0
  N  N31  1  1.16889444  1.71304882  1.03772131  1.0
  N  N32  1  0.71304882  0.67532751  0.54415438  1.0
  Cl  Cl33  1  -0.01318761  -0.01318761  0.00000000  1.0
  Cl  Cl34  1  0.45700231  0.45700231  -0.00000000  1.0
