# generated using pymatgen
data_Sr4Li2Si4N8O
_symmetry_space_group_name_H-M   'P 1'
_cell_length_a   9.37586487
_cell_length_b   9.37586487
_cell_length_c   5.60666190
_cell_angle_alpha   90.00000000
_cell_angle_beta   90.00000000
_cell_angle_gamma   90.00000000
_symmetry_Int_Tables_number   1
_chemical_formula_structural   Sr4Li2Si4N8O
_chemical_formula_sum   'Sr8 Li4 Si8 N16 O2'
_cell_volume   492.86394260
_cell_formula_units_Z   2
loop_
 _symmetry_equiv_pos_site_id
 _symmetry_equiv_pos_as_xyz
  1  'x, y, z'
loop_
 _atom_site_type_symbol
 _atom_site_label
 _atom_site_symmetry_multiplicity
 _atom_site_fract_x
 _atom_site_fract_y
 _atom_site_fract_z
 _atom_site_occupancy
  Sr  Sr0  1  0.44530701  0.76543378  0.50000000  1.0
  Sr  Sr1  1  0.94530701  0.73456622  0.00000000  1.0
  Sr  Sr2  1  0.23456622  0.44530701  0.50000000  1.0
  Sr  Sr3  1  0.73456622  0.05469299  0.00000000  1.0
  Sr  Sr4  1  0.55469299  0.23456622  0.50000000  1.0
  Sr  Sr5  1  0.05469299  0.26543378  0.00000000  1.0
  Sr  Sr6  1  0.76543378  0.55469299  0.50000000  1.0
  Sr  Sr7  1  0.26543378  0.94530701  0.00000000  1.0
  Li  Li8  1  0.50000000  0.50000000  0.18365482  1.0
  Li  Li9  1  0.50000000  0.50000000  0.81634518  1.0
  Li  Li10  1  0.00000000  0.00000000  0.68365482  1.0
  Li  Li11  1  0.00000000  0.00000000  0.31634518  1.0
  Si  Si12  1  0.12036279  0.76915433  0.50000000  1.0
  Si  Si13  1  0.62036279  0.73084567  0.00000000  1.0
  Si  Si14  1  0.23084567  0.12036279  0.50000000  1.0
  Si  Si15  1  0.73084567  0.37963721  0.00000000  1.0
  Si  Si16  1  0.87963721  0.23084567  0.50000000  1.0
  Si  Si17  1  0.37963721  0.26915433  0.00000000  1.0
  Si  Si18  1  0.76915433  0.87963721  0.50000000  1.0
  Si  Si19  1  0.26915433  0.62036279  0.00000000  1.0
  N  N20  1  0.20463558  0.93692235  0.50000000  1.0
  N  N21  1  0.70463558  0.56307765  0.00000000  1.0
  N  N22  1  0.06307765  0.20463558  0.50000000  1.0
  N  N23  1  0.56307765  0.29536442  0.00000000  1.0
  N  N24  1  0.79536442  0.06307765  0.50000000  1.0
  N  N25  1  0.29536442  0.43692235  0.00000000  1.0
  N  N26  1  0.93692235  0.79536442  0.50000000  1.0
  N  N27  1  0.43692235  0.70463558  0.00000000  1.0
  N  N28  1  0.32617082  0.17382918  0.25000000  1.0
  N  N29  1  0.32617082  0.17382918  0.75000000  1.0
  N  N30  1  0.82617082  0.32617082  0.75000000  1.0
  N  N31  1  0.82617082  0.32617082  0.25000000  1.0
  N  N32  1  0.67382918  0.82617082  0.25000000  1.0
  N  N33  1  0.67382918  0.82617082  0.75000000  1.0
  N  N34  1  0.17382918  0.67382918  0.75000000  1.0
  N  N35  1  0.17382918  0.67382918  0.25000000  1.0
  O  O36  1  0.50000000  0.50000000  0.50000000  1.0
  O  O37  1  0.00000000  0.00000000  0.00000000  1.0
