# generated using pymatgen
data_Lu(CoB)2
_symmetry_space_group_name_H-M   'P 1'
_cell_length_a   7.82007473
_cell_length_b   7.82007525
_cell_length_c   10.51730780
_cell_angle_alpha   90.00000000
_cell_angle_beta   90.00000000
_cell_angle_gamma   90.00000000
_symmetry_Int_Tables_number   1
_chemical_formula_structural   Lu(CoB)2
_chemical_formula_sum   'Lu8 Co16 B16'
_cell_volume   643.17094889
_cell_formula_units_Z   8
loop_
 _symmetry_equiv_pos_site_id
 _symmetry_equiv_pos_as_xyz
  1  'x, y, z'
loop_
 _atom_site_type_symbol
 _atom_site_label
 _atom_site_symmetry_multiplicity
 _atom_site_fract_x
 _atom_site_fract_y
 _atom_site_fract_z
 _atom_site_occupancy
  Lu  Lu0  1  0.75000000  0.25000000  0.25000000  1.0
  Lu  Lu1  1  0.75000000  0.75000000  0.25000000  1.0
  Lu  Lu2  1  0.25000000  0.75000000  0.25000000  1.0
  Lu  Lu3  1  0.25000000  0.25000000  0.25000000  1.0
  Lu  Lu4  1  0.25000000  0.75000000  0.75000000  1.0
  Lu  Lu5  1  0.25000000  0.25000000  0.75000000  1.0
  Lu  Lu6  1  0.75000000  0.25000000  0.75000000  1.0
  Lu  Lu7  1  0.75000000  0.75000000  0.75000000  1.0
  Co  Co8  1  0.35783260  0.85703047  -0.49999402  1.0
  Co  Co9  1  0.35783260  0.14296953  -0.49999402  1.0
  Co  Co10  1  0.85783260  0.35703047  0.99999402  1.0
  Co  Co11  1  0.85783260  0.64296953  0.99999402  1.0
  Co  Co12  1  0.85703045  0.35783260  1.49999402  1.0
  Co  Co13  1  0.85703045  0.64216740  1.49999402  1.0
  Co  Co14  1  0.35703045  0.85783260  0.00000598  1.0
  Co  Co15  1  0.35703045  0.14216740  0.00000598  1.0
  Co  Co16  1  0.64216741  0.85703047  -0.49999402  1.0
  Co  Co17  1  0.64216741  0.14296953  -0.49999402  1.0
  Co  Co18  1  0.14216740  0.35703047  0.99999402  1.0
  Co  Co19  1  0.14216740  0.64296953  0.99999402  1.0
  Co  Co20  1  0.14296955  0.35783260  1.49999402  1.0
  Co  Co21  1  0.14296955  0.64216740  1.49999402  1.0
  Co  Co22  1  0.64296955  0.85783260  0.00000598  1.0
  Co  Co23  1  0.64296955  0.14216740  0.00000598  1.0
  B  B24  1  0.38780720  0.38780988  1.08164355  1.0
  B  B25  1  0.38780720  0.61219012  1.08164355  1.0
  B  B26  1  0.88780720  0.88780988  -0.58164355  1.0
  B  B27  1  0.88780720  0.11219012  -0.58164355  1.0
  B  B28  1  0.38780988  0.38780720  -0.08164355  1.0
  B  B29  1  0.38780988  0.61219280  -0.08164355  1.0
  B  B30  1  0.88780988  0.88780720  1.58164355  1.0
  B  B31  1  0.88780988  0.11219280  1.58164355  1.0
  B  B32  1  0.61219280  0.38780988  1.08164355  1.0
  B  B33  1  0.61219280  0.61219012  1.08164355  1.0
  B  B34  1  0.11219280  0.88780988  -0.58164355  1.0
  B  B35  1  0.11219280  0.11219012  -0.58164355  1.0
  B  B36  1  0.61219012  0.38780720  -0.08164355  1.0
  B  B37  1  0.61219012  0.61219280  -0.08164355  1.0
  B  B38  1  0.11219012  0.88780720  1.58164355  1.0
  B  B39  1  0.11219012  0.11219280  1.58164355  1.0
