# generated using pymatgen
data_Cs2CS3O
_symmetry_space_group_name_H-M   'P 1'
_cell_length_a   6.76667571
_cell_length_b   10.59693048
_cell_length_c   12.35548419
_cell_angle_alpha   90.00000000
_cell_angle_beta   90.00000000
_cell_angle_gamma   90.00000000
_symmetry_Int_Tables_number   1
_chemical_formula_structural   Cs2CS3O
_chemical_formula_sum   'Cs8 C4 S12 O4'
_cell_volume   885.96225077
_cell_formula_units_Z   4
loop_
 _symmetry_equiv_pos_site_id
 _symmetry_equiv_pos_as_xyz
  1  'x, y, z'
loop_
 _atom_site_type_symbol
 _atom_site_label
 _atom_site_symmetry_multiplicity
 _atom_site_fract_x
 _atom_site_fract_y
 _atom_site_fract_z
 _atom_site_occupancy
  Cs  Cs0  1  0.89148214  0.72860529  0.89366269  1.0
  Cs  Cs1  1  0.39148214  0.77139471  0.10633731  1.0
  Cs  Cs2  1  0.10851786  0.22860529  0.60633731  1.0
  Cs  Cs3  1  0.60851786  0.27139471  0.39366269  1.0
  Cs  Cs4  1  0.41806975  0.62209330  0.56861353  1.0
  Cs  Cs5  1  0.91806975  0.87790670  0.43138647  1.0
  Cs  Cs6  1  0.58193025  0.12209330  0.93138647  1.0
  Cs  Cs7  1  0.08193025  0.37790670  0.06861353  1.0
  C  C8  1  0.54136254  0.93993673  0.66475091  1.0
  C  C9  1  1.04136254  0.56006327  0.33524909  1.0
  C  C10  1  0.45863746  0.43993673  0.83524909  1.0
  C  C11  1  -0.04136254  0.06006327  0.16475091  1.0
  S  S12  1  0.93274870  0.53611396  0.46057785  1.0
  S  S13  1  0.43274870  0.96388604  0.53942215  1.0
  S  S14  1  0.06725130  0.03611396  1.03942215  1.0
  S  S15  1  0.56725130  0.46388604  -0.03942215  1.0
  S  S16  1  0.37662461  0.88193825  0.75939687  1.0
  S  S17  1  0.87662461  0.61806175  0.24060313  1.0
  S  S18  1  0.62337539  0.38193825  0.74060313  1.0
  S  S19  1  0.12337539  0.11806175  0.25939687  1.0
  S  S20  1  0.21555037  0.46432775  0.80393351  1.0
  S  S21  1  0.71555037  0.03567225  0.19606649  1.0
  S  S22  1  0.78444963  0.96432775  0.69606649  1.0
  S  S23  1  0.28444963  0.53567225  0.30393351  1.0
  O  O24  1  0.47829915  0.85211885  0.87021775  1.0
  O  O25  1  0.97829915  0.64788115  0.12978225  1.0
  O  O26  1  0.52170085  0.35211885  0.62978225  1.0
  O  O27  1  0.02170085  0.14788115  0.37021775  1.0
