# generated using pymatgen
data_Li3AlH6
_symmetry_space_group_name_H-M   'P 1'
_cell_length_a   5.59937297
_cell_length_b   5.59937297
_cell_length_c   5.59937297
_cell_angle_alpha   91.38626530
_cell_angle_beta   91.38626530
_cell_angle_gamma   91.38626530
_symmetry_Int_Tables_number   1
_chemical_formula_structural   Li3AlH6
_chemical_formula_sum   'Li6 Al2 H12'
_cell_volume   175.40033530
_cell_formula_units_Z   2
loop_
 _symmetry_equiv_pos_site_id
 _symmetry_equiv_pos_as_xyz
  1  'x, y, z'
loop_
 _atom_site_type_symbol
 _atom_site_label
 _atom_site_symmetry_multiplicity
 _atom_site_fract_x
 _atom_site_fract_y
 _atom_site_fract_z
 _atom_site_occupancy
  Li  Li0  1  0.74862231  0.56755728  0.06108552  1.0
  Li  Li1  1  1.43244272  -0.06108552  0.25137769  1.0
  Li  Li2  1  0.93891448  0.25137769  0.43244272  1.0
  Li  Li3  1  1.25137769  0.43244272  -0.06108552  1.0
  Li  Li4  1  0.56755728  1.06108552  -0.25137769  1.0
  Li  Li5  1  1.06108552  0.74862231  -0.43244272  1.0
  Al  Al6  1  0.50000000  0.50000000  0.50000000  1.0
  Al  Al7  1  0.00000000  0.00000000  0.00000000  1.0
  H  H8  1  1.57256185  0.43126968  -0.20426783  1.0
  H  H9  1  0.56873032  1.20426783  -0.57256185  1.0
  H  H10  1  1.20426783  0.42743815  -0.43126968  1.0
  H  H11  1  0.42743815  0.56873032  0.20426783  1.0
  H  H12  1  1.43126968  -0.20426783  0.57256185  1.0
  H  H13  1  0.79573217  0.57256185  0.43126968  1.0
  H  H14  1  0.70465370  0.91032526  0.04898485  1.0
  H  H15  1  1.08967474  -0.04898485  0.29534630  1.0
  H  H16  1  0.95101515  0.29534630  0.08967474  1.0
  H  H17  1  1.29534630  0.08967474  -0.04898485  1.0
  H  H18  1  0.91032526  1.04898485  -0.29534630  1.0
  H  H19  1  1.04898485  0.70465370  -0.08967474  1.0
