# generated using pymatgen
data_Cs3SbS3
_symmetry_space_group_name_H-M   'P 1'
_cell_length_a   10.47473824
_cell_length_b   10.47473824
_cell_length_c   10.47473824
_cell_angle_alpha   90.00000000
_cell_angle_beta   90.00000000
_cell_angle_gamma   90.00000000
_symmetry_Int_Tables_number   1
_chemical_formula_structural   Cs3SbS3
_chemical_formula_sum   'Cs12 Sb4 S12'
_cell_volume   1149.28975711
_cell_formula_units_Z   4
loop_
 _symmetry_equiv_pos_site_id
 _symmetry_equiv_pos_as_xyz
  1  'x, y, z'
loop_
 _atom_site_type_symbol
 _atom_site_label
 _atom_site_symmetry_multiplicity
 _atom_site_fract_x
 _atom_site_fract_y
 _atom_site_fract_z
 _atom_site_occupancy
  Cs  Cs0  1  0.44221756  0.94221756  0.55778244  1.0
  Cs  Cs1  1  0.94221756  0.55778244  0.44221756  1.0
  Cs  Cs2  1  0.55778244  0.44221756  0.94221756  1.0
  Cs  Cs3  1  0.05778244  0.05778244  0.05778244  1.0
  Cs  Cs4  1  0.93925005  0.43925005  0.06074995  1.0
  Cs  Cs5  1  0.43925005  0.06074995  0.93925005  1.0
  Cs  Cs6  1  0.06074995  0.93925005  0.43925005  1.0
  Cs  Cs7  1  0.56074995  0.56074995  0.56074995  1.0
  Cs  Cs8  1  0.67539319  0.17539319  0.32460681  1.0
  Cs  Cs9  1  0.17539319  0.32460681  0.67539319  1.0
  Cs  Cs10  1  0.32460681  0.67539319  0.17539319  1.0
  Cs  Cs11  1  0.82460681  0.82460681  0.82460681  1.0
  Sb  Sb12  1  0.22609424  0.72609424  0.77390576  1.0
  Sb  Sb13  1  0.72609424  0.77390576  0.22609424  1.0
  Sb  Sb14  1  0.77390576  0.22609424  0.72609424  1.0
  Sb  Sb15  1  0.27390576  0.27390576  0.27390576  1.0
  S  S16  1  0.45019748  0.74286301  0.84127864  1.0
  S  S17  1  0.95019748  0.75713699  0.15872136  1.0
  S  S18  1  0.24286301  0.65872136  0.54980252  1.0
  S  S19  1  0.74286301  0.84127864  0.45019748  1.0
  S  S20  1  0.15872136  0.95019748  0.75713699  1.0
  S  S21  1  0.65872136  0.54980252  0.24286301  1.0
  S  S22  1  0.54980252  0.24286301  0.65872136  1.0
  S  S23  1  0.04980252  0.25713699  0.34127864  1.0
  S  S24  1  0.75713699  0.15872136  0.95019748  1.0
  S  S25  1  0.25713699  0.34127864  0.04980252  1.0
  S  S26  1  0.84127864  0.45019748  0.74286301  1.0
  S  S27  1  0.34127864  0.04980252  0.25713699  1.0
