# generated using pymatgen
data_Li3Al(BO3)2
_symmetry_space_group_name_H-M   'P 1'
_cell_length_a   4.90618263
_cell_length_b   8.03155042
_cell_length_c   6.34543529
_cell_angle_alpha   106.94147681
_cell_angle_beta   89.10295311
_cell_angle_gamma   90.80445920
_symmetry_Int_Tables_number   1
_chemical_formula_structural   Li3Al(BO3)2
_chemical_formula_sum   'Li6 Al2 B4 O12'
_cell_volume   239.14519342
_cell_formula_units_Z   2
loop_
 _symmetry_equiv_pos_site_id
 _symmetry_equiv_pos_as_xyz
  1  'x, y, z'
loop_
 _atom_site_type_symbol
 _atom_site_label
 _atom_site_symmetry_multiplicity
 _atom_site_fract_x
 _atom_site_fract_y
 _atom_site_fract_z
 _atom_site_occupancy
  Li  Li0  1  -1.16993675  0.88713827  0.23765081  1.0
  Li  Li1  1  0.16993675  0.11286173  0.76234919  1.0
  Li  Li2  1  -0.82638314  0.75827228  0.47287713  1.0
  Li  Li3  1  -0.17361686  0.24172772  0.52712287  1.0
  Li  Li4  1  -0.67910204  0.42949326  0.60225948  1.0
  Li  Li5  1  -0.32089796  0.57050674  0.39774052  1.0
  Al  Al6  1  -0.65027652  0.77624919  0.94332296  1.0
  Al  Al7  1  -0.34972348  0.22375081  0.05667704  1.0
  B  B8  1  -0.34115835  0.92881205  0.67770272  1.0
  B  B9  1  -0.65884165  0.07118795  0.32229728  1.0
  B  B10  1  -0.16489212  0.59305387  0.82244254  1.0
  B  B11  1  -0.83510788  0.40694613  0.17755746  1.0
  O  O12  1  -0.88024936  0.60489866  0.83384371  1.0
  O  O13  1  -0.11975064  0.39510134  0.16615629  1.0
  O  O14  1  -0.77583628  0.91185205  0.20220273  1.0
  O  O15  1  -0.22416372  0.08814795  0.79779727  1.0
  O  O16  1  -0.68788774  0.28072278  1.01831136  1.0
  O  O17  1  -0.31211226  0.71927722  -0.01831136  1.0
  O  O18  1  -0.70896523  0.52940478  0.34059141  1.0
  O  O19  1  -0.29103477  0.47059522  0.65940859  1.0
  O  O20  1  -0.61159404  0.89438935  0.74040118  1.0
  O  O21  1  -0.38840596  0.10561065  0.25959882  1.0
  O  O22  1  -0.21079166  0.81922951  0.50549070  1.0
  O  O23  1  -0.78920834  0.18077049  0.49450930  1.0
