# generated using pymatgen
data_Hf(CuSi)2
_symmetry_space_group_name_H-M   'P 1'
_cell_length_a   5.77792539
_cell_length_b   5.77792539
_cell_length_c   5.77792539
_cell_angle_alpha   142.26022801
_cell_angle_beta   142.26022801
_cell_angle_gamma   54.43700508
_symmetry_Int_Tables_number   1
_chemical_formula_structural   Hf(CuSi)2
_chemical_formula_sum   'Hf1 Cu2 Si2'
_cell_volume   71.76998704
_cell_formula_units_Z   1
loop_
 _symmetry_equiv_pos_site_id
 _symmetry_equiv_pos_as_xyz
  1  'x, y, z'
loop_
 _atom_site_type_symbol
 _atom_site_label
 _atom_site_symmetry_multiplicity
 _atom_site_fract_x
 _atom_site_fract_y
 _atom_site_fract_z
 _atom_site_occupancy
  Hf  Hf0  1  0.00000000  0.00000000  0.00000000  1.0
  Cu  Cu1  1  0.25000000  0.75000000  0.50000000  1.0
  Cu  Cu2  1  0.75000000  0.25000000  0.50000000  1.0
  Si  Si3  1  0.61060715  0.61060715  1.00000000  1.0
  Si  Si4  1  0.38939285  0.38939285  -0.00000000  1.0
