# generated using pymatgen
data_SbRuS
_symmetry_space_group_name_H-M   'P 1'
_cell_length_a   6.25615397
_cell_length_b   6.18471878
_cell_length_c   6.26726782
_cell_angle_alpha   90.00000000
_cell_angle_beta   111.69893273
_cell_angle_gamma   90.00000000
_symmetry_Int_Tables_number   1
_chemical_formula_structural   SbRuS
_chemical_formula_sum   'Sb4 Ru4 S4'
_cell_volume   225.31315214
_cell_formula_units_Z   4
loop_
 _symmetry_equiv_pos_site_id
 _symmetry_equiv_pos_as_xyz
  1  'x, y, z'
loop_
 _atom_site_type_symbol
 _atom_site_label
 _atom_site_symmetry_multiplicity
 _atom_site_fract_x
 _atom_site_fract_y
 _atom_site_fract_z
 _atom_site_occupancy
  Sb  Sb0  1  0.64907334  0.87023548  0.37082920  1.0
  Sb  Sb1  1  0.64907334  0.62976452  0.87082920  1.0
  Sb  Sb2  1  0.35092666  0.37023548  0.12917080  1.0
  Sb  Sb3  1  0.35092666  0.12976452  0.62917080  1.0
  Ru  Ru4  1  0.79717293  0.48617712  0.30286227  1.0
  Ru  Ru5  1  0.79717293  0.01382288  0.80286227  1.0
  Ru  Ru6  1  0.20282707  0.98617712  0.19713773  1.0
  Ru  Ru7  1  0.20282707  0.51382288  0.69713773  1.0
  S  S8  1  0.85286663  0.13334951  0.17860466  1.0
  S  S9  1  0.85286663  0.36665049  0.67860466  1.0
  S  S10  1  0.14713337  0.63334951  0.32139534  1.0
  S  S11  1  0.14713337  0.86665049  0.82139534  1.0
