# generated using pymatgen
data_Be13Mo
_symmetry_space_group_name_H-M   'P 1'
_cell_length_a   9.70483420
_cell_length_b   9.70483420
_cell_length_c   9.70483420
_cell_angle_alpha   60.00000000
_cell_angle_beta   60.00000000
_cell_angle_gamma   60.00000000
_symmetry_Int_Tables_number   1
_chemical_formula_structural   Be13Mo
_chemical_formula_sum   'Be52 Mo4'
_cell_volume   646.32263042
_cell_formula_units_Z   4
loop_
 _symmetry_equiv_pos_site_id
 _symmetry_equiv_pos_as_xyz
  1  'x, y, z'
loop_
 _atom_site_type_symbol
 _atom_site_label
 _atom_site_symmetry_multiplicity
 _atom_site_fract_x
 _atom_site_fract_y
 _atom_site_fract_z
 _atom_site_occupancy
  Be  Be0  1  0.82105910  -0.52982536  0.47017464  1.0
  Be  Be1  1  1.23859163  -0.52982536  0.47017464  1.0
  Be  Be2  1  0.77982536  -0.57105910  1.01140837  1.0
  Be  Be3  1  0.77982536  0.01140837  0.42894090  1.0
  Be  Be4  1  -0.52982536  0.82105910  0.47017464  1.0
  Be  Be5  1  1.23859163  -0.17894090  0.47017464  1.0
  Be  Be6  1  0.23859163  0.47017464  -0.17894090  1.0
  Be  Be7  1  0.47017464  0.47017464  -0.17894090  1.0
  Be  Be8  1  -0.57105910  0.77982536  1.01140837  1.0
  Be  Be9  1  -0.57105910  1.01140837  0.77982536  1.0
  Be  Be10  1  0.77982536  0.01140837  0.77982536  1.0
  Be  Be11  1  0.77982536  -0.22017464  1.01140837  1.0
  Be  Be12  1  -0.52982536  1.23859163  0.47017464  1.0
  Be  Be13  1  0.82105910  0.23859163  0.47017464  1.0
  Be  Be14  1  -0.17894090  0.47017464  0.23859163  1.0
  Be  Be15  1  0.47017464  0.47017464  0.23859163  1.0
  Be  Be16  1  1.01140837  -0.22017464  0.42894090  1.0
  Be  Be17  1  1.01140837  -0.57105910  0.77982536  1.0
  Be  Be18  1  0.77982536  -0.57105910  0.77982536  1.0
  Be  Be19  1  0.77982536  -0.22017464  0.42894090  1.0
  Be  Be20  1  0.47017464  0.23859163  -0.17894090  1.0
  Be  Be21  1  0.47017464  -0.17894090  0.23859163  1.0
  Be  Be22  1  1.01140837  -0.22017464  0.77982536  1.0
  Be  Be23  1  -0.57105910  0.77982536  0.77982536  1.0
  Be  Be24  1  1.00879621  -0.77524309  0.75765068  1.0
  Be  Be25  1  0.00879621  0.75765068  0.22475691  1.0
  Be  Be26  1  0.02524309  0.24120379  0.24120379  1.0
  Be  Be27  1  0.49234932  0.24120379  0.24120379  1.0
  Be  Be28  1  -0.77524309  1.00879621  0.75765068  1.0
  Be  Be29  1  1.00879621  0.00879621  0.75765068  1.0
  Be  Be30  1  0.00879621  0.75765068  0.00879621  1.0
  Be  Be31  1  0.22475691  0.75765068  0.00879621  1.0
  Be  Be32  1  0.24120379  0.02524309  0.24120379  1.0
  Be  Be33  1  0.24120379  0.24120379  0.02524309  1.0
  Be  Be34  1  0.49234932  0.24120379  0.02524309  1.0
  Be  Be35  1  0.49234932  0.02524309  0.24120379  1.0
  Be  Be36  1  0.75765068  0.00879621  1.00879621  1.0
  Be  Be37  1  0.22475691  0.00879621  0.00879621  1.0
  Be  Be38  1  0.24120379  0.49234932  0.02524309  1.0
  Be  Be39  1  0.24120379  0.02524309  1.49234932  1.0
  Be  Be40  1  -0.24234932  1.00879621  0.22475691  1.0
  Be  Be41  1  0.75765068  0.22475691  1.00879621  1.0
  Be  Be42  1  0.00879621  0.22475691  0.00879621  1.0
  Be  Be43  1  0.00879621  1.00879621  0.22475691  1.0
  Be  Be44  1  0.24120379  0.49234932  0.24120379  1.0
  Be  Be45  1  0.02524309  0.49234932  0.24120379  1.0
  Be  Be46  1  0.02524309  0.24120379  1.49234932  1.0
  Be  Be47  1  0.24120379  0.24120379  1.49234932  1.0
  Be  Be48  1  0.00000000  1.00000000  0.00000000  1.0
  Be  Be49  1  0.25000000  0.25000000  0.25000000  1.0
  Be  Be50  1  0.50000000  0.50000000  -0.50000000  1.0
  Be  Be51  1  0.75000000  -0.25000000  0.75000000  1.0
  Mo  Mo52  1  0.62500000  -0.37500000  1.12500000  1.0
  Mo  Mo53  1  0.62500000  0.12500000  0.62500000  1.0
  Mo  Mo54  1  0.62500000  -0.37500000  0.62500000  1.0
  Mo  Mo55  1  1.12500000  -0.37500000  0.62500000  1.0
