# generated using pymatgen
data_Ni3B7BrO13
_symmetry_space_group_name_H-M   'P 1'
_cell_length_a   8.54711780
_cell_length_b   8.54711780
_cell_length_c   8.54711780
_cell_angle_alpha   60.00000000
_cell_angle_beta   60.00000000
_cell_angle_gamma   60.00000000
_symmetry_Int_Tables_number   1
_chemical_formula_structural   Ni3B7BrO13
_chemical_formula_sum   'Ni6 B14 Br2 O26'
_cell_volume   441.51358566
_cell_formula_units_Z   2
loop_
 _symmetry_equiv_pos_site_id
 _symmetry_equiv_pos_as_xyz
  1  'x, y, z'
loop_
 _atom_site_type_symbol
 _atom_site_label
 _atom_site_symmetry_multiplicity
 _atom_site_fract_x
 _atom_site_fract_y
 _atom_site_fract_z
 _atom_site_occupancy
  Ni  Ni0  1  0.50000000  -0.00000000  0.00000000  1.0
  Ni  Ni1  1  1.00000000  0.50000000  -0.50000000  1.0
  Ni  Ni2  1  -0.50000000  0.50000000  1.00000000  1.0
  Ni  Ni3  1  -0.00000000  0.50000000  0.00000000  1.0
  Ni  Ni4  1  -0.00000000  0.00000000  0.50000000  1.0
  Ni  Ni5  1  0.50000000  1.00000000  -0.50000000  1.0
  B  B6  1  0.91931093  0.91931093  -0.08068907  1.0
  B  B7  1  0.41931093  1.41931093  0.41931093  1.0
  B  B8  1  0.24206721  0.91931093  -0.08068907  1.0
  B  B9  1  -0.25793279  0.41931093  0.41931093  1.0
  B  B10  1  0.91931093  0.91931093  -0.75793279  1.0
  B  B11  1  0.41931093  1.41931093  -0.25793279  1.0
  B  B12  1  0.91931093  0.24206721  -0.08068907  1.0
  B  B13  1  0.41931093  -0.25793279  0.41931093  1.0
  B  B14  1  -0.75000000  0.75000000  0.75000000  1.0
  B  B15  1  -0.25000000  0.25000000  0.25000000  1.0
  B  B16  1  0.25000000  1.25000000  -0.25000000  1.0
  B  B17  1  -0.25000000  0.25000000  0.75000000  1.0
  B  B18  1  -0.25000000  0.75000000  0.25000000  1.0
  B  B19  1  0.25000000  -0.25000000  0.25000000  1.0
  Br  Br20  1  0.75000000  0.75000000  -0.25000000  1.0
  Br  Br21  1  0.25000000  0.25000000  0.25000000  1.0
  O  O22  1  0.74000828  1.06380978  -0.10067752  1.0
  O  O23  1  0.24000828  1.39932248  0.56380978  1.0
  O  O24  1  -0.70314053  0.89932248  1.06380978  1.0
  O  O25  1  -0.20314053  0.56380978  0.39932248  1.0
  O  O26  1  0.39932248  1.56380978  0.24000828  1.0
  O  O27  1  -0.10067752  0.74000828  1.06380978  1.0
  O  O28  1  -0.20314053  0.24000828  0.56380978  1.0
  O  O29  1  0.29685947  1.06380978  -0.25999172  1.0
  O  O30  1  1.06380978  0.89932248  -0.25999172  1.0
  O  O31  1  0.56380978  1.24000828  0.39932248  1.0
  O  O32  1  -0.70314053  0.74000828  0.89932248  1.0
  O  O33  1  -0.20314053  0.39932248  0.24000828  1.0
  O  O34  1  1.06380978  0.74000828  -0.70314053  1.0
  O  O35  1  0.39932248  1.24000828  -0.20314053  1.0
  O  O36  1  -0.10067752  0.29685947  0.74000828  1.0
  O  O37  1  0.56380978  -0.20314053  0.24000828  1.0
  O  O38  1  0.56380978  1.39932248  -0.20314053  1.0
  O  O39  1  -0.25999172  0.89932248  0.29685947  1.0
  O  O40  1  0.24000828  -0.20314053  0.39932248  1.0
  O  O41  1  1.06380978  0.29685947  -0.10067752  1.0
  O  O42  1  0.89932248  1.06380978  -0.70314053  1.0
  O  O43  1  0.24000828  1.56380978  -0.20314053  1.0
  O  O44  1  -0.25999172  0.29685947  1.06380978  1.0
  O  O45  1  0.39932248  -0.20314053  0.56380978  1.0
  O  O46  1  0.00000000  0.00000000  0.00000000  1.0
  O  O47  1  -0.50000000  0.50000000  0.50000000  1.0
