# generated using pymatgen
data_Sr2GaCuSO3
_symmetry_space_group_name_H-M   'P 1'
_cell_length_a   3.90085756
_cell_length_b   3.90085756
_cell_length_c   15.80686709
_cell_angle_alpha   90.00000000
_cell_angle_beta   90.00000000
_cell_angle_gamma   90.00000000
_symmetry_Int_Tables_number   1
_chemical_formula_structural   Sr2GaCuSO3
_chemical_formula_sum   'Sr4 Ga2 Cu2 S2 O6'
_cell_volume   240.52819170
_cell_formula_units_Z   2
loop_
 _symmetry_equiv_pos_site_id
 _symmetry_equiv_pos_as_xyz
  1  'x, y, z'
loop_
 _atom_site_type_symbol
 _atom_site_label
 _atom_site_symmetry_multiplicity
 _atom_site_fract_x
 _atom_site_fract_y
 _atom_site_fract_z
 _atom_site_occupancy
  Sr  Sr0  1  0.50000000  0.00000000  0.58678199  1.0
  Sr  Sr1  1  0.00000000  0.50000000  0.41321801  1.0
  Sr  Sr2  1  0.50000000  0.00000000  0.81646212  1.0
  Sr  Sr3  1  0.00000000  0.50000000  0.18353788  1.0
  Ga  Ga4  1  0.50000000  0.00000000  0.31127856  1.0
  Ga  Ga5  1  0.00000000  0.50000000  0.68872144  1.0
  Cu  Cu6  1  0.00000000  0.00000000  0.00000000  1.0
  Cu  Cu7  1  0.50000000  0.50000000  0.00000000  1.0
  S  S8  1  0.50000000  0.00000000  0.08998268  1.0
  S  S9  1  0.00000000  0.50000000  0.91001732  1.0
  O  O10  1  0.00000000  0.00000000  0.28725798  1.0
  O  O11  1  0.50000000  0.50000000  0.71274202  1.0
  O  O12  1  0.50000000  0.50000000  0.28725798  1.0
  O  O13  1  0.00000000  0.00000000  0.71274202  1.0
  O  O14  1  0.50000000  0.00000000  0.43141452  1.0
  O  O15  1  0.00000000  0.50000000  0.56858548  1.0
