# generated using pymatgen
data_CaAl2(SiO4)3
_symmetry_space_group_name_H-M   'P 1'
_cell_length_a   9.67940162
_cell_length_b   9.67940162
_cell_length_c   9.85337562
_cell_angle_alpha   82.85402999
_cell_angle_beta   97.14597001
_cell_angle_gamma   39.99775579
_symmetry_Int_Tables_number   1
_chemical_formula_structural   CaAl2(SiO4)3
_chemical_formula_sum   'Ca2 Al4 Si6 O24'
_cell_volume   552.73058982
_cell_formula_units_Z   2
loop_
 _symmetry_equiv_pos_site_id
 _symmetry_equiv_pos_as_xyz
  1  'x, y, z'
loop_
 _atom_site_type_symbol
 _atom_site_label
 _atom_site_symmetry_multiplicity
 _atom_site_fract_x
 _atom_site_fract_y
 _atom_site_fract_z
 _atom_site_occupancy
  O  O0  1  0.89193620  -0.05677574  0.48694567  1.0
  O  O1  1  0.05677574  0.10806380  -0.01305433  1.0
  O  O2  1  1.02188007  -0.06937036  0.75710495  1.0
  O  O3  1  0.06937036  -0.02188007  0.25710495  1.0
  O  O4  1  1.04547320  -0.16041936  0.06121657  1.0
  O  O5  1  0.16041936  -0.04547320  0.56121657  1.0
  O  O6  1  1.02523426  -0.36182546  0.87916238  1.0
  O  O7  1  0.36182546  -0.02523426  0.37916238  1.0
  O  O8  1  0.94900221  -0.56815165  0.81352503  1.0
  O  O9  1  0.56815165  0.05099779  0.31352503  1.0
  O  O10  1  1.32416690  -0.43300861  0.67084256  1.0
  O  O11  1  0.43300861  -0.32416690  0.17084256  1.0
  O  O12  1  1.19598950  -0.60080314  0.69609552  1.0
  O  O13  1  0.60080314  -0.19598950  0.19609552  1.0
  O  O14  1  1.12799783  -0.49185396  0.34903449  1.0
  O  O15  1  0.49185396  -0.12799783  0.84903449  1.0
  O  O16  1  0.74453035  -0.55877037  0.51769352  1.0
  O  O17  1  0.55877037  0.25546965  0.01769352  1.0
  O  O18  1  0.63457539  0.12728277  0.82693469  1.0
  O  O19  1  0.87271723  -0.63457539  0.32693469  1.0
  O  O20  1  1.19358094  -0.74511763  0.11851906  1.0
  O  O21  1  0.74511763  -0.19358094  0.61851906  1.0
  O  O22  1  0.45746216  0.27887816  0.53762733  1.0
  O  O23  1  0.72112184  -0.45746216  0.03762733  1.0
  Al  Al24  1  0.93777765  -0.12515737  0.88242949  1.0
  Al  Al25  1  0.12515737  0.06222235  0.38242949  1.0
  Al  Al26  1  0.97363207  -0.65164627  -0.00584979  1.0
  Al  Al27  1  0.65164627  0.02636793  0.49415021  1.0
  Ca  Ca28  1  1.08178185  -0.86865595  0.74510853  1.0
  Ca  Ca29  1  0.86865595  -0.08178185  0.24510853  1.0
  Si  Si30  1  1.09809380  -0.15441768  0.61723283  1.0
  Si  Si31  1  0.15441768  -0.09809380  0.11723283  1.0
  Si  Si32  1  0.97363857  -0.42314716  0.75298244  1.0
  Si  Si33  1  0.42314716  0.02636143  0.25298244  1.0
  Si  Si34  1  0.40124774  0.34336044  0.68519472  1.0
  Si  Si35  1  0.65663956  -0.40124774  0.18519472  1.0
