# generated using pymatgen
data_YZnRh
_symmetry_space_group_name_H-M   'P 1'
_cell_length_a   6.94768933
_cell_length_b   4.06856769
_cell_length_c   8.07894987
_cell_angle_alpha   90.00000000
_cell_angle_beta   90.00000000
_cell_angle_gamma   90.00000000
_symmetry_Int_Tables_number   1
_chemical_formula_structural   YZnRh
_chemical_formula_sum   'Y4 Zn4 Rh4'
_cell_volume   228.36884242
_cell_formula_units_Z   4
loop_
 _symmetry_equiv_pos_site_id
 _symmetry_equiv_pos_as_xyz
  1  'x, y, z'
loop_
 _atom_site_type_symbol
 _atom_site_label
 _atom_site_symmetry_multiplicity
 _atom_site_fract_x
 _atom_site_fract_y
 _atom_site_fract_z
 _atom_site_occupancy
  Y  Y0  1  0.96416708  0.75000000  0.68485544  1.0
  Y  Y1  1  0.46416708  0.75000000  0.81514456  1.0
  Y  Y2  1  0.03583292  0.25000000  0.31514456  1.0
  Y  Y3  1  0.53583292  0.25000000  0.18485544  1.0
  Zn  Zn4  1  0.85990785  0.75000000  0.06499566  1.0
  Zn  Zn5  1  0.35990785  0.75000000  0.43500434  1.0
  Zn  Zn6  1  0.14009215  0.25000000  0.93500434  1.0
  Zn  Zn7  1  0.64009215  0.25000000  0.56499566  1.0
  Rh  Rh8  1  0.74183058  0.75000000  0.37871644  1.0
  Rh  Rh9  1  0.24183058  0.75000000  0.12128356  1.0
  Rh  Rh10  1  0.25816942  0.25000000  0.62128356  1.0
  Rh  Rh11  1  0.75816942  0.25000000  0.87871644  1.0
