# generated using pymatgen
data_LuTa5Ag2O15
_symmetry_space_group_name_H-M   'P 1'
_cell_length_a   12.56837818
_cell_length_b   12.56837818
_cell_length_c   3.91534351
_cell_angle_alpha   90.00000000
_cell_angle_beta   90.00000000
_cell_angle_gamma   90.00000000
_symmetry_Int_Tables_number   1
_chemical_formula_structural   LuTa5Ag2O15
_chemical_formula_sum   'Lu2 Ta10 Ag4 O30'
_cell_volume   618.48383051
_cell_formula_units_Z   2
loop_
 _symmetry_equiv_pos_site_id
 _symmetry_equiv_pos_as_xyz
  1  'x, y, z'
loop_
 _atom_site_type_symbol
 _atom_site_label
 _atom_site_symmetry_multiplicity
 _atom_site_fract_x
 _atom_site_fract_y
 _atom_site_fract_z
 _atom_site_occupancy
  Lu  Lu0  1  0.50000000  0.50000000  0.50000000  1.0
  Lu  Lu1  1  0.00000000  0.00000000  0.50000000  1.0
  Ta  Ta2  1  0.42016066  0.70964139  0.00000000  1.0
  Ta  Ta3  1  0.92016066  0.79035861  0.00000000  1.0
  Ta  Ta4  1  0.29035861  0.42016066  0.00000000  1.0
  Ta  Ta5  1  0.79035861  0.07983934  0.00000000  1.0
  Ta  Ta6  1  0.57983934  0.29035861  0.00000000  1.0
  Ta  Ta7  1  0.07983934  0.20964139  0.00000000  1.0
  Ta  Ta8  1  0.70964139  0.57983934  0.00000000  1.0
  Ta  Ta9  1  0.20964139  0.92016066  0.00000000  1.0
  Ta  Ta10  1  0.50000000  0.00000000  0.00000000  1.0
  Ta  Ta11  1  0.00000000  0.50000000  0.00000000  1.0
  Ag  Ag12  1  0.33906285  0.16093715  0.50000000  1.0
  Ag  Ag13  1  0.83906285  0.33906285  0.50000000  1.0
  Ag  Ag14  1  0.66093715  0.83906285  0.50000000  1.0
  Ag  Ag15  1  0.16093715  0.66093715  0.50000000  1.0
  O  O16  1  0.42227837  0.68685221  0.50000000  1.0
  O  O17  1  0.92227837  0.81314779  0.50000000  1.0
  O  O18  1  0.31314779  0.42227837  0.50000000  1.0
  O  O19  1  0.81314779  0.07772163  0.50000000  1.0
  O  O20  1  0.57772163  0.31314779  0.50000000  1.0
  O  O21  1  0.07772163  0.18685221  0.50000000  1.0
  O  O22  1  0.68685221  0.57772163  0.50000000  1.0
  O  O23  1  0.18685221  0.92227837  0.50000000  1.0
  O  O24  1  0.50100312  0.84088537  0.00000000  1.0
  O  O25  1  0.00100312  0.65911463  0.00000000  1.0
  O  O26  1  0.15911463  0.50100312  0.00000000  1.0
  O  O27  1  0.65911463  -0.00100312  0.00000000  1.0
  O  O28  1  0.49899688  0.15911463  0.00000000  1.0
  O  O29  1  -0.00100312  0.34088537  0.00000000  1.0
  O  O30  1  0.84088537  0.49899688  0.00000000  1.0
  O  O31  1  0.34088537  0.00100312  0.00000000  1.0
  O  O32  1  0.37000619  0.55767234  0.00000000  1.0
  O  O33  1  0.87000619  0.94232766  0.00000000  1.0
  O  O34  1  0.44232766  0.37000619  0.00000000  1.0
  O  O35  1  0.94232766  0.12999381  0.00000000  1.0
  O  O36  1  0.62999381  0.44232766  0.00000000  1.0
  O  O37  1  0.12999381  0.05767234  0.00000000  1.0
  O  O38  1  0.55767234  0.62999381  0.00000000  1.0
  O  O39  1  0.05767234  0.87000619  0.00000000  1.0
  O  O40  1  0.77671631  0.72328369  0.00000000  1.0
  O  O41  1  0.27671631  0.77671631  0.00000000  1.0
  O  O42  1  0.22328369  0.27671631  0.00000000  1.0
  O  O43  1  0.72328369  0.22328369  0.00000000  1.0
  O  O44  1  0.50000000  0.00000000  0.50000000  1.0
  O  O45  1  0.00000000  0.50000000  0.50000000  1.0
