# generated using pymatgen
data_V6Si5
_symmetry_space_group_name_H-M   'P 1'
_cell_length_a   8.80075450
_cell_length_b   8.80075450
_cell_length_c   8.80075450
_cell_angle_alpha   147.47495311
_cell_angle_beta   125.70250219
_cell_angle_gamma   64.73958381
_symmetry_Int_Tables_number   1
_chemical_formula_structural   V6Si5
_chemical_formula_sum   'V12 Si10'
_cell_volume   294.27061892
_cell_formula_units_Z   2
loop_
 _symmetry_equiv_pos_site_id
 _symmetry_equiv_pos_as_xyz
  1  'x, y, z'
loop_
 _atom_site_type_symbol
 _atom_site_label
 _atom_site_symmetry_multiplicity
 _atom_site_fract_x
 _atom_site_fract_y
 _atom_site_fract_z
 _atom_site_occupancy
  V  V0  1  0.65115297  0.65115297  1.00000000  1.0
  V  V1  1  0.34884703  0.34884703  -0.00000000  1.0
  V  V2  1  0.00000000  0.24633577  0.24633577  1.0
  V  V3  1  -0.00000000  0.75366423  0.75366423  1.0
  V  V4  1  1.00000000  0.50000000  1.00000000  1.0
  V  V5  1  0.50000000  1.00000000  1.00000000  1.0
  V  V6  1  0.50000000  0.50000000  0.50000000  1.0
  V  V7  1  1.00000000  1.00000000  1.50000000  1.0
  V  V8  1  1.19357418  0.91201854  1.28155564  1.0
  V  V9  1  0.63046290  0.91201854  0.71844436  1.0
  V  V10  1  0.36953710  0.08798146  0.28155564  1.0
  V  V11  1  0.80642582  0.08798146  0.71844436  1.0
  Si  Si12  1  0.83331196  0.83331196  1.00000000  1.0
  Si  Si13  1  0.16668804  0.16668804  -0.00000000  1.0
  Si  Si14  1  0.28718120  0.78718120  0.50000000  1.0
  Si  Si15  1  0.71281880  0.21281880  0.50000000  1.0
  Si  Si16  1  0.50000000  0.25805771  0.75805771  1.0
  Si  Si17  1  0.50000000  0.74194229  1.24194229  1.0
  Si  Si18  1  0.91221271  0.60442745  1.30778526  1.0
  Si  Si19  1  0.29664218  0.60442745  0.69221474  1.0
  Si  Si20  1  0.70335782  0.39557255  0.30778526  1.0
  Si  Si21  1  1.08778729  0.39557255  0.69221474  1.0
