# generated using pymatgen
data_Cs4Al2O
_symmetry_space_group_name_H-M   'P 1'
_cell_length_a   10.95814875
_cell_length_b   10.95814875
_cell_length_c   10.95814875
_cell_angle_alpha   60.00000000
_cell_angle_beta   60.00000000
_cell_angle_gamma   60.00000000
_symmetry_Int_Tables_number   1
_chemical_formula_structural   Cs4Al2O
_chemical_formula_sum   'Cs8 Al4 O2'
_cell_volume   930.45757709
_cell_formula_units_Z   2
loop_
 _symmetry_equiv_pos_site_id
 _symmetry_equiv_pos_as_xyz
  1  'x, y, z'
loop_
 _atom_site_type_symbol
 _atom_site_label
 _atom_site_symmetry_multiplicity
 _atom_site_fract_x
 _atom_site_fract_y
 _atom_site_fract_z
 _atom_site_occupancy
  Cs  Cs0  1  -0.14590754  0.85409246  0.43772263  1.0
  Cs  Cs1  1  0.85409246  -0.56227737  0.85409246  1.0
  Cs  Cs2  1  0.39590754  0.39590754  0.39590754  1.0
  Cs  Cs3  1  -0.18772263  0.39590754  0.39590754  1.0
  Cs  Cs4  1  -0.56227737  0.85409246  0.85409246  1.0
  Cs  Cs5  1  0.85409246  -0.14590754  0.85409246  1.0
  Cs  Cs6  1  0.39590754  -0.18772263  0.39590754  1.0
  Cs  Cs7  1  0.39590754  0.39590754  -0.18772263  1.0
  Al  Al8  1  0.62500000  -0.37500000  1.12500000  1.0
  Al  Al9  1  0.62500000  0.12500000  0.62500000  1.0
  Al  Al10  1  0.62500000  -0.37500000  0.62500000  1.0
  Al  Al11  1  1.12500000  -0.37500000  0.62500000  1.0
  O  O12  1  0.50000000  0.50000000  -0.50000000  1.0
  O  O13  1  0.75000000  -0.25000000  0.75000000  1.0
