# generated using pymatgen
data_PCl5
_symmetry_space_group_name_H-M   'P 1'
_cell_length_a   7.96259603
_cell_length_b   7.96259603
_cell_length_c   11.62501168
_cell_angle_alpha   69.98940198
_cell_angle_beta   110.01059802
_cell_angle_gamma   120.08146832
_symmetry_Int_Tables_number   1
_chemical_formula_structural   PCl5
_chemical_formula_sum   'P3 Cl15'
_cell_volume   585.93207262
_cell_formula_units_Z   3
loop_
 _symmetry_equiv_pos_site_id
 _symmetry_equiv_pos_as_xyz
  1  'x, y, z'
loop_
 _atom_site_type_symbol
 _atom_site_label
 _atom_site_symmetry_multiplicity
 _atom_site_fract_x
 _atom_site_fract_y
 _atom_site_fract_z
 _atom_site_occupancy
  P  P0  1  0.50000000  0.50000000  0.50000000  1.0
  P  P1  1  0.73215032  0.26784968  0.19615401  1.0
  P  P2  1  0.26784968  -0.26784968  0.80384599  1.0
  Cl  Cl3  1  0.66766788  0.33233212  0.61925621  1.0
  Cl  Cl4  1  0.33233212  -0.33233212  0.38074379  1.0
  Cl  Cl5  1  1.33275642  0.28006182  0.38306057  1.0
  Cl  Cl6  1  0.28006182  0.33275642  0.61693943  1.0
  Cl  Cl7  1  0.66724358  0.71993818  0.61693943  1.0
  Cl  Cl8  1  0.71993818  -0.33275642  0.38306057  1.0
  Cl  Cl9  1  0.15426386  -0.15426386  0.86872333  1.0
  Cl  Cl10  1  0.84573614  0.15426386  0.13127667  1.0
  Cl  Cl11  1  0.20652773  -0.20652773  0.62017203  1.0
  Cl  Cl12  1  0.79347227  0.20652773  0.37982797  1.0
  Cl  Cl13  1  1.15400669  0.43984306  0.86865390  1.0
  Cl  Cl14  1  0.43984306  0.15400669  0.13134610  1.0
  Cl  Cl15  1  0.84599331  0.56015694  0.13134610  1.0
  Cl  Cl16  1  0.56015694  -0.15400669  0.86865390  1.0
  Cl  Cl17  1  0.00000000  0.00000000  0.00000000  1.0
