# generated using pymatgen
data_Nb5GaSb2
_symmetry_space_group_name_H-M   'P 1'
_cell_length_a   7.95094790
_cell_length_b   7.95094790
_cell_length_c   7.95094790
_cell_angle_alpha   96.24296645
_cell_angle_beta   96.24296645
_cell_angle_gamma   141.49099511
_symmetry_Int_Tables_number   1
_chemical_formula_structural   Nb5GaSb2
_chemical_formula_sum   'Nb10 Ga2 Sb4'
_cell_volume   295.45620357
_cell_formula_units_Z   2
loop_
 _symmetry_equiv_pos_site_id
 _symmetry_equiv_pos_as_xyz
  1  'x, y, z'
loop_
 _atom_site_type_symbol
 _atom_site_label
 _atom_site_symmetry_multiplicity
 _atom_site_fract_x
 _atom_site_fract_y
 _atom_site_fract_z
 _atom_site_occupancy
  Nb  Nb0  1  0.27929083  0.42796545  0.70725628  1.0
  Nb  Nb1  1  1.22070917  0.92796545  1.14867462  1.0
  Nb  Nb2  1  0.92796545  0.77929083  1.70725628  1.0
  Nb  Nb3  1  0.57203455  1.27929083  0.85132538  1.0
  Nb  Nb4  1  0.77929083  1.07203455  0.85132538  1.0
  Nb  Nb5  1  0.72070917  0.57203455  1.29274372  1.0
  Nb  Nb6  1  1.42796545  0.72070917  1.14867462  1.0
  Nb  Nb7  1  0.07203455  0.22070917  0.29274372  1.0
  Nb  Nb8  1  0.75000000  1.25000000  0.50000000  1.0
  Nb  Nb9  1  0.25000000  0.75000000  0.50000000  1.0
  Ga  Ga10  1  0.25000000  0.25000000  -0.00000000  1.0
  Ga  Ga11  1  0.75000000  0.75000000  -0.00000000  1.0
  Sb  Sb12  1  0.83127240  0.33127240  1.16254480  1.0
  Sb  Sb13  1  0.66872760  0.83127240  0.50000000  1.0
  Sb  Sb14  1  1.33127240  1.16872760  1.50000000  1.0
  Sb  Sb15  1  0.16872760  0.66872760  0.83745520  1.0
