# generated using pymatgen
data_Ni2As2O7
_symmetry_space_group_name_H-M   'P 1'
_cell_length_a   5.39036313
_cell_length_b   5.39036313
_cell_length_c   4.90154622
_cell_angle_alpha   83.93955092
_cell_angle_beta   96.06044908
_cell_angle_gamma   71.57187856
_symmetry_Int_Tables_number   1
_chemical_formula_structural   Ni2As2O7
_chemical_formula_sum   'Ni2 As2 O7'
_cell_volume   132.89576545
_cell_formula_units_Z   1
loop_
 _symmetry_equiv_pos_site_id
 _symmetry_equiv_pos_as_xyz
  1  'x, y, z'
loop_
 _atom_site_type_symbol
 _atom_site_label
 _atom_site_symmetry_multiplicity
 _atom_site_fract_x
 _atom_site_fract_y
 _atom_site_fract_z
 _atom_site_occupancy
  Ni  Ni0  1  0.68793095  -0.31206905  0.00000000  1.0
  Ni  Ni1  1  1.31206905  0.31206905  0.00000000  1.0
  As  As2  1  0.75008906  -0.75008906  0.60987363  1.0
  As  As3  1  0.24991094  -0.24991094  0.39012637  1.0
  O  O4  1  1.58928717  0.06636760  0.79225835  1.0
  O  O5  1  0.93363240  -0.58928717  0.79225835  1.0
  O  O6  1  1.06636760  0.58928717  0.20774165  1.0
  O  O7  1  0.41071283  -0.06636760  0.20774165  1.0
  O  O8  1  0.00000000  -0.00000000  0.50000000  1.0
  O  O9  1  0.41702529  -0.41702529  0.72765708  1.0
  O  O10  1  0.58297471  -0.58297471  0.27234292  1.0
