# generated using pymatgen
data_Si
_symmetry_space_group_name_H-M   'P 1'
_cell_length_a   9.46202904
_cell_length_b   9.46202904
_cell_length_c   3.89797139
_cell_angle_alpha   90.00000000
_cell_angle_beta   90.00000000
_cell_angle_gamma   120.00000000
_symmetry_Int_Tables_number   1
_chemical_formula_structural   Si
_chemical_formula_sum   Si12
_cell_volume   302.23018173
_cell_formula_units_Z   12
loop_
 _symmetry_equiv_pos_site_id
 _symmetry_equiv_pos_as_xyz
  1  'x, y, z'
loop_
 _atom_site_type_symbol
 _atom_site_label
 _atom_site_symmetry_multiplicity
 _atom_site_fract_x
 _atom_site_fract_y
 _atom_site_fract_z
 _atom_site_occupancy
  Si  Si0  1  0.91750695  0.33122178  0.25000000  1.0
  Si  Si1  1  0.66877822  0.58628517  0.25000000  1.0
  Si  Si2  1  0.41371483  0.08249305  0.25000000  1.0
  Si  Si3  1  0.66877822  0.08249305  0.25000000  1.0
  Si  Si4  1  0.41371483  0.33122178  0.25000000  1.0
  Si  Si5  1  0.91750695  0.58628517  0.25000000  1.0
  Si  Si6  1  0.08249305  0.66877822  0.75000000  1.0
  Si  Si7  1  0.33122178  0.41371483  0.75000000  1.0
  Si  Si8  1  0.58628517  0.91750695  0.75000000  1.0
  Si  Si9  1  0.33122178  0.91750695  0.75000000  1.0
  Si  Si10  1  0.58628517  0.66877822  0.75000000  1.0
  Si  Si11  1  0.08249305  0.41371483  0.75000000  1.0
