# generated using pymatgen
data_Ba2FeSbS5
_symmetry_space_group_name_H-M   'P 1'
_cell_length_a   12.21292996
_cell_length_b   8.87944213
_cell_length_c   9.07899329
_cell_angle_alpha   90.00000000
_cell_angle_beta   90.00000000
_cell_angle_gamma   90.00000000
_symmetry_Int_Tables_number   1
_chemical_formula_structural   Ba2FeSbS5
_chemical_formula_sum   'Ba8 Fe4 Sb4 S20'
_cell_volume   984.56239268
_cell_formula_units_Z   4
loop_
 _symmetry_equiv_pos_site_id
 _symmetry_equiv_pos_as_xyz
  1  'x, y, z'
loop_
 _atom_site_type_symbol
 _atom_site_label
 _atom_site_symmetry_multiplicity
 _atom_site_fract_x
 _atom_site_fract_y
 _atom_site_fract_z
 _atom_site_occupancy
  Fe  Fe0  1  0.40474725  0.75000000  0.67313516  1.0
  Fe  Fe1  1  0.90474725  0.75000000  0.82686484  1.0
  Fe  Fe2  1  0.59525275  0.25000000  0.32686484  1.0
  Fe  Fe3  1  0.09525275  0.25000000  0.17313516  1.0
  Sb  Sb4  1  0.47830012  0.75000000  0.01642070  1.0
  Sb  Sb5  1  0.97830012  0.75000000  0.48357930  1.0
  Sb  Sb6  1  0.52169988  0.25000000  0.98357930  1.0
  Sb  Sb7  1  0.02169988  0.25000000  0.51642070  1.0
  Ba  Ba8  1  0.17620134  0.99342934  0.87779374  1.0
  Ba  Ba9  1  0.17620134  0.50657066  0.87779374  1.0
  Ba  Ba10  1  0.67620134  0.99342934  0.62220626  1.0
  Ba  Ba11  1  0.67620134  0.50657066  0.62220626  1.0
  Ba  Ba12  1  0.82379866  0.49342934  0.12220626  1.0
  Ba  Ba13  1  0.82379866  0.00657066  0.12220626  1.0
  Ba  Ba14  1  0.32379866  0.49342934  0.37779374  1.0
  Ba  Ba15  1  0.32379866  0.00657066  0.37779374  1.0
  S  S16  1  0.29029761  0.75000000  0.11622444  1.0
  S  S17  1  0.79029761  0.75000000  0.38377556  1.0
  S  S18  1  0.70970239  0.25000000  0.88377556  1.0
  S  S19  1  0.20970239  0.25000000  0.61622444  1.0
  S  S20  1  0.00612906  0.75000000  0.02814846  1.0
  S  S21  1  0.50612906  0.75000000  0.47185154  1.0
  S  S22  1  0.99387094  0.25000000  0.97185154  1.0
  S  S23  1  0.49387094  0.25000000  0.52814846  1.0
  S  S24  1  0.22689214  0.75000000  0.61563227  1.0
  S  S25  1  0.72689214  0.75000000  0.88436773  1.0
  S  S26  1  0.77310786  0.25000000  0.38436773  1.0
  S  S27  1  0.27310786  0.25000000  0.11563227  1.0
  S  S28  1  0.44481880  0.95214453  0.82074659  1.0
  S  S29  1  0.44481880  0.54785547  0.82074659  1.0
  S  S30  1  0.94481880  0.95214453  0.67925341  1.0
  S  S31  1  0.94481880  0.54785547  0.67925341  1.0
  S  S32  1  0.55518120  0.45214453  0.17925341  1.0
  S  S33  1  0.55518120  0.04785547  0.17925341  1.0
  S  S34  1  0.05518120  0.45214453  0.32074659  1.0
  S  S35  1  0.05518120  0.04785547  0.32074659  1.0
