# generated using pymatgen
data_SiAs
_symmetry_space_group_name_H-M   'P 1'
_cell_length_a   9.01000300
_cell_length_b   9.01000300
_cell_length_c   10.20646161
_cell_angle_alpha   68.37255963
_cell_angle_beta   111.62744037
_cell_angle_gamma   156.33278684
_symmetry_Int_Tables_number   1
_chemical_formula_structural   SiAs
_chemical_formula_sum   'Si6 As6'
_cell_volume   308.12046871
_cell_formula_units_Z   6
loop_
 _symmetry_equiv_pos_site_id
 _symmetry_equiv_pos_as_xyz
  1  'x, y, z'
loop_
 _atom_site_type_symbol
 _atom_site_label
 _atom_site_symmetry_multiplicity
 _atom_site_fract_x
 _atom_site_fract_y
 _atom_site_fract_z
 _atom_site_occupancy
  Si  Si0  1  0.86347959  0.13652041  0.59003237  1.0
  Si  Si1  1  0.13652041  -0.13652041  0.40996763  1.0
  Si  Si2  1  0.76856061  0.23143939  0.70072285  1.0
  Si  Si3  1  0.23143939  -0.23143939  0.29927715  1.0
  Si  Si4  1  0.43488971  -0.43488971  0.90798145  1.0
  Si  Si5  1  0.56511029  0.43488971  0.09201855  1.0
  As  As6  1  0.85716635  0.14283365  0.94528245  1.0
  As  As7  1  0.14283365  -0.14283365  0.05471755  1.0
  As  As8  1  0.82455886  0.17544114  0.33796189  1.0
  As  As9  1  0.17544114  -0.17544114  0.66203811  1.0
  As  As10  1  0.45528301  -0.45528301  0.68571524  1.0
  As  As11  1  0.54471699  0.45528301  0.31428476  1.0
