# generated using pymatgen
data_PSe
_symmetry_space_group_name_H-M   'P 1'
_cell_length_a   12.54816862
_cell_length_b   7.42682598
_cell_length_c   13.17413895
_cell_angle_alpha   90.00000000
_cell_angle_beta   117.76346937
_cell_angle_gamma   90.00000000
_symmetry_Int_Tables_number   1
_chemical_formula_structural   PSe
_chemical_formula_sum   'P16 Se16'
_cell_volume   1086.39887531
_cell_formula_units_Z   16
loop_
 _symmetry_equiv_pos_site_id
 _symmetry_equiv_pos_as_xyz
  1  'x, y, z'
loop_
 _atom_site_type_symbol
 _atom_site_label
 _atom_site_symmetry_multiplicity
 _atom_site_fract_x
 _atom_site_fract_y
 _atom_site_fract_z
 _atom_site_occupancy
  P  P0  1  0.33123688  0.21598423  0.42417062  1.0
  P  P1  1  0.33123688  0.28401577  0.92417062  1.0
  P  P2  1  0.66876312  0.71598423  0.07582938  1.0
  P  P3  1  0.66876312  0.78401577  0.57582938  1.0
  P  P4  1  0.73197856  0.51296190  0.33062124  1.0
  P  P5  1  0.73197856  -0.01296190  0.83062124  1.0
  P  P6  1  0.26802144  1.01296190  0.16937876  1.0
  P  P7  1  0.26802144  0.48703810  0.66937876  1.0
  P  P8  1  0.80994997  0.89155686  0.20368833  1.0
  P  P9  1  0.80994997  0.60844314  0.70368833  1.0
  P  P10  1  0.19005003  0.39155686  0.29631168  1.0
  P  P11  1  0.19005003  0.10844314  0.79631168  1.0
  P  P12  1  0.82166289  0.33517878  0.25892314  1.0
  P  P13  1  0.82166289  0.16482122  0.75892314  1.0
  P  P14  1  0.17833711  0.83517878  0.24107686  1.0
  P  P15  1  0.17833711  0.66482122  0.74107686  1.0
  Se  Se16  1  0.67766914  0.11067572  0.20002534  1.0
  Se  Se17  1  0.67766914  0.38932428  0.70002534  1.0
  Se  Se18  1  0.32233086  0.61067572  0.29997466  1.0
  Se  Se19  1  0.32233086  0.88932428  0.79997466  1.0
  Se  Se20  1  0.79382054  0.48115351  0.09345793  1.0
  Se  Se21  1  0.79382054  0.01884649  0.59345793  1.0
  Se  Se22  1  0.20617946  0.98115351  0.40654207  1.0
  Se  Se23  1  0.20617946  0.51884649  0.90654207  1.0
  Se  Se24  1  0.87004860  0.74023011  0.37479236  1.0
  Se  Se25  1  0.87004860  0.75976989  0.87479236  1.0
  Se  Se26  1  0.12995140  0.24023011  0.12520764  1.0
  Se  Se27  1  0.12995140  0.25976989  0.62520764  1.0
  Se  Se28  1  0.43111524  0.11863682  0.32780912  1.0
  Se  Se29  1  0.43111524  0.38136318  0.82780912  1.0
  Se  Se30  1  0.56888476  0.61863682  0.17219088  1.0
  Se  Se31  1  0.56888476  0.88136318  0.67219088  1.0
