# generated using pymatgen
data_Li2Sb
_symmetry_space_group_name_H-M   'P 1'
_cell_length_a   7.92796155
_cell_length_b   7.92796155
_cell_length_c   3.25169559
_cell_angle_alpha   90.00000000
_cell_angle_beta   90.00000000
_cell_angle_gamma   120.00000000
_symmetry_Int_Tables_number   1
_chemical_formula_structural   Li2Sb
_chemical_formula_sum   'Li6 Sb3'
_cell_volume   176.99605432
_cell_formula_units_Z   3
loop_
 _symmetry_equiv_pos_site_id
 _symmetry_equiv_pos_as_xyz
  1  'x, y, z'
loop_
 _atom_site_type_symbol
 _atom_site_label
 _atom_site_symmetry_multiplicity
 _atom_site_fract_x
 _atom_site_fract_y
 _atom_site_fract_z
 _atom_site_occupancy
  Li  Li0  1  0.70786429  0.70786429  0.50000000  1.0
  Li  Li1  1  0.00000000  0.29213571  0.50000000  1.0
  Li  Li2  1  0.29213571  0.00000000  0.50000000  1.0
  Li  Li3  1  0.36801999  0.36801999  0.00000000  1.0
  Li  Li4  1  -0.00000000  0.63198001  0.00000000  1.0
  Li  Li5  1  0.63198001  0.00000000  0.00000000  1.0
  Sb  Sb6  1  0.33333333  0.66666667  0.50000000  1.0
  Sb  Sb7  1  0.66666667  0.33333333  0.50000000  1.0
  Sb  Sb8  1  0.00000000  0.00000000  0.00000000  1.0
