# generated using pymatgen
data_H7C3(NO)7
_symmetry_space_group_name_H-M   'P 1'
_cell_length_a   10.28020360
_cell_length_b   7.13896574
_cell_length_c   7.30199885
_cell_angle_alpha   110.39449160
_cell_angle_beta   92.25791872
_cell_angle_gamma   93.48715415
_symmetry_Int_Tables_number   1
_chemical_formula_structural   H7C3(NO)7
_chemical_formula_sum   'H14 C6 N14 O14'
_cell_volume   500.31892355
_cell_formula_units_Z   2
loop_
 _symmetry_equiv_pos_site_id
 _symmetry_equiv_pos_as_xyz
  1  'x, y, z'
loop_
 _atom_site_type_symbol
 _atom_site_label
 _atom_site_symmetry_multiplicity
 _atom_site_fract_x
 _atom_site_fract_y
 _atom_site_fract_z
 _atom_site_occupancy
  H  H0  1  -0.38666334  -0.66146805  -0.99393612  1.0
  H  H1  1  -0.61333666  -0.33853195  -0.00606388  1.0
  H  H2  1  -0.26227041  -0.54835639  -0.82231934  1.0
  H  H3  1  -0.73772959  -0.45164361  -0.17768066  1.0
  H  H4  1  -0.41514615  -0.46868709  -0.78923558  1.0
  H  H5  1  -0.58485385  -0.53131291  -0.21076442  1.0
  H  H6  1  -0.37882127  -0.69312025  -0.77355500  1.0
  H  H7  1  -0.62117873  -0.30687975  -0.22644500  1.0
  H  H8  1  -0.58481188  -0.24994119  -0.64941450  1.0
  H  H9  1  -0.41518812  -0.75005881  -0.35058550  1.0
  H  H10  1  -0.52795806  -0.86083001  -0.28107987  1.0
  H  H11  1  -0.47204194  -0.13916999  -0.71892013  1.0
  H  H12  1  -0.97642247  -0.83042215  -0.26541486  1.0
  H  H13  1  -0.02357753  -0.16957785  -0.73458514  1.0
  C  C14  1  -0.82369569  -0.84339059  -0.76516419  1.0
  C  C15  1  -0.17630431  -0.15660941  -0.23483581  1.0
  C  C16  1  -0.93548123  -0.73388652  -0.74417774  1.0
  C  C17  1  -0.06451877  -0.26611348  -0.25582226  1.0
  C  C18  1  -0.03869987  -0.86688135  -0.72433771  1.0
  C  C19  1  -0.96130013  -0.13311865  -0.27566229  1.0
  N  N20  1  -0.36033442  -0.59259150  -0.84459598  1.0
  N  N21  1  -0.63966558  -0.40740850  -0.15540402  1.0
  N  N22  1  -0.68732794  -0.77653152  -0.76756099  1.0
  N  N23  1  -0.31267206  -0.22346848  -0.23243901  1.0
  N  N24  1  -0.85002456  -0.02538596  -0.76294443  1.0
  N  N25  1  -0.14997544  -0.97461404  -0.23705557  1.0
  N  N26  1  -0.94249373  -0.54648596  -0.76605486  1.0
  N  N27  1  -0.05750627  -0.45351404  -0.23394514  1.0
  N  N28  1  -0.97956935  -0.03855996  -0.73994317  1.0
  N  N29  1  -0.02043065  -0.96144004  -0.26005683  1.0
  N  N30  1  -0.16347335  -0.82036729  -0.69424116  1.0
  N  N31  1  -0.83652665  -0.17963271  -0.30575884  1.0
  N  N32  1  -0.24931889  -0.96218747  -0.68384775  1.0
  N  N33  1  -0.75068111  -0.03781253  -0.31615225  1.0
  O  O34  1  -0.62350707  -0.88344581  -0.89747860  1.0
  O  O35  1  -0.37649293  -0.11655419  -0.10252140  1.0
  O  O36  1  -0.84632809  -0.47980878  -0.82841773  1.0
  O  O37  1  -0.15367191  -0.52019122  -0.17158227  1.0
  O  O38  1  -0.52804395  -0.26670364  -0.75741025  1.0
  O  O39  1  -0.47195605  -0.73329636  -0.24258975  1.0
  O  O40  1  -0.64492963  -0.62006162  -0.63644960  1.0
  O  O41  1  -0.35507037  -0.37993838  -0.36355040  1.0
  O  O42  1  -0.36501228  -0.90870396  -0.65009245  1.0
  O  O43  1  -0.63498772  -0.09129604  -0.34990755  1.0
  O  O44  1  -0.77730570  -0.86278753  -0.29420550  1.0
  O  O45  1  -0.22269430  -0.13721247  -0.70579450  1.0
  O  O46  1  -0.95589568  -0.54399070  -0.27554920  1.0
  O  O47  1  -0.04410432  -0.45600930  -0.72445080  1.0
