# generated using pymatgen
data_KIn4
_symmetry_space_group_name_H-M   'P 1'
_cell_length_a   7.32534907
_cell_length_b   7.32534907
_cell_length_c   7.32534907
_cell_angle_alpha   140.49921608
_cell_angle_beta   140.49921608
_cell_angle_gamma   57.09608899
_symmetry_Int_Tables_number   1
_chemical_formula_structural   KIn4
_chemical_formula_sum   'K1 In4'
_cell_volume   157.71806868
_cell_formula_units_Z   1
loop_
 _symmetry_equiv_pos_site_id
 _symmetry_equiv_pos_as_xyz
  1  'x, y, z'
loop_
 _atom_site_type_symbol
 _atom_site_label
 _atom_site_symmetry_multiplicity
 _atom_site_fract_x
 _atom_site_fract_y
 _atom_site_fract_z
 _atom_site_occupancy
  K  K0  1  0.00000000  0.00000000  0.00000000  1.0
  In  In1  1  0.61265715  0.61265715  1.00000000  1.0
  In  In2  1  0.38734285  0.38734285  0.00000000  1.0
  In  In3  1  0.25000000  0.75000000  0.50000000  1.0
  In  In4  1  0.75000000  0.25000000  0.50000000  1.0
