# generated using pymatgen
data_Li7Br3O2
_symmetry_space_group_name_H-M   'P 1'
_cell_length_a   11.27981215
_cell_length_b   11.27981215
_cell_length_c   11.27981215
_cell_angle_alpha   159.77930550
_cell_angle_beta   159.77930550
_cell_angle_gamma   28.74884060
_symmetry_Int_Tables_number   1
_chemical_formula_structural   Li7Br3O2
_chemical_formula_sum   'Li7 Br3 O2'
_cell_volume   171.36684006
_cell_formula_units_Z   1
loop_
 _symmetry_equiv_pos_site_id
 _symmetry_equiv_pos_as_xyz
  1  'x, y, z'
loop_
 _atom_site_type_symbol
 _atom_site_label
 _atom_site_symmetry_multiplicity
 _atom_site_fract_x
 _atom_site_fract_y
 _atom_site_fract_z
 _atom_site_occupancy
  Li  Li0  1  0.40774588  0.90774588  0.50000000  1.0
  Li  Li1  1  0.59225412  0.09225412  0.50000000  1.0
  Li  Li2  1  0.90774588  0.40774588  0.50000000  1.0
  Li  Li3  1  0.09225412  0.59225412  0.50000000  1.0
  Li  Li4  1  0.82211231  0.82211231  1.00000000  1.0
  Li  Li5  1  0.17788769  0.17788769  0.00000000  1.0
  Li  Li6  1  0.00000000  0.00000000  0.00000000  1.0
  Br  Br7  1  0.68815867  0.68815867  1.00000000  1.0
  Br  Br8  1  0.31184133  0.31184133  0.00000000  1.0
  Br  Br9  1  0.50000000  0.50000000  1.00000000  1.0
  O  O10  1  0.90889569  0.90889569  1.00000000  1.0
  O  O11  1  0.09110431  0.09110431  0.00000000  1.0
