# generated using pymatgen
data_Na3FeS3
_symmetry_space_group_name_H-M   'P 1'
_cell_length_a   12.54091576
_cell_length_b   6.92190148
_cell_length_c   14.26345387
_cell_angle_alpha   90.00000000
_cell_angle_beta   149.81169178
_cell_angle_gamma   90.00000000
_symmetry_Int_Tables_number   1
_chemical_formula_structural   Na3FeS3
_chemical_formula_sum   'Na12 Fe4 S12'
_cell_volume   622.60451933
_cell_formula_units_Z   4
loop_
 _symmetry_equiv_pos_site_id
 _symmetry_equiv_pos_as_xyz
  1  'x, y, z'
loop_
 _atom_site_type_symbol
 _atom_site_label
 _atom_site_symmetry_multiplicity
 _atom_site_fract_x
 _atom_site_fract_y
 _atom_site_fract_z
 _atom_site_occupancy
  S  S0  1  0.20565105  0.74178969  0.63495994  1.0
  S  S1  1  0.79434895  0.24178969  0.86504006  1.0
  S  S2  1  0.79434895  0.25821031  0.36504006  1.0
  S  S3  1  0.20565105  0.75821031  0.13495994  1.0
  S  S4  1  0.20788797  0.21777291  0.42895153  1.0
  S  S5  1  0.79211203  0.71777291  0.07104847  1.0
  S  S6  1  0.79211203  0.78222709  0.57104847  1.0
  S  S7  1  0.20788797  0.28222709  0.92895153  1.0
  S  S8  1  0.51199189  0.79596162  0.58746172  1.0
  S  S9  1  0.48800811  0.29596162  0.91253828  1.0
  S  S10  1  0.48800811  0.20403838  0.41253828  1.0
  S  S11  1  0.51199189  0.70403838  0.08746172  1.0
  Fe  Fe12  1  0.49882044  0.62237027  0.92542949  1.0
  Fe  Fe13  1  0.50117956  0.12237027  0.57457051  1.0
  Fe  Fe14  1  0.50117956  0.37762973  0.07457051  1.0
  Fe  Fe15  1  0.49882044  0.87762973  0.42542949  1.0
  Na  Na16  1  0.48881907  0.00553096  0.77110834  1.0
  Na  Na17  1  0.51118093  0.50553096  0.72889166  1.0
  Na  Na18  1  0.51118093  0.99446904  0.22889166  1.0
  Na  Na19  1  0.48881907  0.49446904  0.27110834  1.0
  Na  Na20  1  0.03775067  0.98142655  0.15482934  1.0
  Na  Na21  1  0.96224933  0.48142655  0.34517066  1.0
  Na  Na22  1  0.96224933  0.01857345  0.84517066  1.0
  Na  Na23  1  0.03775067  0.51857345  0.65482934  1.0
  Na  Na24  1  0.88488751  0.98142470  0.29013879  1.0
  Na  Na25  1  0.11511249  0.48142470  0.20986121  1.0
  Na  Na26  1  0.11511249  0.01857530  0.70986121  1.0
  Na  Na27  1  0.88488751  0.51857530  0.79013879  1.0
