# generated using pymatgen
data_Li2Ni12P7
_symmetry_space_group_name_H-M   'P 1'
_cell_length_a   9.01680451
_cell_length_b   9.01680451
_cell_length_c   3.55334674
_cell_angle_alpha   90.00000000
_cell_angle_beta   90.00000000
_cell_angle_gamma   120.00000000
_symmetry_Int_Tables_number   1
_chemical_formula_structural   Li2Ni12P7
_chemical_formula_sum   'Li2 Ni12 P7'
_cell_volume   250.19206300
_cell_formula_units_Z   1
loop_
 _symmetry_equiv_pos_site_id
 _symmetry_equiv_pos_as_xyz
  1  'x, y, z'
loop_
 _atom_site_type_symbol
 _atom_site_label
 _atom_site_symmetry_multiplicity
 _atom_site_fract_x
 _atom_site_fract_y
 _atom_site_fract_z
 _atom_site_occupancy
  Li  Li0  1  -0.00000000  -0.00000000  0.50000000  1.0
  Li  Li1  1  0.66666667  0.33333333  0.00000000  1.0
  Ni  Ni2  1  0.71682240  0.61618038  0.50000000  1.0
  Ni  Ni3  1  0.89935798  0.28317760  0.50000000  1.0
  Ni  Ni4  1  0.38381962  0.10064202  0.50000000  1.0
  Ni  Ni5  1  0.24147931  0.44874212  0.50000000  1.0
  Ni  Ni6  1  0.20726281  0.75852069  0.50000000  1.0
  Ni  Ni7  1  0.55125788  0.79273719  0.50000000  1.0
  Ni  Ni8  1  0.49231894  0.54800567  0.00000000  1.0
  Ni  Ni9  1  0.05568673  0.50768106  -0.00000000  1.0
  Ni  Ni10  1  0.45199433  0.94431327  -0.00000000  1.0
  Ni  Ni11  1  0.27286936  0.23163521  -0.00000000  1.0
  Ni  Ni12  1  0.95876585  0.72713064  0.00000000  1.0
  Ni  Ni13  1  0.76836479  0.04123415  0.00000000  1.0
  P  P14  1  0.45293201  0.37333221  0.50000000  1.0
  P  P15  1  0.92040019  0.54706799  0.50000000  1.0
  P  P16  1  0.62666779  0.07959981  0.50000000  1.0
  P  P17  1  0.03939213  0.24930974  0.00000000  1.0
  P  P18  1  0.20991761  0.96060787  -0.00000000  1.0
  P  P19  1  0.75069026  0.79008239  0.00000000  1.0
  P  P20  1  0.33333333  0.66666667  0.00000000  1.0
