# generated using pymatgen
data_S2NO
_symmetry_space_group_name_H-M   'P 1'
_cell_length_a   4.55334863
_cell_length_b   11.03263006
_cell_length_c   8.36229213
_cell_angle_alpha   108.56742999
_cell_angle_beta   103.06597266
_cell_angle_gamma   93.96918206
_symmetry_Int_Tables_number   1
_chemical_formula_structural   S2NO
_chemical_formula_sum   'S8 N4 O4'
_cell_volume   383.34571229
_cell_formula_units_Z   4
loop_
 _symmetry_equiv_pos_site_id
 _symmetry_equiv_pos_as_xyz
  1  'x, y, z'
loop_
 _atom_site_type_symbol
 _atom_site_label
 _atom_site_symmetry_multiplicity
 _atom_site_fract_x
 _atom_site_fract_y
 _atom_site_fract_z
 _atom_site_occupancy
  S  S0  1  -0.77892201  -0.69242121  -0.32518895  1.0
  S  S1  1  -0.22107799  -0.30757879  -0.67481105  1.0
  S  S2  1  -0.75052333  -0.64625138  -0.96551023  1.0
  S  S3  1  -0.24947667  -0.35374862  -0.03448977  1.0
  S  S4  1  -0.59979423  -0.95568656  -0.73492692  1.0
  S  S5  1  -0.40020577  -0.04431344  -0.26507308  1.0
  S  S6  1  -0.48527407  -0.71694752  -0.79363091  1.0
  S  S7  1  -0.51472593  -0.28305248  -0.20636909  1.0
  N  N8  1  -0.69205793  -0.85978320  -0.83200354  1.0
  N  N9  1  -0.30794207  -0.14021680  -0.16799646  1.0
  N  N10  1  -0.65866231  -0.71933354  -0.15272143  1.0
  N  N11  1  -0.34133769  -0.28066646  -0.84727857  1.0
  O  O12  1  -0.98481430  -0.59430828  -0.32540733  1.0
  O  O13  1  -0.01518570  -0.40569172  -0.67459267  1.0
  O  O14  1  -0.30831307  -0.91908479  -0.59683921  1.0
  O  O15  1  -0.69168693  -0.08091521  -0.40316079  1.0
