# generated using pymatgen
data_AlAgF4
_symmetry_space_group_name_H-M   'P 1'
_cell_length_a   7.24301010
_cell_length_b   7.14433718
_cell_length_c   6.29168227
_cell_angle_alpha   90.00000000
_cell_angle_beta   90.00000000
_cell_angle_gamma   90.00000000
_symmetry_Int_Tables_number   1
_chemical_formula_structural   AlAgF4
_chemical_formula_sum   'Al4 Ag4 F16'
_cell_volume   325.57257659
_cell_formula_units_Z   4
loop_
 _symmetry_equiv_pos_site_id
 _symmetry_equiv_pos_as_xyz
  1  'x, y, z'
loop_
 _atom_site_type_symbol
 _atom_site_label
 _atom_site_symmetry_multiplicity
 _atom_site_fract_x
 _atom_site_fract_y
 _atom_site_fract_z
 _atom_site_occupancy
  Al  Al0  1  0.25001003  0.74994314  -0.00000114  1.0
  Al  Al1  1  0.75001003  0.75005686  0.00000114  1.0
  Al  Al2  1  0.74998997  0.25005686  -0.00000114  1.0
  Al  Al3  1  0.24998997  0.24994314  0.00000114  1.0
  Ag  Ag4  1  0.50000000  0.50000000  0.42459828  1.0
  Ag  Ag5  1  0.00000000  0.00000000  0.57540172  1.0
  Ag  Ag6  1  0.50000000  0.00000000  0.58475799  1.0
  Ag  Ag7  1  0.00000000  0.50000000  0.41524201  1.0
  F  F8  1  0.75232370  0.79679717  0.71799709  1.0
  F  F9  1  0.25232370  0.70320283  0.28200291  1.0
  F  F10  1  0.24767630  0.20320283  0.71799709  1.0
  F  F11  1  0.74767630  0.29679717  0.28200291  1.0
  F  F12  1  0.50000395  0.79177185  1.00594137  1.0
  F  F13  1  0.00000395  0.70822815  -0.00594137  1.0
  F  F14  1  0.49999605  0.20822815  1.00594137  1.0
  F  F15  1  -0.00000395  0.29177185  -0.00594137  1.0
  F  F16  1  0.29081661  0.49995495  0.94214699  1.0
  F  F17  1  0.79081661  0.00004505  0.05785301  1.0
  F  F18  1  0.70918339  0.50004505  0.94214699  1.0
  F  F19  1  0.20918339  -0.00004505  0.05785301  1.0
  F  F20  1  0.24773154  0.79668093  0.71799041  1.0
  F  F21  1  0.74773154  0.70331907  0.28200959  1.0
  F  F22  1  0.75226846  0.20331907  0.71799041  1.0
  F  F23  1  0.25226846  0.29668093  0.28200959  1.0
