# generated using pymatgen
data_NaVF3
_symmetry_space_group_name_H-M   'P 1'
_cell_length_a   5.74421721
_cell_length_b   7.95484799
_cell_length_c   5.54841347
_cell_angle_alpha   90.00000000
_cell_angle_beta   90.00000000
_cell_angle_gamma   90.00000000
_symmetry_Int_Tables_number   1
_chemical_formula_structural   NaVF3
_chemical_formula_sum   'Na4 V4 F12'
_cell_volume   253.53128387
_cell_formula_units_Z   4
loop_
 _symmetry_equiv_pos_site_id
 _symmetry_equiv_pos_as_xyz
  1  'x, y, z'
loop_
 _atom_site_type_symbol
 _atom_site_label
 _atom_site_symmetry_multiplicity
 _atom_site_fract_x
 _atom_site_fract_y
 _atom_site_fract_z
 _atom_site_occupancy
  Na  Na0  1  0.05380891  0.75000000  0.51408552  1.0
  Na  Na1  1  0.55380891  0.75000000  0.98591448  1.0
  Na  Na2  1  0.94619109  0.25000000  0.48591448  1.0
  Na  Na3  1  0.44619109  0.25000000  0.01408552  1.0
  V  V4  1  0.50000000  0.00000000  0.50000000  1.0
  V  V5  1  0.50000000  0.50000000  0.50000000  1.0
  V  V6  1  0.00000000  0.00000000  0.00000000  1.0
  V  V7  1  0.00000000  0.50000000  0.00000000  1.0
  F  F8  1  0.95145925  0.75000000  0.11005394  1.0
  F  F9  1  0.45145925  0.75000000  0.38994606  1.0
  F  F10  1  0.04854075  0.25000000  0.88994606  1.0
  F  F11  1  0.54854075  0.25000000  0.61005394  1.0
  F  F12  1  0.30190781  0.94210746  0.80542900  1.0
  F  F13  1  0.30190781  0.55789254  0.80542900  1.0
  F  F14  1  0.80190781  0.94210746  0.69457100  1.0
  F  F15  1  0.80190781  0.55789254  0.69457100  1.0
  F  F16  1  0.69809219  0.44210746  0.19457100  1.0
  F  F17  1  0.69809219  0.05789254  0.19457100  1.0
  F  F18  1  0.19809219  0.44210746  0.30542900  1.0
  F  F19  1  0.19809219  0.05789254  0.30542900  1.0
