# generated using pymatgen
data_CsZr6BI14
_symmetry_space_group_name_H-M   'P 1'
_cell_length_a   11.03640946
_cell_length_b   11.03640946
_cell_length_c   13.17787913
_cell_angle_alpha   90.00000000
_cell_angle_beta   90.00000000
_cell_angle_gamma   85.98317783
_symmetry_Int_Tables_number   1
_chemical_formula_structural   CsZr6BI14
_chemical_formula_sum   'Cs2 Zr12 B2 I28'
_cell_volume   1601.15355423
_cell_formula_units_Z   2
loop_
 _symmetry_equiv_pos_site_id
 _symmetry_equiv_pos_as_xyz
  1  'x, y, z'
loop_
 _atom_site_type_symbol
 _atom_site_label
 _atom_site_symmetry_multiplicity
 _atom_site_fract_x
 _atom_site_fract_y
 _atom_site_fract_z
 _atom_site_occupancy
  Cs  Cs0  1  -0.00000000  1.00000000  0.00000000  1.0
  Cs  Cs1  1  -0.50000000  0.50000000  0.50000000  1.0
  Zr  Zr2  1  -0.33322109  0.54438966  0.89116255  1.0
  Zr  Zr3  1  -0.45561034  0.66677891  0.10883745  1.0
  Zr  Zr4  1  0.04438966  1.16677891  0.39116255  1.0
  Zr  Zr5  1  0.16677891  1.04438966  0.60883745  1.0
  Zr  Zr6  1  0.33322109  1.45561034  0.10883745  1.0
  Zr  Zr7  1  0.45561034  1.33322109  0.89116255  1.0
  Zr  Zr8  1  -0.04438966  0.83322109  0.60883745  1.0
  Zr  Zr9  1  -0.16677891  0.95561034  0.39116255  1.0
  Zr  Zr10  1  0.36981738  0.63018262  0.90468441  1.0
  Zr  Zr11  1  -0.36981738  1.36981738  0.09531559  1.0
  Zr  Zr12  1  0.13018262  0.86981738  0.40468441  1.0
  Zr  Zr13  1  -0.13018262  1.13018262  0.59531559  1.0
  B  B14  1  -0.00000000  1.00000000  0.50000000  1.0
  B  B15  1  -0.50000000  0.50000000  0.00000000  1.0
  I  I16  1  -0.03440241  0.78731978  0.25327060  1.0
  I  I17  1  -0.21268022  0.96559759  0.74672940  1.0
  I  I18  1  0.28731978  1.46559759  0.75327060  1.0
  I  I19  1  0.46559759  1.28731978  0.24672940  1.0
  I  I20  1  0.03440241  1.21268022  0.74672940  1.0
  I  I21  1  0.21268022  1.03440241  0.25327060  1.0
  I  I22  1  -0.28731978  0.53440241  0.24672940  1.0
  I  I23  1  -0.46559759  0.71268022  0.75327060  1.0
  I  I24  1  0.14228617  0.60850663  0.00882667  1.0
  I  I25  1  -0.39149337  1.14228617  0.99117333  1.0
  I  I26  1  0.10850663  0.64228617  0.50882667  1.0
  I  I27  1  -0.35771383  1.10850663  0.49117333  1.0
  I  I28  1  -0.14228617  1.39149337  0.99117333  1.0
  I  I29  1  0.39149337  0.85771383  0.00882667  1.0
  I  I30  1  -0.10850663  1.35771383  0.49117333  1.0
  I  I31  1  0.35771383  0.89149337  0.50882667  1.0
  I  I32  1  0.10653985  1.39346015  0.25000000  1.0
  I  I33  1  0.39346015  1.10653985  0.75000000  1.0
  I  I34  1  -0.10653985  0.60653985  0.75000000  1.0
  I  I35  1  -0.39346015  0.89346015  0.25000000  1.0
  I  I36  1  0.15108198  0.84891802  0.75913401  1.0
  I  I37  1  -0.15108198  1.15108198  0.24086599  1.0
  I  I38  1  0.34891802  0.65108198  0.25913401  1.0
  I  I39  1  -0.34891802  1.34891802  0.74086599  1.0
  I  I40  1  -0.25076333  0.74923667  -0.00000000  1.0
  I  I41  1  0.24923667  1.24923667  0.50000000  1.0
  I  I42  1  0.25076333  1.25076333  -0.00000000  1.0
  I  I43  1  -0.24923667  0.75076333  0.50000000  1.0
