# generated using pymatgen
data_MnCu2SnSe4
_symmetry_space_group_name_H-M   'P 1'
_cell_length_a   7.06961173
_cell_length_b   7.06961173
_cell_length_c   7.06961173
_cell_angle_alpha   131.53222287
_cell_angle_beta   131.53222287
_cell_angle_gamma   70.96884100
_symmetry_Int_Tables_number   1
_chemical_formula_structural   MnCu2SnSe4
_chemical_formula_sum   'Mn1 Cu2 Sn1 Se4'
_cell_volume   193.89374106
_cell_formula_units_Z   1
loop_
 _symmetry_equiv_pos_site_id
 _symmetry_equiv_pos_as_xyz
  1  'x, y, z'
loop_
 _atom_site_type_symbol
 _atom_site_label
 _atom_site_symmetry_multiplicity
 _atom_site_fract_x
 _atom_site_fract_y
 _atom_site_fract_z
 _atom_site_occupancy
  Mn  Mn0  1  0.00000000  0.00000000  0.00000000  1.0
  Cu  Cu1  1  0.25000000  0.75000000  0.50000000  1.0
  Cu  Cu2  1  0.75000000  0.25000000  0.50000000  1.0
  Sn  Sn3  1  0.50000000  0.50000000  1.00000000  1.0
  Se  Se4  1  0.37746615  0.89459740  1.00000000  1.0
  Se  Se5  1  1.10540260  1.10540260  1.48286875  1.0
  Se  Se6  1  0.62253385  0.62253385  0.51713125  1.0
  Se  Se7  1  0.89459740  0.37746615  1.00000000  1.0
