# generated using pymatgen
data_Nb3TlCuCl9
_symmetry_space_group_name_H-M   'P 1'
_cell_length_a   9.55181522
_cell_length_b   9.42147291
_cell_length_c   9.49406352
_cell_angle_alpha   60.77282891
_cell_angle_beta   69.51721442
_cell_angle_gamma   74.86441851
_symmetry_Int_Tables_number   1
_chemical_formula_structural   Nb3TlCuCl9
_chemical_formula_sum   'Nb6 Tl2 Cu2 Cl18'
_cell_volume   694.21056798
_cell_formula_units_Z   2
loop_
 _symmetry_equiv_pos_site_id
 _symmetry_equiv_pos_as_xyz
  1  'x, y, z'
loop_
 _atom_site_type_symbol
 _atom_site_label
 _atom_site_symmetry_multiplicity
 _atom_site_fract_x
 _atom_site_fract_y
 _atom_site_fract_z
 _atom_site_occupancy
  Nb  Nb0  1  0.86731299  0.05160761  -0.15592199  1.0
  Nb  Nb1  1  0.13268701  -0.05160761  -0.84407801  1.0
  Nb  Nb2  1  0.13268613  0.18090370  -0.19039166  1.0
  Nb  Nb3  1  0.86731387  -0.18090370  -0.80960834  1.0
  Nb  Nb4  1  0.13882295  -0.16921378  -0.08084747  1.0
  Nb  Nb5  1  0.86117705  0.16921378  -0.91915253  1.0
  Tl  Tl6  1  0.65488531  -0.29999073  -0.26993587  1.0
  Tl  Tl7  1  0.34511469  0.29999073  -0.73006413  1.0
  Cu  Cu8  1  0.68173127  0.35865295  -0.56380879  1.0
  Cu  Cu9  1  0.31826873  -0.35865295  -0.43619121  1.0
  Cl  Cl10  1  -0.00999100  -0.58649097  -0.13144241  1.0
  Cl  Cl11  1  1.00999100  0.58649097  -0.86855759  1.0
  Cl  Cl12  1  0.69700171  0.11139562  -0.34909314  1.0
  Cl  Cl13  1  0.30299829  -0.11139562  -0.65090686  1.0
  Cl  Cl14  1  0.32134413  0.01278295  -0.32077352  1.0
  Cl  Cl15  1  0.67865587  -0.01278295  -0.67922648  1.0
  Cl  Cl16  1  0.30849018  0.40657141  -0.44164161  1.0
  Cl  Cl17  1  0.69150982  -0.40657141  -0.55835839  1.0
  Cl  Cl18  1  0.32623933  -0.38640247  -0.18609881  1.0
  Cl  Cl19  1  0.67376067  0.38640247  -0.81390119  1.0
  Cl  Cl20  1  0.31039609  -0.84708183  -0.04132664  1.0
  Cl  Cl21  1  0.68960391  0.84708183  -0.95867336  1.0
  Cl  Cl22  1  0.32075973  0.73740904  -0.91193927  1.0
  Cl  Cl23  1  0.67924027  -0.73740904  -0.08806073  1.0
  Cl  Cl24  1  0.00204499  0.27223003  -0.40863988  1.0
  Cl  Cl25  1  0.99795501  -0.27223003  -0.59136012  1.0
  Cl  Cl26  1  0.00699834  -0.14150206  -0.27493611  1.0
  Cl  Cl27  1  0.99300166  0.14150206  -0.72506389  1.0
