# generated using pymatgen
data_LiH4C2N5O6
_symmetry_space_group_name_H-M   'P 1'
_cell_length_a   8.72806684
_cell_length_b   8.72806684
_cell_length_c   6.70736575
_cell_angle_alpha   71.69620263
_cell_angle_beta   108.30379737
_cell_angle_gamma   123.03007652
_symmetry_Int_Tables_number   1
_chemical_formula_structural   LiH4C2N5O6
_chemical_formula_sum   'Li2 H8 C4 N10 O12'
_cell_volume   400.10278921
_cell_formula_units_Z   2
loop_
 _symmetry_equiv_pos_site_id
 _symmetry_equiv_pos_as_xyz
  1  'x, y, z'
loop_
 _atom_site_type_symbol
 _atom_site_label
 _atom_site_symmetry_multiplicity
 _atom_site_fract_x
 _atom_site_fract_y
 _atom_site_fract_z
 _atom_site_occupancy
  Li  Li0  1  0.55987450  0.55987450  0.25000000  1.0
  Li  Li1  1  0.44012550  0.44012550  0.75000000  1.0
  H  H2  1  0.57969296  0.28453059  0.19147488  1.0
  H  H3  1  0.71546941  0.42030704  0.69147488  1.0
  H  H4  1  1.28453059  0.57969296  0.30852512  1.0
  H  H5  1  0.42030704  -0.28453059  0.80852512  1.0
  H  H6  1  0.37413027  0.21321044  0.20315159  1.0
  H  H7  1  0.78678956  0.62586973  0.70315159  1.0
  H  H8  1  1.21321044  0.37413027  0.29684841  1.0
  H  H9  1  0.62586973  -0.21321044  0.79684841  1.0
  C  C10  1  0.85795270  -0.00581281  0.23838821  1.0
  C  C11  1  1.00581281  0.14204730  0.73838821  1.0
  C  C12  1  0.99418719  0.85795270  0.26161179  1.0
  C  C13  1  0.14204730  0.00581281  0.76161179  1.0
  N  N14  1  0.71297766  0.03336802  0.22290270  1.0
  N  N15  1  0.96663198  0.28702234  0.72290270  1.0
  N  N16  1  1.03336802  0.71297766  0.27709730  1.0
  N  N17  1  0.28702234  -0.03336802  0.77709730  1.0
  N  N18  1  0.12715148  0.03739276  0.25731065  1.0
  N  N19  1  0.96260724  0.87284852  0.75731065  1.0
  N  N20  1  1.03739276  0.12715148  0.24268935  1.0
  N  N21  1  0.87284852  -0.03739276  0.74268935  1.0
  N  N22  1  0.82193587  0.82193587  0.25000000  1.0
  N  N23  1  0.17806413  0.17806413  0.75000000  1.0
  O  O24  1  0.55342658  -0.09818613  0.21584394  1.0
  O  O25  1  1.09818613  0.44657342  0.71584394  1.0
  O  O26  1  0.90181387  0.55342658  0.28415606  1.0
  O  O27  1  0.44657342  0.09818613  0.78415606  1.0
  O  O28  1  0.76099102  0.19632237  0.21847278  1.0
  O  O29  1  0.80367763  0.23900898  0.71847278  1.0
  O  O30  1  1.19632237  0.76099102  0.28152722  1.0
  O  O31  1  0.23900898  -0.19632237  0.78152722  1.0
  O  O32  1  0.48993655  0.32625586  0.16419165  1.0
  O  O33  1  0.67374414  0.51006345  0.66419165  1.0
  O  O34  1  1.32625586  0.48993655  0.33580835  1.0
  O  O35  1  0.51006345  -0.32625586  0.83580835  1.0
