# generated using pymatgen
data_K(MoSe)3
_symmetry_space_group_name_H-M   'P 1'
_cell_length_a   9.30184252
_cell_length_b   9.30184252
_cell_length_c   4.51304484
_cell_angle_alpha   90.00000000
_cell_angle_beta   90.00000000
_cell_angle_gamma   120.00000000
_symmetry_Int_Tables_number   1
_chemical_formula_structural   K(MoSe)3
_chemical_formula_sum   'K2 Mo6 Se6'
_cell_volume   338.17246667
_cell_formula_units_Z   2
loop_
 _symmetry_equiv_pos_site_id
 _symmetry_equiv_pos_as_xyz
  1  'x, y, z'
loop_
 _atom_site_type_symbol
 _atom_site_label
 _atom_site_symmetry_multiplicity
 _atom_site_fract_x
 _atom_site_fract_y
 _atom_site_fract_z
 _atom_site_occupancy
  K  K0  1  0.33333333  0.66666667  0.25000000  1.0
  K  K1  1  0.66666667  0.33333333  0.75000000  1.0
  Mo  Mo2  1  0.03126699  0.85312207  0.25000000  1.0
  Mo  Mo3  1  0.85312207  0.82185509  0.75000000  1.0
  Mo  Mo4  1  0.82185509  0.96873301  0.25000000  1.0
  Mo  Mo5  1  0.14687793  0.17814491  0.25000000  1.0
  Mo  Mo6  1  0.96873301  0.14687793  0.75000000  1.0
  Mo  Mo7  1  0.17814491  0.03126699  0.75000000  1.0
  Se  Se8  1  0.70871386  0.64618650  0.25000000  1.0
  Se  Se9  1  0.64618650  0.93747264  0.75000000  1.0
  Se  Se10  1  0.93747264  0.29128614  0.25000000  1.0
  Se  Se11  1  0.35381350  0.06252736  0.25000000  1.0
  Se  Se12  1  0.29128614  0.35381350  0.75000000  1.0
  Se  Se13  1  0.06252736  0.70871386  0.75000000  1.0
