# generated using pymatgen
data_Gd2Zn15Co2
_symmetry_space_group_name_H-M   'P 1'
_cell_length_a   6.71842186
_cell_length_b   6.71842186
_cell_length_c   6.71842186
_cell_angle_alpha   82.85159249
_cell_angle_beta   82.85159249
_cell_angle_gamma   82.85159249
_symmetry_Int_Tables_number   1
_chemical_formula_structural   Gd2Zn15Co2
_chemical_formula_sum   'Gd2 Zn15 Co2'
_cell_volume   296.72087837
_cell_formula_units_Z   1
loop_
 _symmetry_equiv_pos_site_id
 _symmetry_equiv_pos_as_xyz
  1  'x, y, z'
loop_
 _atom_site_type_symbol
 _atom_site_label
 _atom_site_symmetry_multiplicity
 _atom_site_fract_x
 _atom_site_fract_y
 _atom_site_fract_z
 _atom_site_occupancy
  Gd  Gd0  1  0.66633779  0.66633779  -0.33366221  1.0
  Gd  Gd1  1  1.33366221  1.33366221  0.33366221  1.0
  Zn  Zn2  1  0.35011744  0.35011744  -0.15118336  1.0
  Zn  Zn3  1  0.35011744  0.84881664  -0.64988256  1.0
  Zn  Zn4  1  0.15118336  0.64988256  -0.35011744  1.0
  Zn  Zn5  1  0.64988256  0.15118336  -0.35011744  1.0
  Zn  Zn6  1  0.64988256  -0.35011744  0.15118336  1.0
  Zn  Zn7  1  0.84881664  0.35011744  -0.64988256  1.0
  Zn  Zn8  1  0.71527820  -0.00000000  0.28472180  1.0
  Zn  Zn9  1  0.71527820  -0.71527820  -0.00000000  1.0
  Zn  Zn10  1  0.00000000  0.71527820  -0.71527820  1.0
  Zn  Zn11  1  -0.00000000  0.28472180  -0.28472180  1.0
  Zn  Zn12  1  1.28472180  -0.00000000  -0.28472180  1.0
  Zn  Zn13  1  0.28472180  -0.28472180  -0.00000000  1.0
  Zn  Zn14  1  1.00000000  1.50000000  -0.00000000  1.0
  Zn  Zn15  1  1.00000000  -0.00000000  -0.50000000  1.0
  Zn  Zn16  1  0.50000000  -0.00000000  -0.00000000  1.0
  Co  Co17  1  0.90676120  0.90676120  -0.09323880  1.0
  Co  Co18  1  1.09323880  1.09323880  0.09323880  1.0
