# generated using pymatgen
data_CoH8C2S2(N2Cl)2
_symmetry_space_group_name_H-M   'P 1'
_cell_length_a   7.60181659
_cell_length_b   7.60181659
_cell_length_c   11.02708776
_cell_angle_alpha   83.22305823
_cell_angle_beta   96.77694177
_cell_angle_gamma   64.58293221
_symmetry_Int_Tables_number   1
_chemical_formula_structural   CoH8C2S2(N2Cl)2
_chemical_formula_sum   'Co2 H16 C4 S4 N8 Cl4'
_cell_volume   561.33350291
_cell_formula_units_Z   2
loop_
 _symmetry_equiv_pos_site_id
 _symmetry_equiv_pos_as_xyz
  1  'x, y, z'
loop_
 _atom_site_type_symbol
 _atom_site_label
 _atom_site_symmetry_multiplicity
 _atom_site_fract_x
 _atom_site_fract_y
 _atom_site_fract_z
 _atom_site_occupancy
  Co  Co0  1  0.91011291  -0.51962050  0.03928402  1.0
  Co  Co1  1  1.51962050  0.08988709  0.53928402  1.0
  C  C2  1  1.00299013  0.91456985  0.61752088  1.0
  C  C3  1  0.08543015  -0.00299013  0.11752088  1.0
  C  C4  1  1.07266800  0.41073160  0.56666226  1.0
  C  C5  1  0.58926840  -0.07266800  0.06666226  1.0
  H  H6  1  1.02321765  0.88584808  0.96622824  1.0
  H  H7  1  0.11415192  -0.02321765  0.46622824  1.0
  H  H8  1  0.77596466  -0.41870536  0.56679176  1.0
  H  H9  1  1.41870536  0.22403534  0.06679176  1.0
  H  H10  1  1.18951732  0.69858508  0.76486480  1.0
  H  H11  1  0.30141492  -0.18951732  0.26486480  1.0
  H  H12  1  0.91448896  -0.57587972  0.70659929  1.0
  H  H13  1  1.57587972  0.08551104  0.20659929  1.0
  H  H14  1  1.24834513  0.69397389  0.14724539  1.0
  H  H15  1  0.30602611  -0.24834513  0.64724539  1.0
  H  H16  1  0.56178037  -0.18892704  0.91207033  1.0
  H  H17  1  1.18892704  0.43821963  0.41207033  1.0
  H  H18  1  0.88706492  -0.85599684  0.95541031  1.0
  H  H19  1  1.85599684  0.11293508  0.45541031  1.0
  H  H20  1  1.42110334  0.06887696  0.89125317  1.0
  H  H21  1  0.93112304  -0.42110334  0.39125317  1.0
  S  S22  1  1.29879883  0.24426217  0.65923584  1.0
  S  S23  1  0.75573783  -0.29879883  0.15923584  1.0
  S  S24  1  0.79744065  -0.03087994  0.68706483  1.0
  S  S25  1  1.03087994  0.20255935  0.18706483  1.0
  N  N26  1  0.98990768  0.00494363  0.50329169  1.0
  N  N27  1  0.99505637  0.01009232  1.00329169  1.0
  N  N28  1  1.18030657  0.78091224  0.68250607  1.0
  N  N29  1  0.21908776  -0.18030657  0.18250607  1.0
  N  N30  1  0.90930556  -0.52859364  0.61543274  1.0
  N  N31  1  1.52859364  0.09069444  0.11543274  1.0
  N  N32  1  0.51906524  -0.06187847  0.94770569  1.0
  N  N33  1  1.06187847  0.48093476  0.44770569  1.0
  Cl  Cl34  1  0.70217261  -0.51672402  0.87472258  1.0
  Cl  Cl35  1  1.51672402  0.29782739  0.37472258  1.0
  Cl  Cl36  1  1.16111571  0.52706827  0.97291010  1.0
  Cl  Cl37  1  0.47293173  -0.16111571  0.47291010  1.0
