# generated using pymatgen
data_Cu3As
_symmetry_space_group_name_H-M   'P 1'
_cell_length_a   8.38835090
_cell_length_b   8.38835090
_cell_length_c   8.38835090
_cell_angle_alpha   109.47122063
_cell_angle_beta   109.47122063
_cell_angle_gamma   109.47122063
_symmetry_Int_Tables_number   1
_chemical_formula_structural   Cu3As
_chemical_formula_sum   'Cu24 As8'
_cell_volume   454.36814727
_cell_formula_units_Z   8
loop_
 _symmetry_equiv_pos_site_id
 _symmetry_equiv_pos_as_xyz
  1  'x, y, z'
loop_
 _atom_site_type_symbol
 _atom_site_label
 _atom_site_symmetry_multiplicity
 _atom_site_fract_x
 _atom_site_fract_y
 _atom_site_fract_z
 _atom_site_occupancy
  Cu  Cu0  1  1.30313091  1.15515155  1.08789210  1.0
  Cu  Cu1  1  1.56725945  1.21523881  1.41210790  1.0
  Cu  Cu2  1  0.65515155  0.80313091  0.58789210  1.0
  Cu  Cu3  1  0.71523881  1.06725945  0.91210790  1.0
  Cu  Cu4  1  1.08789210  1.30313091  1.15515155  1.0
  Cu  Cu5  1  0.64797936  0.93274055  0.34484845  1.0
  Cu  Cu6  1  0.80313091  0.58789210  0.65515155  1.0
  Cu  Cu7  1  0.43274055  1.14797936  0.84484845  1.0
  Cu  Cu8  1  1.15515155  1.08789210  1.30313091  1.0
  Cu  Cu9  1  1.28476119  0.85202064  1.19686909  1.0
  Cu  Cu10  1  0.58789210  0.65515155  0.80313091  1.0
  Cu  Cu11  1  0.35202064  0.78476119  0.69686909  1.0
  Cu  Cu12  1  0.93274055  1.34484845  0.64797936  1.0
  Cu  Cu13  1  1.19686909  1.28476119  1.85202064  1.0
  Cu  Cu14  1  0.78476119  0.69686909  0.35202064  1.0
  Cu  Cu15  1  0.84484845  0.43274055  1.14797936  1.0
  Cu  Cu16  1  1.85202064  1.19686909  1.28476119  1.0
  Cu  Cu17  1  0.41210790  0.56725945  0.21523881  1.0
  Cu  Cu18  1  1.06725945  0.91210790  1.71523881  1.0
  Cu  Cu19  1  0.69686909  1.35202064  0.78476119  1.0
  Cu  Cu20  1  1.21523881  1.41210790  1.56725945  1.0
  Cu  Cu21  1  0.34484845  0.64797936  0.93274055  1.0
  Cu  Cu22  1  1.14797936  0.84484845  1.43274055  1.0
  Cu  Cu23  1  0.91210790  1.71523881  1.06725945  1.0
  As  As24  1  1.43514161  1.43514161  1.43514161  1.0
  As  As25  1  1.50000000  1.00000000  1.06485839  1.0
  As  As26  1  0.93514161  0.93514161  0.93514161  1.0
  As  As27  1  0.50000000  1.00000000  0.56485839  1.0
  As  As28  1  1.00000000  1.06485839  1.50000000  1.0
  As  As29  1  1.06485839  0.50000000  1.00000000  1.0
  As  As30  1  1.00000000  0.56485839  1.50000000  1.0
  As  As31  1  0.56485839  1.50000000  1.00000000  1.0
