# generated using pymatgen
data_RbCoH24(C7N4)2
_symmetry_space_group_name_H-M   'P 1'
_cell_length_a   8.92507224
_cell_length_b   8.92507224
_cell_length_c   8.92507224
_cell_angle_alpha   119.12392794
_cell_angle_beta   119.12392794
_cell_angle_gamma   91.52421956
_symmetry_Int_Tables_number   1
_chemical_formula_structural   RbCoH24(C7N4)2
_chemical_formula_sum   'Rb1 Co1 H24 C14 N8'
_cell_volume   509.17498000
_cell_formula_units_Z   1
loop_
 _symmetry_equiv_pos_site_id
 _symmetry_equiv_pos_as_xyz
  1  'x, y, z'
loop_
 _atom_site_type_symbol
 _atom_site_label
 _atom_site_symmetry_multiplicity
 _atom_site_fract_x
 _atom_site_fract_y
 _atom_site_fract_z
 _atom_site_occupancy
  Rb  Rb0  1  0.50000000  0.50000000  -0.00000000  1.0
  Co  Co1  1  0.00000000  0.00000000  0.00000000  1.0
  H  H2  1  0.44638061  0.64080947  0.62372037  1.0
  H  H3  1  1.01708910  0.82266024  0.37627963  1.0
  H  H4  1  0.64080947  1.01708910  1.19442886  1.0
  H  H5  1  0.82266024  1.44638061  0.80557114  1.0
  H  H6  1  0.55361939  0.35919053  0.37627963  1.0
  H  H7  1  0.98291090  1.17733976  0.62372037  1.0
  H  H8  1  0.35919053  0.98291090  0.80557114  1.0
  H  H9  1  1.17733976  1.55361939  1.19442886  1.0
  H  H10  1  0.28554469  0.66155955  0.69238978  1.0
  H  H11  1  0.96916977  0.59315491  1.30761022  1.0
  H  H12  1  0.66155955  0.96916977  1.37601486  1.0
  H  H13  1  0.59315491  0.28554469  0.62398514  1.0
  H  H14  1  0.71445531  0.33844045  0.30761022  1.0
  H  H15  1  1.03083023  1.40684509  1.69238978  1.0
  H  H16  1  0.33844045  1.03083023  0.62398514  1.0
  H  H17  1  1.40684509  0.71445531  1.37601486  1.0
  H  H18  1  0.21456682  0.48392277  0.43286155  1.0
  H  H19  1  1.05106122  0.78170527  1.56713845  1.0
  H  H20  1  0.48392277  1.05106122  1.26935595  1.0
  H  H21  1  0.78170527  0.21456682  0.73064405  1.0
  H  H22  1  0.78543318  0.51607723  0.56713845  1.0
  H  H23  1  0.94893878  1.21829473  1.43286155  1.0
  H  H24  1  0.51607723  0.94893878  0.73064405  1.0
  H  H25  1  1.21829473  0.78543318  1.26935595  1.0
  C  C26  1  0.15196590  0.15196590  -0.00000000  1.0
  C  C27  1  0.84803410  0.84803410  0.00000000  1.0
  C  C28  1  1.16846341  1.12367427  1.29213768  1.0
  C  C29  1  0.83153659  0.87632573  1.70786232  1.0
  C  C30  1  0.12367427  0.83153659  0.95521087  1.0
  C  C31  1  0.87632573  1.16846341  1.04478913  1.0
  C  C32  1  0.30323397  0.62432905  0.56693081  1.0
  C  C33  1  1.05739825  0.73630317  1.43306919  1.0
  C  C34  1  0.62432905  1.05739825  1.32109508  1.0
  C  C35  1  0.73630317  0.30323397  0.67890492  1.0
  C  C36  1  0.69676603  0.37567095  0.43306919  1.0
  C  C37  1  0.94260175  1.26369683  1.56693081  1.0
  C  C38  1  0.37567095  0.94260175  0.67890492  1.0
  C  C39  1  1.26369683  0.69676603  1.32109508  1.0
  N  N40  1  0.24627092  0.24627092  -0.00000000  1.0
  N  N41  1  0.75372908  0.75372908  -0.00000000  1.0
  N  N42  1  1.27191280  1.20230413  1.47421693  1.0
  N  N43  1  0.72808720  0.79769587  1.52578307  1.0
  N  N44  1  0.20230413  0.72808720  0.93039133  1.0
  N  N45  1  0.79769587  1.27191280  1.06960867  1.0
  N  N46  1  0.25000000  0.75000000  0.50000000  1.0
  N  N47  1  0.75000000  0.25000000  0.50000000  1.0
