# generated using pymatgen
data_KSn2
_symmetry_space_group_name_H-M   'P 1'
_cell_length_a   6.51337825
_cell_length_b   6.51337825
_cell_length_c   10.56932132
_cell_angle_alpha   90.00000000
_cell_angle_beta   90.00000000
_cell_angle_gamma   120.00000000
_symmetry_Int_Tables_number   1
_chemical_formula_structural   KSn2
_chemical_formula_sum   'K4 Sn8'
_cell_volume   388.32051265
_cell_formula_units_Z   4
loop_
 _symmetry_equiv_pos_site_id
 _symmetry_equiv_pos_as_xyz
  1  'x, y, z'
loop_
 _atom_site_type_symbol
 _atom_site_label
 _atom_site_symmetry_multiplicity
 _atom_site_fract_x
 _atom_site_fract_y
 _atom_site_fract_z
 _atom_site_occupancy
  K  K0  1  0.33333333  0.66666667  0.43440994  1.0
  K  K1  1  0.66666667  0.33333333  0.56559006  1.0
  K  K2  1  0.66666667  0.33333333  0.93440994  1.0
  K  K3  1  0.33333333  0.66666667  0.06559006  1.0
  Sn  Sn4  1  -0.00000000  -0.00000000  0.50000000  1.0
  Sn  Sn5  1  0.00000000  -0.00000000  0.00000000  1.0
  Sn  Sn6  1  0.83224810  0.16775190  0.25000000  1.0
  Sn  Sn7  1  0.83224810  0.66449620  0.25000000  1.0
  Sn  Sn8  1  0.33550380  0.16775190  0.25000000  1.0
  Sn  Sn9  1  0.16775190  0.83224810  0.75000000  1.0
  Sn  Sn10  1  0.16775190  0.33550380  0.75000000  1.0
  Sn  Sn11  1  0.66449620  0.83224810  0.75000000  1.0
