# generated using pymatgen
data_KIO3
_symmetry_space_group_name_H-M   'P 1'
_cell_length_a   7.85128550
_cell_length_b   7.85296888
_cell_length_c   7.85268094
_cell_angle_alpha   109.65317196
_cell_angle_beta   109.46524246
_cell_angle_gamma   109.29883659
_symmetry_Int_Tables_number   1
_chemical_formula_structural   KIO3
_chemical_formula_sum   'K4 I4 O12'
_cell_volume   372.69052414
_cell_formula_units_Z   4
loop_
 _symmetry_equiv_pos_site_id
 _symmetry_equiv_pos_as_xyz
  1  'x, y, z'
loop_
 _atom_site_type_symbol
 _atom_site_label
 _atom_site_symmetry_multiplicity
 _atom_site_fract_x
 _atom_site_fract_y
 _atom_site_fract_z
 _atom_site_occupancy
  O  O0  1  0.76530221  1.04368360  0.22221956  1.0
  O  O1  1  0.82427507  0.55259276  0.79027017  1.0
  O  O2  1  0.16971793  -0.04325536  0.73055887  1.0
  O  O3  1  0.22906356  0.44876615  0.28173442  1.0
  O  O4  1  0.75416730  0.25612466  -0.06649606  1.0
  O  O5  1  0.32540552  0.83005408  0.07869321  1.0
  O  O6  1  0.93932458  0.72847973  0.27832157  1.0
  O  O7  1  1.05186970  0.32776583  0.79171169  1.0
  O  O8  1  0.53894951  0.26957098  0.22062146  1.0
  O  O9  1  0.45302221  0.67048180  0.73400232  1.0
  O  O10  1  0.66893167  0.74455781  0.51041084  1.0
  O  O11  1  0.23695930  0.16797803  0.50199449  1.0
  K  K12  1  0.99679253  1.00045614  0.00591246  1.0
  K  K13  1  0.49565342  0.49911086  0.00624157  1.0
  K  K14  1  -0.00360394  0.49971239  0.50608240  1.0
  K  K15  1  0.49572732  -0.00078063  0.50611568  1.0
  I  I16  1  0.47736615  0.51968515  0.50734417  1.0
  I  I17  1  1.01508286  0.97944030  0.50495305  1.0
  I  I18  1  0.51586002  0.01949505  0.04523596  1.0
  I  I19  1  0.97713310  0.48008067  -0.03292782  1.0
