# generated using pymatgen
data_KNaMnO2
_symmetry_space_group_name_H-M   'P 1'
_cell_length_a   6.83369550
_cell_length_b   6.83369550
_cell_length_c   6.96553200
_cell_angle_alpha   90.00000000
_cell_angle_beta   90.00000000
_cell_angle_gamma   92.24636685
_symmetry_Int_Tables_number   1
_chemical_formula_structural   KNaMnO2
_chemical_formula_sum   'K4 Na4 Mn4 O8'
_cell_volume   325.03614981
_cell_formula_units_Z   4
loop_
 _symmetry_equiv_pos_site_id
 _symmetry_equiv_pos_as_xyz
  1  'x, y, z'
loop_
 _atom_site_type_symbol
 _atom_site_label
 _atom_site_symmetry_multiplicity
 _atom_site_fract_x
 _atom_site_fract_y
 _atom_site_fract_z
 _atom_site_occupancy
  K  K0  1  0.50000000  1.00000000  0.00000000  1.0
  K  K1  1  -0.00000000  1.50000000  0.50000000  1.0
  K  K2  1  0.00000000  0.00000000  0.75000000  1.0
  K  K3  1  0.00000000  0.00000000  0.25000000  1.0
  Na  Na4  1  0.64924877  0.64924877  0.75000000  1.0
  Na  Na5  1  0.64924877  0.64924877  0.25000000  1.0
  Na  Na6  1  0.35075123  0.35075123  0.25000000  1.0
  Na  Na7  1  0.35075123  0.35075123  0.75000000  1.0
  Mn  Mn8  1  0.16351638  0.63067517  0.00000000  1.0
  Mn  Mn9  1  -0.36932483  1.16351638  0.50000000  1.0
  Mn  Mn10  1  0.36932483  0.83648362  0.50000000  1.0
  Mn  Mn11  1  -0.16351638  1.36932483  0.00000000  1.0
  O  O12  1  -0.12920302  1.68541040  -0.00000000  1.0
  O  O13  1  0.68541040  0.87079698  0.50000000  1.0
  O  O14  1  -0.68541040  1.12920302  0.50000000  1.0
  O  O15  1  0.12920302  0.31458960  -0.00000000  1.0
  O  O16  1  0.30408815  0.69591185  0.75000000  1.0
  O  O17  1  0.30408815  0.69591185  0.25000000  1.0
  O  O18  1  -0.30408815  1.30408815  0.25000000  1.0
  O  O19  1  -0.30408815  1.30408815  0.75000000  1.0
