# generated using pymatgen
data_RhC2ClO2
_symmetry_space_group_name_H-M   'P 1'
_cell_length_a   11.92224346
_cell_length_b   11.92224346
_cell_length_c   11.92224346
_cell_angle_alpha   99.43858290
_cell_angle_beta   99.43858290
_cell_angle_gamma   132.22311790
_symmetry_Int_Tables_number   1
_chemical_formula_structural   RhC2ClO2
_chemical_formula_sum   'Rh8 C16 Cl8 O16'
_cell_volume   1147.42507408
_cell_formula_units_Z   8
loop_
 _symmetry_equiv_pos_site_id
 _symmetry_equiv_pos_as_xyz
  1  'x, y, z'
loop_
 _atom_site_type_symbol
 _atom_site_label
 _atom_site_symmetry_multiplicity
 _atom_site_fract_x
 _atom_site_fract_y
 _atom_site_fract_z
 _atom_site_occupancy
  Rh  Rh0  1  1.73546996  1.81469133  1.61707253  1.0
  Rh  Rh1  1  0.55238120  0.43530867  0.42077863  1.0
  Rh  Rh2  1  0.56469133  0.98546996  1.11707253  1.0
  Rh  Rh3  1  0.88160257  1.26453004  1.07922137  1.0
  Rh  Rh4  1  1.01453004  1.13160257  1.57922137  1.0
  Rh  Rh5  1  1.19761880  1.11839743  0.38292747  1.0
  Rh  Rh6  1  1.18530867  0.80238120  0.92077863  1.0
  Rh  Rh7  1  0.86839743  0.44761880  0.88292747  1.0
  C  C8  1  1.74773221  1.77284195  1.75793904  1.0
  C  C9  1  0.73509709  0.47715805  0.47489026  1.0
  C  C10  1  0.52284195  0.99773221  1.25793904  1.0
  C  C11  1  1.01020683  1.25226779  1.02510974  1.0
  C  C12  1  1.00226779  1.26020683  1.52510974  1.0
  C  C13  1  1.01490291  0.98979317  0.24206096  1.0
  C  C14  1  1.22715805  0.98509709  0.97489026  1.0
  C  C15  1  0.73979317  0.26490291  0.74206096  1.0
  C  C16  1  1.53551187  1.73602734  1.60157942  1.0
  C  C17  1  0.61555208  0.51397266  0.29948453  1.0
  C  C18  1  0.48602734  0.78551187  1.10157942  1.0
  C  C19  1  1.06606755  1.46448813  1.20051547  1.0
  C  C20  1  1.21448813  1.31606755  1.70051547  1.0
  C  C21  1  1.13444792  0.93393245  0.39842058  1.0
  C  C22  1  1.26397266  0.86555208  0.79948453  1.0
  C  C23  1  0.68393245  0.38444792  0.89842058  1.0
  Cl  Cl24  1  0.44695263  0.30202983  0.56080045  1.0
  Cl  Cl25  1  1.00877062  0.94797017  0.64492280  1.0
  Cl  Cl26  1  1.05202983  1.69695263  1.06080045  1.0
  Cl  Cl27  1  1.11384782  0.55304737  0.85507720  1.0
  Cl  Cl28  1  1.30304737  1.36384782  1.35507720  1.0
  Cl  Cl29  1  0.74122938  0.88615218  1.43919955  1.0
  Cl  Cl30  1  0.69797017  1.25877062  1.14492280  1.0
  Cl  Cl31  1  1.63615218  0.99122938  0.93919955  1.0
  O  O32  1  0.75856028  0.74807884  0.84656664  1.0
  O  O33  1  0.84848780  0.50192116  0.51048144  1.0
  O  O34  1  0.49807884  1.00856028  1.34656664  1.0
  O  O35  1  1.08800637  0.24143972  0.98951856  1.0
  O  O36  1  0.99143972  1.33800637  1.48951856  1.0
  O  O37  1  0.90151220  0.91199363  1.15343336  1.0
  O  O38  1  0.25192116  1.09848780  1.01048144  1.0
  O  O39  1  0.66199363  0.15151220  0.65343336  1.0
  O  O40  1  1.41286087  1.69119975  1.59515439  1.0
  O  O41  1  0.65395464  0.55880025  0.22166112  1.0
  O  O42  1  1.44119975  1.66286087  1.09515439  1.0
  O  O43  1  1.18229352  1.58713913  1.27833888  1.0
  O  O44  1  1.33713913  1.43229352  1.77833888  1.0
  O  O45  1  1.09604536  0.81770648  0.40484561  1.0
  O  O46  1  1.30880025  0.90395464  0.72166112  1.0
  O  O47  1  1.56770648  1.34604536  0.90484561  1.0
