# generated using pymatgen
data_Lu2GaNi2
_symmetry_space_group_name_H-M   'P 1'
_cell_length_a   5.26547356
_cell_length_b   5.26547356
_cell_length_c   5.26547356
_cell_angle_alpha   133.79557964
_cell_angle_beta   119.59492763
_cell_angle_gamma   79.28333691
_symmetry_Int_Tables_number   1
_chemical_formula_structural   Lu2GaNi2
_chemical_formula_sum   'Lu2 Ga1 Ni2'
_cell_volume   88.75806640
_cell_formula_units_Z   1
loop_
 _symmetry_equiv_pos_site_id
 _symmetry_equiv_pos_as_xyz
  1  'x, y, z'
loop_
 _atom_site_type_symbol
 _atom_site_label
 _atom_site_symmetry_multiplicity
 _atom_site_fract_x
 _atom_site_fract_y
 _atom_site_fract_z
 _atom_site_occupancy
  Lu  Lu0  1  0.70153698  0.20153698  0.50000000  1.0
  Lu  Lu1  1  1.29846302  0.79846302  0.50000000  1.0
  Ga  Ga2  1  0.00000000  0.00000000  0.00000000  1.0
  Ni  Ni3  1  0.26930754  0.50000000  0.76930754  1.0
  Ni  Ni4  1  0.73069246  0.50000000  1.23069246  1.0
