# generated using pymatgen
data_TcC5ClO5
_symmetry_space_group_name_H-M   'P 1'
_cell_length_a   12.37661300
_cell_length_b   12.53461226
_cell_length_c   6.36122718
_cell_angle_alpha   90.00000000
_cell_angle_beta   90.00000000
_cell_angle_gamma   90.00000000
_symmetry_Int_Tables_number   1
_chemical_formula_structural   TcC5ClO5
_chemical_formula_sum   'Tc4 C20 Cl4 O20'
_cell_volume   986.85562649
_cell_formula_units_Z   4
loop_
 _symmetry_equiv_pos_site_id
 _symmetry_equiv_pos_as_xyz
  1  'x, y, z'
loop_
 _atom_site_type_symbol
 _atom_site_label
 _atom_site_symmetry_multiplicity
 _atom_site_fract_x
 _atom_site_fract_y
 _atom_site_fract_z
 _atom_site_occupancy
  Tc  Tc0  1  0.87470642  0.75000000  0.05096814  1.0
  Tc  Tc1  1  0.37470642  0.75000000  0.44903186  1.0
  Tc  Tc2  1  0.12529358  0.25000000  0.94903186  1.0
  Tc  Tc3  1  0.62529358  0.25000000  0.55096814  1.0
  C  C4  1  0.46308260  0.86416631  0.31055719  1.0
  C  C5  1  0.46308260  0.63583369  0.31055719  1.0
  C  C6  1  0.96308260  0.86416631  0.18944281  1.0
  C  C7  1  0.96308260  0.63583369  0.18944281  1.0
  C  C8  1  0.53691740  0.36416631  0.68944281  1.0
  C  C9  1  0.53691740  0.13583369  0.68944281  1.0
  C  C10  1  0.03691740  0.36416631  0.81055719  1.0
  C  C11  1  0.03691740  0.13583369  0.81055719  1.0
  C  C12  1  0.27989195  0.86325220  0.57539260  1.0
  C  C13  1  0.27989195  0.63674780  0.57539260  1.0
  C  C14  1  0.77989195  0.86325220  0.92460740  1.0
  C  C15  1  0.77989195  0.63674780  0.92460740  1.0
  C  C16  1  0.72010805  0.36325220  0.42460740  1.0
  C  C17  1  0.72010805  0.13674780  0.42460740  1.0
  C  C18  1  0.22010805  0.36325220  0.07539260  1.0
  C  C19  1  0.22010805  0.13674780  0.07539260  1.0
  C  C20  1  0.46816355  0.75000000  0.69061202  1.0
  C  C21  1  0.96816355  0.75000000  0.80938798  1.0
  C  C22  1  0.53183645  0.25000000  0.30938798  1.0
  C  C23  1  0.03183645  0.25000000  0.19061202  1.0
  Cl  Cl24  1  0.25355222  0.75000000  0.13412727  1.0
  Cl  Cl25  1  0.75355222  0.75000000  0.36587273  1.0
  Cl  Cl26  1  0.74644778  0.25000000  0.86587273  1.0
  Cl  Cl27  1  0.24644778  0.25000000  0.63412727  1.0
  O  O28  1  0.48782957  0.43138068  0.76581977  1.0
  O  O29  1  0.48782957  0.06861932  0.76581977  1.0
  O  O30  1  0.98782957  0.43138068  0.73418023  1.0
  O  O31  1  0.98782957  0.06861932  0.73418023  1.0
  O  O32  1  0.51217043  0.93138068  0.23418023  1.0
  O  O33  1  0.51217043  0.56861932  0.23418023  1.0
  O  O34  1  0.01217043  0.93138068  0.26581977  1.0
  O  O35  1  0.01217043  0.56861932  0.26581977  1.0
  O  O36  1  0.22601142  0.92844459  0.64569422  1.0
  O  O37  1  0.22601142  0.57155541  0.64569422  1.0
  O  O38  1  0.72601142  0.92844459  0.85430578  1.0
  O  O39  1  0.72601142  0.57155541  0.85430578  1.0
  O  O40  1  0.77398858  0.42844459  0.35430578  1.0
  O  O41  1  0.77398858  0.07155541  0.35430578  1.0
  O  O42  1  0.27398858  0.42844459  0.14569422  1.0
  O  O43  1  0.27398858  0.07155541  0.14569422  1.0
  O  O44  1  0.02520129  0.75000000  0.66510568  1.0
  O  O45  1  0.52520129  0.75000000  0.83489432  1.0
  O  O46  1  0.97479871  0.25000000  0.33489432  1.0
  O  O47  1  0.47479871  0.25000000  0.16510568  1.0
