# generated using pymatgen
data_Na4Mg(GeSe3)2
_symmetry_space_group_name_H-M   'P 1'
_cell_length_a   7.20961541
_cell_length_b   7.20961541
_cell_length_c   7.18748167
_cell_angle_alpha   81.01462523
_cell_angle_beta   98.98537477
_cell_angle_gamma   65.80514655
_symmetry_Int_Tables_number   1
_chemical_formula_structural   Na4Mg(GeSe3)2
_chemical_formula_sum   'Na4 Mg1 Ge2 Se6'
_cell_volume   326.38812293
_cell_formula_units_Z   1
loop_
 _symmetry_equiv_pos_site_id
 _symmetry_equiv_pos_as_xyz
  1  'x, y, z'
loop_
 _atom_site_type_symbol
 _atom_site_label
 _atom_site_symmetry_multiplicity
 _atom_site_fract_x
 _atom_site_fract_y
 _atom_site_fract_z
 _atom_site_occupancy
  Na  Na0  1  1.15273659  0.15273659  0.50000000  1.0
  Na  Na1  1  -0.00102411  -0.00102411  -0.00000000  1.0
  Na  Na2  1  1.32419944  0.32419944  -0.00000000  1.0
  Na  Na3  1  0.69422629  -0.30577371  -0.00000000  1.0
  Mg  Mg4  1  0.51496279  -0.48503721  0.50000000  1.0
  Ge  Ge5  1  1.00136778  0.67562409  0.55648743  1.0
  Ge  Ge6  1  1.67562409  0.00136778  0.44351257  1.0
  Se  Se7  1  1.27253216  0.71953736  0.74933381  1.0
  Se  Se8  1  1.71953736  0.27253216  0.25066619  1.0
  Se  Se9  1  1.12318633  0.57887968  0.28006874  1.0
  Se  Se10  1  1.57887968  0.12318633  0.71993126  1.0
  Se  Se11  1  0.89863205  -0.56286045  0.73430739  1.0
  Se  Se12  1  0.43713955  -0.10136795  0.26569261  1.0
