# generated using pymatgen
data_Cs2Te2Pt
_symmetry_space_group_name_H-M   'P 1'
_cell_length_a   7.38338267
_cell_length_b   7.38338267
_cell_length_c   7.38338267
_cell_angle_alpha   147.59130748
_cell_angle_beta   110.31569332
_cell_angle_gamma   78.96321671
_symmetry_Int_Tables_number   1
_chemical_formula_structural   Cs2Te2Pt
_chemical_formula_sum   'Cs2 Te2 Pt1'
_cell_volume   198.12001765
_cell_formula_units_Z   1
loop_
 _symmetry_equiv_pos_site_id
 _symmetry_equiv_pos_as_xyz
  1  'x, y, z'
loop_
 _atom_site_type_symbol
 _atom_site_label
 _atom_site_symmetry_multiplicity
 _atom_site_fract_x
 _atom_site_fract_y
 _atom_site_fract_z
 _atom_site_occupancy
  Cs  Cs0  1  0.70070731  0.20070731  0.50000000  1.0
  Cs  Cs1  1  1.29929269  0.79929269  0.50000000  1.0
  Te  Te2  1  0.20585722  0.50000000  0.70585722  1.0
  Te  Te3  1  0.79414278  0.50000000  1.29414278  1.0
  Pt  Pt4  1  0.00000000  0.00000000  0.00000000  1.0
