# generated using pymatgen
data_V5Te4
_symmetry_space_group_name_H-M   'P 1'
_cell_length_a   7.13155907
_cell_length_b   7.13155907
_cell_length_c   7.13155907
_cell_angle_alpha   94.38654173
_cell_angle_beta   94.38654173
_cell_angle_gamma   147.89012758
_symmetry_Int_Tables_number   1
_chemical_formula_structural   V5Te4
_chemical_formula_sum   'V5 Te4'
_cell_volume   185.27427665
_cell_formula_units_Z   1
loop_
 _symmetry_equiv_pos_site_id
 _symmetry_equiv_pos_as_xyz
  1  'x, y, z'
loop_
 _atom_site_type_symbol
 _atom_site_label
 _atom_site_symmetry_multiplicity
 _atom_site_fract_x
 _atom_site_fract_y
 _atom_site_fract_z
 _atom_site_occupancy
  V  V0  1  0.00000000  0.00000000  0.00000000  1.0
  V  V1  1  0.59060058  0.33971231  0.93031289  1.0
  V  V2  1  0.40939942  0.66028769  1.06968711  1.0
  V  V3  1  1.33971231  1.40939942  1.74911172  1.0
  V  V4  1  0.66028769  0.59060058  0.25088828  1.0
  Te  Te5  1  0.72178281  0.07352045  0.79530326  1.0
  Te  Te6  1  0.27821719  0.92647955  1.20469674  1.0
  Te  Te7  1  1.07352045  1.27821719  1.35173764  1.0
  Te  Te8  1  0.92647955  0.72178281  0.64826236  1.0
