# generated using pymatgen
data_HfSi2
_symmetry_space_group_name_H-M   'P 1'
_cell_length_a   7.52479356
_cell_length_b   7.52479356
_cell_length_c   3.65781825
_cell_angle_alpha   90.00000000
_cell_angle_beta   90.00000000
_cell_angle_gamma   151.63825149
_symmetry_Int_Tables_number   1
_chemical_formula_structural   HfSi2
_chemical_formula_sum   'Hf2 Si4'
_cell_volume   98.38719744
_cell_formula_units_Z   2
loop_
 _symmetry_equiv_pos_site_id
 _symmetry_equiv_pos_as_xyz
  1  'x, y, z'
loop_
 _atom_site_type_symbol
 _atom_site_label
 _atom_site_symmetry_multiplicity
 _atom_site_fract_x
 _atom_site_fract_y
 _atom_site_fract_z
 _atom_site_occupancy
  Hf  Hf0  1  -0.60542966  0.60542966  0.25000000  1.0
  Hf  Hf1  1  -0.39457034  1.39457034  0.75000000  1.0
  Si  Si2  1  -0.24964857  1.24964857  0.25000000  1.0
  Si  Si3  1  -0.75035143  0.75035143  0.75000000  1.0
  Si  Si4  1  -0.94569283  0.94569283  0.25000000  1.0
  Si  Si5  1  -0.05430717  1.05430717  0.75000000  1.0
