# generated using pymatgen
data_K3Nb3(BO6)2
_symmetry_space_group_name_H-M   'P 1'
_cell_length_a   8.89113137
_cell_length_b   8.89113137
_cell_length_c   3.93272909
_cell_angle_alpha   90.00000000
_cell_angle_beta   90.00000000
_cell_angle_gamma   120.00000000
_symmetry_Int_Tables_number   1
_chemical_formula_structural   K3Nb3(BO6)2
_chemical_formula_sum   'K3 Nb3 B2 O12'
_cell_volume   269.23946332
_cell_formula_units_Z   1
loop_
 _symmetry_equiv_pos_site_id
 _symmetry_equiv_pos_as_xyz
  1  'x, y, z'
loop_
 _atom_site_type_symbol
 _atom_site_label
 _atom_site_symmetry_multiplicity
 _atom_site_fract_x
 _atom_site_fract_y
 _atom_site_fract_z
 _atom_site_occupancy
  K  K0  1  0.40422824  0.40422824  0.50000000  1.0
  K  K1  1  0.00000000  0.59577176  0.50000000  1.0
  K  K2  1  0.59577176  0.00000000  0.50000000  1.0
  Nb  Nb3  1  0.75370645  0.75370645  0.00000000  1.0
  Nb  Nb4  1  -0.00000000  0.24629355  0.00000000  1.0
  Nb  Nb5  1  0.24629355  0.00000000  0.00000000  1.0
  B  B6  1  0.33333333  0.66666667  0.00000000  1.0
  B  B7  1  0.66666667  0.33333333  0.00000000  1.0
  O  O8  1  0.31331275  0.81036728  0.00000000  1.0
  O  O9  1  0.81036728  0.31331275  0.00000000  1.0
  O  O10  1  0.49705453  0.68668725  0.00000000  1.0
  O  O11  1  0.18963272  0.50294547  0.00000000  1.0
  O  O12  1  0.68668725  0.49705453  0.00000000  1.0
  O  O13  1  0.50294547  0.18963272  0.00000000  1.0
  O  O14  1  0.73654613  0.73654613  0.50000000  1.0
  O  O15  1  0.00000000  0.26345387  0.50000000  1.0
  O  O16  1  0.26345387  0.00000000  0.50000000  1.0
  O  O17  1  0.17728017  0.17728017  0.00000000  1.0
  O  O18  1  0.00000000  0.82271983  0.00000000  1.0
  O  O19  1  0.82271983  0.00000000  0.00000000  1.0
