# generated using pymatgen
data_K3W2(O2F3)2
_symmetry_space_group_name_H-M   'P 1'
_cell_length_a   8.28282626
_cell_length_b   8.28282626
_cell_length_c   8.58553223
_cell_angle_alpha   73.40943569
_cell_angle_beta   106.59056431
_cell_angle_gamma   88.32480900
_symmetry_Int_Tables_number   1
_chemical_formula_structural   K3W2(O2F3)2
_chemical_formula_sum   'K6 W4 O8 F12'
_cell_volume   537.04331805
_cell_formula_units_Z   2
loop_
 _symmetry_equiv_pos_site_id
 _symmetry_equiv_pos_as_xyz
  1  'x, y, z'
loop_
 _atom_site_type_symbol
 _atom_site_label
 _atom_site_symmetry_multiplicity
 _atom_site_fract_x
 _atom_site_fract_y
 _atom_site_fract_z
 _atom_site_occupancy
  K  K0  1  1.54623204  0.24705312  1.00185015  1.0
  K  K1  1  0.75294688  -0.54623204  0.50185015  1.0
  K  K2  1  1.24705312  0.54623204  0.49814985  1.0
  K  K3  1  0.45376796  -0.24705312  -0.00185015  1.0
  K  K4  1  -0.00000000  0.00000000  -0.00000000  1.0
  K  K5  1  0.00000000  -0.00000000  0.50000000  1.0
  W  W6  1  1.51966242  0.06778911  0.63287471  1.0
  W  W7  1  0.93221089  -0.51966242  0.13287471  1.0
  W  W8  1  1.06778911  0.51966242  0.86712529  1.0
  W  W9  1  0.48033758  -0.06778911  0.36712529  1.0
  O  O10  1  0.56241143  -0.15782251  0.61528094  1.0
  O  O11  1  1.15782251  0.43758857  0.11528094  1.0
  O  O12  1  0.84217749  -0.43758857  0.88471906  1.0
  O  O13  1  1.43758857  0.15782251  0.38471906  1.0
  O  O14  1  1.32850529  0.04688305  0.68026457  1.0
  O  O15  1  0.95311695  -0.32850529  0.18026457  1.0
  O  O16  1  1.04688305  0.32850529  0.81973543  1.0
  O  O17  1  0.67149471  -0.04688305  0.31973543  1.0
  F  F18  1  0.64882333  -0.00472231  0.88410336  1.0
  F  F19  1  1.00472231  0.35117667  0.38410336  1.0
  F  F20  1  0.99527769  -0.35117667  0.61589664  1.0
  F  F21  1  1.35117667  0.00472231  0.11589664  1.0
  F  F22  1  1.76040590  0.11272516  0.62495810  1.0
  F  F23  1  0.88727484  -0.76040590  0.12495810  1.0
  F  F24  1  1.11272516  0.76040590  0.87504190  1.0
  F  F25  1  0.23959410  -0.11272516  0.37504190  1.0
  F  F26  1  1.52173638  0.30617911  0.65219186  1.0
  F  F27  1  0.69382089  -0.52173638  0.15219186  1.0
  F  F28  1  1.30617911  0.52173638  0.84780814  1.0
  F  F29  1  0.47826362  -0.30617911  0.34780814  1.0
