# generated using pymatgen
data_NaH2CSO4F3
_symmetry_space_group_name_H-M   'P 1'
_cell_length_a   9.74647181
_cell_length_b   6.58322546
_cell_length_c   10.85590028
_cell_angle_alpha   90.00000000
_cell_angle_beta   107.90354607
_cell_angle_gamma   90.00000000
_symmetry_Int_Tables_number   1
_chemical_formula_structural   NaH2CSO4F3
_chemical_formula_sum   'Na4 H8 C4 S4 O16 F12'
_cell_volume   662.81938581
_cell_formula_units_Z   4
loop_
 _symmetry_equiv_pos_site_id
 _symmetry_equiv_pos_as_xyz
  1  'x, y, z'
loop_
 _atom_site_type_symbol
 _atom_site_label
 _atom_site_symmetry_multiplicity
 _atom_site_fract_x
 _atom_site_fract_y
 _atom_site_fract_z
 _atom_site_occupancy
  Na  Na0  1  -0.00441606  0.99099058  0.27279175  1.0
  Na  Na1  1  -0.00441606  0.50900942  0.77279175  1.0
  Na  Na2  1  1.00441606  0.49099058  0.22720825  1.0
  Na  Na3  1  1.00441606  0.00900942  0.72720825  1.0
  H  H4  1  0.22842355  0.18414303  0.22143013  1.0
  H  H5  1  0.22842355  0.31585697  0.72143013  1.0
  H  H6  1  0.77157645  0.68414303  0.27856987  1.0
  H  H7  1  0.77157645  0.81585697  0.77856987  1.0
  H  H8  1  0.73636913  0.75828100  0.13367261  1.0
  H  H9  1  0.73636913  0.74171900  0.63367261  1.0
  H  H10  1  0.26363087  0.25828100  0.36632739  1.0
  H  H11  1  0.26363087  0.24171900  0.86632739  1.0
  C  C12  1  0.35685193  0.68874636  0.09957262  1.0
  C  C13  1  0.35685193  0.81125364  0.59957262  1.0
  C  C14  1  0.64314807  0.18874636  0.40042738  1.0
  C  C15  1  0.64314807  0.31125364  0.90042738  1.0
  S  S16  1  0.18620212  0.84055849  0.05086257  1.0
  S  S17  1  0.18620212  0.65944151  0.55086257  1.0
  S  S18  1  0.81379788  0.34055849  0.44913743  1.0
  S  S19  1  0.81379788  0.15944151  0.94913743  1.0
  O  O20  1  0.10776857  0.76895763  0.13848799  1.0
  O  O21  1  0.10776857  0.73104237  0.63848799  1.0
  O  O22  1  0.89223143  0.26895763  0.36151201  1.0
  O  O23  1  0.89223143  0.23104237  0.86151201  1.0
  O  O24  1  0.11871034  0.71495149  0.41454615  1.0
  O  O25  1  0.11871034  0.78504851  0.91454615  1.0
  O  O26  1  0.88128966  0.21495149  0.08545385  1.0
  O  O27  1  0.88128966  0.28504851  0.58545385  1.0
  O  O28  1  0.18555557  0.23491941  0.28675182  1.0
  O  O29  1  0.18555557  0.26508059  0.78675182  1.0
  O  O30  1  0.81444443  0.73491941  0.21324818  1.0
  O  O31  1  0.81444443  0.76508059  0.71324818  1.0
  O  O32  1  0.23606486  0.44841179  0.57151854  1.0
  O  O33  1  0.23606486  0.05158821  0.07151854  1.0
  O  O34  1  0.76393514  0.94841179  0.92848146  1.0
  O  O35  1  0.76393514  0.55158821  0.42848146  1.0
  F  F36  1  0.32744399  0.48810191  0.07839050  1.0
  F  F37  1  0.32744399  0.01189809  0.57839050  1.0
  F  F38  1  0.67255601  0.98810191  0.42160950  1.0
  F  F39  1  0.67255601  0.51189809  0.92160950  1.0
  F  F40  1  0.42830235  0.71571662  0.22661454  1.0
  F  F41  1  0.42830235  0.78428338  0.72661454  1.0
  F  F42  1  0.57169765  0.21571662  0.27338546  1.0
  F  F43  1  0.57169765  0.28428338  0.77338546  1.0
  F  F44  1  0.44462391  0.74620886  0.03011372  1.0
  F  F45  1  0.44462391  0.75379114  0.53011372  1.0
  F  F46  1  0.55537609  0.24620886  0.46988628  1.0
  F  F47  1  0.55537609  0.25379114  0.96988628  1.0
