# generated using pymatgen
data_B3Pd16
_symmetry_space_group_name_H-M   'P 1'
_cell_length_a   9.11448970
_cell_length_b   9.11448970
_cell_length_c   9.07487622
_cell_angle_alpha   66.27310913
_cell_angle_beta   113.72689087
_cell_angle_gamma   126.92686222
_symmetry_Int_Tables_number   1
_chemical_formula_structural   B3Pd16
_chemical_formula_sum   'B6 Pd32'
_cell_volume   538.26406143
_cell_formula_units_Z   2
loop_
 _symmetry_equiv_pos_site_id
 _symmetry_equiv_pos_as_xyz
  1  'x, y, z'
loop_
 _atom_site_type_symbol
 _atom_site_label
 _atom_site_symmetry_multiplicity
 _atom_site_fract_x
 _atom_site_fract_y
 _atom_site_fract_z
 _atom_site_occupancy
  B  B0  1  0.37520751  0.37520751  0.75000000  1.0
  B  B1  1  0.62479249  0.62479249  0.25000000  1.0
  B  B2  1  1.69889022  0.06637089  0.50061339  1.0
  B  B3  1  0.93362911  -0.69889022  0.00061339  1.0
  B  B4  1  1.30110978  -0.06637089  0.49938661  1.0
  B  B5  1  1.06637089  -0.30110978  -0.00061339  1.0
  Pd  Pd6  1  0.62964436  0.62964436  0.75000000  1.0
  Pd  Pd7  1  0.37035564  0.37035564  0.25000000  1.0
  Pd  Pd8  1  0.12078521  0.12078521  0.75000000  1.0
  Pd  Pd9  1  0.87921479  0.87921479  0.25000000  1.0
  Pd  Pd10  1  1.81665231  -0.06611062  0.50015046  1.0
  Pd  Pd11  1  1.06611062  -0.81665231  0.00015046  1.0
  Pd  Pd12  1  1.18334769  0.06611062  0.49984954  1.0
  Pd  Pd13  1  0.93388938  -0.18334769  -0.00015046  1.0
  Pd  Pd14  1  1.31137229  -0.56076797  0.49370066  1.0
  Pd  Pd15  1  1.56076797  -0.31137229  -0.00629934  1.0
  Pd  Pd16  1  0.68862771  -0.43923203  0.50629934  1.0
  Pd  Pd17  1  1.43923203  0.31137229  0.00629934  1.0
  Pd  Pd18  1  1.75210507  -0.00077470  0.75493855  1.0
  Pd  Pd19  1  1.00077470  -0.75210507  0.25493855  1.0
  Pd  Pd20  1  1.24789493  0.00077470  0.24506145  1.0
  Pd  Pd21  1  0.99922530  -0.24789493  0.74506145  1.0
  Pd  Pd22  1  1.24739261  -0.49880704  0.75034000  1.0
  Pd  Pd23  1  1.49880704  -0.24739261  0.25034000  1.0
  Pd  Pd24  1  0.75260739  -0.50119296  0.24966000  1.0
  Pd  Pd25  1  1.50119296  0.24739261  0.74966000  1.0
  Pd  Pd26  1  1.43590350  -0.19191437  0.50053295  1.0
  Pd  Pd27  1  1.19191437  -0.43590350  0.00053295  1.0
  Pd  Pd28  1  1.56409650  0.19191437  0.49946705  1.0
  Pd  Pd29  1  0.80808563  -0.56409650  -0.00053295  1.0
  Pd  Pd30  1  0.94632320  -0.67917072  0.49957007  1.0
  Pd  Pd31  1  1.67917072  0.05367680  -0.00042993  1.0
  Pd  Pd32  1  1.05367680  -0.32082928  0.50042993  1.0
  Pd  Pd33  1  1.32082928  -0.05367680  0.00042993  1.0
  Pd  Pd34  1  1.62506713  0.12661419  0.24548547  1.0
  Pd  Pd35  1  0.87338581  -0.62506713  0.74548547  1.0
  Pd  Pd36  1  1.37493287  -0.12661419  0.75451453  1.0
  Pd  Pd37  1  1.12661419  -0.37493287  0.25451453  1.0
