# generated using pymatgen
data_Sr6GdAl(BO3)6
_symmetry_space_group_name_H-M   'P 1'
_cell_length_a   7.76026948
_cell_length_b   7.76026948
_cell_length_c   7.76026948
_cell_angle_alpha   105.47133898
_cell_angle_beta   105.47133898
_cell_angle_gamma   105.47133898
_symmetry_Int_Tables_number   1
_chemical_formula_structural   Sr6GdAl(BO3)6
_chemical_formula_sum   'Sr6 Gd1 Al1 B6 O18'
_cell_volume   404.33695482
_cell_formula_units_Z   1
loop_
 _symmetry_equiv_pos_site_id
 _symmetry_equiv_pos_as_xyz
  1  'x, y, z'
loop_
 _atom_site_type_symbol
 _atom_site_label
 _atom_site_symmetry_multiplicity
 _atom_site_fract_x
 _atom_site_fract_y
 _atom_site_fract_z
 _atom_site_occupancy
  Sr  Sr0  1  0.76796429  0.66458868  0.15112249  1.0
  Sr  Sr1  1  1.33541132  -0.15112249  0.23203571  1.0
  Sr  Sr2  1  0.84887751  0.23203571  0.33541132  1.0
  Sr  Sr3  1  1.23203571  0.33541132  -0.15112249  1.0
  Sr  Sr4  1  0.66458868  1.15112249  -0.23203571  1.0
  Sr  Sr5  1  1.15112249  0.76796429  -0.33541132  1.0
  Gd  Gd6  1  0.50000000  0.50000000  0.50000000  1.0
  Al  Al7  1  0.00000000  0.00000000  0.00000000  1.0
  B  B8  1  1.55514405  0.79960779  -0.11752441  1.0
  B  B9  1  1.20039221  0.11752441  -0.55514405  1.0
  B  B10  1  1.11752441  -0.55514405  0.20039221  1.0
  B  B11  1  0.44485595  0.20039221  0.11752441  1.0
  B  B12  1  0.79960779  0.88247559  0.55514405  1.0
  B  B13  1  0.88247559  1.55514405  -0.20039221  1.0
  O  O14  1  0.74058063  0.92719191  -0.00046835  1.0
  O  O15  1  1.07280809  0.00046835  -0.74058063  1.0
  O  O16  1  1.00046835  -0.74058063  0.07280809  1.0
  O  O17  1  0.25941937  0.07280809  0.00046835  1.0
  O  O18  1  0.92719191  0.99953165  -0.25941937  1.0
  O  O19  1  0.99953165  0.74058063  -0.07280809  1.0
  O  O20  1  1.48642021  0.78004651  -0.31003334  1.0
  O  O21  1  1.21995349  0.31003334  -0.48642021  1.0
  O  O22  1  1.31003334  -0.48642021  0.21995349  1.0
  O  O23  1  0.51357979  0.21995349  0.31003334  1.0
  O  O24  1  0.78004651  0.68996666  0.48642021  1.0
  O  O25  1  0.68996666  1.48642021  -0.21995349  1.0
  O  O26  1  0.56145560  0.29899205  0.04279755  1.0
  O  O27  1  0.70100795  0.95720245  0.43854440  1.0
  O  O28  1  0.95720245  1.43854440  -0.29899205  1.0
  O  O29  1  1.43854440  0.70100795  -0.04279755  1.0
  O  O30  1  1.29899205  0.04279755  -0.43854440  1.0
  O  O31  1  1.04279755  -0.43854440  0.29899205  1.0
