# generated using pymatgen
data_Sb2H4AuF16
_symmetry_space_group_name_H-M   'P 1'
_cell_length_a   9.14082851
_cell_length_b   6.96466512
_cell_length_c   5.73376717
_cell_angle_alpha   88.70496582
_cell_angle_beta   91.01182243
_cell_angle_gamma   86.38244141
_symmetry_Int_Tables_number   1
_chemical_formula_structural   Sb2H4AuF16
_chemical_formula_sum   'Sb2 H4 Au1 F16'
_cell_volume   364.14070244
_cell_formula_units_Z   1
loop_
 _symmetry_equiv_pos_site_id
 _symmetry_equiv_pos_as_xyz
  1  'x, y, z'
loop_
 _atom_site_type_symbol
 _atom_site_label
 _atom_site_symmetry_multiplicity
 _atom_site_fract_x
 _atom_site_fract_y
 _atom_site_fract_z
 _atom_site_occupancy
  Sb  Sb0  1  -0.75222731  -0.69022767  -0.59703735  1.0
  Sb  Sb1  1  -0.24777269  -0.30977233  -0.40296265  1.0
  H  H2  1  -0.03640029  -0.75357884  -0.90806912  1.0
  H  H3  1  -0.96359971  -0.24642116  -0.09193088  1.0
  H  H4  1  -0.24790840  -0.82039545  -0.88076344  1.0
  H  H5  1  -0.75209160  -0.17960455  -0.11923656  1.0
  Au  Au6  1  -0.50000000  0.00000000  -0.00000000  1.0
  F  F7  1  -0.87967437  -0.18373772  -1.01814760  1.0
  F  F8  1  -0.12032563  -0.81626228  0.01814760  1.0
  F  F9  1  -0.90677164  -0.66278623  -0.84205933  1.0
  F  F10  1  -0.09322836  -0.33721377  -0.15794067  1.0
  F  F11  1  -0.35224756  -0.83044552  -0.81291456  1.0
  F  F12  1  -0.64775244  -0.16955448  -0.18708544  1.0
  F  F13  1  -0.63298656  -0.55379213  -0.80292549  1.0
  F  F14  1  -0.36701344  -0.44620787  -0.19707451  1.0
  F  F15  1  -0.67820408  -0.93090441  -0.76557685  1.0
  F  F16  1  -0.32179592  -0.06909559  -0.23442315  1.0
  F  F17  1  -0.82641564  -0.46445344  -0.44814256  1.0
  F  F18  1  -0.17358436  -0.53554656  -0.55185744  1.0
  F  F19  1  -0.87260982  -0.85578155  -0.42922680  1.0
  F  F20  1  -0.12739018  -0.14421845  -0.57077320  1.0
  F  F21  1  -0.59401655  -0.74289142  -0.37648125  1.0
  F  F22  1  -0.40598345  -0.25710858  -0.62351875  1.0
