# generated using pymatgen
data_Cs2TcF6
_symmetry_space_group_name_H-M   'P 1'
_cell_length_a   6.37518675
_cell_length_b   6.37518675
_cell_length_c   5.18695534
_cell_angle_alpha   90.00000000
_cell_angle_beta   90.00000000
_cell_angle_gamma   120.00000000
_symmetry_Int_Tables_number   1
_chemical_formula_structural   Cs2TcF6
_chemical_formula_sum   'Cs2 Tc1 F6'
_cell_volume   182.56980950
_cell_formula_units_Z   1
loop_
 _symmetry_equiv_pos_site_id
 _symmetry_equiv_pos_as_xyz
  1  'x, y, z'
loop_
 _atom_site_type_symbol
 _atom_site_label
 _atom_site_symmetry_multiplicity
 _atom_site_fract_x
 _atom_site_fract_y
 _atom_site_fract_z
 _atom_site_occupancy
  Cs  Cs0  1  0.33333333  0.66666667  0.29652973  1.0
  Cs  Cs1  1  0.66666667  0.33333333  0.70347027  1.0
  Tc  Tc2  1  0.00000000  0.00000000  0.00000000  1.0
  F  F3  1  0.29646226  0.14823113  0.21005088  1.0
  F  F4  1  0.14823113  0.29646226  0.78994912  1.0
  F  F5  1  0.14823113  0.85176887  0.78994912  1.0
  F  F6  1  0.85176887  0.14823113  0.21005088  1.0
  F  F7  1  0.85176887  0.70353774  0.21005088  1.0
  F  F8  1  0.70353774  0.85176887  0.78994912  1.0
