# generated using pymatgen
data_CuH2N2O7
_symmetry_space_group_name_H-M   'P 1'
_cell_length_a   6.61435076
_cell_length_b   8.74563333
_cell_length_c   10.33213091
_cell_angle_alpha   90.00000000
_cell_angle_beta   104.46252881
_cell_angle_gamma   90.00000000
_symmetry_Int_Tables_number   1
_chemical_formula_structural   CuH2N2O7
_chemical_formula_sum   'Cu4 H8 N8 O28'
_cell_volume   578.73977781
_cell_formula_units_Z   4
loop_
 _symmetry_equiv_pos_site_id
 _symmetry_equiv_pos_as_xyz
  1  'x, y, z'
loop_
 _atom_site_type_symbol
 _atom_site_label
 _atom_site_symmetry_multiplicity
 _atom_site_fract_x
 _atom_site_fract_y
 _atom_site_fract_z
 _atom_site_occupancy
  H  H0  1  0.66452070  0.02763464  0.63692381  1.0
  H  H1  1  0.66452070  0.47236536  0.13692381  1.0
  H  H2  1  0.33547930  0.52763464  0.86307619  1.0
  H  H3  1  0.33547930  -0.02763464  0.36307619  1.0
  H  H4  1  0.61462706  0.84769592  0.64637857  1.0
  H  H5  1  0.61462706  0.65230408  0.14637857  1.0
  H  H6  1  0.38537294  0.34769592  0.85362143  1.0
  H  H7  1  0.38537294  0.15230408  0.35362143  1.0
  N  N8  1  0.85734208  0.60436741  0.82697942  1.0
  N  N9  1  0.85734208  0.89563259  0.32697942  1.0
  N  N10  1  0.14265792  0.10436741  0.67302058  1.0
  N  N11  1  0.14265792  0.39563259  0.17302058  1.0
  N  N12  1  0.32345454  0.68052970  0.51106820  1.0
  N  N13  1  0.32345454  0.81947030  0.01106820  1.0
  N  N14  1  0.67654546  0.18052970  0.98893180  1.0
  N  N15  1  0.67654546  0.31947030  0.48893180  1.0
  O  O16  1  0.94665156  0.61656466  0.72978313  1.0
  O  O17  1  0.94665156  0.88343534  0.22978313  1.0
  O  O18  1  0.05334844  0.11656466  0.77021687  1.0
  O  O19  1  0.05334844  0.38343534  0.27021687  1.0
  O  O20  1  0.79769202  0.48205120  0.86057133  1.0
  O  O21  1  0.79769202  0.01794880  0.36057133  1.0
  O  O22  1  0.20230798  0.98205120  0.63942867  1.0
  O  O23  1  0.20230798  0.51794880  0.13942867  1.0
  O  O24  1  0.72597915  0.92699525  0.66366565  1.0
  O  O25  1  0.72597915  0.57300475  0.16366565  1.0
  O  O26  1  0.27402085  0.42699525  0.83633435  1.0
  O  O27  1  0.27402085  0.07300475  0.33633435  1.0
  O  O28  1  0.44798652  0.68918768  0.62293787  1.0
  O  O29  1  0.44798652  0.81081232  0.12293787  1.0
  O  O30  1  0.55201348  0.18918768  0.87706213  1.0
  O  O31  1  0.55201348  0.31081232  0.37706213  1.0
  O  O32  1  0.32972684  0.73855467  0.91398360  1.0
  O  O33  1  0.32972684  0.76144533  0.41398360  1.0
  O  O34  1  0.67027316  0.23855467  0.58601640  1.0
  O  O35  1  0.67027316  0.26144533  0.08601640  1.0
  O  O36  1  0.82319334  0.42392203  0.50364608  1.0
  O  O37  1  0.82319334  0.07607797  0.00364608  1.0
  O  O38  1  0.17680666  0.92392203  0.99635392  1.0
  O  O39  1  0.17680666  0.57607797  0.49635392  1.0
  O  O40  1  0.83348581  0.72885059  0.88725597  1.0
  O  O41  1  0.83348581  0.77114941  0.38725597  1.0
  O  O42  1  0.16651419  0.22885059  0.61274403  1.0
  O  O43  1  0.16651419  0.27114941  0.11274403  1.0
  Cu  Cu44  1  0.95321248  0.91812081  0.82799560  1.0
  Cu  Cu45  1  0.95321248  0.58187919  0.32799560  1.0
  Cu  Cu46  1  0.04678752  0.41812081  0.67200440  1.0
  Cu  Cu47  1  0.04678752  0.08187919  0.17200440  1.0
