# generated using pymatgen
data_CaCuP2O7
_symmetry_space_group_name_H-M   'P 1'
_cell_length_a   5.28839594
_cell_length_b   8.15833735
_cell_length_c   13.46531823
_cell_angle_alpha   90.00000000
_cell_angle_beta   111.23904442
_cell_angle_gamma   90.00000000
_symmetry_Int_Tables_number   1
_chemical_formula_structural   CaCuP2O7
_chemical_formula_sum   'Ca4 Cu4 P8 O28'
_cell_volume   541.49457184
_cell_formula_units_Z   4
loop_
 _symmetry_equiv_pos_site_id
 _symmetry_equiv_pos_as_xyz
  1  'x, y, z'
loop_
 _atom_site_type_symbol
 _atom_site_label
 _atom_site_symmetry_multiplicity
 _atom_site_fract_x
 _atom_site_fract_y
 _atom_site_fract_z
 _atom_site_occupancy
  Ca  Ca0  1  0.98449392  0.18367022  0.27288599  1.0
  Ca  Ca1  1  0.98449392  0.31632978  0.77288599  1.0
  Ca  Ca2  1  0.01550608  0.68367022  0.22711401  1.0
  Ca  Ca3  1  0.01550608  0.81632978  0.72711401  1.0
  Cu  Cu4  1  0.68356025  0.85886540  0.39006971  1.0
  Cu  Cu5  1  0.68356025  0.64113460  0.89006971  1.0
  Cu  Cu6  1  0.31643975  0.35886540  0.10993029  1.0
  Cu  Cu7  1  0.31643975  0.14113460  0.60993029  1.0
  P  P8  1  0.67477037  0.20226304  0.48343457  1.0
  P  P9  1  0.67477037  0.29773696  0.98343457  1.0
  P  P10  1  0.32522963  0.70226304  0.01656543  1.0
  P  P11  1  0.32522963  0.79773696  0.51656543  1.0
  P  P12  1  0.58691306  0.47253554  0.33346255  1.0
  P  P13  1  0.58691306  0.02746446  0.83346255  1.0
  P  P14  1  0.41308694  0.97253554  0.16653745  1.0
  P  P15  1  0.41308694  0.52746446  0.66653745  1.0
  O  O16  1  0.88556099  0.31088756  0.09559369  1.0
  O  O17  1  0.88556099  0.18911244  0.59559369  1.0
  O  O18  1  0.11443901  0.81088756  0.40440631  1.0
  O  O19  1  0.11443901  0.68911244  0.90440631  1.0
  O  O20  1  0.81907167  0.45909792  0.29143384  1.0
  O  O21  1  0.81907167  0.04090208  0.79143384  1.0
  O  O22  1  0.18092833  0.95909792  0.20856616  1.0
  O  O23  1  0.18092833  0.54090208  0.70856616  1.0
  O  O24  1  0.74993014  0.10208551  0.39961449  1.0
  O  O25  1  0.74993014  0.39791449  0.89961449  1.0
  O  O26  1  0.25006986  0.60208551  0.10038551  1.0
  O  O27  1  0.25006986  0.89791449  0.60038551  1.0
  O  O28  1  0.68983759  0.39436397  0.45147886  1.0
  O  O29  1  0.68983759  0.10563603  0.95147886  1.0
  O  O30  1  0.31016241  0.89436397  0.04852114  1.0
  O  O31  1  0.31016241  0.60563603  0.54852114  1.0
  O  O32  1  0.50258493  0.14868653  0.15597705  1.0
  O  O33  1  0.50258493  0.35131347  0.65597705  1.0
  O  O34  1  0.49741507  0.64868653  0.34402295  1.0
  O  O35  1  0.49741507  0.85131347  0.84402295  1.0
  O  O36  1  0.37601744  0.16699982  0.47134348  1.0
  O  O37  1  0.37601744  0.33300018  0.97134348  1.0
  O  O38  1  0.62398256  0.66699982  0.02865652  1.0
  O  O39  1  0.62398256  0.83300018  0.52865652  1.0
  O  O40  1  0.32906034  0.37680448  0.26480989  1.0
  O  O41  1  0.32906034  0.12319552  0.76480989  1.0
  O  O42  1  0.67093966  0.87680448  0.23519011  1.0
  O  O43  1  0.67093966  0.62319552  0.73519011  1.0
