# generated using pymatgen
data_BaSiC
_symmetry_space_group_name_H-M   'P 1'
_cell_length_a   8.07606000
_cell_length_b   6.36944459
_cell_length_c   11.45568251
_cell_angle_alpha   90.00000000
_cell_angle_beta   90.00000000
_cell_angle_gamma   90.00000000
_symmetry_Int_Tables_number   1
_chemical_formula_structural   BaSiC
_chemical_formula_sum   'Ba8 Si8 C8'
_cell_volume   589.28049998
_cell_formula_units_Z   8
loop_
 _symmetry_equiv_pos_site_id
 _symmetry_equiv_pos_as_xyz
  1  'x, y, z'
loop_
 _atom_site_type_symbol
 _atom_site_label
 _atom_site_symmetry_multiplicity
 _atom_site_fract_x
 _atom_site_fract_y
 _atom_site_fract_z
 _atom_site_occupancy
  Ba  Ba0  1  0.08860282  0.25000000  0.32521286  1.0
  Ba  Ba1  1  0.58860282  0.25000000  0.17478714  1.0
  Ba  Ba2  1  0.91139718  0.75000000  0.67478714  1.0
  Ba  Ba3  1  0.41139718  0.75000000  0.82521286  1.0
  Ba  Ba4  1  0.87217397  0.25000000  0.87194061  1.0
  Ba  Ba5  1  0.37217397  0.25000000  0.62805939  1.0
  Ba  Ba6  1  0.12782603  0.75000000  0.12805939  1.0
  Ba  Ba7  1  0.62782603  0.75000000  0.37194061  1.0
  Si  Si8  1  0.44675884  0.25000000  0.90403070  1.0
  Si  Si9  1  0.94675884  0.25000000  0.59596930  1.0
  Si  Si10  1  0.55324116  0.75000000  0.09596930  1.0
  Si  Si11  1  0.05324116  0.75000000  0.40403070  1.0
  Si  Si12  1  0.21573678  0.25000000  0.02463591  1.0
  Si  Si13  1  0.71573678  0.25000000  0.47536409  1.0
  Si  Si14  1  0.78426322  0.75000000  0.97536409  1.0
  Si  Si15  1  0.28426322  0.75000000  0.52463591  1.0
  C  C16  1  0.22620516  0.13358237  0.86086258  1.0
  C  C17  1  0.72620516  0.36641763  0.63913742  1.0
  C  C18  1  0.77379484  0.63358237  0.13913742  1.0
  C  C19  1  0.27379484  0.86641763  0.36086258  1.0
  C  C20  1  0.77379484  0.86641763  0.13913742  1.0
  C  C21  1  0.27379484  0.63358237  0.36086258  1.0
  C  C22  1  0.22620516  0.36641763  0.86086258  1.0
  C  C23  1  0.72620516  0.13358237  0.63913742  1.0
