# generated using pymatgen
data_Lu2Fe2Si2C
_symmetry_space_group_name_H-M   'P 1'
_cell_length_a   5.54866117
_cell_length_b   5.54866117
_cell_length_c   6.58438442
_cell_angle_alpha   53.74372432
_cell_angle_beta   126.25627568
_cell_angle_gamma   139.20807563
_symmetry_Int_Tables_number   1
_chemical_formula_structural   Lu2Fe2Si2C
_chemical_formula_sum   'Lu2 Fe2 Si2 C1'
_cell_volume   102.74821279
_cell_formula_units_Z   1
loop_
 _symmetry_equiv_pos_site_id
 _symmetry_equiv_pos_as_xyz
  1  'x, y, z'
loop_
 _atom_site_type_symbol
 _atom_site_label
 _atom_site_symmetry_multiplicity
 _atom_site_fract_x
 _atom_site_fract_y
 _atom_site_fract_z
 _atom_site_occupancy
  Lu  Lu0  1  1.43992097  -0.43992097  0.70679663  1.0
  Lu  Lu1  1  0.56007903  0.43992097  0.29320337  1.0
  Fe  Fe2  1  0.79674041  0.20325959  0.90084047  1.0
  Fe  Fe3  1  1.20325959  -0.20325959  0.09915953  1.0
  Si  Si4  1  0.84295639  -0.84295639  0.29274648  1.0
  Si  Si5  1  0.15704361  -0.15704361  0.70725352  1.0
  C  C6  1  0.00000000  0.00000000  0.00000000  1.0
