# generated using pymatgen
data_C
_symmetry_space_group_name_H-M   'P 1'
_cell_length_a   8.24283882
_cell_length_b   3.08226455
_cell_length_c   16.25372130
_cell_angle_alpha   90.00000000
_cell_angle_beta   121.06679853
_cell_angle_gamma   90.00000000
_symmetry_Int_Tables_number   1
_chemical_formula_structural   C
_chemical_formula_sum   C48
_cell_volume   353.72071236
_cell_formula_units_Z   48
loop_
 _symmetry_equiv_pos_site_id
 _symmetry_equiv_pos_as_xyz
  1  'x, y, z'
loop_
 _atom_site_type_symbol
 _atom_site_label
 _atom_site_symmetry_multiplicity
 _atom_site_fract_x
 _atom_site_fract_y
 _atom_site_fract_z
 _atom_site_occupancy
  C  C0  1  0.09404501  0.26850588  0.36559243  1.0
  C  C1  1  0.90595499  0.76850588  0.13440757  1.0
  C  C2  1  0.90595499  0.73149412  0.63440757  1.0
  C  C3  1  0.09404501  0.23149412  0.86559243  1.0
  C  C4  1  0.27006245  0.12525672  0.38443997  1.0
  C  C5  1  0.72993755  0.62525672  0.11556003  1.0
  C  C6  1  0.72993755  0.87474328  0.61556003  1.0
  C  C7  1  0.27006245  0.37474328  0.88443997  1.0
  C  C8  1  0.41103986  0.09490762  0.48301972  1.0
  C  C9  1  0.58896014  0.59490762  0.01698028  1.0
  C  C10  1  0.58896014  0.90509238  0.51698028  1.0
  C  C11  1  0.41103986  0.40509238  0.98301972  1.0
  C  C12  1  0.37925401  0.24402823  0.55725634  1.0
  C  C13  1  0.62074599  0.74402823  0.94274366  1.0
  C  C14  1  0.62074599  0.75597177  0.44274366  1.0
  C  C15  1  0.37925401  0.25597177  0.05725634  1.0
  C  C16  1  0.52346807  0.26626402  0.65355863  1.0
  C  C17  1  0.47653193  0.76626402  0.84644137  1.0
  C  C18  1  0.47653193  0.73373598  0.34644137  1.0
  C  C19  1  0.52346807  0.23373598  0.15355863  1.0
  C  C20  1  0.45696960  0.32695466  0.71967174  1.0
  C  C21  1  0.54303040  -0.17304534  0.78032826  1.0
  C  C22  1  0.54303040  0.67304534  0.28032826  1.0
  C  C23  1  0.45696960  1.17304534  0.21967174  1.0
  C  C24  1  0.26589744  0.39554698  0.69898485  1.0
  C  C25  1  0.73410256  -0.10445302  0.80101515  1.0
  C  C26  1  0.73410256  0.60445302  0.30101515  1.0
  C  C27  1  0.26589744  1.10445302  0.19898485  1.0
  C  C28  1  0.26865176  0.57380296  0.79472246  1.0
  C  C29  1  0.73134824  0.07380296  0.70527754  1.0
  C  C30  1  0.73134824  0.42619704  0.20527754  1.0
  C  C31  1  0.26865176  0.92619704  0.29472246  1.0
  C  C32  1  0.03703880  -0.28776006  0.73645441  1.0
  C  C33  1  0.96296120  0.21223994  0.76354559  1.0
  C  C34  1  0.96296120  1.28776006  0.26354559  1.0
  C  C35  1  0.03703880  0.78776006  0.23645441  1.0
  C  C36  1  0.05329148  0.39606579  0.43480672  1.0
  C  C37  1  0.94670852  0.89606580  0.06519328  1.0
  C  C38  1  0.94670852  0.60393420  0.56519328  1.0
  C  C39  1  0.05329148  0.10393421  0.93480672  1.0
  C  C40  1  0.19119040  0.36770110  0.53245749  1.0
  C  C41  1  0.80880960  0.86770110  0.96754251  1.0
  C  C42  1  0.80880960  0.63229890  0.46754251  1.0
  C  C43  1  0.19119040  0.13229890  0.03245749  1.0
  C  C44  1  0.13675406  0.45603063  0.60230207  1.0
  C  C45  1  0.86324594  -0.04396937  0.89769793  1.0
  C  C46  1  0.86324594  0.54396937  0.39769793  1.0
  C  C47  1  0.13675406  1.04396937  0.10230207  1.0
