# generated using pymatgen
data_Zn4P6SN12
_symmetry_space_group_name_H-M   'P 1'
_cell_length_a   7.14694516
_cell_length_b   7.14694516
_cell_length_c   7.14694516
_cell_angle_alpha   109.47122063
_cell_angle_beta   109.47122063
_cell_angle_gamma   109.47122063
_symmetry_Int_Tables_number   1
_chemical_formula_structural   Zn4P6SN12
_chemical_formula_sum   'Zn4 P6 S1 N12'
_cell_volume   281.02144176
_cell_formula_units_Z   1
loop_
 _symmetry_equiv_pos_site_id
 _symmetry_equiv_pos_as_xyz
  1  'x, y, z'
loop_
 _atom_site_type_symbol
 _atom_site_label
 _atom_site_symmetry_multiplicity
 _atom_site_fract_x
 _atom_site_fract_y
 _atom_site_fract_z
 _atom_site_occupancy
  Zn  Zn0  1  0.66831563  0.66831563  0.66831563  1.0
  Zn  Zn1  1  1.00000000  1.00000000  0.33168437  1.0
  Zn  Zn2  1  1.00000000  0.33168437  1.00000000  1.0
  Zn  Zn3  1  0.33168437  1.00000000  1.00000000  1.0
  P  P4  1  0.50000000  0.25000000  0.75000000  1.0
  P  P5  1  0.75000000  0.50000000  0.25000000  1.0
  P  P6  1  0.25000000  0.75000000  0.50000000  1.0
  P  P7  1  0.25000000  0.50000000  0.75000000  1.0
  P  P8  1  0.50000000  0.75000000  0.25000000  1.0
  P  P9  1  0.75000000  0.25000000  0.50000000  1.0
  S  S10  1  0.00000000  0.00000000  0.00000000  1.0
  N  N11  1  0.44955614  0.44955614  0.71935278  1.0
  N  N12  1  0.71935278  0.44955614  0.44955614  1.0
  N  N13  1  0.44955614  0.71935278  0.44955614  1.0
  N  N14  1  0.73020335  0.73020335  0.28064722  1.0
  N  N15  1  1.00000000  1.26979665  0.55044386  1.0
  N  N16  1  1.26979665  1.00000000  0.55044386  1.0
  N  N17  1  1.26979665  0.55044386  1.00000000  1.0
  N  N18  1  1.00000000  0.55044386  1.26979665  1.0
  N  N19  1  0.73020335  0.28064722  0.73020335  1.0
  N  N20  1  0.55044386  1.26979665  1.00000000  1.0
  N  N21  1  0.28064722  0.73020335  0.73020335  1.0
  N  N22  1  0.55044386  1.00000000  1.26979665  1.0
