# generated using pymatgen
data_Na2Cu(SO5)2
_symmetry_space_group_name_H-M   'P 1'
_cell_length_a   6.53489746
_cell_length_b   12.61700649
_cell_length_c   5.63356423
_cell_angle_alpha   90.00000000
_cell_angle_beta   117.41896929
_cell_angle_gamma   90.00000000
_symmetry_Int_Tables_number   1
_chemical_formula_structural   Na2Cu(SO5)2
_chemical_formula_sum   'Na4 Cu2 S4 O20'
_cell_volume   412.31246073
_cell_formula_units_Z   2
loop_
 _symmetry_equiv_pos_site_id
 _symmetry_equiv_pos_as_xyz
  1  'x, y, z'
loop_
 _atom_site_type_symbol
 _atom_site_label
 _atom_site_symmetry_multiplicity
 _atom_site_fract_x
 _atom_site_fract_y
 _atom_site_fract_z
 _atom_site_occupancy
  Cu  Cu0  1  0.00000000  0.00000000  0.00000000  1.0
  Cu  Cu1  1  0.00000000  0.50000000  0.50000000  1.0
  S  S2  1  0.75231191  0.61655902  0.97298523  1.0
  S  S3  1  0.75231191  0.88344098  0.47298523  1.0
  S  S4  1  0.24768809  0.11655902  0.52701477  1.0
  S  S5  1  0.24768809  0.38344098  0.02701477  1.0
  O  O6  1  0.58478390  0.68576794  1.00312768  1.0
  O  O7  1  0.58478390  0.81423206  0.50312768  1.0
  O  O8  1  0.41521610  0.18576794  0.49687232  1.0
  O  O9  1  0.41521610  0.31423206  -0.00312768  1.0
  O  O10  1  -0.01569682  0.83211827  0.57553472  1.0
  O  O11  1  -0.01569682  0.66788173  0.07553472  1.0
  O  O12  1  1.01569682  0.33211827  0.92446528  1.0
  O  O13  1  1.01569682  0.16788173  0.42446528  1.0
  O  O14  1  0.78172242  0.98711470  0.63911095  1.0
  O  O15  1  0.78172242  0.51288530  0.13911095  1.0
  O  O16  1  0.21827758  0.48711470  0.86088905  1.0
  O  O17  1  0.21827758  0.01288530  0.36088905  1.0
  O  O18  1  0.67283144  0.57651261  0.69845448  1.0
  O  O19  1  0.67283144  0.92348739  0.19845448  1.0
  O  O20  1  0.32716856  0.07651261  0.80154552  1.0
  O  O21  1  0.32716856  0.42348739  0.30154552  1.0
  O  O22  1  0.85450428  0.38311716  0.50628055  1.0
  O  O23  1  0.85450428  0.11688284  1.00628055  1.0
  O  O24  1  0.14549572  0.88311716  -0.00628055  1.0
  O  O25  1  0.14549572  0.61688284  0.49371945  1.0
  Na  Na26  1  0.39485380  0.85810320  0.76696439  1.0
  Na  Na27  1  0.39485380  0.64189680  0.26696439  1.0
  Na  Na28  1  0.60514620  0.35810320  0.73303561  1.0
  Na  Na29  1  0.60514620  0.14189680  0.23303561  1.0
