# generated using pymatgen
data_LiFePHO5
_symmetry_space_group_name_H-M   'P 1'
_cell_length_a   5.42698168
_cell_length_b   5.17199961
_cell_length_c   7.52883411
_cell_angle_alpha   111.15417970
_cell_angle_beta   111.76582938
_cell_angle_gamma   81.91859661
_symmetry_Int_Tables_number   1
_chemical_formula_structural   LiFePHO5
_chemical_formula_sum   'Li2 Fe2 P2 H2 O10'
_cell_volume   183.02543415
_cell_formula_units_Z   2
loop_
 _symmetry_equiv_pos_site_id
 _symmetry_equiv_pos_as_xyz
  1  'x, y, z'
loop_
 _atom_site_type_symbol
 _atom_site_label
 _atom_site_symmetry_multiplicity
 _atom_site_fract_x
 _atom_site_fract_y
 _atom_site_fract_z
 _atom_site_occupancy
  Li  Li0  1  0.60808537  0.42383408  0.67506605  1.0
  Li  Li1  1  0.39191463  -0.42383408  0.32493395  1.0
  Fe  Fe2  1  -0.00000000  0.50000000  0.50000000  1.0
  Fe  Fe3  1  0.00000000  0.00000000  0.00000000  1.0
  P  P4  1  0.36388019  0.05304123  0.72997244  1.0
  P  P5  1  0.63611981  -0.05304123  0.27002756  1.0
  H  H6  1  0.93241043  -0.48415677  0.15622925  1.0
  H  H7  1  0.06758957  0.48415677  0.84377075  1.0
  O  O8  1  0.34569099  -0.26757700  0.61750227  1.0
  O  O9  1  0.65430901  0.26757700  0.38249773  1.0
  O  O10  1  0.65922720  0.14687285  0.83383207  1.0
  O  O11  1  0.34077280  -0.14687285  0.16616793  1.0
  O  O12  1  0.21315081  0.14782782  0.88236958  1.0
  O  O13  1  0.78684919  -0.14782782  0.11763042  1.0
  O  O14  1  0.75576084  -0.20356367  0.43057418  1.0
  O  O15  1  0.24423916  0.20356367  0.56942582  1.0
  O  O16  1  0.95286204  0.61428071  0.77827006  1.0
  O  O17  1  0.04713796  -0.61428071  0.22172994  1.0
