# generated using pymatgen
data_LaPS
_symmetry_space_group_name_H-M   'P 1'
_cell_length_a   5.73351560
_cell_length_b   5.63411245
_cell_length_c   17.33410005
_cell_angle_alpha   90.00000000
_cell_angle_beta   90.00000000
_cell_angle_gamma   90.00000000
_symmetry_Int_Tables_number   1
_chemical_formula_structural   LaPS
_chemical_formula_sum   'La8 P8 S8'
_cell_volume   559.94814191
_cell_formula_units_Z   8
loop_
 _symmetry_equiv_pos_site_id
 _symmetry_equiv_pos_as_xyz
  1  'x, y, z'
loop_
 _atom_site_type_symbol
 _atom_site_label
 _atom_site_symmetry_multiplicity
 _atom_site_fract_x
 _atom_site_fract_y
 _atom_site_fract_z
 _atom_site_occupancy
  La  La0  1  0.48325890  0.75000000  0.85057172  1.0
  La  La1  1  0.98325890  0.75000000  0.64942828  1.0
  La  La2  1  0.51674110  0.25000000  0.14942828  1.0
  La  La3  1  0.01674110  0.25000000  0.35057172  1.0
  La  La4  1  0.01584294  0.75000000  0.13791426  1.0
  La  La5  1  0.51584294  0.75000000  0.36208574  1.0
  La  La6  1  0.98415706  0.25000000  0.86208574  1.0
  La  La7  1  0.48415706  0.25000000  0.63791426  1.0
  P  P8  1  0.18970260  0.95185987  0.50302137  1.0
  P  P9  1  0.18970260  0.54814013  0.50302137  1.0
  P  P10  1  0.68970260  0.95185987  0.99697863  1.0
  P  P11  1  0.68970260  0.54814013  0.99697863  1.0
  P  P12  1  0.81029740  0.45185987  0.49697863  1.0
  P  P13  1  0.81029740  0.04814013  0.49697863  1.0
  P  P14  1  0.31029740  0.45185987  0.00302137  1.0
  P  P15  1  0.31029740  0.04814013  0.00302137  1.0
  S  S16  1  0.48758147  0.75000000  0.67994974  1.0
  S  S17  1  0.98758147  0.75000000  0.82005026  1.0
  S  S18  1  0.51241853  0.25000000  0.32005026  1.0
  S  S19  1  0.01241853  0.25000000  0.17994974  1.0
  S  S20  1  0.01412647  0.75000000  0.31137148  1.0
  S  S21  1  0.51412647  0.75000000  0.18862852  1.0
  S  S22  1  0.98587353  0.25000000  0.68862852  1.0
  S  S23  1  0.48587353  0.25000000  0.81137148  1.0
