# generated using pymatgen
data_Ca2Ag7
_symmetry_space_group_name_H-M   'P 1'
_cell_length_a   5.53429845
_cell_length_b   5.53429845
_cell_length_c   14.20926654
_cell_angle_alpha   90.00000000
_cell_angle_beta   90.00000000
_cell_angle_gamma   60.50863765
_symmetry_Int_Tables_number   1
_chemical_formula_structural   Ca2Ag7
_chemical_formula_sum   'Ca4 Ag14'
_cell_volume   378.81801474
_cell_formula_units_Z   2
loop_
 _symmetry_equiv_pos_site_id
 _symmetry_equiv_pos_as_xyz
  1  'x, y, z'
loop_
 _atom_site_type_symbol
 _atom_site_label
 _atom_site_symmetry_multiplicity
 _atom_site_fract_x
 _atom_site_fract_y
 _atom_site_fract_z
 _atom_site_occupancy
  Ca  Ca0  1  -0.32018386  1.32018386  0.38518625  1.0
  Ca  Ca1  1  -0.32018386  1.32018386  0.11481375  1.0
  Ca  Ca2  1  0.32018386  0.67981614  0.88518625  1.0
  Ca  Ca3  1  0.32018386  0.67981614  0.61481375  1.0
  Ag  Ag4  1  0.00858719  0.66331276  0.42385965  1.0
  Ag  Ag5  1  0.00858719  0.66331276  0.07614035  1.0
  Ag  Ag6  1  -0.33668724  1.00858719  0.92385965  1.0
  Ag  Ag7  1  -0.33668724  1.00858719  0.57614035  1.0
  Ag  Ag8  1  0.33668724  0.99141281  0.42385965  1.0
  Ag  Ag9  1  0.33668724  0.99141281  0.07614035  1.0
  Ag  Ag10  1  -0.00858719  1.33668724  0.92385965  1.0
  Ag  Ag11  1  -0.00858719  1.33668724  0.57614035  1.0
  Ag  Ag12  1  0.17496231  0.32705030  0.25000000  1.0
  Ag  Ag13  1  -0.67294970  1.17496231  0.75000000  1.0
  Ag  Ag14  1  0.67294970  0.82503769  0.25000000  1.0
  Ag  Ag15  1  -0.17496231  1.67294970  0.75000000  1.0
  Ag  Ag16  1  0.17395108  0.82604892  0.25000000  1.0
  Ag  Ag17  1  -0.17395108  1.17395108  0.75000000  1.0
