# generated using pymatgen
data_Ag2P2PdO7
_symmetry_space_group_name_H-M   'P 1'
_cell_length_a   8.71022447
_cell_length_b   8.71022447
_cell_length_c   8.56791628
_cell_angle_alpha   61.55945148
_cell_angle_beta   118.44054852
_cell_angle_gamma   141.69821941
_symmetry_Int_Tables_number   1
_chemical_formula_structural   Ag2P2PdO7
_chemical_formula_sum   'Ag4 P4 Pd2 O14'
_cell_volume   347.94406807
_cell_formula_units_Z   2
loop_
 _symmetry_equiv_pos_site_id
 _symmetry_equiv_pos_as_xyz
  1  'x, y, z'
loop_
 _atom_site_type_symbol
 _atom_site_label
 _atom_site_symmetry_multiplicity
 _atom_site_fract_x
 _atom_site_fract_y
 _atom_site_fract_z
 _atom_site_occupancy
  Ag  Ag0  1  1.42479428  -0.05708314  0.79137613  1.0
  Ag  Ag1  1  1.05708313  -0.42479428  0.29137613  1.0
  Ag  Ag2  1  0.94291687  -0.57520572  0.70862387  1.0
  Ag  Ag3  1  1.57520572  0.05708313  0.20862387  1.0
  P  P4  1  1.55840802  -0.23815326  0.65103935  1.0
  P  P5  1  1.23815326  -0.55840802  0.15103935  1.0
  P  P6  1  0.76184674  -0.44159198  0.84896065  1.0
  P  P7  1  1.44159198  0.23815326  0.34896065  1.0
  Pd  Pd8  1  0.00000000  0.00000000  -0.00000000  1.0
  Pd  Pd9  1  0.00000000  -0.00000000  0.50000000  1.0
  O  O10  1  1.70081293  -0.08805851  0.49350372  1.0
  O  O11  1  1.08805851  -0.70081293  0.99350372  1.0
  O  O12  1  0.91194149  -0.29918707  0.00649628  1.0
  O  O13  1  1.29918707  0.08805851  0.50649628  1.0
  O  O14  1  1.70426032  -0.08286101  0.79791801  1.0
  O  O15  1  1.08286101  -0.70426032  0.29791801  1.0
  O  O16  1  0.91713899  -0.29573968  0.70208199  1.0
  O  O17  1  1.29573968  0.08286101  0.20208199  1.0
  O  O18  1  1.65374052  0.29679595  0.92234282  1.0
  O  O19  1  0.70320405  -0.65374052  0.42234282  1.0
  O  O20  1  1.29679595  -0.34625948  0.57765718  1.0
  O  O21  1  1.34625948  -0.29679595  0.07765718  1.0
  O  O22  1  0.52844470  0.52844470  0.75000000  1.0
  O  O23  1  0.47155530  0.47155530  0.25000000  1.0
