# generated using pymatgen
data_Ba6Fe8S15
_symmetry_space_group_name_H-M   'P 1'
_cell_length_a   9.51606437
_cell_length_b   9.51606437
_cell_length_c   9.51606437
_cell_angle_alpha   106.32028078
_cell_angle_beta   106.32028078
_cell_angle_gamma   115.97552311
_symmetry_Int_Tables_number   1
_chemical_formula_structural   Ba6Fe8S15
_chemical_formula_sum   'Ba6 Fe8 S15'
_cell_volume   656.87879750
_cell_formula_units_Z   1
loop_
 _symmetry_equiv_pos_site_id
 _symmetry_equiv_pos_as_xyz
  1  'x, y, z'
loop_
 _atom_site_type_symbol
 _atom_site_label
 _atom_site_symmetry_multiplicity
 _atom_site_fract_x
 _atom_site_fract_y
 _atom_site_fract_z
 _atom_site_occupancy
  Fe  Fe0  1  0.69149636  1.27975298  0.70374981  1.0
  Fe  Fe1  1  0.42399683  1.01225345  0.70374981  1.0
  Fe  Fe2  1  0.27975298  0.57600317  0.58825662  1.0
  Fe  Fe3  1  1.01225345  1.30850364  0.58825662  1.0
  Fe  Fe4  1  0.57600317  0.98774655  1.29625019  1.0
  Fe  Fe5  1  1.30850364  1.72024702  1.29625019  1.0
  Fe  Fe6  1  0.98774655  0.69149636  0.41174338  1.0
  Fe  Fe7  1  0.72024702  0.42399683  0.41174338  1.0
  Ba  Ba8  1  0.86648916  1.25130710  1.11779626  1.0
  Ba  Ba9  1  1.25130710  1.13351084  1.38481794  1.0
  Ba  Ba10  1  0.13351084  0.74869290  0.88220374  1.0
  Ba  Ba11  1  0.74869290  0.86648916  1.61518206  1.0
  Ba  Ba12  1  0.30250669  0.30250669  0.00000000  1.0
  Ba  Ba13  1  0.69749331  0.69749331  0.00000000  1.0
  S  S14  1  0.00000000  0.00000000  0.00000000  1.0
  S  S15  1  0.95341855  0.30892451  0.80281397  1.0
  S  S16  1  0.49388946  0.84939542  0.80281397  1.0
  S  S17  1  0.30892451  0.50611054  0.35550596  1.0
  S  S18  1  0.84939542  1.04658145  1.35550596  1.0
  S  S19  1  0.50611054  1.15060458  1.19718603  1.0
  S  S20  1  1.04658145  0.69107549  1.19718603  1.0
  S  S21  1  1.15060458  0.95341855  1.64449404  1.0
  S  S22  1  0.69107549  0.49388946  0.64449404  1.0
  S  S23  1  0.50000000  0.00000000  0.50000000  1.0
  S  S24  1  -0.00000000  0.50000000  0.50000000  1.0
  S  S25  1  0.59614774  1.29423937  0.89038711  1.0
  S  S26  1  0.29423937  0.40385226  0.69809163  1.0
  S  S27  1  0.40385226  0.70576063  1.10961289  1.0
  S  S28  1  0.70576063  0.59614774  0.30190837  1.0
