# generated using pymatgen
data_Cd(PO3)2
_symmetry_space_group_name_H-M   'P 1'
_cell_length_a   7.67265151
_cell_length_b   7.52448043
_cell_length_c   8.56899715
_cell_angle_alpha   90.00000000
_cell_angle_beta   90.00000000
_cell_angle_gamma   90.00000000
_symmetry_Int_Tables_number   1
_chemical_formula_structural   Cd(PO3)2
_chemical_formula_sum   'Cd4 P8 O24'
_cell_volume   494.71147952
_cell_formula_units_Z   4
loop_
 _symmetry_equiv_pos_site_id
 _symmetry_equiv_pos_as_xyz
  1  'x, y, z'
loop_
 _atom_site_type_symbol
 _atom_site_label
 _atom_site_symmetry_multiplicity
 _atom_site_fract_x
 _atom_site_fract_y
 _atom_site_fract_z
 _atom_site_occupancy
  Cd  Cd0  1  0.39320851  0.73106903  0.96129137  1.0
  Cd  Cd1  1  0.89320851  0.76893097  0.03870863  1.0
  Cd  Cd2  1  0.60679149  0.23106903  0.53870863  1.0
  Cd  Cd3  1  0.10679149  0.26893097  0.46129137  1.0
  P  P4  1  0.30766286  0.86994372  0.59006102  1.0
  P  P5  1  0.80766286  0.63005628  0.40993898  1.0
  P  P6  1  0.69233714  0.36994372  0.90993898  1.0
  P  P7  1  0.19233714  0.13005628  0.09006102  1.0
  P  P8  1  0.91562740  0.90317023  0.65117611  1.0
  P  P9  1  0.41562740  0.59682977  0.34882389  1.0
  P  P10  1  0.08437260  0.40317023  0.84882389  1.0
  P  P11  1  0.58437260  0.09682977  0.15117611  1.0
  O  O12  1  0.42798781  0.79041514  0.71005905  1.0
  O  O13  1  0.92798781  0.70958486  0.28994095  1.0
  O  O14  1  0.57201219  0.29041514  0.78994095  1.0
  O  O15  1  0.07201219  0.20958486  0.21005905  1.0
  O  O16  1  0.17158253  0.93507872  0.04837377  1.0
  O  O17  1  0.67158253  0.56492128  0.95162623  1.0
  O  O18  1  0.82841747  0.43507872  0.45162623  1.0
  O  O19  1  0.32841747  0.06492128  0.54837377  1.0
  O  O20  1  0.14228258  0.41284107  0.68245197  1.0
  O  O21  1  0.64228258  0.08715893  0.31754803  1.0
  O  O22  1  0.85771742  0.91284107  0.81754803  1.0
  O  O23  1  0.35771742  0.58715893  0.18245197  1.0
  O  O24  1  0.11228492  0.83052984  0.64591500  1.0
  O  O25  1  0.61228492  0.66947016  0.35408500  1.0
  O  O26  1  0.88771508  0.33052984  0.85408500  1.0
  O  O27  1  0.38771508  0.16947016  0.14591500  1.0
  O  O28  1  0.10428993  0.57178721  0.94405995  1.0
  O  O29  1  0.60428993  0.92821279  0.05594005  1.0
  O  O30  1  0.89571007  0.07178721  0.55594005  1.0
  O  O31  1  0.39571007  0.42821279  0.44405995  1.0
  O  O32  1  0.81254551  0.73968590  0.57186598  1.0
  O  O33  1  0.31254551  0.76031410  0.42813402  1.0
  O  O34  1  0.18745449  0.23968590  0.92813402  1.0
  O  O35  1  0.68745449  0.26031410  0.07186598  1.0
