# generated using pymatgen
data_V2ZnO6
_symmetry_space_group_name_H-M   'P 1'
_cell_length_a   13.67501132
_cell_length_b   5.69086069
_cell_length_c   4.81510686
_cell_angle_alpha   90.00000000
_cell_angle_beta   90.00000000
_cell_angle_gamma   90.00000000
_symmetry_Int_Tables_number   1
_chemical_formula_structural   V2ZnO6
_chemical_formula_sum   'V8 Zn4 O24'
_cell_volume   374.72405907
_cell_formula_units_Z   4
loop_
 _symmetry_equiv_pos_site_id
 _symmetry_equiv_pos_as_xyz
  1  'x, y, z'
loop_
 _atom_site_type_symbol
 _atom_site_label
 _atom_site_symmetry_multiplicity
 _atom_site_fract_x
 _atom_site_fract_y
 _atom_site_fract_z
 _atom_site_occupancy
  V  V0  1  0.66299109  0.68465755  0.74491158  1.0
  V  V1  1  0.66299109  0.31534245  0.24491158  1.0
  V  V2  1  0.16299109  0.18465755  0.75508842  1.0
  V  V3  1  0.16299109  0.81534245  0.25508842  1.0
  V  V4  1  0.33700891  0.68465755  0.75508842  1.0
  V  V5  1  0.33700891  0.31534245  0.25508842  1.0
  V  V6  1  0.83700891  0.18465755  0.74491158  1.0
  V  V7  1  0.83700891  0.81534245  0.24491158  1.0
  Zn  Zn8  1  0.00000000  0.69271311  0.75000000  1.0
  Zn  Zn9  1  0.00000000  0.30728689  0.25000000  1.0
  Zn  Zn10  1  0.50000000  0.19271311  0.75000000  1.0
  Zn  Zn11  1  0.50000000  0.80728689  0.25000000  1.0
  O  O12  1  0.90046790  0.90091689  0.54990641  1.0
  O  O13  1  0.90046790  0.09908311  0.04990641  1.0
  O  O14  1  0.40046790  0.40091689  0.95009359  1.0
  O  O15  1  0.40046790  0.59908311  0.45009359  1.0
  O  O16  1  0.09953210  0.90091689  0.95009359  1.0
  O  O17  1  0.09953210  0.09908311  0.45009359  1.0
  O  O18  1  0.59953210  0.40091689  0.54990641  1.0
  O  O19  1  0.59953210  0.59908311  0.04990641  1.0
  O  O20  1  0.75272047  0.86213274  0.90412924  1.0
  O  O21  1  0.75272047  0.13786726  0.40412924  1.0
  O  O22  1  0.25272047  0.36213274  0.59587076  1.0
  O  O23  1  0.25272047  0.63786726  0.09587076  1.0
  O  O24  1  0.24727953  0.86213274  0.59587076  1.0
  O  O25  1  0.24727953  0.13786726  0.09587076  1.0
  O  O26  1  0.74727953  0.36213274  0.90412924  1.0
  O  O27  1  0.74727953  0.63786726  0.40412924  1.0
  O  O28  1  0.58395014  0.87312816  0.59835419  1.0
  O  O29  1  0.58395014  0.12687184  0.09835419  1.0
  O  O30  1  0.08395014  0.37312816  0.90164581  1.0
  O  O31  1  0.08395014  0.62687184  0.40164581  1.0
  O  O32  1  0.41604986  0.87312816  0.90164581  1.0
  O  O33  1  0.41604986  0.12687184  0.40164581  1.0
  O  O34  1  0.91604986  0.37312816  0.59835419  1.0
  O  O35  1  0.91604986  0.62687184  0.09835419  1.0
