# generated using pymatgen
data_PdN2
_symmetry_space_group_name_H-M   'P 1'
_cell_length_a   5.07238700
_cell_length_b   5.07238700
_cell_length_c   5.07238700
_cell_angle_alpha   90.00000000
_cell_angle_beta   90.00000000
_cell_angle_gamma   90.00000000
_symmetry_Int_Tables_number   1
_chemical_formula_structural   PdN2
_chemical_formula_sum   'Pd4 N8'
_cell_volume   130.50800250
_cell_formula_units_Z   4
loop_
 _symmetry_equiv_pos_site_id
 _symmetry_equiv_pos_as_xyz
  1  'x, y, z'
loop_
 _atom_site_type_symbol
 _atom_site_label
 _atom_site_symmetry_multiplicity
 _atom_site_fract_x
 _atom_site_fract_y
 _atom_site_fract_z
 _atom_site_occupancy
  Pd  Pd0  1  0.50000000  0.50000000  -0.00000000  1.0
  Pd  Pd1  1  0.50000000  0.00000000  0.50000000  1.0
  Pd  Pd2  1  0.00000000  0.50000000  0.50000000  1.0
  Pd  Pd3  1  -0.00000000  0.00000000  0.00000000  1.0
  N  N4  1  0.06941693  0.93058307  0.43058307  1.0
  N  N5  1  0.93058307  0.43058307  0.06941693  1.0
  N  N6  1  0.43058307  0.06941693  0.93058307  1.0
  N  N7  1  0.56941693  0.56941693  0.56941693  1.0
  N  N8  1  0.93058307  0.06941693  0.56941693  1.0
  N  N9  1  0.06941693  0.56941693  0.93058307  1.0
  N  N10  1  0.56941693  0.93058307  0.06941693  1.0
  N  N11  1  0.43058307  0.43058307  0.43058307  1.0
