# generated using pymatgen
data_Y2Zn17
_symmetry_space_group_name_H-M   'P 1'
_cell_length_a   8.97972451
_cell_length_b   8.97972451
_cell_length_c   8.75243163
_cell_angle_alpha   90.00000000
_cell_angle_beta   90.00000000
_cell_angle_gamma   120.00000000
_symmetry_Int_Tables_number   1
_chemical_formula_structural   Y2Zn17
_chemical_formula_sum   'Y4 Zn34'
_cell_volume   611.20287022
_cell_formula_units_Z   2
loop_
 _symmetry_equiv_pos_site_id
 _symmetry_equiv_pos_as_xyz
  1  'x, y, z'
loop_
 _atom_site_type_symbol
 _atom_site_label
 _atom_site_symmetry_multiplicity
 _atom_site_fract_x
 _atom_site_fract_y
 _atom_site_fract_z
 _atom_site_occupancy
  Y  Y0  1  0.33333333  0.66666667  0.25000000  1.0
  Y  Y1  1  0.66666667  0.33333333  0.75000000  1.0
  Y  Y2  1  0.00000000  0.00000000  0.25000000  1.0
  Y  Y3  1  0.00000000  -0.00000000  0.75000000  1.0
  Zn  Zn4  1  0.16165061  0.83834939  0.47851470  1.0
  Zn  Zn5  1  0.16165061  0.83834939  0.02148530  1.0
  Zn  Zn6  1  0.16165061  0.32330123  0.47851470  1.0
  Zn  Zn7  1  0.16165061  0.32330123  0.02148530  1.0
  Zn  Zn8  1  0.83834939  0.16165061  -0.02148530  1.0
  Zn  Zn9  1  0.83834939  0.16165061  0.52148530  1.0
  Zn  Zn10  1  0.83834939  0.67669877  -0.02148530  1.0
  Zn  Zn11  1  0.83834939  0.67669877  0.52148530  1.0
  Zn  Zn12  1  0.67669877  0.83834939  0.47851470  1.0
  Zn  Zn13  1  0.67669877  0.83834939  0.02148530  1.0
  Zn  Zn14  1  0.32330123  0.16165061  -0.02148530  1.0
  Zn  Zn15  1  0.32330123  0.16165061  0.52148530  1.0
  Zn  Zn16  1  0.36723701  0.03863691  0.25000000  1.0
  Zn  Zn17  1  0.36723701  0.32860010  0.25000000  1.0
  Zn  Zn18  1  0.03863691  0.36723701  0.75000000  1.0
  Zn  Zn19  1  0.03863691  0.67139990  0.75000000  1.0
  Zn  Zn20  1  0.67139990  0.03863691  0.25000000  1.0
  Zn  Zn21  1  0.67139990  0.63276299  0.25000000  1.0
  Zn  Zn22  1  -0.03863691  0.63276299  0.25000000  1.0
  Zn  Zn23  1  -0.03863691  0.32860010  0.25000000  1.0
  Zn  Zn24  1  0.63276299  0.67139990  0.75000000  1.0
  Zn  Zn25  1  0.63276299  -0.03863691  0.75000000  1.0
  Zn  Zn26  1  0.32860010  0.36723701  0.75000000  1.0
  Zn  Zn27  1  0.32860010  -0.03863691  0.75000000  1.0
  Zn  Zn28  1  0.50000000  0.50000000  0.50000000  1.0
  Zn  Zn29  1  0.50000000  0.50000000  0.00000000  1.0
  Zn  Zn30  1  0.50000000  0.00000000  0.50000000  1.0
  Zn  Zn31  1  0.50000000  0.00000000  -0.00000000  1.0
  Zn  Zn32  1  0.00000000  0.50000000  0.50000000  1.0
  Zn  Zn33  1  0.00000000  0.50000000  -0.00000000  1.0
  Zn  Zn34  1  0.33333333  0.66666667  0.89898417  1.0
  Zn  Zn35  1  0.33333333  0.66666667  0.60101583  1.0
  Zn  Zn36  1  0.66666667  0.33333333  0.39898417  1.0
  Zn  Zn37  1  0.66666667  0.33333333  0.10101583  1.0
