# generated using pymatgen
data_RbLa(SeO4)2
_symmetry_space_group_name_H-M   'P 1'
_cell_length_a   9.36797383
_cell_length_b   7.60382747
_cell_length_c   11.40725955
_cell_angle_alpha   90.00000000
_cell_angle_beta   91.48425713
_cell_angle_gamma   90.00000000
_symmetry_Int_Tables_number   1
_chemical_formula_structural   RbLa(SeO4)2
_chemical_formula_sum   'Rb4 La4 Se8 O32'
_cell_volume   812.29448923
_cell_formula_units_Z   4
loop_
 _symmetry_equiv_pos_site_id
 _symmetry_equiv_pos_as_xyz
  1  'x, y, z'
loop_
 _atom_site_type_symbol
 _atom_site_label
 _atom_site_symmetry_multiplicity
 _atom_site_fract_x
 _atom_site_fract_y
 _atom_site_fract_z
 _atom_site_occupancy
  Rb  Rb0  1  0.43676030  0.35294996  0.15617038  1.0
  Rb  Rb1  1  0.43676030  0.14705004  0.65617038  1.0
  Rb  Rb2  1  0.56323970  0.85294996  0.34382962  1.0
  Rb  Rb3  1  0.56323970  0.64705004  0.84382962  1.0
  La  La4  1  0.94666293  0.16829695  0.15088830  1.0
  La  La5  1  0.94666293  0.33170305  0.65088830  1.0
  La  La6  1  0.05333707  0.66829695  0.34911170  1.0
  La  La7  1  0.05333707  0.83170305  0.84911170  1.0
  Se  Se8  1  0.73154018  0.34088151  0.41101944  1.0
  Se  Se9  1  0.73154018  0.15911849  0.91101944  1.0
  Se  Se10  1  0.26845982  0.84088151  0.08898056  1.0
  Se  Se11  1  0.26845982  0.65911849  0.58898056  1.0
  Se  Se12  1  0.18005369  0.16618256  0.39008609  1.0
  Se  Se13  1  0.18005369  0.33381744  0.89008609  1.0
  Se  Se14  1  0.81994631  0.66618256  0.10991391  1.0
  Se  Se15  1  0.81994631  0.83381744  0.60991391  1.0
  O  O16  1  0.90258596  0.50274217  0.18712312  1.0
  O  O17  1  0.90258596  -0.00274217  0.68712312  1.0
  O  O18  1  0.09741404  1.00274217  0.31287688  1.0
  O  O19  1  0.09741404  0.49725783  0.81287688  1.0
  O  O20  1  0.88368078  0.45316795  0.44490396  1.0
  O  O21  1  0.88368078  0.04683205  0.94490396  1.0
  O  O22  1  0.11631922  0.95316795  0.05509604  1.0
  O  O23  1  0.11631922  0.54683205  0.55509604  1.0
  O  O24  1  0.88413283  0.83040388  0.47550595  1.0
  O  O25  1  0.88413283  0.66959612  0.97550595  1.0
  O  O26  1  0.11586717  0.33040388  0.02449405  1.0
  O  O27  1  0.11586717  0.16959612  0.52449405  1.0
  O  O28  1  0.87246319  0.83984510  0.19432046  1.0
  O  O29  1  0.87246319  0.66015490  0.69432046  1.0
  O  O30  1  0.12753681  0.33984510  0.30567954  1.0
  O  O31  1  0.12753681  0.16015490  0.80567954  1.0
  O  O32  1  0.76400460  0.18793917  0.30893450  1.0
  O  O33  1  0.76400460  0.31206083  0.80893450  1.0
  O  O34  1  0.23599540  0.68793917  0.19106550  1.0
  O  O35  1  0.23599540  0.81206083  0.69106550  1.0
  O  O36  1  0.70882960  0.25839107  0.04047160  1.0
  O  O37  1  0.70882960  0.24160893  0.54047160  1.0
  O  O38  1  0.29117040  0.75839107  0.45952840  1.0
  O  O39  1  0.29117040  0.74160893  0.95952840  1.0
  O  O40  1  0.60133953  0.47049956  0.36793653  1.0
  O  O41  1  0.60133953  0.02950044  0.86793653  1.0
  O  O42  1  0.39866047  0.97049956  0.13206347  1.0
  O  O43  1  0.39866047  0.52950044  0.63206347  1.0
  O  O44  1  0.35438833  0.15174843  0.39417992  1.0
  O  O45  1  0.35438833  0.34825157  0.89417992  1.0
  O  O46  1  0.64561167  0.65174843  0.10582008  1.0
  O  O47  1  0.64561167  0.84825157  0.60582008  1.0
