# generated using pymatgen
data_Os(SCl6)2
_symmetry_space_group_name_H-M   'P 1'
_cell_length_a   7.94920136
_cell_length_b   7.94920136
_cell_length_c   7.94920136
_cell_angle_alpha   87.85880105
_cell_angle_beta   87.85880105
_cell_angle_gamma   87.85880105
_symmetry_Int_Tables_number   1
_chemical_formula_structural   Os(SCl6)2
_chemical_formula_sum   'Os1 S2 Cl12'
_cell_volume   501.28182331
_cell_formula_units_Z   1
loop_
 _symmetry_equiv_pos_site_id
 _symmetry_equiv_pos_as_xyz
  1  'x, y, z'
loop_
 _atom_site_type_symbol
 _atom_site_label
 _atom_site_symmetry_multiplicity
 _atom_site_fract_x
 _atom_site_fract_y
 _atom_site_fract_z
 _atom_site_occupancy
  Os  Os0  1  0.00000000  -0.00000000  0.00000000  1.0
  S  S1  1  0.73364854  0.73364854  -0.26635146  1.0
  S  S2  1  1.26635146  1.26635146  0.26635146  1.0
  Cl  Cl3  1  0.19529661  0.19529661  -0.10238973  1.0
  Cl  Cl4  1  0.19529661  0.89761027  -0.80470339  1.0
  Cl  Cl5  1  1.10238973  -0.19529661  -0.19529661  1.0
  Cl  Cl6  1  0.80470339  0.10238973  -0.19529661  1.0
  Cl  Cl7  1  0.80470339  -0.19529661  0.10238973  1.0
  Cl  Cl8  1  0.89761027  0.19529661  -0.80470339  1.0
  Cl  Cl9  1  1.23342758  1.23342758  0.52370530  1.0
  Cl  Cl10  1  1.23342758  1.52370530  0.23342758  1.0
  Cl  Cl11  1  0.47629470  0.76657242  -0.23342758  1.0
  Cl  Cl12  1  0.76657242  0.47629470  -0.23342758  1.0
  Cl  Cl13  1  0.76657242  0.76657242  -0.52370530  1.0
  Cl  Cl14  1  1.52370530  1.23342758  0.23342758  1.0
