# generated using pymatgen
data_YAlAu
_symmetry_space_group_name_H-M   'P 1'
_cell_length_a   7.20598667
_cell_length_b   4.47650324
_cell_length_c   7.78842096
_cell_angle_alpha   90.00000000
_cell_angle_beta   90.00000000
_cell_angle_gamma   90.00000000
_symmetry_Int_Tables_number   1
_chemical_formula_structural   YAlAu
_chemical_formula_sum   'Y4 Al4 Au4'
_cell_volume   251.23594449
_cell_formula_units_Z   4
loop_
 _symmetry_equiv_pos_site_id
 _symmetry_equiv_pos_as_xyz
  1  'x, y, z'
loop_
 _atom_site_type_symbol
 _atom_site_label
 _atom_site_symmetry_multiplicity
 _atom_site_fract_x
 _atom_site_fract_y
 _atom_site_fract_z
 _atom_site_occupancy
  Y  Y0  1  0.99285376  0.75000000  0.69981748  1.0
  Y  Y1  1  0.49285376  0.75000000  0.80018252  1.0
  Y  Y2  1  0.00714624  0.25000000  0.30018252  1.0
  Y  Y3  1  0.50714624  0.25000000  0.19981748  1.0
  Al  Al4  1  0.82168833  0.75000000  0.08047887  1.0
  Al  Al5  1  0.32168833  0.75000000  0.41952113  1.0
  Al  Al6  1  0.17831167  0.25000000  0.91952113  1.0
  Al  Al7  1  0.67831167  0.25000000  0.58047887  1.0
  Au  Au8  1  0.71075255  0.75000000  0.40783121  1.0
  Au  Au9  1  0.21075255  0.75000000  0.09216879  1.0
  Au  Au10  1  0.28924745  0.25000000  0.59216879  1.0
  Au  Au11  1  0.78924745  0.25000000  0.90783121  1.0
