# generated using pymatgen
data_TlPF6
_symmetry_space_group_name_H-M   'P 1'
_cell_length_a   8.14387649
_cell_length_b   8.14387649
_cell_length_c   8.14387649
_cell_angle_alpha   90.00000000
_cell_angle_beta   90.00000000
_cell_angle_gamma   90.00000000
_symmetry_Int_Tables_number   1
_chemical_formula_structural   TlPF6
_chemical_formula_sum   'Tl4 P4 F24'
_cell_volume   540.12407495
_cell_formula_units_Z   4
loop_
 _symmetry_equiv_pos_site_id
 _symmetry_equiv_pos_as_xyz
  1  'x, y, z'
loop_
 _atom_site_type_symbol
 _atom_site_label
 _atom_site_symmetry_multiplicity
 _atom_site_fract_x
 _atom_site_fract_y
 _atom_site_fract_z
 _atom_site_occupancy
  Tl  Tl0  1  0.50000000  0.00000000  0.50000000  1.0
  Tl  Tl1  1  0.50000000  0.50000000  0.00000000  1.0
  Tl  Tl2  1  0.00000000  0.00000000  0.00000000  1.0
  Tl  Tl3  1  0.00000000  0.50000000  0.50000000  1.0
  P  P4  1  0.00000000  0.50000000  0.00000000  1.0
  P  P5  1  0.00000000  0.00000000  0.50000000  1.0
  P  P6  1  0.50000000  0.50000000  0.50000000  1.0
  P  P7  1  0.50000000  0.00000000  0.00000000  1.0
  F  F8  1  0.43324287  0.62326247  0.64560882  1.0
  F  F9  1  0.43324287  0.87673753  0.14560882  1.0
  F  F10  1  0.93324287  0.62326247  0.85439118  1.0
  F  F11  1  0.93324287  0.87673753  0.35439118  1.0
  F  F12  1  0.12326247  0.85439118  0.56675713  1.0
  F  F13  1  0.12326247  0.64560882  0.06675713  1.0
  F  F14  1  0.62326247  0.85439118  0.93324287  1.0
  F  F15  1  0.62326247  0.64560882  0.43324287  1.0
  F  F16  1  0.35439118  0.93324287  0.87673753  1.0
  F  F17  1  0.35439118  0.56675713  0.37673753  1.0
  F  F18  1  0.85439118  0.93324287  0.62326247  1.0
  F  F19  1  0.85439118  0.56675713  0.12326247  1.0
  F  F20  1  0.56675713  0.12326247  0.85439118  1.0
  F  F21  1  0.56675713  0.37673753  0.35439118  1.0
  F  F22  1  0.06675713  0.12326247  0.64560882  1.0
  F  F23  1  0.06675713  0.37673753  0.14560882  1.0
  F  F24  1  0.87673753  0.35439118  0.93324287  1.0
  F  F25  1  0.87673753  0.14560882  0.43324287  1.0
  F  F26  1  0.37673753  0.35439118  0.56675713  1.0
  F  F27  1  0.37673753  0.14560882  0.06675713  1.0
  F  F28  1  0.64560882  0.43324287  0.62326247  1.0
  F  F29  1  0.64560882  0.06675713  0.12326247  1.0
  F  F30  1  0.14560882  0.43324287  0.87673753  1.0
  F  F31  1  0.14560882  0.06675713  0.37673753  1.0
