# generated using pymatgen
data_Be2NCl5
_symmetry_space_group_name_H-M   'P 1'
_cell_length_a   10.11645622
_cell_length_b   10.11645622
_cell_length_c   10.11645622
_cell_angle_alpha   60.00000000
_cell_angle_beta   60.00000000
_cell_angle_gamma   60.00000000
_symmetry_Int_Tables_number   1
_chemical_formula_structural   Be2NCl5
_chemical_formula_sum   'Be8 N4 Cl20'
_cell_volume   732.09968788
_cell_formula_units_Z   4
loop_
 _symmetry_equiv_pos_site_id
 _symmetry_equiv_pos_as_xyz
  1  'x, y, z'
loop_
 _atom_site_type_symbol
 _atom_site_label
 _atom_site_symmetry_multiplicity
 _atom_site_fract_x
 _atom_site_fract_y
 _atom_site_fract_z
 _atom_site_occupancy
  N  N0  1  1.12500000  0.62500000  0.62500000  1.0
  N  N1  1  0.62500000  1.12500000  -0.37500000  1.0
  N  N2  1  -0.37500000  0.62500000  1.12500000  1.0
  N  N3  1  -0.37500000  0.62500000  0.62500000  1.0
  Cl  Cl4  1  0.08393629  0.08393629  0.41606371  1.0
  Cl  Cl5  1  0.41606371  1.41606371  0.08393629  1.0
  Cl  Cl6  1  0.08393629  1.41606371  0.08393629  1.0
  Cl  Cl7  1  0.41606371  1.08393629  0.41606371  1.0
  Cl  Cl8  1  0.41606371  1.08393629  0.08393629  1.0
  Cl  Cl9  1  0.08393629  1.41606371  0.41606371  1.0
  Cl  Cl10  1  0.16606371  1.16606371  -0.16606371  1.0
  Cl  Cl11  1  0.83393629  0.83393629  -0.83393629  1.0
  Cl  Cl12  1  0.16606371  -0.16606371  0.16606371  1.0
  Cl  Cl13  1  0.83393629  -0.83393629  0.83393629  1.0
  Cl  Cl14  1  -0.16606371  0.16606371  0.16606371  1.0
  Cl  Cl15  1  -0.83393629  0.83393629  0.83393629  1.0
  Cl  Cl16  1  -0.23509482  0.41169827  0.41169827  1.0
  Cl  Cl17  1  0.41169827  -0.23509482  0.41169827  1.0
  Cl  Cl18  1  0.41169827  1.41169827  -0.23509482  1.0
  Cl  Cl19  1  0.41169827  1.41169827  0.41169827  1.0
  Cl  Cl20  1  0.48509482  0.83830173  -0.16169827  1.0
  Cl  Cl21  1  0.83830173  0.48509482  0.83830173  1.0
  Cl  Cl22  1  0.83830173  0.83830173  -0.51490518  1.0
  Cl  Cl23  1  0.83830173  0.83830173  0.83830173  1.0
  Be  Be24  1  0.00608912  1.33130363  0.33130363  1.0
  Be  Be25  1  0.33130363  1.00608912  0.33130363  1.0
  Be  Be26  1  0.33130363  1.33130363  0.00608912  1.0
  Be  Be27  1  0.33130363  1.33130363  0.33130363  1.0
  Be  Be28  1  -0.75608912  0.91869637  0.91869637  1.0
  Be  Be29  1  0.91869637  -0.75608912  0.91869637  1.0
  Be  Be30  1  0.91869637  0.91869637  -0.75608912  1.0
  Be  Be31  1  0.91869637  0.91869637  0.91869637  1.0
