# generated using pymatgen
data_Ba2V2FeHO9
_symmetry_space_group_name_H-M   'P 1'
_cell_length_a   7.96818176
_cell_length_b   6.24582519
_cell_length_c   9.23800421
_cell_angle_alpha   90.00000000
_cell_angle_beta   112.74614893
_cell_angle_gamma   90.00000000
_symmetry_Int_Tables_number   1
_chemical_formula_structural   Ba2V2FeHO9
_chemical_formula_sum   'Ba4 V4 Fe2 H2 O18'
_cell_volume   423.99919064
_cell_formula_units_Z   2
loop_
 _symmetry_equiv_pos_site_id
 _symmetry_equiv_pos_as_xyz
  1  'x, y, z'
loop_
 _atom_site_type_symbol
 _atom_site_label
 _atom_site_symmetry_multiplicity
 _atom_site_fract_x
 _atom_site_fract_y
 _atom_site_fract_z
 _atom_site_occupancy
  Fe  Fe0  1  0.00000000  0.50000000  0.00000000  1.0
  Fe  Fe1  1  0.00000000  0.00000000  0.00000000  1.0
  Ba  Ba2  1  0.73623002  0.25000000  0.24514457  1.0
  Ba  Ba3  1  0.26376998  0.75000000  0.75485543  1.0
  Ba  Ba4  1  0.32046899  0.25000000  0.40947669  1.0
  Ba  Ba5  1  0.67953101  0.75000000  0.59052331  1.0
  V  V6  1  0.95412387  0.25000000  0.66561873  1.0
  V  V7  1  0.04587613  0.75000000  0.33438127  1.0
  V  V8  1  0.56348570  0.25000000  0.82703497  1.0
  V  V9  1  0.43651430  0.75000000  0.17296503  1.0
  O  O10  1  0.50048628  0.46818705  0.70746904  1.0
  O  O11  1  0.50048628  0.03181295  0.70746904  1.0
  O  O12  1  0.49951372  0.96818705  0.29253096  1.0
  O  O13  1  0.49951372  0.53181295  0.29253096  1.0
  O  O14  1  0.73312467  0.25000000  0.54299601  1.0
  O  O15  1  0.26687533  0.75000000  0.45700399  1.0
  O  O16  1  0.45076054  0.25000000  0.94891164  1.0
  O  O17  1  0.54923946  0.75000000  0.05108836  1.0
  O  O18  1  0.07708397  0.25000000  0.55313244  1.0
  O  O19  1  0.92291603  0.75000000  0.44686756  1.0
  O  O20  1  0.17899275  0.25000000  0.06966517  1.0
  O  O21  1  0.82100725  0.75000000  0.93033483  1.0
  O  O22  1  0.80670396  0.25000000  0.95012646  1.0
  O  O23  1  0.19329604  0.75000000  0.04987354  1.0
  O  O24  1  0.00281336  0.98479438  0.21822797  1.0
  O  O25  1  0.00281336  0.51520562  0.21822797  1.0
  O  O26  1  0.99718664  0.48479438  0.78177203  1.0
  O  O27  1  0.99718664  0.01520562  0.78177203  1.0
  H  H28  1  0.27096348  0.25000000  0.02117046  1.0
  H  H29  1  0.72903652  0.75000000  0.97882954  1.0
