# generated using pymatgen
data_CaB2H3
_symmetry_space_group_name_H-M   'P 1'
_cell_length_a   3.51531848
_cell_length_b   3.62318585
_cell_length_c   16.64576261
_cell_angle_alpha   90.00000000
_cell_angle_beta   93.52702105
_cell_angle_gamma   90.00000000
_symmetry_Int_Tables_number   1
_chemical_formula_structural   CaB2H3
_chemical_formula_sum   'Ca4 B8 H12'
_cell_volume   211.60971703
_cell_formula_units_Z   4
loop_
 _symmetry_equiv_pos_site_id
 _symmetry_equiv_pos_as_xyz
  1  'x, y, z'
loop_
 _atom_site_type_symbol
 _atom_site_label
 _atom_site_symmetry_multiplicity
 _atom_site_fract_x
 _atom_site_fract_y
 _atom_site_fract_z
 _atom_site_occupancy
  Ca  Ca0  1  0.71638684  0.45001368  0.38334854  1.0
  Ca  Ca1  1  0.28361316  0.95001368  0.11665146  1.0
  Ca  Ca2  1  0.28361316  0.54998632  0.61665146  1.0
  Ca  Ca3  1  0.71638684  0.04998632  0.88334854  1.0
  B  B4  1  0.75142358  0.94282793  0.51081426  1.0
  B  B5  1  0.24857642  0.44282793  0.98918574  1.0
  B  B6  1  0.24857642  0.05717207  0.48918574  1.0
  B  B7  1  0.75142358  0.55717207  0.01081426  1.0
  B  B8  1  0.61223288  0.54455232  0.75316713  1.0
  B  B9  1  0.38776712  1.04455232  0.74683287  1.0
  B  B10  1  0.38776712  0.45544768  0.24683287  1.0
  B  B11  1  0.61223288  -0.04455232  0.25316713  1.0
  H  H12  1  0.85323054  0.54703122  0.81059002  1.0
  H  H13  1  0.14676946  1.04703122  0.68940998  1.0
  H  H14  1  0.14676946  0.45296878  0.18940998  1.0
  H  H15  1  0.85323054  -0.04703122  0.31059002  1.0
  H  H16  1  0.76098969  0.63131702  0.54047122  1.0
  H  H17  1  0.23901031  0.13131702  0.95952878  1.0
  H  H18  1  0.23901031  0.36868298  0.45952878  1.0
  H  H19  1  0.76098969  0.86868298  0.04047122  1.0
  H  H20  1  0.18325723  0.45848053  0.30522495  1.0
  H  H21  1  0.81674277  -0.04151947  0.19477505  1.0
  H  H22  1  0.81674277  0.54151947  0.69477505  1.0
  H  H23  1  0.18325723  1.04151947  0.80522495  1.0
