# generated using pymatgen
data_CuSeO5
_symmetry_space_group_name_H-M   'P 1'
_cell_length_a   7.93537313
_cell_length_b   6.33136493
_cell_length_c   9.61302807
_cell_angle_alpha   90.00000000
_cell_angle_beta   90.00000000
_cell_angle_gamma   90.00000000
_symmetry_Int_Tables_number   1
_chemical_formula_structural   CuSeO5
_chemical_formula_sum   'Cu4 Se4 O20'
_cell_volume   482.97528684
_cell_formula_units_Z   4
loop_
 _symmetry_equiv_pos_site_id
 _symmetry_equiv_pos_as_xyz
  1  'x, y, z'
loop_
 _atom_site_type_symbol
 _atom_site_label
 _atom_site_symmetry_multiplicity
 _atom_site_fract_x
 _atom_site_fract_y
 _atom_site_fract_z
 _atom_site_occupancy
  Se  Se0  1  0.43406106  0.77958413  0.60327051  1.0
  Se  Se1  1  0.93406106  0.72041587  0.39672949  1.0
  Se  Se2  1  0.56593894  0.27958413  0.89672949  1.0
  Se  Se3  1  0.06593894  0.22041587  0.10327051  1.0
  O  O4  1  0.64674236  0.73582320  0.57413908  1.0
  O  O5  1  0.14674236  0.76417680  0.42586092  1.0
  O  O6  1  0.35325764  0.23582320  0.92586092  1.0
  O  O7  1  0.85325764  0.26417680  0.07413908  1.0
  O  O8  1  0.00969841  0.66484636  0.85079082  1.0
  O  O9  1  0.50969841  0.83515364  0.14920918  1.0
  O  O10  1  0.99030159  0.16484636  0.64920918  1.0
  O  O11  1  0.49030159  0.33515364  0.35079082  1.0
  O  O12  1  0.15908128  0.70179740  0.81725851  1.0
  O  O13  1  0.65908128  0.79820260  0.18274149  1.0
  O  O14  1  0.84091872  0.20179740  0.68274149  1.0
  O  O15  1  0.34091872  0.29820260  0.31725851  1.0
  O  O16  1  0.44911867  0.91103352  0.76204481  1.0
  O  O17  1  0.94911867  0.58896648  0.23795519  1.0
  O  O18  1  0.55088133  0.41103352  0.73795519  1.0
  O  O19  1  0.05088133  0.08896648  0.26204481  1.0
  O  O20  1  0.42163501  0.99552666  0.49054296  1.0
  O  O21  1  0.92163501  0.50447334  0.50945704  1.0
  O  O22  1  0.57836499  0.49552666  1.00945704  1.0
  O  O23  1  0.07836499  0.00447334  -0.00945704  1.0
  Cu  Cu24  1  0.26084112  0.97032939  0.87234169  1.0
  Cu  Cu25  1  0.76084112  0.52967061  0.12765831  1.0
  Cu  Cu26  1  0.73915888  0.47032939  0.62765831  1.0
  Cu  Cu27  1  0.23915888  0.02967061  0.37234169  1.0
