# generated using pymatgen
data_Li2CoGeO4
_symmetry_space_group_name_H-M   'P 1'
_cell_length_a   6.30785683
_cell_length_b   5.53529053
_cell_length_c   5.08034993
_cell_angle_alpha   90.00000000
_cell_angle_beta   90.00000000
_cell_angle_gamma   90.00000000
_symmetry_Int_Tables_number   1
_chemical_formula_structural   Li2CoGeO4
_chemical_formula_sum   'Li4 Co2 Ge2 O8'
_cell_volume   177.38458457
_cell_formula_units_Z   2
loop_
 _symmetry_equiv_pos_site_id
 _symmetry_equiv_pos_as_xyz
  1  'x, y, z'
loop_
 _atom_site_type_symbol
 _atom_site_label
 _atom_site_symmetry_multiplicity
 _atom_site_fract_x
 _atom_site_fract_y
 _atom_site_fract_z
 _atom_site_occupancy
  Li  Li0  1  0.24897193  0.16687094  0.00144617  1.0
  Li  Li1  1  0.74897193  0.83312906  0.50144617  1.0
  Li  Li2  1  0.75102807  0.16687094  0.00144617  1.0
  Li  Li3  1  0.25102807  0.83312906  0.50144617  1.0
  Co  Co4  1  0.50000000  0.66608196  0.00279960  1.0
  Co  Co5  1  0.00000000  0.33391804  0.50279960  1.0
  Ge  Ge6  1  0.50000000  0.33077003  0.50684321  1.0
  Ge  Ge7  1  0.00000000  0.66922997  0.00684321  1.0
  O  O8  1  0.26862109  0.17515949  0.39343636  1.0
  O  O9  1  0.76862109  0.82484051  0.89343636  1.0
  O  O10  1  0.73137891  0.17515949  0.39343636  1.0
  O  O11  1  0.23137891  0.82484051  0.89343636  1.0
  O  O12  1  0.50000000  0.33274806  0.85892523  1.0
  O  O13  1  0.00000000  0.66725194  0.35892523  1.0
  O  O14  1  0.50000000  0.63688178  0.39416690  1.0
  O  O15  1  0.00000000  0.36311822  0.89416690  1.0
