# generated using pymatgen
data_Na2EuCl5
_symmetry_space_group_name_H-M   'P 1'
_cell_length_a   12.21666995
_cell_length_b   8.43743339
_cell_length_c   7.85348799
_cell_angle_alpha   90.00000000
_cell_angle_beta   90.00000000
_cell_angle_gamma   90.00000000
_symmetry_Int_Tables_number   1
_chemical_formula_structural   Na2EuCl5
_chemical_formula_sum   'Na8 Eu4 Cl20'
_cell_volume   809.51664331
_cell_formula_units_Z   4
loop_
 _symmetry_equiv_pos_site_id
 _symmetry_equiv_pos_as_xyz
  1  'x, y, z'
loop_
 _atom_site_type_symbol
 _atom_site_label
 _atom_site_symmetry_multiplicity
 _atom_site_fract_x
 _atom_site_fract_y
 _atom_site_fract_z
 _atom_site_occupancy
  Na  Na0  1  0.67456947  1.00655671  0.48610342  1.0
  Na  Na1  1  0.67456947  0.49344329  0.48610342  1.0
  Na  Na2  1  0.17456947  1.00655671  0.01389658  1.0
  Na  Na3  1  0.17456947  0.49344329  0.01389658  1.0
  Na  Na4  1  0.32543053  0.50655671  0.51389658  1.0
  Na  Na5  1  0.32543053  -0.00655671  0.51389658  1.0
  Na  Na6  1  0.82543053  0.50655671  0.98610342  1.0
  Na  Na7  1  0.82543053  -0.00655671  0.98610342  1.0
  Eu  Eu8  1  0.99608994  0.25000000  0.42429237  1.0
  Eu  Eu9  1  0.49608994  0.25000000  0.07570763  1.0
  Eu  Eu10  1  0.00391006  0.75000000  0.57570763  1.0
  Eu  Eu11  1  0.50391006  0.75000000  0.92429237  1.0
  Cl  Cl12  1  0.90758606  0.95738933  0.33962901  1.0
  Cl  Cl13  1  0.90758606  0.54261067  0.33962901  1.0
  Cl  Cl14  1  0.40758606  0.95738933  0.16037099  1.0
  Cl  Cl15  1  0.40758606  0.54261067  0.16037099  1.0
  Cl  Cl16  1  0.09241394  0.45738933  0.66037099  1.0
  Cl  Cl17  1  0.09241394  0.04261067  0.66037099  1.0
  Cl  Cl18  1  0.59241394  0.45738933  0.83962901  1.0
  Cl  Cl19  1  0.59241394  0.04261067  0.83962901  1.0
  Cl  Cl20  1  0.99074485  0.25000000  0.06040047  1.0
  Cl  Cl21  1  0.49074485  0.25000000  0.43959953  1.0
  Cl  Cl22  1  0.00925515  0.75000000  0.93959953  1.0
  Cl  Cl23  1  0.50925515  0.75000000  0.56040047  1.0
  Cl  Cl24  1  0.81636393  0.25000000  0.63504029  1.0
  Cl  Cl25  1  0.31636393  0.25000000  0.86495971  1.0
  Cl  Cl26  1  0.18363607  0.75000000  0.36495971  1.0
  Cl  Cl27  1  0.68363607  0.75000000  0.13504029  1.0
  Cl  Cl28  1  0.71053533  0.25000000  0.18400655  1.0
  Cl  Cl29  1  0.21053533  0.25000000  0.31599345  1.0
  Cl  Cl30  1  0.28946467  0.75000000  0.81599345  1.0
  Cl  Cl31  1  0.78946467  0.75000000  0.68400655  1.0
