# generated using pymatgen
data_Ge
_symmetry_space_group_name_H-M   'P 1'
_cell_length_a   5.80557949
_cell_length_b   5.80557949
_cell_length_c   5.30547781
_cell_angle_alpha   90.00000000
_cell_angle_beta   90.00000000
_cell_angle_gamma   59.78434946
_symmetry_Int_Tables_number   1
_chemical_formula_structural   Ge
_chemical_formula_sum   Ge8
_cell_volume   154.52488870
_cell_formula_units_Z   8
loop_
 _symmetry_equiv_pos_site_id
 _symmetry_equiv_pos_as_xyz
  1  'x, y, z'
loop_
 _atom_site_type_symbol
 _atom_site_label
 _atom_site_symmetry_multiplicity
 _atom_site_fract_x
 _atom_site_fract_y
 _atom_site_fract_z
 _atom_site_occupancy
  Ge  Ge0  1  -0.27275481  1.27275481  0.49997221  1.0
  Ge  Ge1  1  0.22724519  0.77275481  0.00002779  1.0
  Ge  Ge2  1  0.27275481  0.72724519  0.50002779  1.0
  Ge  Ge3  1  -0.22724519  1.22724519  0.99997221  1.0
  Ge  Ge4  1  0.22298809  1.22298809  0.50000000  1.0
  Ge  Ge5  1  -0.27701191  0.72298809  0.00000000  1.0
  Ge  Ge6  1  -0.22298809  0.77701191  0.50000000  1.0
  Ge  Ge7  1  0.27701191  1.27701191  0.00000000  1.0
