# generated using pymatgen
data_LiBi(WO4)2
_symmetry_space_group_name_H-M   'P 1'
_cell_length_a   5.03221697
_cell_length_b   6.22299208
_cell_length_c   11.15584734
_cell_angle_alpha   90.00000000
_cell_angle_beta   114.82219773
_cell_angle_gamma   90.00000000
_symmetry_Int_Tables_number   1
_chemical_formula_structural   LiBi(WO4)2
_chemical_formula_sum   'Li2 Bi2 W4 O16'
_cell_volume   317.07557448
_cell_formula_units_Z   2
loop_
 _symmetry_equiv_pos_site_id
 _symmetry_equiv_pos_as_xyz
  1  'x, y, z'
loop_
 _atom_site_type_symbol
 _atom_site_label
 _atom_site_symmetry_multiplicity
 _atom_site_fract_x
 _atom_site_fract_y
 _atom_site_fract_z
 _atom_site_occupancy
  Li  Li0  1  0.00000000  0.77063492  0.25000000  1.0
  Li  Li1  1  0.00000000  0.22936508  0.75000000  1.0
  Bi  Bi2  1  0.50000000  0.32970035  0.25000000  1.0
  Bi  Bi3  1  0.50000000  0.67029965  0.75000000  1.0
  W  W4  1  0.73177774  0.83032651  0.48116928  1.0
  W  W5  1  0.73177774  0.16967349  0.98116928  1.0
  W  W6  1  0.26822226  0.83032651  0.01883072  1.0
  W  W7  1  0.26822226  0.16967349  0.51883072  1.0
  O  O8  1  0.84514238  0.89838402  0.90395456  1.0
  O  O9  1  0.84514238  0.10161598  0.40395456  1.0
  O  O10  1  0.15485762  0.89838402  0.59604544  1.0
  O  O11  1  0.15485762  0.10161598  0.09604544  1.0
  O  O12  1  0.77628037  0.65068263  0.36439406  1.0
  O  O13  1  0.77628037  0.34931737  0.86439406  1.0
  O  O14  1  0.22371963  0.65068263  0.13560594  1.0
  O  O15  1  0.22371963  0.34931737  0.63560594  1.0
  O  O16  1  0.72618828  0.35339248  0.10577027  1.0
  O  O17  1  0.72618828  0.64660752  0.60577027  1.0
  O  O18  1  0.27381172  0.35339248  0.39422973  1.0
  O  O19  1  0.27381172  0.64660752  0.89422973  1.0
  O  O20  1  0.65636025  0.90970952  0.10863001  1.0
  O  O21  1  0.65636025  0.09029048  0.60863001  1.0
  O  O22  1  0.34363975  0.90970952  0.39136999  1.0
  O  O23  1  0.34363975  0.09029048  0.89136999  1.0
