# generated using pymatgen
data_Ca3Cu2(ClO2)2
_symmetry_space_group_name_H-M   'P 1'
_cell_length_a   11.29180297
_cell_length_b   11.29180297
_cell_length_c   11.29180297
_cell_angle_alpha   160.25424911
_cell_angle_beta   160.25424911
_cell_angle_gamma   28.06649552
_symmetry_Int_Tables_number   1
_chemical_formula_structural   Ca3Cu2(ClO2)2
_chemical_formula_sum   'Ca3 Cu2 Cl2 O4'
_cell_volume   164.25949341
_cell_formula_units_Z   1
loop_
 _symmetry_equiv_pos_site_id
 _symmetry_equiv_pos_as_xyz
  1  'x, y, z'
loop_
 _atom_site_type_symbol
 _atom_site_label
 _atom_site_symmetry_multiplicity
 _atom_site_fract_x
 _atom_site_fract_y
 _atom_site_fract_z
 _atom_site_occupancy
  Ca  Ca0  1  0.85500578  0.85500578  1.00000000  1.0
  Ca  Ca1  1  0.14499422  0.14499422  0.00000000  1.0
  Ca  Ca2  1  0.00000000  0.00000000  0.00000000  1.0
  Cu  Cu3  1  0.56967309  0.56967309  1.00000000  1.0
  Cu  Cu4  1  0.43032691  0.43032691  0.00000000  1.0
  Cl  Cl5  1  0.69942565  0.69942565  1.00000000  1.0
  Cl  Cl6  1  0.30057435  0.30057435  0.00000000  1.0
  O  O7  1  0.42619611  0.92619611  0.50000000  1.0
  O  O8  1  0.57380389  0.07380389  0.50000000  1.0
  O  O9  1  0.92619611  0.42619611  0.50000000  1.0
  O  O10  1  0.07380389  0.57380389  0.50000000  1.0
