# generated using pymatgen
data_CsLiI2
_symmetry_space_group_name_H-M   'P 1'
_cell_length_a   10.65177521
_cell_length_b   10.65177521
_cell_length_c   13.78213136
_cell_angle_alpha   90.00000000
_cell_angle_beta   90.00000000
_cell_angle_gamma   154.52785871
_symmetry_Int_Tables_number   1
_chemical_formula_structural   CsLiI2
_chemical_formula_sum   'Cs4 Li4 I8'
_cell_volume   672.51461371
_cell_formula_units_Z   4
loop_
 _symmetry_equiv_pos_site_id
 _symmetry_equiv_pos_as_xyz
  1  'x, y, z'
loop_
 _atom_site_type_symbol
 _atom_site_label
 _atom_site_symmetry_multiplicity
 _atom_site_fract_x
 _atom_site_fract_y
 _atom_site_fract_z
 _atom_site_occupancy
  Cs  Cs0  1  0.34373837  0.65626163  0.98485797  1.0
  Cs  Cs1  1  -0.34373837  0.34373837  0.48485797  1.0
  Cs  Cs2  1  -0.48824669  0.48824669  0.76631732  1.0
  Cs  Cs3  1  0.48824669  0.51175331  0.26631732  1.0
  Li  Li4  1  -0.12879059  0.12879059  0.54991664  1.0
  Li  Li5  1  0.12879059  0.87120941  0.04991664  1.0
  Li  Li6  1  0.27815624  0.72184376  0.28481170  1.0
  Li  Li7  1  -0.27815624  0.27815624  0.78481170  1.0
  I  I8  1  0.31031688  0.68968312  0.47986669  1.0
  I  I9  1  -0.31031688  0.31031688  0.97986669  1.0
  I  I10  1  0.14559013  0.85440987  0.25421749  1.0
  I  I11  1  -0.14559013  0.14559013  0.75421749  1.0
  I  I12  1  0.00029917  -0.00029917  0.50620136  1.0
  I  I13  1  -0.00029917  1.00029917  0.00620136  1.0
  I  I14  1  -0.16245948  0.16245948  0.21550084  1.0
  I  I15  1  0.16245948  0.83754052  0.71550084  1.0
