# generated using pymatgen
data_CsMnBr3O2
_symmetry_space_group_name_H-M   'P 1'
_cell_length_a   8.73968918
_cell_length_b   7.49110632
_cell_length_c   12.30717274
_cell_angle_alpha   90.00000000
_cell_angle_beta   90.00000000
_cell_angle_gamma   90.00000000
_symmetry_Int_Tables_number   1
_chemical_formula_structural   CsMnBr3O2
_chemical_formula_sum   'Cs4 Mn4 Br12 O8'
_cell_volume   805.74987168
_cell_formula_units_Z   4
loop_
 _symmetry_equiv_pos_site_id
 _symmetry_equiv_pos_as_xyz
  1  'x, y, z'
loop_
 _atom_site_type_symbol
 _atom_site_label
 _atom_site_symmetry_multiplicity
 _atom_site_fract_x
 _atom_site_fract_y
 _atom_site_fract_z
 _atom_site_occupancy
  Cs  Cs0  1  0.75000000  0.50000000  0.38279343  1.0
  Cs  Cs1  1  0.75000000  0.50000000  0.88279343  1.0
  Cs  Cs2  1  0.25000000  0.50000000  0.61720657  1.0
  Cs  Cs3  1  0.25000000  0.50000000  0.11720657  1.0
  Mn  Mn4  1  0.00000000  1.01637067  0.25000000  1.0
  Mn  Mn5  1  0.00000000  -0.01637067  0.75000000  1.0
  Mn  Mn6  1  0.50000000  1.01637067  0.75000000  1.0
  Mn  Mn7  1  0.50000000  -0.01637067  0.25000000  1.0
  Br  Br8  1  0.89184299  0.74209014  0.13523352  1.0
  Br  Br9  1  0.89184299  0.25790986  0.63523352  1.0
  Br  Br10  1  0.39184299  0.74209014  0.86476648  1.0
  Br  Br11  1  0.39184299  0.25790986  0.36476648  1.0
  Br  Br12  1  0.10815701  0.74209014  0.36476648  1.0
  Br  Br13  1  0.10815701  0.25790986  0.86476648  1.0
  Br  Br14  1  0.60815701  0.74209014  0.63523352  1.0
  Br  Br15  1  0.60815701  0.25790986  0.13523352  1.0
  Br  Br16  1  0.75000000  0.00000000  0.35537234  1.0
  Br  Br17  1  0.75000000  0.00000000  0.85537234  1.0
  Br  Br18  1  0.25000000  0.00000000  0.64462766  1.0
  Br  Br19  1  0.25000000  0.00000000  0.14462766  1.0
  O  O20  1  0.56508975  0.86650101  0.15252213  1.0
  O  O21  1  0.56508975  0.13349899  0.65252213  1.0
  O  O22  1  0.06508975  0.86650101  0.84747787  1.0
  O  O23  1  0.06508975  0.13349899  0.34747787  1.0
  O  O24  1  0.43491025  0.86650101  0.34747787  1.0
  O  O25  1  0.43491025  0.13349899  0.84747787  1.0
  O  O26  1  0.93491025  0.86650101  0.65252213  1.0
  O  O27  1  0.93491025  0.13349899  0.15252213  1.0
