# generated using pymatgen
data_KMn2V3O10
_symmetry_space_group_name_H-M   'P 1'
_cell_length_a   9.65147750
_cell_length_b   7.16727804
_cell_length_c   6.87198044
_cell_angle_alpha   100.53506000
_cell_angle_beta   103.72804995
_cell_angle_gamma   101.19153110
_symmetry_Int_Tables_number   1
_chemical_formula_structural   KMn2V3O10
_chemical_formula_sum   'K2 Mn4 V6 O20'
_cell_volume   439.74474284
_cell_formula_units_Z   2
loop_
 _symmetry_equiv_pos_site_id
 _symmetry_equiv_pos_as_xyz
  1  'x, y, z'
loop_
 _atom_site_type_symbol
 _atom_site_label
 _atom_site_symmetry_multiplicity
 _atom_site_fract_x
 _atom_site_fract_y
 _atom_site_fract_z
 _atom_site_occupancy
  Mn  Mn0  1  -0.20449883  -0.74617824  -0.93930066  1.0
  Mn  Mn1  1  -0.79550117  -0.25382176  -0.06069934  1.0
  Mn  Mn2  1  -0.51812467  -0.21380789  -0.68157660  1.0
  Mn  Mn3  1  -0.48187533  -0.78619211  -0.31842340  1.0
  O  O4  1  -0.50822881  -0.14288861  -0.36428521  1.0
  O  O5  1  -0.49177119  -0.85711139  -0.63571479  1.0
  O  O6  1  -0.25965759  -0.12507574  -0.02917254  1.0
  O  O7  1  -0.74034241  -0.87492426  -0.97082746  1.0
  O  O8  1  -0.74187088  -0.22419758  -0.73115330  1.0
  O  O9  1  -0.25812912  -0.77580242  -0.26884670  1.0
  O  O10  1  -0.56665487  -0.21878186  0.00070806  1.0
  O  O11  1  -0.43334513  -0.78121814  -1.00070806  1.0
  O  O12  1  -0.01785860  -0.92096354  -0.31382079  1.0
  O  O13  1  -0.98214140  -0.07903646  -0.68617921  1.0
  O  O14  1  -0.16120408  -0.74920643  -0.62958540  1.0
  O  O15  1  -0.83879592  -0.25079357  -0.37041460  1.0
  O  O16  1  -0.82251384  -0.55505604  -0.13347019  1.0
  O  O17  1  -0.17748616  -0.44494396  -0.86652981  1.0
  O  O18  1  -0.29614929  -0.11793698  -0.59034253  1.0
  O  O19  1  -0.70385071  -0.88206302  -0.40965747  1.0
  O  O20  1  -0.98918734  -0.73232531  -0.92019496  1.0
  O  O21  1  -0.01081266  -0.26767469  -0.07980504  1.0
  O  O22  1  -0.47057214  -0.48523075  -0.26356399  1.0
  O  O23  1  -0.52942786  -0.51476925  -0.73643601  1.0
  K  K24  1  -0.19136849  -0.39965840  -0.46127943  1.0
  K  K25  1  -0.80863151  -0.60034160  -0.53872057  1.0
  V  V26  1  -0.19054816  -0.89064412  -0.46205128  1.0
  V  V27  1  -0.80945184  -0.10935588  -0.53794872  1.0
  V  V28  1  -0.88776596  -0.76987697  -0.08531297  1.0
  V  V29  1  -0.11223404  -0.23012303  -0.91468703  1.0
  V  V30  1  -0.45475803  -0.24647810  -0.16342977  1.0
  V  V31  1  -0.54524197  -0.75352190  -0.83657023  1.0
