# generated using pymatgen
data_K14(Tl7Cd3)3
_symmetry_space_group_name_H-M   'P 1'
_cell_length_a   10.17368186
_cell_length_b   10.17368186
_cell_length_c   17.51810909
_cell_angle_alpha   90.00000000
_cell_angle_beta   90.00000000
_cell_angle_gamma   120.00000000
_symmetry_Int_Tables_number   1
_chemical_formula_structural   K14(Tl7Cd3)3
_chemical_formula_sum   'K14 Tl21 Cd9'
_cell_volume   1570.26938488
_cell_formula_units_Z   1
loop_
 _symmetry_equiv_pos_site_id
 _symmetry_equiv_pos_as_xyz
  1  'x, y, z'
loop_
 _atom_site_type_symbol
 _atom_site_label
 _atom_site_symmetry_multiplicity
 _atom_site_fract_x
 _atom_site_fract_y
 _atom_site_fract_z
 _atom_site_occupancy
  K  K0  1  0.25004971  0.25004971  0.67583389  1.0
  K  K1  1  0.25004971  0.25004971  0.32416611  1.0
  K  K2  1  0.00000000  0.74995029  0.67583389  1.0
  K  K3  1  0.00000000  0.74995029  0.32416611  1.0
  K  K4  1  0.74995029  0.00000000  0.67583389  1.0
  K  K5  1  0.74995029  -0.00000000  0.32416611  1.0
  K  K6  1  0.61278553  0.61278553  0.81551537  1.0
  K  K7  1  0.61278553  0.61278553  0.18448463  1.0
  K  K8  1  -0.00000000  0.38721447  0.81551537  1.0
  K  K9  1  -0.00000000  0.38721447  0.18448463  1.0
  K  K10  1  0.38721447  -0.00000000  0.81551537  1.0
  K  K11  1  0.38721447  -0.00000000  0.18448463  1.0
  K  K12  1  0.33333333  0.66666667  0.00000000  1.0
  K  K13  1  0.66666667  0.33333333  -0.00000000  1.0
  Tl  Tl14  1  0.60016236  0.60016236  0.60864567  1.0
  Tl  Tl15  1  0.60016236  0.60016236  0.39135433  1.0
  Tl  Tl16  1  0.00000000  0.39983764  0.60864567  1.0
  Tl  Tl17  1  0.00000000  0.39983764  0.39135433  1.0
  Tl  Tl18  1  0.39983764  -0.00000000  0.60864567  1.0
  Tl  Tl19  1  0.39983764  -0.00000000  0.39135433  1.0
  Tl  Tl20  1  0.33333333  0.66666667  0.66428997  1.0
  Tl  Tl21  1  0.33333333  0.66666667  0.33571003  1.0
  Tl  Tl22  1  0.66666667  0.33333333  0.66428997  1.0
  Tl  Tl23  1  0.66666667  0.33333333  0.33571003  1.0
  Tl  Tl24  1  0.77862164  0.77862164  0.00000000  1.0
  Tl  Tl25  1  -0.00000000  0.22137836  0.00000000  1.0
  Tl  Tl26  1  0.22137836  0.00000000  0.00000000  1.0
  Tl  Tl27  1  -0.00000000  -0.00000000  0.84687523  1.0
  Tl  Tl28  1  0.00000000  0.00000000  0.15312477  1.0
  Tl  Tl29  1  0.29470324  0.29470324  0.90550766  1.0
  Tl  Tl30  1  0.29470324  0.29470324  0.09449234  1.0
  Tl  Tl31  1  -0.00000000  0.70529676  0.90550766  1.0
  Tl  Tl32  1  -0.00000000  0.70529676  0.09449234  1.0
  Tl  Tl33  1  0.70529676  0.00000000  0.90550766  1.0
  Tl  Tl34  1  0.70529676  0.00000000  0.09449234  1.0
  Cd  Cd35  1  0.17321303  0.70071117  0.50000000  1.0
  Cd  Cd36  1  0.70071117  0.17321303  0.50000000  1.0
  Cd  Cd37  1  0.52749814  0.82678697  0.50000000  1.0
  Cd  Cd38  1  0.29928883  0.47250186  0.50000000  1.0
  Cd  Cd39  1  0.82678697  0.52749814  0.50000000  1.0
  Cd  Cd40  1  0.47250186  0.29928883  0.50000000  1.0
  Cd  Cd41  1  0.83571861  0.83571861  0.50000000  1.0
  Cd  Cd42  1  -0.00000000  0.16428139  0.50000000  1.0
  Cd  Cd43  1  0.16428139  -0.00000000  0.50000000  1.0
