# generated using pymatgen
data_SrAl6O9
_symmetry_space_group_name_H-M   'P 1'
_cell_length_a   8.01264804
_cell_length_b   8.01264804
_cell_length_c   5.85174663
_cell_angle_alpha   90.00000000
_cell_angle_beta   90.00000000
_cell_angle_gamma   90.00000000
_symmetry_Int_Tables_number   1
_chemical_formula_structural   SrAl6O9
_chemical_formula_sum   'Sr2 Al12 O18'
_cell_volume   375.69693079
_cell_formula_units_Z   2
loop_
 _symmetry_equiv_pos_site_id
 _symmetry_equiv_pos_as_xyz
  1  'x, y, z'
loop_
 _atom_site_type_symbol
 _atom_site_label
 _atom_site_symmetry_multiplicity
 _atom_site_fract_x
 _atom_site_fract_y
 _atom_site_fract_z
 _atom_site_occupancy
  Sr  Sr0  1  0.50000000  0.50000000  0.00000000  1.0
  Sr  Sr1  1  0.00000000  0.00000000  0.50000000  1.0
  Al  Al2  1  0.50000000  0.00000000  0.25000000  1.0
  Al  Al3  1  0.50000000  0.00000000  0.75000000  1.0
  Al  Al4  1  0.00000000  0.50000000  0.75000000  1.0
  Al  Al5  1  0.00000000  0.50000000  0.25000000  1.0
  Al  Al6  1  0.30618440  0.68136463  0.50000000  1.0
  Al  Al7  1  0.80618440  0.81863537  0.00000000  1.0
  Al  Al8  1  0.31863537  0.30618440  0.50000000  1.0
  Al  Al9  1  0.81863537  0.19381560  0.00000000  1.0
  Al  Al10  1  0.69381560  0.31863537  0.50000000  1.0
  Al  Al11  1  0.19381560  0.18136463  0.00000000  1.0
  Al  Al12  1  0.68136463  0.69381560  0.50000000  1.0
  Al  Al13  1  0.18136463  0.80618440  0.00000000  1.0
  O  O14  1  0.38855577  0.88855219  0.50000000  1.0
  O  O15  1  0.88855577  0.61144781  0.00000000  1.0
  O  O16  1  0.11144781  0.38855577  0.50000000  1.0
  O  O17  1  0.61144781  0.11144423  0.00000000  1.0
  O  O18  1  0.61144423  0.11144781  0.50000000  1.0
  O  O19  1  0.11144423  0.38855219  0.00000000  1.0
  O  O20  1  0.88855219  0.61144423  0.50000000  1.0
  O  O21  1  0.38855219  0.88855577  0.00000000  1.0
  O  O22  1  0.32540148  0.17459852  0.25000000  1.0
  O  O23  1  0.32540148  0.17459852  0.75000000  1.0
  O  O24  1  0.82540148  0.32540148  0.75000000  1.0
  O  O25  1  0.82540148  0.32540148  0.25000000  1.0
  O  O26  1  0.67459852  0.82540148  0.25000000  1.0
  O  O27  1  0.67459852  0.82540148  0.75000000  1.0
  O  O28  1  0.17459852  0.67459852  0.75000000  1.0
  O  O29  1  0.17459852  0.67459852  0.25000000  1.0
  O  O30  1  0.50000000  0.50000000  0.50000000  1.0
  O  O31  1  0.00000000  0.00000000  0.00000000  1.0
