# generated using pymatgen
data_Ga5HO8
_symmetry_space_group_name_H-M   'P 1'
_cell_length_a   5.90472265
_cell_length_b   5.90472265
_cell_length_c   9.18302843
_cell_angle_alpha   90.00000000
_cell_angle_beta   90.00000000
_cell_angle_gamma   120.00000000
_symmetry_Int_Tables_number   1
_chemical_formula_structural   Ga5HO8
_chemical_formula_sum   'Ga10 H2 O16'
_cell_volume   277.27809806
_cell_formula_units_Z   2
loop_
 _symmetry_equiv_pos_site_id
 _symmetry_equiv_pos_as_xyz
  1  'x, y, z'
loop_
 _atom_site_type_symbol
 _atom_site_label
 _atom_site_symmetry_multiplicity
 _atom_site_fract_x
 _atom_site_fract_y
 _atom_site_fract_z
 _atom_site_occupancy
  Ga  Ga0  1  0.66781965  0.83390982  0.38101668  1.0
  Ga  Ga1  1  0.83390982  0.66781965  0.88101668  1.0
  Ga  Ga2  1  0.83390982  0.16609018  0.88101668  1.0
  Ga  Ga3  1  0.16609018  0.83390982  0.38101668  1.0
  Ga  Ga4  1  0.16609018  0.33218035  0.38101668  1.0
  Ga  Ga5  1  0.33218035  0.16609018  0.88101668  1.0
  Ga  Ga6  1  0.33333333  0.66666667  0.06021714  1.0
  Ga  Ga7  1  0.66666667  0.33333333  0.56021714  1.0
  Ga  Ga8  1  0.33333333  0.66666667  0.67890934  1.0
  Ga  Ga9  1  0.66666667  0.33333333  0.17890934  1.0
  H  H10  1  -0.00000000  -0.00000000  0.10951022  1.0
  H  H11  1  -0.00000000  0.00000000  0.60951022  1.0
  O  O12  1  0.96953448  0.48476724  0.01733587  1.0
  O  O13  1  0.48476724  0.96953448  0.51733587  1.0
  O  O14  1  0.48476724  0.51523276  0.51733587  1.0
  O  O15  1  0.51523276  0.48476724  0.01733587  1.0
  O  O16  1  0.51523276  0.03046552  0.01733587  1.0
  O  O17  1  0.03046552  0.51523276  0.51733587  1.0
  O  O18  1  0.32895743  0.16447871  0.27772233  1.0
  O  O19  1  0.16447871  0.32895743  0.77772233  1.0
  O  O20  1  0.16447871  0.83552129  0.77772233  1.0
  O  O21  1  0.83552129  0.16447871  0.27772233  1.0
  O  O22  1  0.83552129  0.67104257  0.27772233  1.0
  O  O23  1  0.67104257  0.83552129  0.77772233  1.0
  O  O24  1  0.33333333  0.66666667  0.26925537  1.0
  O  O25  1  0.66666667  0.33333333  0.76925537  1.0
  O  O26  1  0.00000000  0.00000000  0.00208329  1.0
  O  O27  1  -0.00000000  -0.00000000  0.50208329  1.0
