# generated using pymatgen
data_KMgH3N2
_symmetry_space_group_name_H-M   'P 1'
_cell_length_a   3.68398203
_cell_length_b   9.70240868
_cell_length_c   10.02205833
_cell_angle_alpha   90.00000000
_cell_angle_beta   90.00000000
_cell_angle_gamma   90.00000000
_symmetry_Int_Tables_number   1
_chemical_formula_structural   KMgH3N2
_chemical_formula_sum   'K4 Mg4 H12 N8'
_cell_volume   358.22343431
_cell_formula_units_Z   4
loop_
 _symmetry_equiv_pos_site_id
 _symmetry_equiv_pos_as_xyz
  1  'x, y, z'
loop_
 _atom_site_type_symbol
 _atom_site_label
 _atom_site_symmetry_multiplicity
 _atom_site_fract_x
 _atom_site_fract_y
 _atom_site_fract_z
 _atom_site_occupancy
  K  K0  1  -0.00063197  0.99508881  0.81912519  1.0
  K  K1  1  0.49936803  0.50491119  0.18087481  1.0
  K  K2  1  1.00063197  0.49508881  0.68087481  1.0
  K  K3  1  0.50063197  0.00491119  0.31912519  1.0
  Mg  Mg4  1  0.49970440  0.79117663  0.60083151  1.0
  Mg  Mg5  1  0.99970440  0.70882337  0.39916849  1.0
  Mg  Mg6  1  0.50029560  0.29117663  0.89916849  1.0
  Mg  Mg7  1  0.00029560  0.20882337  0.10083151  1.0
  H  H8  1  0.28210095  0.72144028  0.86029595  1.0
  H  H9  1  0.78210095  0.77855972  0.13970405  1.0
  H  H10  1  0.71789905  0.22144028  0.63970405  1.0
  H  H11  1  0.21789905  0.27855972  0.36029595  1.0
  H  H12  1  0.21580833  0.77901127  0.13944073  1.0
  H  H13  1  0.71580833  0.72098873  0.86055927  1.0
  H  H14  1  0.78419167  0.27901127  0.36055927  1.0
  H  H15  1  0.28419167  0.22098873  0.63944073  1.0
  H  H16  1  -0.00018212  0.97923627  0.52975510  1.0
  H  H17  1  0.49981788  0.52076373  0.47024490  1.0
  H  H18  1  1.00018212  0.47923627  0.97024490  1.0
  H  H19  1  0.50018212  0.02076373  0.02975510  1.0
  N  N20  1  0.49943835  0.75520600  0.80551698  1.0
  N  N21  1  0.99943835  0.74479400  0.19448302  1.0
  N  N22  1  0.50056165  0.25520600  0.69448302  1.0
  N  N23  1  0.00056165  0.24479400  0.30551698  1.0
  N  N24  1  0.99967765  0.87352864  0.53734959  1.0
  N  N25  1  0.49967765  0.62647136  0.46265041  1.0
  N  N26  1  0.00032235  0.37352864  0.96265041  1.0
  N  N27  1  0.50032235  0.12647136  0.03734959  1.0
