# generated using pymatgen
data_MnBe12
_symmetry_space_group_name_H-M   'P 1'
_cell_length_a   5.47521934
_cell_length_b   5.47521934
_cell_length_c   5.47521934
_cell_angle_alpha   98.11784785
_cell_angle_beta   98.11784785
_cell_angle_gamma   135.85510282
_symmetry_Int_Tables_number   1
_chemical_formula_structural   MnBe12
_chemical_formula_sum   'Mn1 Be12'
_cell_volume   105.93851385
_cell_formula_units_Z   1
loop_
 _symmetry_equiv_pos_site_id
 _symmetry_equiv_pos_as_xyz
  1  'x, y, z'
loop_
 _atom_site_type_symbol
 _atom_site_label
 _atom_site_symmetry_multiplicity
 _atom_site_fract_x
 _atom_site_fract_y
 _atom_site_fract_z
 _atom_site_occupancy
  Mn  Mn0  1  0.00000000  0.00000000  0.00000000  1.0
  Be  Be1  1  0.50000000  0.71015510  0.21015510  1.0
  Be  Be2  1  0.71015510  0.50000000  1.21015510  1.0
  Be  Be3  1  0.28984490  0.50000000  0.78984490  1.0
  Be  Be4  1  0.50000000  1.28984490  0.78984490  1.0
  Be  Be5  1  -0.00000000  0.65310463  0.65310463  1.0
  Be  Be6  1  0.65310463  1.00000000  0.65310463  1.0
  Be  Be7  1  1.34689537  1.00000000  1.34689537  1.0
  Be  Be8  1  -0.00000000  0.34689537  0.34689537  1.0
  Be  Be9  1  0.50000000  0.50000000  0.50000000  1.0
  Be  Be10  1  1.00000000  1.00000000  0.50000000  1.0
  Be  Be11  1  1.00000000  0.50000000  1.00000000  1.0
  Be  Be12  1  1.50000000  1.00000000  1.00000000  1.0
