# generated using pymatgen
data_Zr2Al
_symmetry_space_group_name_H-M   'P 1'
_cell_length_a   5.54133414
_cell_length_b   5.54133414
_cell_length_c   5.54133414
_cell_angle_alpha   103.57410800
_cell_angle_beta   103.57410800
_cell_angle_gamma   122.04561682
_symmetry_Int_Tables_number   1
_chemical_formula_structural   Zr2Al
_chemical_formula_sum   'Zr4 Al2'
_cell_volume   126.17179813
_cell_formula_units_Z   2
loop_
 _symmetry_equiv_pos_site_id
 _symmetry_equiv_pos_as_xyz
  1  'x, y, z'
loop_
 _atom_site_type_symbol
 _atom_site_label
 _atom_site_symmetry_multiplicity
 _atom_site_fract_x
 _atom_site_fract_y
 _atom_site_fract_z
 _atom_site_occupancy
  Zr  Zr0  1  0.84852725  0.34852725  1.19705449  1.0
  Zr  Zr1  1  0.65147275  0.84852725  0.50000000  1.0
  Zr  Zr2  1  1.34852725  1.15147275  1.50000000  1.0
  Zr  Zr3  1  0.15147275  0.65147275  0.80294551  1.0
  Al  Al4  1  0.25000000  0.25000000  0.00000000  1.0
  Al  Al5  1  0.75000000  0.75000000  0.00000000  1.0
