# generated using pymatgen
data_TbB4
_symmetry_space_group_name_H-M   'P 1'
_cell_length_a   7.09950232
_cell_length_b   7.09950232
_cell_length_c   4.01721854
_cell_angle_alpha   90.00000000
_cell_angle_beta   90.00000000
_cell_angle_gamma   90.00000000
_symmetry_Int_Tables_number   1
_chemical_formula_structural   TbB4
_chemical_formula_sum   'Tb4 B16'
_cell_volume   202.47959783
_cell_formula_units_Z   4
loop_
 _symmetry_equiv_pos_site_id
 _symmetry_equiv_pos_as_xyz
  1  'x, y, z'
loop_
 _atom_site_type_symbol
 _atom_site_label
 _atom_site_symmetry_multiplicity
 _atom_site_fract_x
 _atom_site_fract_y
 _atom_site_fract_z
 _atom_site_occupancy
  Tb  Tb0  1  0.31561388  0.18438612  0.50000000  1.0
  Tb  Tb1  1  0.81561388  0.31561388  0.50000000  1.0
  Tb  Tb2  1  0.68438612  0.81561388  0.50000000  1.0
  Tb  Tb3  1  0.18438612  0.68438612  0.50000000  1.0
  B  B4  1  0.46148037  0.67637019  0.00000000  1.0
  B  B5  1  0.96148037  0.82362981  0.00000000  1.0
  B  B6  1  0.32362981  0.46148037  0.00000000  1.0
  B  B7  1  0.82362981  0.03851963  0.00000000  1.0
  B  B8  1  0.53851963  0.32362981  0.00000000  1.0
  B  B9  1  0.03851963  0.17637019  0.00000000  1.0
  B  B10  1  0.67637019  0.53851963  0.00000000  1.0
  B  B11  1  0.17637019  0.96148037  0.00000000  1.0
  B  B12  1  0.91291045  0.58708955  0.00000000  1.0
  B  B13  1  0.41291045  0.91291045  0.00000000  1.0
  B  B14  1  0.08708955  0.41291045  0.00000000  1.0
  B  B15  1  0.58708955  0.08708955  0.00000000  1.0
  B  B16  1  0.50000000  0.50000000  0.70222022  1.0
  B  B17  1  0.50000000  0.50000000  0.29777978  1.0
  B  B18  1  0.00000000  0.00000000  0.70222022  1.0
  B  B19  1  0.00000000  0.00000000  0.29777978  1.0
