# generated using pymatgen
data_Cu(SbO3)2
_symmetry_space_group_name_H-M   'P 1'
_cell_length_a   4.72531800
_cell_length_b   4.72650075
_cell_length_c   10.59747308
_cell_angle_alpha   90.00000000
_cell_angle_beta   116.50373444
_cell_angle_gamma   90.00000000
_symmetry_Int_Tables_number   1
_chemical_formula_structural   Cu(SbO3)2
_chemical_formula_sum   'Cu2 Sb4 O12'
_cell_volume   211.81180603
_cell_formula_units_Z   2
loop_
 _symmetry_equiv_pos_site_id
 _symmetry_equiv_pos_as_xyz
  1  'x, y, z'
loop_
 _atom_site_type_symbol
 _atom_site_label
 _atom_site_symmetry_multiplicity
 _atom_site_fract_x
 _atom_site_fract_y
 _atom_site_fract_z
 _atom_site_occupancy
  Cu  Cu0  1  0.00000000  0.50000000  0.50000000  1.0
  Cu  Cu1  1  -0.00000000  0.00000000  0.00000000  1.0
  Sb  Sb2  1  0.33210814  0.49981703  0.83209865  1.0
  Sb  Sb3  1  0.66789186  -0.00018297  0.66790135  1.0
  Sb  Sb4  1  0.66789186  0.50018297  0.16790135  1.0
  Sb  Sb5  1  0.33210814  0.00018297  0.33209865  1.0
  O  O6  1  0.69202734  0.80833263  0.49997596  1.0
  O  O7  1  0.30797266  0.30833263  0.00002404  1.0
  O  O8  1  0.30797266  0.19166737  0.50002404  1.0
  O  O9  1  0.69202734  0.69166737  -0.00002404  1.0
  O  O10  1  0.63158453  0.19653891  0.82877428  1.0
  O  O11  1  0.36841547  0.69653891  0.67122572  1.0
  O  O12  1  0.36841547  0.80346109  0.17122572  1.0
  O  O13  1  0.63158453  0.30346109  0.32877428  1.0
  O  O14  1  0.02598007  0.80298877  0.82873230  1.0
  O  O15  1  0.97401993  0.30298877  0.67126770  1.0
  O  O16  1  0.97401993  0.19701123  0.17126770  1.0
  O  O17  1  0.02598007  0.69701123  0.32873230  1.0
