# generated using pymatgen
data_Lu9C4I8O
_symmetry_space_group_name_H-M   'P 1'
_cell_length_a   3.77010939
_cell_length_b   28.37782280
_cell_length_c   11.74018652
_cell_angle_alpha   90.00000000
_cell_angle_beta   90.00000000
_cell_angle_gamma   90.00000000
_symmetry_Int_Tables_number   1
_chemical_formula_structural   Lu9C4I8O
_chemical_formula_sum   'Lu18 C8 I16 O2'
_cell_volume   1256.05316127
_cell_formula_units_Z   2
loop_
 _symmetry_equiv_pos_site_id
 _symmetry_equiv_pos_as_xyz
  1  'x, y, z'
loop_
 _atom_site_type_symbol
 _atom_site_label
 _atom_site_symmetry_multiplicity
 _atom_site_fract_x
 _atom_site_fract_y
 _atom_site_fract_z
 _atom_site_occupancy
  Lu  Lu0  1  0.50000000  0.61449243  0.52530614  1.0
  Lu  Lu1  1  0.50000000  0.38550757  0.52530614  1.0
  Lu  Lu2  1  0.00000000  0.11449243  0.47469386  1.0
  Lu  Lu3  1  0.00000000  0.88550757  0.47469386  1.0
  Lu  Lu4  1  0.50000000  0.56646994  0.27747647  1.0
  Lu  Lu5  1  0.50000000  0.43353006  0.27747647  1.0
  Lu  Lu6  1  0.00000000  0.06646994  0.72252353  1.0
  Lu  Lu7  1  0.00000000  0.93353006  0.72252353  1.0
  Lu  Lu8  1  0.50000000  0.22085504  0.40704318  1.0
  Lu  Lu9  1  0.50000000  0.77914496  0.40704318  1.0
  Lu  Lu10  1  0.00000000  0.72085504  0.59295682  1.0
  Lu  Lu11  1  0.00000000  0.27914496  0.59295682  1.0
  Lu  Lu12  1  0.50000000  0.17145395  0.66301508  1.0
  Lu  Lu13  1  0.50000000  0.82854605  0.66301508  1.0
  Lu  Lu14  1  0.00000000  0.67145395  0.33698492  1.0
  Lu  Lu15  1  0.00000000  0.32854605  0.33698492  1.0
  Lu  Lu16  1  0.50000000  0.00000000  0.54516063  1.0
  Lu  Lu17  1  0.00000000  0.50000000  0.45483937  1.0
  C  C18  1  0.50000000  0.69530981  0.46463088  1.0
  C  C19  1  0.50000000  0.30469019  0.46463088  1.0
  C  C20  1  0.00000000  0.19530981  0.53536912  1.0
  C  C21  1  0.00000000  0.80469019  0.53536912  1.0
  C  C22  1  0.50000000  0.08842042  0.60378167  1.0
  C  C23  1  0.50000000  0.91157958  0.60378167  1.0
  C  C24  1  0.00000000  0.58842042  0.39621833  1.0
  C  C25  1  0.00000000  0.41157958  0.39621833  1.0
  I  I26  1  0.50000000  0.73728286  0.79580143  1.0
  I  I27  1  0.50000000  0.26271714  0.79580143  1.0
  I  I28  1  0.00000000  0.23728286  0.20419857  1.0
  I  I29  1  0.00000000  0.76271714  0.20419857  1.0
  I  I30  1  0.50000000  0.64722118  0.12253632  1.0
  I  I31  1  0.50000000  0.35277882  0.12253632  1.0
  I  I32  1  0.00000000  0.14722118  0.87746368  1.0
  I  I33  1  0.00000000  0.85277882  0.87746368  1.0
  I  I34  1  0.50000000  0.12219474  0.27491296  1.0
  I  I35  1  0.50000000  0.87780526  0.27491296  1.0
  I  I36  1  0.00000000  0.62219474  0.72508704  1.0
  I  I37  1  0.00000000  0.37780526  0.72508704  1.0
  I  I38  1  0.50000000  0.00000000  0.88635125  1.0
  I  I39  1  0.00000000  0.50000000  0.11364875  1.0
  I  I40  1  0.50000000  0.50000000  0.65476432  1.0
  I  I41  1  0.00000000  0.00000000  0.34523568  1.0
  O  O42  1  0.50000000  0.50000000  0.36275614  1.0
  O  O43  1  0.00000000  0.00000000  0.63724386  1.0
