# generated using pymatgen
data_Li4Al3Ge3ClO12
_symmetry_space_group_name_H-M   'P 1'
_cell_length_a   8.69496175
_cell_length_b   8.69496175
_cell_length_c   8.69496175
_cell_angle_alpha   90.00000000
_cell_angle_beta   90.00000000
_cell_angle_gamma   90.00000000
_symmetry_Int_Tables_number   1
_chemical_formula_structural   Li4Al3Ge3ClO12
_chemical_formula_sum   'Li8 Al6 Ge6 Cl2 O24'
_cell_volume   657.35962715
_cell_formula_units_Z   2
loop_
 _symmetry_equiv_pos_site_id
 _symmetry_equiv_pos_as_xyz
  1  'x, y, z'
loop_
 _atom_site_type_symbol
 _atom_site_label
 _atom_site_symmetry_multiplicity
 _atom_site_fract_x
 _atom_site_fract_y
 _atom_site_fract_z
 _atom_site_occupancy
  Li  Li0  1  0.32771787  0.32771787  0.67228213  1.0
  Li  Li1  1  0.32771787  0.67228213  0.32771787  1.0
  Li  Li2  1  0.82771787  0.82771787  0.17228213  1.0
  Li  Li3  1  0.82771787  0.17228213  0.82771787  1.0
  Li  Li4  1  0.67228213  0.32771787  0.32771787  1.0
  Li  Li5  1  0.67228213  0.67228213  0.67228213  1.0
  Li  Li6  1  0.17228213  0.82771787  0.82771787  1.0
  Li  Li7  1  0.17228213  0.17228213  0.17228213  1.0
  Al  Al8  1  0.25000000  0.00000000  0.50000000  1.0
  Al  Al9  1  0.75000000  0.00000000  0.50000000  1.0
  Al  Al10  1  0.50000000  0.25000000  0.00000000  1.0
  Al  Al11  1  0.50000000  0.75000000  0.00000000  1.0
  Al  Al12  1  0.00000000  0.50000000  0.25000000  1.0
  Al  Al13  1  0.00000000  0.50000000  0.75000000  1.0
  Ge  Ge14  1  0.25000000  0.50000000  0.00000000  1.0
  Ge  Ge15  1  0.75000000  0.50000000  0.00000000  1.0
  Ge  Ge16  1  0.00000000  0.25000000  0.50000000  1.0
  Ge  Ge17  1  0.00000000  0.75000000  0.50000000  1.0
  Ge  Ge18  1  0.50000000  0.00000000  0.25000000  1.0
  Ge  Ge19  1  0.50000000  0.00000000  0.75000000  1.0
  Cl  Cl20  1  0.50000000  0.50000000  0.50000000  1.0
  Cl  Cl21  1  0.00000000  0.00000000  0.00000000  1.0
  O  O22  1  0.36295453  0.10005724  0.63741674  1.0
  O  O23  1  0.36295453  0.89994276  0.36258326  1.0
  O  O24  1  0.86295453  0.86258326  0.39994276  1.0
  O  O25  1  0.86295453  0.13741674  0.60005724  1.0
  O  O26  1  0.36258326  0.36295453  0.89994276  1.0
  O  O27  1  0.36258326  0.63704547  0.10005724  1.0
  O  O28  1  0.86258326  0.60005724  0.13704547  1.0
  O  O29  1  0.86258326  0.39994276  0.86295453  1.0
  O  O30  1  0.10005724  0.36258326  0.63704547  1.0
  O  O31  1  0.10005724  0.63741674  0.36295453  1.0
  O  O32  1  0.60005724  0.86295453  0.13741674  1.0
  O  O33  1  0.60005724  0.13704547  0.86258326  1.0
  O  O34  1  0.63704547  0.10005724  0.36258326  1.0
  O  O35  1  0.63704547  0.89994276  0.63741674  1.0
  O  O36  1  0.13704547  0.86258326  0.60005724  1.0
  O  O37  1  0.13704547  0.13741674  0.39994276  1.0
  O  O38  1  0.63741674  0.36295453  0.10005724  1.0
  O  O39  1  0.63741674  0.63704547  0.89994276  1.0
  O  O40  1  0.13741674  0.60005724  0.86295453  1.0
  O  O41  1  0.13741674  0.39994276  0.13704547  1.0
  O  O42  1  0.89994276  0.36258326  0.36295453  1.0
  O  O43  1  0.89994276  0.63741674  0.63704547  1.0
  O  O44  1  0.39994276  0.86295453  0.86258326  1.0
  O  O45  1  0.39994276  0.13704547  0.13741674  1.0
