# generated using pymatgen
data_SrV4O10
_symmetry_space_group_name_H-M   'P 1'
_cell_length_a   9.24519015
_cell_length_b   7.34022299
_cell_length_c   6.10949568
_cell_angle_alpha   107.31846332
_cell_angle_beta   92.45610808
_cell_angle_gamma   89.88100386
_symmetry_Int_Tables_number   1
_chemical_formula_structural   SrV4O10
_chemical_formula_sum   'Sr2 V8 O20'
_cell_volume   395.41673893
_cell_formula_units_Z   2
loop_
 _symmetry_equiv_pos_site_id
 _symmetry_equiv_pos_as_xyz
  1  'x, y, z'
loop_
 _atom_site_type_symbol
 _atom_site_label
 _atom_site_symmetry_multiplicity
 _atom_site_fract_x
 _atom_site_fract_y
 _atom_site_fract_z
 _atom_site_occupancy
  Sr  Sr0  1  -0.97904040  -0.79296321  -0.18222704  1.0
  Sr  Sr1  1  -0.02095960  -0.20703679  -0.81777296  1.0
  V  V2  1  -0.66581239  -0.96705625  -0.87852838  1.0
  V  V3  1  -0.33418761  -0.03294375  -0.12147162  1.0
  V  V4  1  -0.66534824  -0.47026118  -0.87644431  1.0
  V  V5  1  -0.33465176  -0.52973882  -0.12355569  1.0
  V  V6  1  -0.33180572  -0.88626526  -0.53162173  1.0
  V  V7  1  -0.66819428  -0.11373474  -0.46837827  1.0
  V  V8  1  -0.66878036  -0.61842560  -0.46335801  1.0
  V  V9  1  -0.33121964  -0.38157440  -0.53664199  1.0
  O  O10  1  -0.84385050  -0.48558429  -0.92437558  1.0
  O  O11  1  -0.15614950  -0.51441571  -0.07562442  1.0
  O  O12  1  -0.84492747  -0.97241768  -0.91942174  1.0
  O  O13  1  -0.15507253  -0.02758232  -0.08057826  1.0
  O  O14  1  -0.39311856  -0.96041374  -0.83405506  1.0
  O  O15  1  -0.60688144  -0.03958626  -0.16594494  1.0
  O  O16  1  -0.39914543  -0.45720915  -0.83271230  1.0
  O  O17  1  -0.60085457  -0.54279085  -0.16728770  1.0
  O  O18  1  -0.64031547  -0.19912574  -0.80265293  1.0
  O  O19  1  -0.35968453  -0.80087426  -0.19734707  1.0
  O  O20  1  -0.63494822  -0.70039235  -0.80089965  1.0
  O  O21  1  -0.36505178  -0.29960765  -0.19910035  1.0
  O  O22  1  -0.15396974  -0.91086258  -0.54482603  1.0
  O  O23  1  -0.84603026  -0.08913742  -0.45517397  1.0
  O  O24  1  -0.61363563  -0.88245865  -0.53329128  1.0
  O  O25  1  -0.38636437  -0.11754135  -0.46670872  1.0
  O  O26  1  -0.63282221  -0.38249763  -0.53107401  1.0
  O  O27  1  -0.36717779  -0.61750237  -0.46892599  1.0
  O  O28  1  -0.84187838  -0.63281098  -0.43823465  1.0
  O  O29  1  -0.15812162  -0.36718902  -0.56176535  1.0
