# generated using pymatgen
data_CdTcO3
_symmetry_space_group_name_H-M   'P 1'
_cell_length_a   5.55369630
_cell_length_b   7.82733137
_cell_length_c   5.46013881
_cell_angle_alpha   90.00000000
_cell_angle_beta   90.00000000
_cell_angle_gamma   90.00000000
_symmetry_Int_Tables_number   1
_chemical_formula_structural   CdTcO3
_chemical_formula_sum   'Cd4 Tc4 O12'
_cell_volume   237.35562613
_cell_formula_units_Z   4
loop_
 _symmetry_equiv_pos_site_id
 _symmetry_equiv_pos_as_xyz
  1  'x, y, z'
loop_
 _atom_site_type_symbol
 _atom_site_label
 _atom_site_symmetry_multiplicity
 _atom_site_fract_x
 _atom_site_fract_y
 _atom_site_fract_z
 _atom_site_occupancy
  Cd  Cd0  1  0.04433497  0.75000000  0.51022835  1.0
  Cd  Cd1  1  0.54433497  0.75000000  0.98977165  1.0
  Cd  Cd2  1  0.95566503  0.25000000  0.48977165  1.0
  Cd  Cd3  1  0.45566503  0.25000000  0.01022835  1.0
  Tc  Tc4  1  0.50000000  0.00000000  0.50000000  1.0
  Tc  Tc5  1  0.50000000  0.50000000  0.50000000  1.0
  Tc  Tc6  1  0.00000000  0.00000000  0.00000000  1.0
  Tc  Tc7  1  0.00000000  0.50000000  0.00000000  1.0
  O  O8  1  0.29975559  0.94370809  0.80223647  1.0
  O  O9  1  0.29975559  0.55629191  0.80223647  1.0
  O  O10  1  0.79975559  0.94370809  0.69776353  1.0
  O  O11  1  0.79975559  0.55629191  0.69776353  1.0
  O  O12  1  0.70024441  0.44370809  0.19776353  1.0
  O  O13  1  0.70024441  0.05629191  0.19776353  1.0
  O  O14  1  0.20024441  0.44370809  0.30223647  1.0
  O  O15  1  0.20024441  0.05629191  0.30223647  1.0
  O  O16  1  0.95620838  0.75000000  0.10488824  1.0
  O  O17  1  0.45620838  0.75000000  0.39511176  1.0
  O  O18  1  0.04379162  0.25000000  0.89511176  1.0
  O  O19  1  0.54379162  0.25000000  0.60488824  1.0
