# generated using pymatgen
data_BaTiCu4P4O17
_symmetry_space_group_name_H-M   'P 1'
_cell_length_a   9.74553412
_cell_length_b   9.74553412
_cell_length_c   7.27472356
_cell_angle_alpha   90.00000000
_cell_angle_beta   90.00000000
_cell_angle_gamma   90.00000000
_symmetry_Int_Tables_number   1
_chemical_formula_structural   BaTiCu4P4O17
_chemical_formula_sum   'Ba2 Ti2 Cu8 P8 O34'
_cell_volume   690.92003623
_cell_formula_units_Z   2
loop_
 _symmetry_equiv_pos_site_id
 _symmetry_equiv_pos_as_xyz
  1  'x, y, z'
loop_
 _atom_site_type_symbol
 _atom_site_label
 _atom_site_symmetry_multiplicity
 _atom_site_fract_x
 _atom_site_fract_y
 _atom_site_fract_z
 _atom_site_occupancy
  Ti  Ti0  1  0.50000000  0.00000000  0.97507630  1.0
  Ti  Ti1  1  0.00000000  0.50000000  0.02492370  1.0
  P  P2  1  0.30451312  0.78343515  0.73729697  1.0
  P  P3  1  0.69548688  0.21656485  0.73729697  1.0
  P  P4  1  0.80451312  0.71656485  0.26270303  1.0
  P  P5  1  0.19548688  0.28343515  0.26270303  1.0
  P  P6  1  0.78343515  0.30451312  0.26270303  1.0
  P  P7  1  0.21656485  0.69548688  0.26270303  1.0
  P  P8  1  0.71656485  0.80451312  0.73729697  1.0
  P  P9  1  0.28343515  0.19548688  0.73729697  1.0
  Ba  Ba10  1  0.50000000  0.50000000  0.00000000  1.0
  Ba  Ba11  1  0.00000000  0.00000000  0.00000000  1.0
  O  O12  1  0.33533783  0.62689122  0.73491847  1.0
  O  O13  1  0.66466217  0.37310878  0.73491847  1.0
  O  O14  1  0.83533783  0.87310878  0.26508153  1.0
  O  O15  1  0.16466217  0.12689122  0.26508153  1.0
  O  O16  1  0.62689122  0.33533783  0.26508153  1.0
  O  O17  1  0.37310878  0.66466217  0.26508153  1.0
  O  O18  1  0.87310878  0.83533783  0.73491847  1.0
  O  O19  1  0.12689122  0.16466217  0.73491847  1.0
  O  O20  1  0.38295002  0.84275956  0.90378980  1.0
  O  O21  1  0.61704998  0.15724044  0.90378980  1.0
  O  O22  1  0.88295002  0.65724044  0.09621020  1.0
  O  O23  1  0.11704998  0.34275956  0.09621020  1.0
  O  O24  1  0.84275956  0.38295002  0.09621020  1.0
  O  O25  1  0.15724044  0.61704998  0.09621020  1.0
  O  O26  1  0.65724044  0.88295002  0.90378980  1.0
  O  O27  1  0.34275956  0.11704998  0.90378980  1.0
  O  O28  1  0.50000000  0.00000000  0.20839105  1.0
  O  O29  1  0.00000000  0.50000000  0.79160895  1.0
  O  O30  1  0.15001735  0.82108735  0.75092257  1.0
  O  O31  1  0.84998265  0.17891265  0.75092257  1.0
  O  O32  1  0.65001735  0.67891265  0.24907743  1.0
  O  O33  1  0.34998265  0.32108735  0.24907743  1.0
  O  O34  1  0.82108735  0.15001735  0.24907743  1.0
  O  O35  1  0.17891265  0.84998265  0.24907743  1.0
  O  O36  1  0.67891265  0.65001735  0.75092257  1.0
  O  O37  1  0.32108735  0.34998265  0.75092257  1.0
  O  O38  1  0.36232883  0.84989092  0.55326177  1.0
  O  O39  1  0.63767117  0.15010908  0.55326177  1.0
  O  O40  1  0.86232883  0.65010908  0.44673823  1.0
  O  O41  1  0.13767117  0.34989092  0.44673823  1.0
  O  O42  1  0.84989092  0.36232883  0.44673823  1.0
  O  O43  1  0.15010908  0.63767117  0.44673823  1.0
  O  O44  1  0.65010908  0.86232883  0.55326177  1.0
  O  O45  1  0.34989092  0.13767117  0.55326177  1.0
  Cu  Cu46  1  0.50975897  0.76835761  0.40228929  1.0
  Cu  Cu47  1  0.49024103  0.23164239  0.40228929  1.0
  Cu  Cu48  1  0.00975897  0.73164239  0.59771071  1.0
  Cu  Cu49  1  0.99024103  0.26835761  0.59771071  1.0
  Cu  Cu50  1  0.76835761  0.50975897  0.59771071  1.0
  Cu  Cu51  1  0.23164239  0.49024103  0.59771071  1.0
  Cu  Cu52  1  0.73164239  0.00975897  0.40228929  1.0
  Cu  Cu53  1  0.26835761  0.99024103  0.40228929  1.0
