# generated using pymatgen
data_Ba2Tl(HO)7
_symmetry_space_group_name_H-M   'P 1'
_cell_length_a   6.86083811
_cell_length_b   6.86083811
_cell_length_c   10.66702531
_cell_angle_alpha   82.33709700
_cell_angle_beta   97.66290300
_cell_angle_gamma   122.18681522
_symmetry_Int_Tables_number   1
_chemical_formula_structural   Ba2Tl(HO)7
_chemical_formula_sum   'Ba4 Tl2 H14 O14'
_cell_volume   419.98370984
_cell_formula_units_Z   2
loop_
 _symmetry_equiv_pos_site_id
 _symmetry_equiv_pos_as_xyz
  1  'x, y, z'
loop_
 _atom_site_type_symbol
 _atom_site_label
 _atom_site_symmetry_multiplicity
 _atom_site_fract_x
 _atom_site_fract_y
 _atom_site_fract_z
 _atom_site_occupancy
  Ba  Ba0  1  0.69163918  -0.06900609  0.86897140  1.0
  Ba  Ba1  1  1.06900609  0.30836082  0.36897140  1.0
  Ba  Ba2  1  0.93099391  0.69163918  0.63102860  1.0
  Ba  Ba3  1  0.30836082  0.06900609  0.13102860  1.0
  Tl  Tl4  1  0.50000000  0.00000000  0.50000000  1.0
  Tl  Tl5  1  1.00000000  0.50000000  0.00000000  1.0
  H  H6  1  0.38429805  -0.40490056  0.61413389  1.0
  H  H7  1  1.40490056  0.61570195  0.11413389  1.0
  H  H8  1  0.59509944  0.38429805  0.88586611  1.0
  H  H9  1  0.61570195  0.40490056  0.38586611  1.0
  H  H10  1  0.45323947  0.17529408  0.70366618  1.0
  H  H11  1  0.82470592  0.54676053  0.20366618  1.0
  H  H12  1  1.17529408  0.45323947  0.79633382  1.0
  H  H13  1  0.54676053  -0.17529408  0.29633382  1.0
  H  H14  1  0.18659866  -0.07644011  0.85406814  1.0
  H  H15  1  1.07644011  0.81340134  0.35406814  1.0
  H  H16  1  0.92355989  0.18659866  0.64593186  1.0
  H  H17  1  0.81340134  0.07644011  0.14593186  1.0
  H  H18  1  0.36833286  0.36833286  0.75000000  1.0
  H  H19  1  0.63166714  0.63166714  0.25000000  1.0
  O  O20  1  0.85300356  0.04591581  0.60067289  1.0
  O  O21  1  0.95408419  0.14699644  0.10067289  1.0
  O  O22  1  1.04591581  0.85300356  0.89932711  1.0
  O  O23  1  0.14699644  -0.04591581  0.39932711  1.0
  O  O24  1  0.39195845  0.01089746  0.69935729  1.0
  O  O25  1  0.98910254  0.60804155  0.19935729  1.0
  O  O26  1  1.01089746  0.39195845  0.80064271  1.0
  O  O27  1  0.60804155  -0.01089746  0.30064271  1.0
  O  O28  1  0.62377210  0.29381761  0.95939425  1.0
  O  O29  1  0.70618239  0.37622790  0.45939425  1.0
  O  O30  1  1.29381761  0.62377210  0.54060575  1.0
  O  O31  1  0.37622790  -0.29381761  0.04060575  1.0
  O  O32  1  0.51485527  0.51485527  0.75000000  1.0
  O  O33  1  0.48514473  0.48514473  0.25000000  1.0
