# generated using pymatgen
data_Zn2PHO5
_symmetry_space_group_name_H-M   'P 1'
_cell_length_a   8.22122752
_cell_length_b   8.39002930
_cell_length_c   6.06007962
_cell_angle_alpha   90.00000000
_cell_angle_beta   90.00000000
_cell_angle_gamma   90.00000000
_symmetry_Int_Tables_number   1
_chemical_formula_structural   Zn2PHO5
_chemical_formula_sum   'Zn8 P4 H4 O20'
_cell_volume   418.00211068
_cell_formula_units_Z   4
loop_
 _symmetry_equiv_pos_site_id
 _symmetry_equiv_pos_as_xyz
  1  'x, y, z'
loop_
 _atom_site_type_symbol
 _atom_site_label
 _atom_site_symmetry_multiplicity
 _atom_site_fract_x
 _atom_site_fract_y
 _atom_site_fract_z
 _atom_site_occupancy
  Zn  Zn0  1  0.86459871  0.63721084  0.50000000  1.0
  Zn  Zn1  1  0.36459871  0.86278916  0.00000000  1.0
  Zn  Zn2  1  0.13540129  0.36278916  0.50000000  1.0
  Zn  Zn3  1  0.63540129  0.13721084  0.00000000  1.0
  Zn  Zn4  1  0.50000000  0.50000000  0.24735774  1.0
  Zn  Zn5  1  0.50000000  0.50000000  0.75264226  1.0
  Zn  Zn6  1  0.00000000  0.00000000  0.74735774  1.0
  Zn  Zn7  1  0.00000000  0.00000000  0.25264226  1.0
  P  P8  1  0.25037097  0.73909924  0.50000000  1.0
  P  P9  1  0.75037097  0.76090076  0.00000000  1.0
  P  P10  1  0.74962903  0.26090076  0.50000000  1.0
  P  P11  1  0.24962903  0.23909924  0.00000000  1.0
  H  H12  1  0.22320902  0.07783731  0.50000000  1.0
  H  H13  1  0.72320902  0.42216269  0.00000000  1.0
  H  H14  1  0.77679098  0.92216269  0.50000000  1.0
  H  H15  1  0.27679098  0.57783731  0.00000000  1.0
  O  O16  1  0.23386998  0.84730720  0.29164220  1.0
  O  O17  1  0.23386998  0.84730720  0.70835780  1.0
  O  O18  1  0.73386998  0.65269280  0.79164220  1.0
  O  O19  1  0.73386998  0.65269280  0.20835780  1.0
  O  O20  1  0.76613002  0.15269280  0.29164220  1.0
  O  O21  1  0.76613002  0.15269280  0.70835780  1.0
  O  O22  1  0.26613002  0.34730720  0.79164220  1.0
  O  O23  1  0.26613002  0.34730720  0.20835780  1.0
  O  O24  1  0.41680618  0.64656715  0.50000000  1.0
  O  O25  1  0.91680618  0.85343285  0.00000000  1.0
  O  O26  1  0.58319382  0.35343285  0.50000000  1.0
  O  O27  1  0.08319382  0.14656715  0.00000000  1.0
  O  O28  1  0.11337410  0.60870830  0.50000000  1.0
  O  O29  1  0.61337410  0.89129170  0.00000000  1.0
  O  O30  1  0.88662590  0.39129170  0.50000000  1.0
  O  O31  1  0.38662590  0.10870830  0.00000000  1.0
  O  O32  1  0.88586796  0.87649323  0.50000000  1.0
  O  O33  1  0.38586796  0.62350677  0.00000000  1.0
  O  O34  1  0.11413204  0.12350677  0.50000000  1.0
  O  O35  1  0.61413204  0.37649323  0.00000000  1.0
