# generated using pymatgen
data_AsPdS
_symmetry_space_group_name_H-M   'P 1'
_cell_length_a   6.02565657
_cell_length_b   6.02565657
_cell_length_c   6.02565657
_cell_angle_alpha   90.00000000
_cell_angle_beta   90.00000000
_cell_angle_gamma   90.00000000
_symmetry_Int_Tables_number   1
_chemical_formula_structural   AsPdS
_chemical_formula_sum   'As4 Pd4 S4'
_cell_volume   218.78277522
_cell_formula_units_Z   4
loop_
 _symmetry_equiv_pos_site_id
 _symmetry_equiv_pos_as_xyz
  1  'x, y, z'
loop_
 _atom_site_type_symbol
 _atom_site_label
 _atom_site_symmetry_multiplicity
 _atom_site_fract_x
 _atom_site_fract_y
 _atom_site_fract_z
 _atom_site_occupancy
  As  As0  1  0.11355356  0.61355356  0.88644644  1.0
  As  As1  1  0.61355356  0.88644644  0.11355356  1.0
  As  As2  1  0.88644644  0.11355356  0.61355356  1.0
  As  As3  1  0.38644644  0.38644644  0.38644644  1.0
  Pd  Pd4  1  0.49832500  0.99832500  0.50167500  1.0
  Pd  Pd5  1  0.99832500  0.50167500  0.49832500  1.0
  Pd  Pd6  1  0.50167500  0.49832500  0.99832500  1.0
  Pd  Pd7  1  0.00167500  0.00167500  0.00167500  1.0
  S  S8  1  0.89301045  0.39301045  0.10698955  1.0
  S  S9  1  0.39301045  0.10698955  0.89301045  1.0
  S  S10  1  0.10698955  0.89301045  0.39301045  1.0
  S  S11  1  0.60698955  0.60698955  0.60698955  1.0
