# generated using pymatgen
data_Al2ZnS4
_symmetry_space_group_name_H-M   'P 1'
_cell_length_a   12.28309500
_cell_length_b   12.28309500
_cell_length_c   12.28309500
_cell_angle_alpha   17.25246969
_cell_angle_beta   17.25246969
_cell_angle_gamma   17.25246969
_symmetry_Int_Tables_number   1
_chemical_formula_structural   Al2ZnS4
_chemical_formula_sum   'Al2 Zn1 S4'
_cell_volume   142.23759141
_cell_formula_units_Z   1
loop_
 _symmetry_equiv_pos_site_id
 _symmetry_equiv_pos_as_xyz
  1  'x, y, z'
loop_
 _atom_site_type_symbol
 _atom_site_label
 _atom_site_symmetry_multiplicity
 _atom_site_fract_x
 _atom_site_fract_y
 _atom_site_fract_z
 _atom_site_occupancy
  Al  Al0  1  -0.00032317  -0.00032317  -0.00032317  1.0
  Al  Al1  1  0.76711243  -0.23288757  -0.23288757  1.0
  Zn  Zn2  1  0.22896337  0.22896337  0.22896337  1.0
  S  S3  1  0.87602609  -0.12397391  -0.12397391  1.0
  S  S4  1  0.12516480  0.12516480  0.12516480  1.0
  S  S5  1  0.30184892  0.30184892  0.30184892  1.0
  S  S6  1  0.70520757  -0.29479243  -0.29479243  1.0
