# generated using pymatgen
data_Mg5H8O9
_symmetry_space_group_name_H-M   'P 1'
_cell_length_a   3.14774269
_cell_length_b   3.14774269
_cell_length_c   21.98554712
_cell_angle_alpha   90.00000000
_cell_angle_beta   90.00000000
_cell_angle_gamma   120.00000000
_symmetry_Int_Tables_number   1
_chemical_formula_structural   Mg5H8O9
_chemical_formula_sum   'Mg5 H8 O9'
_cell_volume   188.65414707
_cell_formula_units_Z   1
loop_
 _symmetry_equiv_pos_site_id
 _symmetry_equiv_pos_as_xyz
  1  'x, y, z'
loop_
 _atom_site_type_symbol
 _atom_site_label
 _atom_site_symmetry_multiplicity
 _atom_site_fract_x
 _atom_site_fract_y
 _atom_site_fract_z
 _atom_site_occupancy
  Mg  Mg0  1  0.00000000  0.00000000  0.50000000  1.0
  Mg  Mg1  1  0.00000000  0.00000000  0.28103952  1.0
  Mg  Mg2  1  0.00000000  0.00000000  0.71896048  1.0
  Mg  Mg3  1  0.33333333  0.66666667  0.05548789  1.0
  Mg  Mg4  1  0.66666667  0.33333333  0.94451211  1.0
  H  H5  1  0.66666667  0.33333333  0.59171998  1.0
  H  H6  1  0.33333333  0.66666667  0.40828002  1.0
  H  H7  1  0.66666667  0.33333333  0.14676673  1.0
  H  H8  1  0.33333333  0.66666667  0.85323327  1.0
  H  H9  1  0.66666667  0.33333333  0.37278915  1.0
  H  H10  1  0.33333333  0.66666667  0.62721085  1.0
  H  H11  1  0.33333333  0.66666667  0.18953998  1.0
  H  H12  1  0.66666667  0.33333333  0.81046002  1.0
  O  O13  1  0.66666667  0.33333333  0.54766696  1.0
  O  O14  1  0.33333333  0.66666667  0.45233304  1.0
  O  O15  1  0.66666667  0.33333333  0.10272286  1.0
  O  O16  1  0.33333333  0.66666667  0.89727714  1.0
  O  O17  1  0.00000000  0.00000000  0.00000000  1.0
  O  O18  1  0.66666667  0.33333333  0.32873586  1.0
  O  O19  1  0.33333333  0.66666667  0.67126414  1.0
  O  O20  1  0.33333333  0.66666667  0.23352235  1.0
  O  O21  1  0.66666667  0.33333333  0.76647765  1.0
