# generated using pymatgen
data_Ba2GdInTe5
_symmetry_space_group_name_H-M   'P 1'
_cell_length_a   10.55666875
_cell_length_b   10.55666875
_cell_length_c   14.28116731
_cell_angle_alpha   90.00000000
_cell_angle_beta   90.00000000
_cell_angle_gamma   154.82630281
_symmetry_Int_Tables_number   1
_chemical_formula_structural   Ba2GdInTe5
_chemical_formula_sum   'Ba4 Gd2 In2 Te10'
_cell_volume   676.98351194
_cell_formula_units_Z   2
loop_
 _symmetry_equiv_pos_site_id
 _symmetry_equiv_pos_as_xyz
  1  'x, y, z'
loop_
 _atom_site_type_symbol
 _atom_site_label
 _atom_site_symmetry_multiplicity
 _atom_site_fract_x
 _atom_site_fract_y
 _atom_site_fract_z
 _atom_site_occupancy
  Ba  Ba0  1  0.11980362  0.88019638  0.87068967  1.0
  Ba  Ba1  1  -0.11980362  0.11980362  0.37068967  1.0
  Ba  Ba2  1  0.12894940  0.87105060  0.23595915  1.0
  Ba  Ba3  1  -0.12894940  0.12894940  0.73595915  1.0
  Gd  Gd4  1  0.20826526  0.79173474  0.53420520  1.0
  Gd  Gd5  1  -0.20826526  0.20826526  0.03420520  1.0
  In  In6  1  -0.44227126  0.44227126  0.61671410  1.0
  In  In7  1  0.44227126  0.55772874  0.11671410  1.0
  Te  Te8  1  0.04988090  0.95011910  0.49784974  1.0
  Te  Te9  1  -0.04988090  0.04988090  -0.00215026  1.0
  Te  Te10  1  0.29221361  0.70778639  0.88906726  1.0
  Te  Te11  1  -0.29221361  0.29221361  0.38906726  1.0
  Te  Te12  1  0.35522426  0.64477574  0.55091575  1.0
  Te  Te13  1  -0.35522426  0.35522426  0.05091575  1.0
  Te  Te14  1  0.49673450  0.50326550  0.78967830  1.0
  Te  Te15  1  -0.49673450  0.49673450  0.28967830  1.0
  Te  Te16  1  -0.30997299  0.30997299  0.68842084  1.0
  Te  Te17  1  0.30997299  0.69002701  0.18842084  1.0
