# generated using pymatgen
data_Gd3Pd2
_symmetry_space_group_name_H-M   'P 1'
_cell_length_a   7.89141513
_cell_length_b   7.89141513
_cell_length_c   3.98145396
_cell_angle_alpha   90.00000000
_cell_angle_beta   90.00000000
_cell_angle_gamma   90.00000000
_symmetry_Int_Tables_number   1
_chemical_formula_structural   Gd3Pd2
_chemical_formula_sum   'Gd6 Pd4'
_cell_volume   247.94278740
_cell_formula_units_Z   2
loop_
 _symmetry_equiv_pos_site_id
 _symmetry_equiv_pos_as_xyz
  1  'x, y, z'
loop_
 _atom_site_type_symbol
 _atom_site_label
 _atom_site_symmetry_multiplicity
 _atom_site_fract_x
 _atom_site_fract_y
 _atom_site_fract_z
 _atom_site_occupancy
  Gd  Gd0  1  0.33438101  0.16561899  0.50000000  1.0
  Gd  Gd1  1  0.83438101  0.33438101  0.50000000  1.0
  Gd  Gd2  1  0.66561899  0.83438101  0.50000000  1.0
  Gd  Gd3  1  0.16561899  0.66561899  0.50000000  1.0
  Gd  Gd4  1  0.50000000  0.50000000  -0.00000000  1.0
  Gd  Gd5  1  0.00000000  0.00000000  0.00000000  1.0
  Pd  Pd6  1  0.86952422  0.63047578  0.00000000  1.0
  Pd  Pd7  1  0.36952422  0.86952422  -0.00000000  1.0
  Pd  Pd8  1  0.13047578  0.36952422  0.00000000  1.0
  Pd  Pd9  1  0.63047578  0.13047578  -0.00000000  1.0
