# generated using pymatgen
data_NiSeO10
_symmetry_space_group_name_H-M   'P 1'
_cell_length_a   6.69738816
_cell_length_b   6.69738816
_cell_length_c   14.26518566
_cell_angle_alpha   90.00000000
_cell_angle_beta   90.00000000
_cell_angle_gamma   90.00000000
_symmetry_Int_Tables_number   1
_chemical_formula_structural   NiSeO10
_chemical_formula_sum   'Ni4 Se4 O40'
_cell_volume   639.86502037
_cell_formula_units_Z   4
loop_
 _symmetry_equiv_pos_site_id
 _symmetry_equiv_pos_as_xyz
  1  'x, y, z'
loop_
 _atom_site_type_symbol
 _atom_site_label
 _atom_site_symmetry_multiplicity
 _atom_site_fract_x
 _atom_site_fract_y
 _atom_site_fract_z
 _atom_site_occupancy
  Ni  Ni0  1  0.73321089  0.26678911  0.25000000  1.0
  Ni  Ni1  1  0.23321089  0.23321089  0.50000000  1.0
  Ni  Ni2  1  0.26678911  0.73321089  0.75000000  1.0
  Ni  Ni3  1  0.76678911  0.76678911  0.00000000  1.0
  O  O4  1  0.40732324  0.89492866  0.83280787  1.0
  O  O5  1  0.90732324  0.60507134  0.91719213  1.0
  O  O6  1  0.10507134  0.59267676  0.66719213  1.0
  O  O7  1  0.60507134  0.90732324  0.08280787  1.0
  O  O8  1  0.59267676  0.10507134  0.33280787  1.0
  O  O9  1  0.09267676  0.39492866  0.41719213  1.0
  O  O10  1  0.89492866  0.40732324  0.16719213  1.0
  O  O11  1  0.39492866  0.09267676  0.58280787  1.0
  O  O12  1  0.30243064  0.50109608  0.81394020  1.0
  O  O13  1  0.80243064  0.99890392  0.93605980  1.0
  O  O14  1  0.49890392  0.69756936  0.68605980  1.0
  O  O15  1  0.99890392  0.80243064  0.06394020  1.0
  O  O16  1  0.69756936  0.49890392  0.31394020  1.0
  O  O17  1  0.19756936  0.00109608  0.43605980  1.0
  O  O18  1  0.50109608  0.30243064  0.18605980  1.0
  O  O19  1  0.00109608  0.19756936  0.56394020  1.0
  O  O20  1  0.54051238  0.71463466  0.93322838  1.0
  O  O21  1  1.04051238  0.78536534  0.81677162  1.0
  O  O22  1  0.28536534  0.45948762  0.56677162  1.0
  O  O23  1  0.78536534  1.04051238  0.18322838  1.0
  O  O24  1  0.45948762  0.28536534  0.43322838  1.0
  O  O25  1  -0.04051238  0.21463466  0.31677162  1.0
  O  O26  1  0.71463466  0.54051238  0.06677162  1.0
  O  O27  1  0.21463466  -0.04051238  0.68322838  1.0
  O  O28  1  0.40839466  0.63332761  0.15436425  1.0
  O  O29  1  0.90839466  0.86667239  0.59563575  1.0
  O  O30  1  0.36667239  0.59160534  0.34563575  1.0
  O  O31  1  0.86667239  0.90839466  0.40436425  1.0
  O  O32  1  0.59160534  0.36667239  0.65436425  1.0
  O  O33  1  0.09160534  0.13332761  0.09563575  1.0
  O  O34  1  0.63332761  0.40839466  0.84563575  1.0
  O  O35  1  0.13332761  0.09160534  0.90436425  1.0
  O  O36  1  0.03618863  0.68733077  0.23257502  1.0
  O  O37  1  0.53618863  0.81266923  0.51742498  1.0
  O  O38  1  0.31266923  0.96381137  0.26742498  1.0
  O  O39  1  0.81266923  0.53618863  0.48257502  1.0
  O  O40  1  0.96381137  0.31266923  0.73257502  1.0
  O  O41  1  0.46381137  0.18733077  0.01742498  1.0
  O  O42  1  0.68733077  0.03618863  0.76742498  1.0
  O  O43  1  0.18733077  0.46381137  0.98257502  1.0
  Se  Se44  1  0.28400994  0.71599006  0.25000000  1.0
  Se  Se45  1  0.78400994  0.78400994  0.50000000  1.0
  Se  Se46  1  0.71599006  0.28400994  0.75000000  1.0
  Se  Se47  1  0.21599006  0.21599006  0.00000000  1.0
