# generated using pymatgen
data_MgNi2
_symmetry_space_group_name_H-M   'P 1'
_cell_length_a   4.81157368
_cell_length_b   4.81157368
_cell_length_c   15.79454407
_cell_angle_alpha   90.00000000
_cell_angle_beta   90.00000000
_cell_angle_gamma   120.00000000
_symmetry_Int_Tables_number   1
_chemical_formula_structural   MgNi2
_chemical_formula_sum   'Mg8 Ni16'
_cell_volume   316.67370785
_cell_formula_units_Z   8
loop_
 _symmetry_equiv_pos_site_id
 _symmetry_equiv_pos_as_xyz
  1  'x, y, z'
loop_
 _atom_site_type_symbol
 _atom_site_label
 _atom_site_symmetry_multiplicity
 _atom_site_fract_x
 _atom_site_fract_y
 _atom_site_fract_z
 _atom_site_occupancy
  Mg  Mg0  1  0.33333333  0.66666667  0.84415567  1.0
  Mg  Mg1  1  0.33333333  0.66666667  0.65584433  1.0
  Mg  Mg2  1  0.66666667  0.33333333  0.34415567  1.0
  Mg  Mg3  1  0.66666667  0.33333333  0.15584433  1.0
  Mg  Mg4  1  0.00000000  0.00000000  0.40688027  1.0
  Mg  Mg5  1  0.00000000  0.00000000  0.09311973  1.0
  Mg  Mg6  1  0.00000000  0.00000000  0.90688027  1.0
  Mg  Mg7  1  0.00000000  0.00000000  0.59311973  1.0
  Ni  Ni8  1  0.16445227  0.83554773  0.25000000  1.0
  Ni  Ni9  1  0.16445227  0.32890453  0.25000000  1.0
  Ni  Ni10  1  0.83554773  0.16445227  0.75000000  1.0
  Ni  Ni11  1  0.83554773  0.67109547  0.75000000  1.0
  Ni  Ni12  1  0.67109547  0.83554773  0.25000000  1.0
  Ni  Ni13  1  0.32890453  0.16445227  0.75000000  1.0
  Ni  Ni14  1  0.50000000  0.50000000  0.50000000  1.0
  Ni  Ni15  1  0.50000000  0.50000000  0.00000000  1.0
  Ni  Ni16  1  0.50000000  0.00000000  0.50000000  1.0
  Ni  Ni17  1  0.50000000  0.00000000  0.00000000  1.0
  Ni  Ni18  1  0.00000000  0.50000000  0.50000000  1.0
  Ni  Ni19  1  0.00000000  0.50000000  0.00000000  1.0
  Ni  Ni20  1  0.33333333  0.66666667  0.37497381  1.0
  Ni  Ni21  1  0.33333333  0.66666667  0.12502619  1.0
  Ni  Ni22  1  0.66666667  0.33333333  0.87497381  1.0
  Ni  Ni23  1  0.66666667  0.33333333  0.62502619  1.0
