# generated using pymatgen
data_TbB7Mo3
_symmetry_space_group_name_H-M   'P 1'
_cell_length_a   11.03562190
_cell_length_b   3.10006543
_cell_length_c   12.84853377
_cell_angle_alpha   90.00000000
_cell_angle_beta   90.00000000
_cell_angle_gamma   90.00000000
_symmetry_Int_Tables_number   1
_chemical_formula_structural   TbB7Mo3
_chemical_formula_sum   'Tb4 B28 Mo12'
_cell_volume   439.56311581
_cell_formula_units_Z   4
loop_
 _symmetry_equiv_pos_site_id
 _symmetry_equiv_pos_as_xyz
  1  'x, y, z'
loop_
 _atom_site_type_symbol
 _atom_site_label
 _atom_site_symmetry_multiplicity
 _atom_site_fract_x
 _atom_site_fract_y
 _atom_site_fract_z
 _atom_site_occupancy
  Tb  Tb0  1  0.55163390  0.75000000  0.69231705  1.0
  Tb  Tb1  1  0.05163390  0.75000000  0.80768295  1.0
  Tb  Tb2  1  0.44836610  0.25000000  0.30768295  1.0
  Tb  Tb3  1  0.94836610  0.25000000  0.19231705  1.0
  B  B4  1  0.98965167  0.75000000  0.36257002  1.0
  B  B5  1  0.48965167  0.75000000  0.13742998  1.0
  B  B6  1  0.01034833  0.25000000  0.63742998  1.0
  B  B7  1  0.51034833  0.25000000  0.86257002  1.0
  B  B8  1  0.96277050  0.75000000  0.01795564  1.0
  B  B9  1  0.46277050  0.75000000  0.48204436  1.0
  B  B10  1  0.03722950  0.25000000  0.98204436  1.0
  B  B11  1  0.53722950  0.25000000  0.51795564  1.0
  B  B12  1  0.93212625  0.75000000  0.61570487  1.0
  B  B13  1  0.43212625  0.75000000  0.88429513  1.0
  B  B14  1  0.06787375  0.25000000  0.38429513  1.0
  B  B15  1  0.56787375  0.25000000  0.11570487  1.0
  B  B16  1  0.83391552  0.75000000  0.33302512  1.0
  B  B17  1  0.33391552  0.75000000  0.16697488  1.0
  B  B18  1  0.16608448  0.25000000  0.66697488  1.0
  B  B19  1  0.66608448  0.25000000  0.83302512  1.0
  B  B20  1  0.81422917  0.75000000  0.06722596  1.0
  B  B21  1  0.31422917  0.75000000  0.43277404  1.0
  B  B22  1  0.18577083  0.25000000  0.93277404  1.0
  B  B23  1  0.68577083  0.25000000  0.56722596  1.0
  B  B24  1  0.76894036  0.75000000  0.58207616  1.0
  B  B25  1  0.26894036  0.75000000  0.91792384  1.0
  B  B26  1  0.23105964  0.25000000  0.41792384  1.0
  B  B27  1  0.73105964  0.25000000  0.08207616  1.0
  B  B28  1  0.75004043  0.75000000  0.82653983  1.0
  B  B29  1  0.25004043  0.75000000  0.67346017  1.0
  B  B30  1  0.24995957  0.25000000  0.17346017  1.0
  B  B31  1  0.74995957  0.25000000  0.32653983  1.0
  Mo  Mo32  1  0.68428530  0.75000000  0.20241559  1.0
  Mo  Mo33  1  0.18428530  0.75000000  0.29758441  1.0
  Mo  Mo34  1  0.31571470  0.25000000  0.79758441  1.0
  Mo  Mo35  1  0.81571470  0.25000000  0.70241559  1.0
  Mo  Mo36  1  0.65988887  0.75000000  0.43604296  1.0
  Mo  Mo37  1  0.15988887  0.75000000  0.06395704  1.0
  Mo  Mo38  1  0.34011113  0.25000000  0.56395704  1.0
  Mo  Mo39  1  0.84011113  0.25000000  0.93604296  1.0
  Mo  Mo40  1  0.11729934  0.75000000  0.52713730  1.0
  Mo  Mo41  1  0.61729934  0.75000000  0.97286270  1.0
  Mo  Mo42  1  0.88270066  0.25000000  0.47286270  1.0
  Mo  Mo43  1  0.38270066  0.25000000  0.02713730  1.0
