# generated using pymatgen
data_Ce3(Si3Pd10)2
_symmetry_space_group_name_H-M   'P 1'
_cell_length_a   8.84987940
_cell_length_b   8.84987940
_cell_length_c   8.84987940
_cell_angle_alpha   60.00000000
_cell_angle_beta   60.00000000
_cell_angle_gamma   60.00000000
_symmetry_Int_Tables_number   1
_chemical_formula_structural   Ce3(Si3Pd10)2
_chemical_formula_sum   'Ce3 Si6 Pd20'
_cell_volume   490.11394581
_cell_formula_units_Z   1
loop_
 _symmetry_equiv_pos_site_id
 _symmetry_equiv_pos_as_xyz
  1  'x, y, z'
loop_
 _atom_site_type_symbol
 _atom_site_label
 _atom_site_symmetry_multiplicity
 _atom_site_fract_x
 _atom_site_fract_y
 _atom_site_fract_z
 _atom_site_occupancy
  Ce  Ce0  1  0.00000000  0.00000000  0.00000000  1.0
  Ce  Ce1  1  0.75000000  0.75000000  -0.25000000  1.0
  Ce  Ce2  1  1.25000000  0.25000000  0.25000000  1.0
  Si  Si3  1  0.74796703  0.74796703  -0.74796703  1.0
  Si  Si4  1  0.25203297  -0.25203297  1.25203297  1.0
  Si  Si5  1  -0.25203297  0.25203297  0.25203297  1.0
  Si  Si6  1  0.25203297  1.25203297  -0.25203297  1.0
  Si  Si7  1  -0.25203297  0.25203297  0.74796703  1.0
  Si  Si8  1  -0.74796703  0.74796703  0.74796703  1.0
  Pd  Pd9  1  0.87606992  0.87606992  -0.62820975  1.0
  Pd  Pd10  1  0.87606992  0.37179025  -0.12393008  1.0
  Pd  Pd11  1  0.37179025  0.87606992  -0.12393008  1.0
  Pd  Pd12  1  0.87606992  0.87606992  -0.12393008  1.0
  Pd  Pd13  1  1.12393008  0.12393008  0.62820975  1.0
  Pd  Pd14  1  1.12393008  0.62820975  0.12393008  1.0
  Pd  Pd15  1  1.62820975  0.12393008  0.12393008  1.0
  Pd  Pd16  1  1.12393008  0.12393008  0.12393008  1.0
  Pd  Pd17  1  -0.50000000  0.50000000  0.84820609  1.0
  Pd  Pd18  1  0.15179391  1.50000000  -0.15179391  1.0
  Pd  Pd19  1  0.50000000  1.15179391  -0.15179391  1.0
  Pd  Pd20  1  0.15179391  -0.15179391  1.50000000  1.0
  Pd  Pd21  1  0.50000000  0.84820609  -0.50000000  1.0
  Pd  Pd22  1  1.50000000  -0.15179391  0.15179391  1.0
  Pd  Pd23  1  -0.15179391  0.15179391  0.50000000  1.0
  Pd  Pd24  1  -0.15179391  1.50000000  0.15179391  1.0
  Pd  Pd25  1  0.84820609  0.50000000  -0.50000000  1.0
  Pd  Pd26  1  0.50000000  -0.50000000  1.15179391  1.0
  Pd  Pd27  1  0.50000000  1.15179391  -0.50000000  1.0
  Pd  Pd28  1  1.15179391  0.50000000  0.50000000  1.0
