# generated using pymatgen
data_LuAlB4
_symmetry_space_group_name_H-M   'P 1'
_cell_length_a   5.89269493
_cell_length_b   5.89269493
_cell_length_c   3.49897255
_cell_angle_alpha   90.00000000
_cell_angle_beta   90.00000000
_cell_angle_gamma   103.69959764
_symmetry_Int_Tables_number   1
_chemical_formula_structural   LuAlB4
_chemical_formula_sum   'Lu2 Al2 B8'
_cell_volume   118.04129271
_cell_formula_units_Z   2
loop_
 _symmetry_equiv_pos_site_id
 _symmetry_equiv_pos_as_xyz
  1  'x, y, z'
loop_
 _atom_site_type_symbol
 _atom_site_label
 _atom_site_symmetry_multiplicity
 _atom_site_fract_x
 _atom_site_fract_y
 _atom_site_fract_z
 _atom_site_occupancy
  Lu  Lu0  1  0.30023880  0.69976120  0.50000000  1.0
  Lu  Lu1  1  -0.30023880  1.30023880  0.50000000  1.0
  Al  Al2  1  0.81953655  0.81953655  0.50000000  1.0
  Al  Al3  1  0.18046345  0.18046345  0.50000000  1.0
  B  B4  1  -0.06319911  1.61711939  0.00000000  1.0
  B  B5  1  0.61711939  0.93680089  0.00000000  1.0
  B  B6  1  -0.61711939  1.06319911  0.00000000  1.0
  B  B7  1  0.06319911  0.38288061  0.00000000  1.0
  B  B8  1  0.09294561  0.90705439  0.00000000  1.0
  B  B9  1  -0.09294561  1.09294561  0.00000000  1.0
  B  B10  1  0.62073615  0.62073615  0.00000000  1.0
  B  B11  1  0.37926385  0.37926385  0.00000000  1.0
