# generated using pymatgen
data_PH4Br
_symmetry_space_group_name_H-M   'P 1'
_cell_length_a   6.11654036
_cell_length_b   6.11654036
_cell_length_c   4.37383226
_cell_angle_alpha   90.00000000
_cell_angle_beta   90.00000000
_cell_angle_gamma   90.00000000
_symmetry_Int_Tables_number   1
_chemical_formula_structural   PH4Br
_chemical_formula_sum   'P2 H8 Br2'
_cell_volume   163.63410087
_cell_formula_units_Z   2
loop_
 _symmetry_equiv_pos_site_id
 _symmetry_equiv_pos_as_xyz
  1  'x, y, z'
loop_
 _atom_site_type_symbol
 _atom_site_label
 _atom_site_symmetry_multiplicity
 _atom_site_fract_x
 _atom_site_fract_y
 _atom_site_fract_z
 _atom_site_occupancy
  P  P0  1  0.50000000  0.50000000  0.00000000  1.0
  P  P1  1  0.00000000  0.00000000  0.00000000  1.0
  H  H2  1  0.50000000  0.68842766  0.81035579  1.0
  H  H3  1  0.50000000  0.31157234  0.81035579  1.0
  H  H4  1  0.18842766  0.00000000  0.81035579  1.0
  H  H5  1  0.81157234  0.00000000  0.81035579  1.0
  H  H6  1  0.00000000  0.81157234  0.18964421  1.0
  H  H7  1  0.00000000  0.18842766  0.18964421  1.0
  H  H8  1  0.31157234  0.50000000  0.18964421  1.0
  H  H9  1  0.68842766  0.50000000  0.18964421  1.0
  Br  Br10  1  0.00000000  0.50000000  0.59297004  1.0
  Br  Br11  1  0.50000000  0.00000000  0.40702996  1.0
