# generated using pymatgen
data_Ti2Fe(PO5)2
_symmetry_space_group_name_H-M   'P 1'
_cell_length_a   7.45680872
_cell_length_b   7.49336026
_cell_length_c   7.51396658
_cell_angle_alpha   90.00000000
_cell_angle_beta   119.95411033
_cell_angle_gamma   90.00000000
_symmetry_Int_Tables_number   1
_chemical_formula_structural   Ti2Fe(PO5)2
_chemical_formula_sum   'Ti4 Fe2 P4 O20'
_cell_volume   363.77273475
_cell_formula_units_Z   2
loop_
 _symmetry_equiv_pos_site_id
 _symmetry_equiv_pos_as_xyz
  1  'x, y, z'
loop_
 _atom_site_type_symbol
 _atom_site_label
 _atom_site_symmetry_multiplicity
 _atom_site_fract_x
 _atom_site_fract_y
 _atom_site_fract_z
 _atom_site_occupancy
  Ti  Ti0  1  0.74379840  0.22670519  0.21407647  1.0
  Ti  Ti1  1  0.74379840  0.27329481  0.71407647  1.0
  Ti  Ti2  1  0.25620160  0.72670519  0.28592353  1.0
  Ti  Ti3  1  0.25620160  0.77329481  0.78592353  1.0
  Fe  Fe4  1  0.00000000  0.50000000  0.50000000  1.0
  Fe  Fe5  1  0.00000000  0.00000000  0.00000000  1.0
  P  P6  1  0.74807525  0.88059574  0.49973068  1.0
  P  P7  1  0.74807525  0.61940426  -0.00026932  1.0
  P  P8  1  0.25192475  0.38059573  1.00026932  1.0
  P  P9  1  0.25192475  0.11940426  0.50026932  1.0
  O  O10  1  0.93539674  0.74943223  0.08237112  1.0
  O  O11  1  0.93539674  0.75056777  0.58237112  1.0
  O  O12  1  0.06460326  0.24943223  0.41762888  1.0
  O  O13  1  0.06460326  0.25056777  0.91762888  1.0
  O  O14  1  0.78241707  0.49653915  0.18269070  1.0
  O  O15  1  0.78241707  0.00346085  0.68269070  1.0
  O  O16  1  0.21758293  0.99653915  0.31730930  1.0
  O  O17  1  0.21758293  0.50346085  0.81730930  1.0
  O  O18  1  0.77794324  0.34444074  0.51112392  1.0
  O  O19  1  0.77794324  0.15555926  1.01112392  1.0
  O  O20  1  0.22205676  0.84444074  -0.01112392  1.0
  O  O21  1  0.22205676  0.65555926  0.48887608  1.0
  O  O22  1  0.73718136  0.99708947  0.32506532  1.0
  O  O23  1  0.73718136  0.50291053  0.82506532  1.0
  O  O24  1  0.26281864  0.49708947  0.17493468  1.0
  O  O25  1  0.26281864  0.00291053  0.67493468  1.0
  O  O26  1  0.45027010  0.26898605  0.07801605  1.0
  O  O27  1  0.45027010  0.23101395  0.57801605  1.0
  O  O28  1  0.54972990  0.76898605  0.42198395  1.0
  O  O29  1  0.54972990  0.73101395  0.92198395  1.0
