# generated using pymatgen
data_Cs9InO4
_symmetry_space_group_name_H-M   'P 1'
_cell_length_a   12.95014013
_cell_length_b   12.95014013
_cell_length_c   12.95014013
_cell_angle_alpha   105.10818342
_cell_angle_beta   105.10818342
_cell_angle_gamma   118.60152300
_symmetry_Int_Tables_number   1
_chemical_formula_structural   Cs9InO4
_chemical_formula_sum   'Cs18 In2 O8'
_cell_volume   1639.57192742
_cell_formula_units_Z   2
loop_
 _symmetry_equiv_pos_site_id
 _symmetry_equiv_pos_as_xyz
  1  'x, y, z'
loop_
 _atom_site_type_symbol
 _atom_site_label
 _atom_site_symmetry_multiplicity
 _atom_site_fract_x
 _atom_site_fract_y
 _atom_site_fract_z
 _atom_site_occupancy
  Cs  Cs0  1  0.25000000  0.97677116  0.72677116  1.0
  Cs  Cs1  1  0.75000000  0.47677116  0.72677116  1.0
  Cs  Cs2  1  0.47677116  0.75000000  0.72677116  1.0
  Cs  Cs3  1  0.97677116  0.25000000  0.72677116  1.0
  Cs  Cs4  1  0.52322884  0.25000000  0.27322884  1.0
  Cs  Cs5  1  1.02322884  0.75000000  1.27322884  1.0
  Cs  Cs6  1  0.75000000  1.02322884  1.27322884  1.0
  Cs  Cs7  1  0.25000000  0.52322884  0.27322884  1.0
  Cs  Cs8  1  0.83384625  0.33384625  1.16769249  1.0
  Cs  Cs9  1  0.66615375  0.83384625  0.50000000  1.0
  Cs  Cs10  1  0.33384625  0.16615375  0.50000000  1.0
  Cs  Cs11  1  1.16615375  0.66615375  0.83230751  1.0
  Cs  Cs12  1  0.41993134  0.91993134  1.33986268  1.0
  Cs  Cs13  1  0.08006866  0.41993134  0.50000000  1.0
  Cs  Cs14  1  0.91993134  0.58006866  0.50000000  1.0
  Cs  Cs15  1  0.58006866  1.08006866  0.66013732  1.0
  Cs  Cs16  1  0.50000000  0.50000000  0.00000000  1.0
  Cs  Cs17  1  0.00000000  0.00000000  0.00000000  1.0
  In  In18  1  0.75000000  0.25000000  0.50000000  1.0
  In  In19  1  0.25000000  0.75000000  0.50000000  1.0
  O  O20  1  0.77183128  1.27183128  1.34897655  1.0
  O  O21  1  1.07714527  0.57714527  1.34897655  1.0
  O  O22  1  0.42285473  0.77183128  0.50000000  1.0
  O  O23  1  0.72816872  1.07714527  1.50000000  1.0
  O  O24  1  1.27183128  0.92285473  1.50000000  1.0
  O  O25  1  0.57714527  0.22816872  0.50000000  1.0
  O  O26  1  0.92285473  0.42285473  0.65102345  1.0
  O  O27  1  0.22816872  0.72816872  0.65102345  1.0
