# generated using pymatgen
data_MgMoO4
_symmetry_space_group_name_H-M   'P 1'
_cell_length_a   7.01265023
_cell_length_b   7.01265023
_cell_length_c   7.09439218
_cell_angle_alpha   77.77903529
_cell_angle_beta   102.22096471
_cell_angle_gamma   95.82124174
_symmetry_Int_Tables_number   1
_chemical_formula_structural   MgMoO4
_chemical_formula_sum   'Mg4 Mo4 O16'
_cell_volume   332.66365777
_cell_formula_units_Z   4
loop_
 _symmetry_equiv_pos_site_id
 _symmetry_equiv_pos_as_xyz
  1  'x, y, z'
loop_
 _atom_site_type_symbol
 _atom_site_label
 _atom_site_symmetry_multiplicity
 _atom_site_fract_x
 _atom_site_fract_y
 _atom_site_fract_z
 _atom_site_occupancy
  Mg  Mg0  1  0.79923683  0.20076317  0.64104511  1.0
  Mg  Mg1  1  1.20076317  -0.20076317  0.35895489  1.0
  Mg  Mg2  1  0.81998271  0.81998271  0.00000000  1.0
  Mg  Mg3  1  0.18001729  0.18001729  0.00000000  1.0
  Mo  Mo4  1  1.27127163  -0.27127163  0.90633968  1.0
  Mo  Mo5  1  0.72872837  0.27127163  0.09366032  1.0
  Mo  Mo6  1  0.74828248  0.74828248  0.50000000  1.0
  Mo  Mo7  1  0.25171752  0.25171752  0.50000000  1.0
  O  O8  1  1.80352281  -0.11095727  0.69420115  1.0
  O  O9  1  1.11095727  -0.80352281  0.69420115  1.0
  O  O10  1  0.88904273  0.80352281  0.30579885  1.0
  O  O11  1  0.19647719  0.11095727  0.30579885  1.0
  O  O12  1  1.52130815  -0.21172933  0.97298841  1.0
  O  O13  1  1.21172933  -0.52130815  0.97298841  1.0
  O  O14  1  0.78827067  0.52130815  0.02701159  1.0
  O  O15  1  0.47869185  0.21172933  0.02701159  1.0
  O  O16  1  0.49774870  0.21691242  0.60749076  1.0
  O  O17  1  0.78308758  0.50225130  0.60749076  1.0
  O  O18  1  1.21691242  -0.50225130  0.39250924  1.0
  O  O19  1  1.50225130  -0.21691242  0.39250924  1.0
  O  O20  1  0.85929530  0.14070470  0.96095486  1.0
  O  O21  1  1.14070470  -0.14070470  0.03904514  1.0
  O  O22  1  0.79659820  0.20340180  0.35191242  1.0
  O  O23  1  1.20340180  -0.20340180  0.64808758  1.0
