# generated using pymatgen
data_AgH4WS4N
_symmetry_space_group_name_H-M   'P 1'
_cell_length_a   6.57124818
_cell_length_b   6.57124818
_cell_length_c   6.57124818
_cell_angle_alpha   101.69668768
_cell_angle_beta   101.69668768
_cell_angle_gamma   126.47974903
_symmetry_Int_Tables_number   1
_chemical_formula_structural   AgH4WS4N
_chemical_formula_sum   'Ag1 H4 W1 S4 N1'
_cell_volume   203.72221893
_cell_formula_units_Z   1
loop_
 _symmetry_equiv_pos_site_id
 _symmetry_equiv_pos_as_xyz
  1  'x, y, z'
loop_
 _atom_site_type_symbol
 _atom_site_label
 _atom_site_symmetry_multiplicity
 _atom_site_fract_x
 _atom_site_fract_y
 _atom_site_fract_z
 _atom_site_occupancy
  Ag  Ag0  1  0.50000000  0.50000000  0.00000000  1.0
  H  H1  1  0.81146147  0.44467134  0.56039845  1.0
  H  H2  1  0.74893698  0.18853853  0.63320987  1.0
  H  H3  1  0.88427289  1.25106302  1.43960155  1.0
  H  H4  1  0.55532866  1.11572711  1.36679013  1.0
  W  W5  1  0.00000000  0.00000000  0.00000000  1.0
  S  S6  1  1.60984276  1.66501534  1.68672355  1.0
  S  S7  1  1.07688079  1.39015724  1.05517258  1.0
  S  S8  1  0.97829179  0.92311921  0.31327645  1.0
  S  S9  1  1.33498466  1.02170821  0.94482742  1.0
  N  N10  1  0.75000000  0.25000000  0.50000000  1.0
