# generated using pymatgen
data_ZrAl8C7
_symmetry_space_group_name_H-M   'P 1'
_cell_length_a   19.48097124
_cell_length_b   19.48097124
_cell_length_c   19.48097124
_cell_angle_alpha   9.88740759
_cell_angle_beta   9.88740759
_cell_angle_gamma   9.88740759
_symmetry_Int_Tables_number   1
_chemical_formula_structural   ZrAl8C7
_chemical_formula_sum   'Zr1 Al8 C7'
_cell_volume   189.25315700
_cell_formula_units_Z   1
loop_
 _symmetry_equiv_pos_site_id
 _symmetry_equiv_pos_as_xyz
  1  'x, y, z'
loop_
 _atom_site_type_symbol
 _atom_site_label
 _atom_site_symmetry_multiplicity
 _atom_site_fract_x
 _atom_site_fract_y
 _atom_site_fract_z
 _atom_site_occupancy
  Zr  Zr0  1  1.50000000  0.50000000  0.50000000  1.0
  Al  Al1  1  0.94373189  0.94373189  0.94373189  1.0
  Al  Al2  1  1.05626811  1.05626811  0.05626811  1.0
  Al  Al3  1  0.87292692  0.87292692  0.87292692  1.0
  Al  Al4  1  1.12707308  1.12707308  0.12707308  1.0
  Al  Al5  1  0.75478464  0.75478464  0.75478464  1.0
  Al  Al6  1  1.24521536  1.24521536  0.24521536  1.0
  Al  Al7  1  0.68388509  0.68388509  0.68388509  1.0
  Al  Al8  1  1.31611491  1.31611491  0.31611491  1.0
  C  C9  1  0.90634783  0.90634783  0.90634783  1.0
  C  C10  1  1.09365217  1.09365217  0.09365217  1.0
  C  C11  1  0.80962826  0.80962826  0.80962826  1.0
  C  C12  1  1.19037174  1.19037174  0.19037174  1.0
  C  C13  1  0.71707473  0.71707473  0.71707473  1.0
  C  C14  1  1.28292527  1.28292527  0.28292527  1.0
  C  C15  1  0.00000000  0.00000000  0.00000000  1.0
