# generated using pymatgen
data_Na4Al3(SiO4)3
_symmetry_space_group_name_H-M   'P 1'
_cell_length_a   9.03380924
_cell_length_b   9.03380924
_cell_length_c   9.03380924
_cell_angle_alpha   90.00000000
_cell_angle_beta   90.00000000
_cell_angle_gamma   90.00000000
_symmetry_Int_Tables_number   1
_chemical_formula_structural   Na4Al3(SiO4)3
_chemical_formula_sum   'Na8 Al6 Si6 O24'
_cell_volume   737.24654635
_cell_formula_units_Z   2
loop_
 _symmetry_equiv_pos_site_id
 _symmetry_equiv_pos_as_xyz
  1  'x, y, z'
loop_
 _atom_site_type_symbol
 _atom_site_label
 _atom_site_symmetry_multiplicity
 _atom_site_fract_x
 _atom_site_fract_y
 _atom_site_fract_z
 _atom_site_occupancy
  Na  Na0  1  0.31470150  0.68529850  0.31470150  1.0
  Na  Na1  1  0.68529850  0.31470150  0.31470150  1.0
  Na  Na2  1  0.31470150  0.31470150  0.68529850  1.0
  Na  Na3  1  0.68529850  0.68529850  0.68529850  1.0
  Na  Na4  1  0.81470150  0.81470150  0.18529850  1.0
  Na  Na5  1  0.18529850  0.81470150  0.81470150  1.0
  Na  Na6  1  0.81470150  0.18529850  0.81470150  1.0
  Na  Na7  1  0.18529850  0.18529850  0.18529850  1.0
  Al  Al8  1  0.00000000  0.50000000  0.25000000  1.0
  Al  Al9  1  0.50000000  0.75000000  0.00000000  1.0
  Al  Al10  1  0.25000000  0.00000000  0.50000000  1.0
  Al  Al11  1  0.50000000  0.25000000  0.00000000  1.0
  Al  Al12  1  0.75000000  0.00000000  0.50000000  1.0
  Al  Al13  1  0.00000000  0.50000000  0.75000000  1.0
  Si  Si14  1  0.50000000  0.00000000  0.25000000  1.0
  Si  Si15  1  0.00000000  0.75000000  0.50000000  1.0
  Si  Si16  1  0.25000000  0.50000000  0.00000000  1.0
  Si  Si17  1  0.00000000  0.25000000  0.50000000  1.0
  Si  Si18  1  0.75000000  0.50000000  0.00000000  1.0
  Si  Si19  1  0.50000000  0.00000000  0.75000000  1.0
  O  O20  1  0.35983318  0.94089647  0.34962291  1.0
  O  O21  1  0.05910353  0.65037709  0.35983318  1.0
  O  O22  1  0.34962291  0.64016682  0.05910353  1.0
  O  O23  1  0.64016682  0.05910353  0.34962291  1.0
  O  O24  1  0.94089647  0.34962291  0.35983318  1.0
  O  O25  1  0.65037709  0.35983318  0.05910353  1.0
  O  O26  1  0.35983318  0.05910353  0.65037709  1.0
  O  O27  1  0.05910353  0.34962291  0.64016682  1.0
  O  O28  1  0.34962291  0.35983318  0.94089647  1.0
  O  O29  1  0.64016682  0.94089647  0.65037709  1.0
  O  O30  1  0.94089647  0.65037709  0.64016682  1.0
  O  O31  1  0.65037709  0.64016682  0.94089647  1.0
  O  O32  1  0.85983318  0.84962291  0.44089647  1.0
  O  O33  1  0.55910353  0.85983318  0.15037709  1.0
  O  O34  1  0.84962291  0.55910353  0.14016682  1.0
  O  O35  1  0.14016682  0.84962291  0.55910353  1.0
  O  O36  1  0.44089647  0.85983318  0.84962291  1.0
  O  O37  1  0.15037709  0.55910353  0.85983318  1.0
  O  O38  1  0.85983318  0.15037709  0.55910353  1.0
  O  O39  1  0.55910353  0.14016682  0.84962291  1.0
  O  O40  1  0.84962291  0.44089647  0.85983318  1.0
  O  O41  1  0.14016682  0.15037709  0.44089647  1.0
  O  O42  1  0.44089647  0.14016682  0.15037709  1.0
  O  O43  1  0.15037709  0.44089647  0.14016682  1.0
