# generated using pymatgen
data_Sc2MnB2Rh5
_symmetry_space_group_name_H-M   'P 1'
_cell_length_a   9.35875282
_cell_length_b   9.35875282
_cell_length_c   3.06278719
_cell_angle_alpha   90.00000000
_cell_angle_beta   90.00000000
_cell_angle_gamma   90.00000000
_symmetry_Int_Tables_number   1
_chemical_formula_structural   Sc2MnB2Rh5
_chemical_formula_sum   'Sc4 Mn2 B4 Rh10'
_cell_volume   268.25805746
_cell_formula_units_Z   2
loop_
 _symmetry_equiv_pos_site_id
 _symmetry_equiv_pos_as_xyz
  1  'x, y, z'
loop_
 _atom_site_type_symbol
 _atom_site_label
 _atom_site_symmetry_multiplicity
 _atom_site_fract_x
 _atom_site_fract_y
 _atom_site_fract_z
 _atom_site_occupancy
  Sc  Sc0  1  0.32433716  0.17566284  0.00000000  1.0
  Sc  Sc1  1  0.82433716  0.32433716  0.00000000  1.0
  Sc  Sc2  1  0.67566284  0.82433716  0.00000000  1.0
  Sc  Sc3  1  0.17566284  0.67566284  0.00000000  1.0
  Mn  Mn4  1  0.50000000  0.50000000  0.00000000  1.0
  Mn  Mn5  1  0.00000000  0.00000000  0.00000000  1.0
  B  B6  1  0.87516521  0.62483479  0.00000000  1.0
  B  B7  1  0.37516521  0.87516521  0.00000000  1.0
  B  B8  1  0.12483479  0.37516521  0.00000000  1.0
  B  B9  1  0.62483479  0.12483479  0.00000000  1.0
  Rh  Rh10  1  0.42938315  0.71834039  0.50000000  1.0
  Rh  Rh11  1  0.92938315  0.78165961  0.50000000  1.0
  Rh  Rh12  1  0.28165961  0.42938315  0.50000000  1.0
  Rh  Rh13  1  0.78165961  0.07061685  0.50000000  1.0
  Rh  Rh14  1  0.57061685  0.28165961  0.50000000  1.0
  Rh  Rh15  1  0.07061685  0.21834039  0.50000000  1.0
  Rh  Rh16  1  0.71834039  0.57061685  0.50000000  1.0
  Rh  Rh17  1  0.21834039  0.92938315  0.50000000  1.0
  Rh  Rh18  1  0.50000000  0.00000000  0.50000000  1.0
  Rh  Rh19  1  0.00000000  0.50000000  0.50000000  1.0
