# generated using pymatgen
data_NaYB2(H4Cl)2
_symmetry_space_group_name_H-M   'P 1'
_cell_length_a   6.82625108
_cell_length_b   9.39112755
_cell_length_c   6.59128350
_cell_angle_alpha   90.00000000
_cell_angle_beta   97.19699244
_cell_angle_gamma   90.00000000
_symmetry_Int_Tables_number   1
_chemical_formula_structural   NaYB2(H4Cl)2
_chemical_formula_sum   'Na2 Y2 B4 H16 Cl4'
_cell_volume   419.21301129
_cell_formula_units_Z   2
loop_
 _symmetry_equiv_pos_site_id
 _symmetry_equiv_pos_as_xyz
  1  'x, y, z'
loop_
 _atom_site_type_symbol
 _atom_site_label
 _atom_site_symmetry_multiplicity
 _atom_site_fract_x
 _atom_site_fract_y
 _atom_site_fract_z
 _atom_site_occupancy
  Na  Na0  1  -0.00000000  0.73103167  0.25000000  1.0
  Na  Na1  1  -0.00000000  0.26896833  0.75000000  1.0
  Y  Y2  1  0.50000000  0.34932207  0.25000000  1.0
  Y  Y3  1  0.50000000  0.65067793  0.75000000  1.0
  B  B4  1  0.75136005  0.81825017  0.91881962  1.0
  B  B5  1  0.75136005  0.18174983  0.41881962  1.0
  B  B6  1  0.24863995  0.81825017  0.58118038  1.0
  B  B7  1  0.24863995  0.18174983  0.08118038  1.0
  H  H8  1  0.39024710  0.79799320  0.48366591  1.0
  H  H9  1  0.39024710  0.20200680  0.98366591  1.0
  H  H10  1  0.60975290  0.79799320  0.01633409  1.0
  H  H11  1  0.60975290  0.20200680  0.51633409  1.0
  H  H12  1  0.68433952  0.86101401  0.74768461  1.0
  H  H13  1  0.68433952  0.13898599  0.24768461  1.0
  H  H14  1  0.31566048  0.86101401  0.75231539  1.0
  H  H15  1  0.31566048  0.13898599  0.25231539  1.0
  H  H16  1  0.82803443  0.70126883  0.89550298  1.0
  H  H17  1  0.82803443  0.29873117  0.39550298  1.0
  H  H18  1  0.17196557  0.70126883  0.60449702  1.0
  H  H19  1  0.17196557  0.29873117  0.10449702  1.0
  H  H20  1  0.86633779  0.90291385  1.00506040  1.0
  H  H21  1  0.86633779  0.09708615  0.50506040  1.0
  H  H22  1  0.13366221  0.90291385  0.49493960  1.0
  H  H23  1  0.13366221  0.09708615  -0.00506040  1.0
  Cl  Cl24  1  0.71115602  0.58345703  0.44348976  1.0
  Cl  Cl25  1  0.71115602  0.41654297  0.94348976  1.0
  Cl  Cl26  1  0.28884398  0.58345703  0.05651024  1.0
  Cl  Cl27  1  0.28884398  0.41654297  0.55651024  1.0
