# generated using pymatgen
data_Mn5As3ClO12
_symmetry_space_group_name_H-M   'P 1'
_cell_length_a   10.07310321
_cell_length_b   10.07310321
_cell_length_c   6.22803517
_cell_angle_alpha   90.00000000
_cell_angle_beta   90.00000000
_cell_angle_gamma   120.00000000
_symmetry_Int_Tables_number   1
_chemical_formula_structural   Mn5As3ClO12
_chemical_formula_sum   'Mn10 As6 Cl2 O24'
_cell_volume   547.27833498
_cell_formula_units_Z   2
loop_
 _symmetry_equiv_pos_site_id
 _symmetry_equiv_pos_as_xyz
  1  'x, y, z'
loop_
 _atom_site_type_symbol
 _atom_site_label
 _atom_site_symmetry_multiplicity
 _atom_site_fract_x
 _atom_site_fract_y
 _atom_site_fract_z
 _atom_site_occupancy
  Mn  Mn0  1  0.33333333  0.66666667  0.49589992  1.0
  Mn  Mn1  1  0.66666667  0.33333333  0.99589992  1.0
  Mn  Mn2  1  0.66666667  0.33333333  0.50410008  1.0
  Mn  Mn3  1  0.33333333  0.66666667  0.00410008  1.0
  Mn  Mn4  1  0.77236075  0.72602916  0.25000000  1.0
  Mn  Mn5  1  0.95366841  0.22763925  0.25000000  1.0
  Mn  Mn6  1  0.27397084  0.04633159  0.25000000  1.0
  Mn  Mn7  1  0.22763925  0.27397084  0.75000000  1.0
  Mn  Mn8  1  0.04633159  0.77236075  0.75000000  1.0
  Mn  Mn9  1  0.72602916  0.95366841  0.75000000  1.0
  As  As10  1  0.97900748  0.59402136  0.25000000  1.0
  As  As11  1  0.61501388  0.02099252  0.25000000  1.0
  As  As12  1  0.40597864  0.38498612  0.25000000  1.0
  As  As13  1  0.02099252  0.40597864  0.75000000  1.0
  As  As14  1  0.38498612  0.97900748  0.75000000  1.0
  As  As15  1  0.59402136  0.61501388  0.75000000  1.0
  Cl  Cl16  1  -0.00000000  -0.00000000  0.25000000  1.0
  Cl  Cl17  1  -0.00000000  -0.00000000  0.75000000  1.0
  O  O18  1  0.16667247  0.63556842  0.25000000  1.0
  O  O19  1  0.46889596  0.83332753  0.25000000  1.0
  O  O20  1  0.36443158  0.53110404  0.25000000  1.0
  O  O21  1  0.83332753  0.36443158  0.75000000  1.0
  O  O22  1  0.53110404  0.16667247  0.75000000  1.0
  O  O23  1  0.63556842  0.46889596  0.75000000  1.0
  O  O24  1  0.85192779  0.39265725  0.25000000  1.0
  O  O25  1  0.54072946  0.14807221  0.25000000  1.0
  O  O26  1  0.60734275  0.45927054  0.25000000  1.0
  O  O27  1  0.14807221  0.60734275  0.75000000  1.0
  O  O28  1  0.45927054  0.85192779  0.75000000  1.0
  O  O29  1  0.39265725  0.54072946  0.75000000  1.0
  O  O30  1  0.92446771  0.66596913  0.46683444  1.0
  O  O31  1  0.74150141  0.07553229  0.46683444  1.0
  O  O32  1  0.33403087  0.25849859  0.46683444  1.0
  O  O33  1  0.07553229  0.33403087  0.96683444  1.0
  O  O34  1  0.25849859  0.92446771  0.96683444  1.0
  O  O35  1  0.66596913  0.74150141  0.96683444  1.0
  O  O36  1  0.07553229  0.33403087  0.53316556  1.0
  O  O37  1  0.25849859  0.92446771  0.53316556  1.0
  O  O38  1  0.66596913  0.74150141  0.53316556  1.0
  O  O39  1  0.92446771  0.66596913  0.03316556  1.0
  O  O40  1  0.74150141  0.07553229  0.03316556  1.0
  O  O41  1  0.33403087  0.25849859  0.03316556  1.0
