# generated using pymatgen
data_YNbO4
_symmetry_space_group_name_H-M   'P 1'
_cell_length_a   6.66893269
_cell_length_b   6.66893269
_cell_length_c   6.66893269
_cell_angle_alpha   133.81224208
_cell_angle_beta   133.81224208
_cell_angle_gamma   67.38141613
_symmetry_Int_Tables_number   1
_chemical_formula_structural   YNbO4
_chemical_formula_sum   'Y2 Nb2 O8'
_cell_volume   151.87159145
_cell_formula_units_Z   2
loop_
 _symmetry_equiv_pos_site_id
 _symmetry_equiv_pos_as_xyz
  1  'x, y, z'
loop_
 _atom_site_type_symbol
 _atom_site_label
 _atom_site_symmetry_multiplicity
 _atom_site_fract_x
 _atom_site_fract_y
 _atom_site_fract_z
 _atom_site_occupancy
  Y  Y0  1  0.25000000  0.75000000  0.50000000  1.0
  Y  Y1  1  0.50000000  0.50000000  0.00000000  1.0
  Nb  Nb2  1  0.75000000  0.25000000  0.50000000  1.0
  Nb  Nb3  1  1.00000000  1.00000000  1.00000000  1.0
  O  O4  1  0.83601516  0.90916635  1.42266305  1.0
  O  O5  1  0.48650330  0.41335212  0.57733695  1.0
  O  O6  1  1.16335212  1.08601516  1.42684882  1.0
  O  O7  1  0.65916635  0.73650330  0.57315118  1.0
  O  O8  1  0.91398484  1.34083365  1.07733695  1.0
  O  O9  1  1.26349670  0.83664788  0.92266305  1.0
  O  O10  1  0.58664788  1.16398484  1.07315118  1.0
  O  O11  1  1.09083365  0.51349670  0.92684882  1.0
