# generated using pymatgen
data_Li8Pb3
_symmetry_space_group_name_H-M   'P 1'
_cell_length_a   11.06818893
_cell_length_b   11.06818893
_cell_length_c   11.06818893
_cell_angle_alpha   24.78141590
_cell_angle_beta   24.78141590
_cell_angle_gamma   24.78141590
_symmetry_Int_Tables_number   1
_chemical_formula_structural   Li8Pb3
_chemical_formula_sum   'Li8 Pb3'
_cell_volume   209.52156356
_cell_formula_units_Z   1
loop_
 _symmetry_equiv_pos_site_id
 _symmetry_equiv_pos_as_xyz
  1  'x, y, z'
loop_
 _atom_site_type_symbol
 _atom_site_label
 _atom_site_symmetry_multiplicity
 _atom_site_fract_x
 _atom_site_fract_y
 _atom_site_fract_z
 _atom_site_occupancy
  Li  Li0  1  0.91151606  0.91151606  0.91151606  1.0
  Li  Li1  1  1.08848394  1.08848394  0.08848394  1.0
  Li  Li2  1  0.82141138  0.82141138  0.82141138  1.0
  Li  Li3  1  1.17858862  1.17858862  0.17858862  1.0
  Li  Li4  1  0.72722982  0.72722982  0.72722982  1.0
  Li  Li5  1  1.27277018  1.27277018  0.27277018  1.0
  Li  Li6  1  1.63811801  0.63811801  0.63811801  1.0
  Li  Li7  1  1.36188199  0.36188199  0.36188199  1.0
  Pb  Pb8  1  0.00000000  0.00000000  0.00000000  1.0
  Pb  Pb9  1  1.54782842  0.54782842  0.54782842  1.0
  Pb  Pb10  1  1.45217158  0.45217158  0.45217158  1.0
