# generated using pymatgen
data_Pd(SCl3)2
_symmetry_space_group_name_H-M   'P 1'
_cell_length_a   7.04472012
_cell_length_b   4.71155980
_cell_length_c   8.50906730
_cell_angle_alpha   96.70385308
_cell_angle_beta   103.52661824
_cell_angle_gamma   90.29069983
_symmetry_Int_Tables_number   1
_chemical_formula_structural   Pd(SCl3)2
_chemical_formula_sum   'Pd1 S2 Cl6'
_cell_volume   272.56469196
_cell_formula_units_Z   1
loop_
 _symmetry_equiv_pos_site_id
 _symmetry_equiv_pos_as_xyz
  1  'x, y, z'
loop_
 _atom_site_type_symbol
 _atom_site_label
 _atom_site_symmetry_multiplicity
 _atom_site_fract_x
 _atom_site_fract_y
 _atom_site_fract_z
 _atom_site_occupancy
  Pd  Pd0  1  0.00000000  0.00000000  0.00000000  1.0
  S  S1  1  -0.78140484  -0.71760231  -0.79842712  1.0
  S  S2  1  -0.21859516  -0.28239769  -0.20157288  1.0
  Cl  Cl3  1  -0.52739383  -0.93690159  -0.78893890  1.0
  Cl  Cl4  1  -0.47260617  -0.06309841  -0.21106110  1.0
  Cl  Cl5  1  -0.82968744  -0.75774177  -0.57442023  1.0
  Cl  Cl6  1  -0.17031256  -0.24225823  -0.42557977  1.0
  Cl  Cl7  1  -0.87185778  -0.70916104  -0.15626211  1.0
  Cl  Cl8  1  -0.12814222  -0.29083896  -0.84373789  1.0
