# generated using pymatgen
data_Tb2Al4FeGe2
_symmetry_space_group_name_H-M   'P 1'
_cell_length_a   10.27180833
_cell_length_b   10.27180833
_cell_length_c   10.27180833
_cell_angle_alpha   156.69521750
_cell_angle_beta   156.69521750
_cell_angle_gamma   33.19346897
_symmetry_Int_Tables_number   1
_chemical_formula_structural   Tb2Al4FeGe2
_chemical_formula_sum   'Tb2 Al4 Fe1 Ge2'
_cell_volume   169.47625226
_cell_formula_units_Z   1
loop_
 _symmetry_equiv_pos_site_id
 _symmetry_equiv_pos_as_xyz
  1  'x, y, z'
loop_
 _atom_site_type_symbol
 _atom_site_label
 _atom_site_symmetry_multiplicity
 _atom_site_fract_x
 _atom_site_fract_y
 _atom_site_fract_z
 _atom_site_occupancy
  Tb  Tb0  1  0.81793794  0.81793794  1.00000000  1.0
  Tb  Tb1  1  0.18206206  0.18206206  -0.00000000  1.0
  Al  Al2  1  0.43461902  0.93461902  0.50000000  1.0
  Al  Al3  1  0.56538098  0.06538098  0.50000000  1.0
  Al  Al4  1  0.93461902  0.43461902  0.50000000  1.0
  Al  Al5  1  0.06538098  0.56538098  0.50000000  1.0
  Fe  Fe6  1  0.00000000  0.00000000  0.00000000  1.0
  Ge  Ge7  1  0.66400242  0.66400242  1.00000000  1.0
  Ge  Ge8  1  0.33599758  0.33599758  -0.00000000  1.0
