# generated using pymatgen
data_Mn2As
_symmetry_space_group_name_H-M   'P 1'
_cell_length_a   6.39596315
_cell_length_b   6.39596315
_cell_length_c   3.44774153
_cell_angle_alpha   90.00000000
_cell_angle_beta   90.00000000
_cell_angle_gamma   120.00000000
_symmetry_Int_Tables_number   1
_chemical_formula_structural   Mn2As
_chemical_formula_sum   'Mn6 As3'
_cell_volume   122.14543429
_cell_formula_units_Z   3
loop_
 _symmetry_equiv_pos_site_id
 _symmetry_equiv_pos_as_xyz
  1  'x, y, z'
loop_
 _atom_site_type_symbol
 _atom_site_label
 _atom_site_symmetry_multiplicity
 _atom_site_fract_x
 _atom_site_fract_y
 _atom_site_fract_z
 _atom_site_occupancy
  Mn  Mn0  1  0.74072560  0.74072560  0.50000000  1.0
  Mn  Mn1  1  -0.00000000  0.25927440  0.50000000  1.0
  Mn  Mn2  1  0.25927440  -0.00000000  0.50000000  1.0
  Mn  Mn3  1  0.39879818  0.39879818  0.00000000  1.0
  Mn  Mn4  1  -0.00000000  0.60120182  0.00000000  1.0
  Mn  Mn5  1  0.60120182  -0.00000000  0.00000000  1.0
  As  As6  1  0.33333333  0.66666667  0.50000000  1.0
  As  As7  1  0.66666667  0.33333333  0.50000000  1.0
  As  As8  1  -0.00000000  -0.00000000  -0.00000000  1.0
