# generated using pymatgen
data_KBi(WO4)2
_symmetry_space_group_name_H-M   'P 1'
_cell_length_a   7.70500468
_cell_length_b   7.70500468
_cell_length_c   7.70961919
_cell_angle_alpha   61.71302865
_cell_angle_beta   118.28697135
_cell_angle_gamma   91.48029539
_symmetry_Int_Tables_number   1
_chemical_formula_structural   KBi(WO4)2
_chemical_formula_sum   'K2 Bi2 W4 O16'
_cell_volume   343.05831204
_cell_formula_units_Z   2
loop_
 _symmetry_equiv_pos_site_id
 _symmetry_equiv_pos_as_xyz
  1  'x, y, z'
loop_
 _atom_site_type_symbol
 _atom_site_label
 _atom_site_symmetry_multiplicity
 _atom_site_fract_x
 _atom_site_fract_y
 _atom_site_fract_z
 _atom_site_occupancy
  K  K0  1  0.20782522  0.20782522  0.25000000  1.0
  K  K1  1  0.79217478  0.79217478  0.75000000  1.0
  Bi  Bi2  1  0.77774893  0.77774893  0.25000000  1.0
  Bi  Bi3  1  0.22225107  0.22225107  0.75000000  1.0
  W  W4  1  0.69316950  0.30478834  0.23318237  1.0
  W  W5  1  0.69521166  0.30683050  0.73318237  1.0
  W  W6  1  1.30478834  -0.30683050  0.26681763  1.0
  W  W7  1  1.30683050  -0.30478834  0.76681763  1.0
  O  O8  1  1.58709682  -0.37520826  0.02823528  1.0
  O  O9  1  1.37520826  -0.58709682  0.52823528  1.0
  O  O10  1  0.62479174  0.58709682  0.47176472  1.0
  O  O11  1  0.41290318  0.37520826  0.97176472  1.0
  O  O12  1  0.77993782  0.04769073  0.31193814  1.0
  O  O13  1  0.95230927  0.22006218  0.81193814  1.0
  O  O14  1  1.04769073  -0.22006218  0.18806186  1.0
  O  O15  1  1.22006218  -0.04769073  0.68806186  1.0
  O  O16  1  1.37267320  -0.06752939  0.13219303  1.0
  O  O17  1  1.06752939  -0.37267320  0.63219303  1.0
  O  O18  1  0.93247061  0.37267320  0.36780697  1.0
  O  O19  1  0.62732680  0.06752939  0.86780697  1.0
  O  O20  1  0.62299877  0.24203449  0.44391794  1.0
  O  O21  1  0.75796551  0.37700123  0.94391794  1.0
  O  O22  1  1.24203449  -0.37700123  0.05608206  1.0
  O  O23  1  1.37700123  -0.24203449  0.55608206  1.0
