# generated using pymatgen
data_Lu2CCl2
_symmetry_space_group_name_H-M   'P 1'
_cell_length_a   3.61073699
_cell_length_b   3.61073699
_cell_length_c   9.78952578
_cell_angle_alpha   90.00000000
_cell_angle_beta   90.00000000
_cell_angle_gamma   120.00000000
_symmetry_Int_Tables_number   1
_chemical_formula_structural   Lu2CCl2
_chemical_formula_sum   'Lu2 C1 Cl2'
_cell_volume   110.53097389
_cell_formula_units_Z   1
loop_
 _symmetry_equiv_pos_site_id
 _symmetry_equiv_pos_as_xyz
  1  'x, y, z'
loop_
 _atom_site_type_symbol
 _atom_site_label
 _atom_site_symmetry_multiplicity
 _atom_site_fract_x
 _atom_site_fract_y
 _atom_site_fract_z
 _atom_site_occupancy
  Lu  Lu0  1  0.33333333  0.66666667  0.13237907  1.0
  Lu  Lu1  1  0.66666667  0.33333333  0.86762093  1.0
  C  C2  1  0.00000000  0.00000000  -0.00000000  1.0
  Cl  Cl3  1  0.33333333  0.66666667  0.69012017  1.0
  Cl  Cl4  1  0.66666667  0.33333333  0.30987983  1.0
