# generated using pymatgen
data_FeCu2GeSe4
_symmetry_space_group_name_H-M   'P 1'
_cell_length_a   6.89661131
_cell_length_b   6.89661131
_cell_length_c   6.89661131
_cell_angle_alpha   131.87100889
_cell_angle_beta   131.87100889
_cell_angle_gamma   70.43283077
_symmetry_Int_Tables_number   1
_chemical_formula_structural   FeCu2GeSe4
_chemical_formula_sum   'Fe1 Cu2 Ge1 Se4'
_cell_volume   178.23698426
_cell_formula_units_Z   1
loop_
 _symmetry_equiv_pos_site_id
 _symmetry_equiv_pos_as_xyz
  1  'x, y, z'
loop_
 _atom_site_type_symbol
 _atom_site_label
 _atom_site_symmetry_multiplicity
 _atom_site_fract_x
 _atom_site_fract_y
 _atom_site_fract_z
 _atom_site_occupancy
  Fe  Fe0  1  0.75000000  0.25000000  0.50000000  1.0
  Cu  Cu1  1  0.25000000  0.75000000  0.50000000  1.0
  Cu  Cu2  1  0.00000000  0.00000000  0.00000000  1.0
  Ge  Ge3  1  0.50000000  0.50000000  1.00000000  1.0
  Se  Se4  1  0.37511249  0.88326540  1.00213993  1.0
  Se  Se5  1  1.11673460  1.11887453  1.49184709  1.0
  Se  Se6  1  0.88112547  0.37297255  0.99786007  1.0
  Se  Se7  1  0.62702745  0.62488751  0.50815291  1.0
