# generated using pymatgen
data_CoP3NO9
_symmetry_space_group_name_H-M   'P 1'
_cell_length_a   5.13005717
_cell_length_b   11.95602174
_cell_length_c   13.01932944
_cell_angle_alpha   90.00000000
_cell_angle_beta   90.00000000
_cell_angle_gamma   90.00000000
_symmetry_Int_Tables_number   1
_chemical_formula_structural   CoP3NO9
_chemical_formula_sum   'Co4 P12 N4 O36'
_cell_volume   798.54154747
_cell_formula_units_Z   4
loop_
 _symmetry_equiv_pos_site_id
 _symmetry_equiv_pos_as_xyz
  1  'x, y, z'
loop_
 _atom_site_type_symbol
 _atom_site_label
 _atom_site_symmetry_multiplicity
 _atom_site_fract_x
 _atom_site_fract_y
 _atom_site_fract_z
 _atom_site_occupancy
  N  N0  1  0.12880689  0.30780457  0.75000000  1.0
  N  N1  1  -0.12880689  0.69219543  0.25000000  1.0
  N  N2  1  0.12880689  0.19219543  0.25000000  1.0
  N  N3  1  -0.12880689  0.80780457  0.75000000  1.0
  Co  Co4  1  0.00000000  0.50000000  0.50000000  1.0
  Co  Co5  1  0.00000000  0.50000000  0.00000000  1.0
  Co  Co6  1  0.00000000  0.00000000  0.50000000  1.0
  Co  Co7  1  0.00000000  0.00000000  0.00000000  1.0
  P  P8  1  0.75695642  0.25000000  0.50000000  1.0
  P  P9  1  0.24304358  0.75000000  0.00000000  1.0
  P  P10  1  0.24304358  0.75000000  0.50000000  1.0
  P  P11  1  0.75695642  0.25000000  0.00000000  1.0
  P  P12  1  0.49512150  0.08282564  0.63193687  1.0
  P  P13  1  0.50487850  0.91717436  0.13193687  1.0
  P  P14  1  0.49512150  0.41717436  0.36806313  1.0
  P  P15  1  0.50487850  0.58282564  0.86806313  1.0
  P  P16  1  0.50487850  0.91717436  0.36806313  1.0
  P  P17  1  0.49512150  0.08282564  0.86806313  1.0
  P  P18  1  0.50487850  0.58282564  0.63193687  1.0
  P  P19  1  0.49512150  0.41717436  0.13193687  1.0
  O  O20  1  0.55902383  0.20619000  0.58699789  1.0
  O  O21  1  0.44097617  0.79381000  0.08699789  1.0
  O  O22  1  0.55902383  0.29381000  0.41300211  1.0
  O  O23  1  0.44097617  0.70619000  0.91300211  1.0
  O  O24  1  0.44097617  0.79381000  0.41300211  1.0
  O  O25  1  0.55902383  0.20619000  0.91300211  1.0
  O  O26  1  0.44097617  0.70619000  0.58699789  1.0
  O  O27  1  0.55902383  0.29381000  0.08699789  1.0
  O  O28  1  0.56397192  0.10553708  0.75000000  1.0
  O  O29  1  0.43602808  0.89446292  0.25000000  1.0
  O  O30  1  0.56397192  0.39446292  0.25000000  1.0
  O  O31  1  0.43602808  0.60553708  0.75000000  1.0
  O  O32  1  0.20673653  0.06068717  0.62014885  1.0
  O  O33  1  0.79326347  0.93931283  0.12014885  1.0
  O  O34  1  0.20673653  0.43931283  0.37985115  1.0
  O  O35  1  0.79326347  0.56068717  0.87985115  1.0
  O  O36  1  0.79326347  0.93931283  0.37985115  1.0
  O  O37  1  0.20673653  0.06068717  0.87985115  1.0
  O  O38  1  0.79326347  0.56068717  0.62014885  1.0
  O  O39  1  0.20673653  0.43931283  0.12014885  1.0
  O  O40  1  0.68179073  0.99645297  0.58952280  1.0
  O  O41  1  0.31820927  0.00354703  0.08952280  1.0
  O  O42  1  0.68179073  0.50354703  0.41047720  1.0
  O  O43  1  0.31820927  0.49645297  0.91047720  1.0
  O  O44  1  0.31820927  0.00354703  0.41047720  1.0
  O  O45  1  0.68179073  0.99645297  0.91047720  1.0
  O  O46  1  0.31820927  0.49645297  0.58952280  1.0
  O  O47  1  0.68179073  0.50354703  0.08952280  1.0
  O  O48  1  0.90982062  0.34656246  0.54442678  1.0
  O  O49  1  0.09017938  0.65343754  0.04442678  1.0
  O  O50  1  0.90982062  0.15343754  0.45557322  1.0
  O  O51  1  0.09017938  0.84656246  0.95557322  1.0
  O  O52  1  0.09017938  0.65343754  0.45557322  1.0
  O  O53  1  0.90982062  0.34656246  0.95557322  1.0
  O  O54  1  0.09017938  0.84656246  0.54442678  1.0
  O  O55  1  0.90982062  0.15343754  0.04442678  1.0
