# generated using pymatgen
data_Tl2Au4S3
_symmetry_space_group_name_H-M   'P 1'
_cell_length_a   7.64666497
_cell_length_b   12.52701059
_cell_length_c   4.87648669
_cell_angle_alpha   90.00000000
_cell_angle_beta   90.00000000
_cell_angle_gamma   90.00000000
_symmetry_Int_Tables_number   1
_chemical_formula_structural   Tl2Au4S3
_chemical_formula_sum   'Tl4 Au8 S6'
_cell_volume   467.11794282
_cell_formula_units_Z   2
loop_
 _symmetry_equiv_pos_site_id
 _symmetry_equiv_pos_as_xyz
  1  'x, y, z'
loop_
 _atom_site_type_symbol
 _atom_site_label
 _atom_site_symmetry_multiplicity
 _atom_site_fract_x
 _atom_site_fract_y
 _atom_site_fract_z
 _atom_site_occupancy
  Tl  Tl0  1  0.22700667  0.50000000  0.74943175  1.0
  Tl  Tl1  1  0.77299333  0.50000000  0.74943175  1.0
  Tl  Tl2  1  0.27299333  0.00000000  0.25056825  1.0
  Tl  Tl3  1  0.72700667  -0.00000000  0.25056825  1.0
  Au  Au4  1  0.50000000  0.65453095  0.44742891  1.0
  Au  Au5  1  0.50000000  0.34546905  0.44742891  1.0
  Au  Au6  1  -0.00000000  0.84546905  0.55257109  1.0
  Au  Au7  1  -0.00000000  0.15453095  0.55257109  1.0
  Au  Au8  1  0.25000000  0.75000000  0.00000000  1.0
  Au  Au9  1  0.75000000  0.75000000  -0.00000000  1.0
  Au  Au10  1  0.25000000  0.25000000  -0.00000000  1.0
  Au  Au11  1  0.75000000  0.25000000  -0.00000000  1.0
  S  S12  1  0.50000000  0.79963464  0.75003159  1.0
  S  S13  1  0.50000000  0.20036536  0.75003159  1.0
  S  S14  1  0.00000000  0.70036536  0.24996841  1.0
  S  S15  1  0.00000000  0.29963464  0.24996841  1.0
  S  S16  1  0.50000000  0.50000000  0.18105747  1.0
  S  S17  1  0.00000000  0.00000000  0.81894253  1.0
