# generated using pymatgen
data_Na3Mg2BiO6
_symmetry_space_group_name_H-M   'P 1'
_cell_length_a   5.50109594
_cell_length_b   5.50109594
_cell_length_c   5.80826748
_cell_angle_alpha   80.94984800
_cell_angle_beta   99.05015200
_cell_angle_gamma   59.98194868
_symmetry_Int_Tables_number   1
_chemical_formula_structural   Na3Mg2BiO6
_chemical_formula_sum   'Na3 Mg2 Bi1 O6'
_cell_volume   144.46173063
_cell_formula_units_Z   1
loop_
 _symmetry_equiv_pos_site_id
 _symmetry_equiv_pos_as_xyz
  1  'x, y, z'
loop_
 _atom_site_type_symbol
 _atom_site_label
 _atom_site_symmetry_multiplicity
 _atom_site_fract_x
 _atom_site_fract_y
 _atom_site_fract_z
 _atom_site_occupancy
  Na  Na0  1  0.67142360  -0.32857640  0.50000000  1.0
  Na  Na1  1  0.32857640  0.32857640  0.50000000  1.0
  Na  Na2  1  0.00000000  0.00000000  0.50000000  1.0
  Mg  Mg3  1  0.83352229  -0.16647771  0.00000000  1.0
  Mg  Mg4  1  0.16647771  0.16647771  0.00000000  1.0
  Bi  Bi5  1  0.50000000  -0.50000000  0.00000000  1.0
  O  O6  1  0.43109174  -0.10000912  0.79304114  1.0
  O  O7  1  1.10000912  -0.43109174  0.79304114  1.0
  O  O8  1  0.89999088  -0.56890826  0.20695886  1.0
  O  O9  1  0.56890826  0.10000912  0.20695886  1.0
  O  O10  1  0.76176611  -0.76176611  0.79304829  1.0
  O  O11  1  0.23823389  -0.23823389  0.20695171  1.0
