# generated using pymatgen
data_Hf(TlSe)4
_symmetry_space_group_name_H-M   'P 1'
_cell_length_a   9.61015745
_cell_length_b   9.59215665
_cell_length_c   16.41838341
_cell_angle_alpha   104.25167367
_cell_angle_beta   104.31521181
_cell_angle_gamma   89.65362120
_symmetry_Int_Tables_number   1
_chemical_formula_structural   Hf(TlSe)4
_chemical_formula_sum   'Hf5 Tl20 Se20'
_cell_volume   1418.93111658
_cell_formula_units_Z   5
loop_
 _symmetry_equiv_pos_site_id
 _symmetry_equiv_pos_as_xyz
  1  'x, y, z'
loop_
 _atom_site_type_symbol
 _atom_site_label
 _atom_site_symmetry_multiplicity
 _atom_site_fract_x
 _atom_site_fract_y
 _atom_site_fract_z
 _atom_site_occupancy
  Hf  Hf0  1  0.68312719  0.01316876  0.59837722  1.0
  Hf  Hf1  1  0.31687281  0.98683124  0.40162278  1.0
  Hf  Hf2  1  0.31485299  0.17818505  0.19853704  1.0
  Hf  Hf3  1  0.68514701  0.82181495  0.80146296  1.0
  Hf  Hf4  1  0.50000000  -0.00000000  -0.00000000  1.0
  Tl  Tl5  1  0.06947213  0.03343063  0.79822463  1.0
  Tl  Tl6  1  0.93052787  0.96656937  0.20177537  1.0
  Tl  Tl7  1  0.71847532  0.20642049  0.40020073  1.0
  Tl  Tl8  1  0.28152468  0.79357951  0.59979927  1.0
  Tl  Tl9  1  0.08457184  0.21371997  0.59755479  1.0
  Tl  Tl10  1  0.91542816  0.78628003  0.40244521  1.0
  Tl  Tl11  1  0.45062515  0.21975900  0.79420715  1.0
  Tl  Tl12  1  0.54937485  0.78024100  0.20579285  1.0
  Tl  Tl13  1  0.10086013  0.37645673  0.38347354  1.0
  Tl  Tl14  1  0.89913987  0.62354327  0.61652646  1.0
  Tl  Tl15  1  0.70481140  0.38249127  0.18641221  1.0
  Tl  Tl16  1  0.29518860  0.61750873  0.81358779  1.0
  Tl  Tl17  1  0.46991283  0.41094235  0.59408176  1.0
  Tl  Tl18  1  0.53008717  0.58905765  0.40591824  1.0
  Tl  Tl19  1  0.11477282  0.58663849  0.20064777  1.0
  Tl  Tl20  1  0.88522718  0.41336151  0.79935223  1.0
  Tl  Tl21  1  0.71032289  0.60522945  -0.00627443  1.0
  Tl  Tl22  1  0.28967711  0.39477055  1.00627443  1.0
  Tl  Tl23  1  0.10608019  0.78553331  0.01295248  1.0
  Tl  Tl24  1  0.89391981  0.21446669  0.98704752  1.0
  Se  Se25  1  0.05258059  0.06860962  0.40395850  1.0
  Se  Se26  1  0.94741941  0.93139038  0.59604150  1.0
  Se  Se27  1  0.39834182  0.07501533  0.57730919  1.0
  Se  Se28  1  0.60165818  0.92498467  0.42269081  1.0
  Se  Se29  1  0.23686343  0.07955582  0.02105668  1.0
  Se  Se30  1  0.76313657  0.92044418  0.97894332  1.0
  Se  Se31  1  0.58318691  0.08726152  0.17713185  1.0
  Se  Se32  1  0.41681309  0.91273848  0.82286815  1.0
  Se  Se33  1  0.04572865  0.24965404  0.18885652  1.0
  Se  Se34  1  0.95427135  0.75034596  0.81114348  1.0
  Se  Se35  1  0.38842963  0.24964321  0.37574254  1.0
  Se  Se36  1  0.61157037  0.75035679  0.62425746  1.0
  Se  Se37  1  0.39436303  0.44495613  0.20209231  1.0
  Se  Se38  1  0.60563697  0.55504387  0.79790769  1.0
  Se  Se39  1  0.24171199  0.71876992  0.39719706  1.0
  Se  Se40  1  0.75828801  0.28123008  0.60280294  1.0
  Se  Se41  1  0.42693286  0.73188707  0.00676010  1.0
  Se  Se42  1  0.57306714  0.26811293  0.99323990  1.0
  Se  Se43  1  0.26522722  0.91266007  0.22515467  1.0
  Se  Se44  1  0.73477278  0.08733993  0.77484533  1.0
