# generated using pymatgen
data_Li5SbS3I2
_symmetry_space_group_name_H-M   'P 1'
_cell_length_a   10.48915902
_cell_length_b   13.55321326
_cell_length_c   7.59895735
_cell_angle_alpha   90.00000000
_cell_angle_beta   90.00000000
_cell_angle_gamma   90.00000000
_symmetry_Int_Tables_number   1
_chemical_formula_structural   Li5SbS3I2
_chemical_formula_sum   'Li20 Sb4 S12 I8'
_cell_volume   1080.28152339
_cell_formula_units_Z   4
loop_
 _symmetry_equiv_pos_site_id
 _symmetry_equiv_pos_as_xyz
  1  'x, y, z'
loop_
 _atom_site_type_symbol
 _atom_site_label
 _atom_site_symmetry_multiplicity
 _atom_site_fract_x
 _atom_site_fract_y
 _atom_site_fract_z
 _atom_site_occupancy
  Li  Li0  1  0.43715076  0.90294381  0.22999463  1.0
  Li  Li1  1  0.43715076  0.90294381  0.77000537  1.0
  Li  Li2  1  0.93715076  0.59705619  0.72999463  1.0
  Li  Li3  1  0.93715076  0.59705619  0.27000537  1.0
  Li  Li4  1  0.56284924  0.09705619  0.22999463  1.0
  Li  Li5  1  0.56284924  0.09705619  0.77000537  1.0
  Li  Li6  1  0.06284924  0.40294381  0.72999463  1.0
  Li  Li7  1  0.06284924  0.40294381  0.27000537  1.0
  Li  Li8  1  0.19796715  0.74947216  0.24637475  1.0
  Li  Li9  1  0.19796715  0.74947216  0.75362525  1.0
  Li  Li10  1  0.69796715  0.75052784  0.74637475  1.0
  Li  Li11  1  0.69796715  0.75052784  0.25362525  1.0
  Li  Li12  1  0.80203285  0.25052784  0.24637475  1.0
  Li  Li13  1  0.80203285  0.25052784  0.75362525  1.0
  Li  Li14  1  0.30203285  0.24947216  0.74637475  1.0
  Li  Li15  1  0.30203285  0.24947216  0.25362525  1.0
  Li  Li16  1  0.18984555  0.03824424  0.50000000  1.0
  Li  Li17  1  0.68984555  0.46175576  0.00000000  1.0
  Li  Li18  1  0.81015445  0.96175576  0.50000000  1.0
  Li  Li19  1  0.31015445  0.53824424  0.00000000  1.0
  Sb  Sb20  1  0.29950289  0.50888136  0.50000000  1.0
  Sb  Sb21  1  0.79950289  0.99111864  0.00000000  1.0
  Sb  Sb22  1  0.70049711  0.49111864  0.50000000  1.0
  Sb  Sb23  1  0.20049711  0.00888136  0.00000000  1.0
  S  S24  1  0.16984038  0.56859987  0.25015366  1.0
  S  S25  1  0.16984038  0.56859987  0.74984634  1.0
  S  S26  1  0.66984038  0.93140013  0.75015366  1.0
  S  S27  1  0.66984038  0.93140013  0.24984634  1.0
  S  S28  1  0.83015962  0.43140013  0.25015366  1.0
  S  S29  1  0.83015962  0.43140013  0.74984634  1.0
  S  S30  1  0.33015962  0.06859987  0.75015366  1.0
  S  S31  1  0.33015962  0.06859987  0.24984634  1.0
  S  S32  1  0.79734290  0.65869742  0.50000000  1.0
  S  S33  1  0.29734290  0.84130258  0.00000000  1.0
  S  S34  1  0.20265710  0.34130258  0.50000000  1.0
  S  S35  1  0.70265710  0.15869742  0.00000000  1.0
  I  I36  1  0.42529961  0.76360896  0.50000000  1.0
  I  I37  1  0.92529961  0.73639104  0.00000000  1.0
  I  I38  1  0.57470039  0.23639104  0.50000000  1.0
  I  I39  1  0.07470039  0.26360896  0.00000000  1.0
  I  I40  1  0.05672073  0.85850611  0.50000000  1.0
  I  I41  1  0.55672073  0.64149389  0.00000000  1.0
  I  I42  1  0.94327927  0.14149389  0.50000000  1.0
  I  I43  1  0.44327927  0.35850611  0.00000000  1.0
