# generated using pymatgen
data_CsCN5O2
_symmetry_space_group_name_H-M   'P 1'
_cell_length_a   8.21795115
_cell_length_b   8.21795115
_cell_length_c   15.99953823
_cell_angle_alpha   76.33718328
_cell_angle_beta   103.66281672
_cell_angle_gamma   142.92051750
_symmetry_Int_Tables_number   1
_chemical_formula_structural   CsCN5O2
_chemical_formula_sum   'Cs4 C4 N20 O8'
_cell_volume   630.93021270
_cell_formula_units_Z   4
loop_
 _symmetry_equiv_pos_site_id
 _symmetry_equiv_pos_as_xyz
  1  'x, y, z'
loop_
 _atom_site_type_symbol
 _atom_site_label
 _atom_site_symmetry_multiplicity
 _atom_site_fract_x
 _atom_site_fract_y
 _atom_site_fract_z
 _atom_site_occupancy
  Cs  Cs0  1  0.21838820  -0.01767459  0.38901552  1.0
  Cs  Cs1  1  0.98232541  0.21838820  0.11098448  1.0
  Cs  Cs2  1  0.78161180  0.01767459  0.61098448  1.0
  Cs  Cs3  1  1.01767459  0.78161180  0.88901552  1.0
  C  C4  1  0.50708128  0.23028930  0.13249039  1.0
  C  C5  1  1.23028930  0.50708128  0.36750961  1.0
  C  C6  1  0.49291872  -0.23028930  0.86750961  1.0
  C  C7  1  0.76971070  0.49291872  0.63249039  1.0
  N  N8  1  0.48347318  0.34764465  0.16404127  1.0
  N  N9  1  1.34764465  0.48347318  0.33595873  1.0
  N  N10  1  0.51652682  -0.34764465  0.83595873  1.0
  N  N11  1  0.65235535  0.51652682  0.66404127  1.0
  N  N12  1  0.65553161  0.59133511  0.12143204  1.0
  N  N13  1  0.59133511  -0.34446839  0.37856796  1.0
  N  N14  1  1.34446839  0.40866489  0.87856796  1.0
  N  N15  1  0.40866489  0.34446839  0.62143204  1.0
  N  N16  1  0.77796144  0.61682112  0.06687949  1.0
  N  N17  1  0.61682112  -0.22203856  0.43312051  1.0
  N  N18  1  1.22203856  0.38317888  0.93312051  1.0
  N  N19  1  0.38317888  0.22203856  0.56687949  1.0
  N  N20  1  0.68631196  0.38976120  0.07264561  1.0
  N  N21  1  1.38976120  0.68631196  0.42735439  1.0
  N  N22  1  0.31368804  -0.38976120  0.92735439  1.0
  N  N23  1  0.61023880  0.31368804  0.57264561  1.0
  N  N24  1  0.35501366  -0.03987966  0.16020729  1.0
  N  N25  1  0.96012034  0.35501366  0.33979271  1.0
  N  N26  1  0.64498634  0.03987966  0.83979271  1.0
  N  N27  1  1.03987966  0.64498634  0.66020729  1.0
  O  O28  1  1.21048670  0.83776900  0.22031519  1.0
  O  O29  1  0.83776900  0.21048670  0.27968481  1.0
  O  O30  1  0.78951330  0.16223100  0.77968481  1.0
  O  O31  1  0.16223100  -0.21048670  0.72031519  1.0
  O  O32  1  0.37654523  -0.13641797  0.12182949  1.0
  O  O33  1  0.86358203  0.37654523  0.37817051  1.0
  O  O34  1  0.62345477  0.13641797  0.87817051  1.0
  O  O35  1  1.13641797  0.62345477  0.62182949  1.0
