# generated using pymatgen
data_ZnN6
_symmetry_space_group_name_H-M   'P 1'
_cell_length_a   6.09835119
_cell_length_b   6.09835119
_cell_length_c   19.68277927
_cell_angle_alpha   90.00000000
_cell_angle_beta   90.00000000
_cell_angle_gamma   120.00000000
_symmetry_Int_Tables_number   1
_chemical_formula_structural   ZnN6
_chemical_formula_sum   'Zn6 N36'
_cell_volume   633.93089142
_cell_formula_units_Z   6
loop_
 _symmetry_equiv_pos_site_id
 _symmetry_equiv_pos_as_xyz
  1  'x, y, z'
loop_
 _atom_site_type_symbol
 _atom_site_label
 _atom_site_symmetry_multiplicity
 _atom_site_fract_x
 _atom_site_fract_y
 _atom_site_fract_z
 _atom_site_occupancy
  Zn  Zn0  1  0.83070206  0.65725437  0.64088356  1.0
  Zn  Zn1  1  0.34274563  0.17344769  0.30755023  1.0
  Zn  Zn2  1  0.82655231  0.16929794  0.97421689  1.0
  Zn  Zn3  1  0.65725437  0.83070206  0.35911644  1.0
  Zn  Zn4  1  0.17344769  0.34274563  0.69244977  1.0
  Zn  Zn5  1  0.16929794  0.82655231  0.02578311  1.0
  N  N6  1  0.55598041  0.54050358  0.71199214  1.0
  N  N7  1  0.45949642  0.01547683  0.37865881  1.0
  N  N8  1  0.98452317  0.44401959  0.04532547  1.0
  N  N9  1  0.54050358  0.55598041  0.28800786  1.0
  N  N10  1  0.01547683  0.45949642  0.62134119  1.0
  N  N11  1  0.44401959  0.98452317  0.95467453  1.0
  N  N12  1  0.61709144  0.62604425  0.76955172  1.0
  N  N13  1  0.37395575  0.99104718  0.43621838  1.0
  N  N14  1  0.00895282  0.38290856  0.10288505  1.0
  N  N15  1  0.62604425  0.61709144  0.23044828  1.0
  N  N16  1  0.99104718  0.37395575  0.56378162  1.0
  N  N17  1  0.38290856  0.00895282  0.89711495  1.0
  N  N18  1  0.67238021  0.70533567  0.82350888  1.0
  N  N19  1  0.29466433  0.96704454  0.49017555  1.0
  N  N20  1  0.03295546  0.32761979  0.15684221  1.0
  N  N21  1  0.70533567  0.67238021  0.17649112  1.0
  N  N22  1  0.96704454  0.29466433  0.50982445  1.0
  N  N23  1  0.32761979  0.03295546  0.84315779  1.0
  N  N24  1  0.12735390  0.00000000  0.66666667  1.0
  N  N25  1  -0.00000000  0.12735390  0.33333333  1.0
  N  N26  1  0.87264610  0.87264610  0.00000000  1.0
  N  N27  1  0.32875026  0.00000000  0.66666667  1.0
  N  N28  1  0.00000000  0.32875026  0.33333333  1.0
  N  N29  1  0.67124974  0.67124974  0.00000000  1.0
  N  N30  1  0.51625699  0.00000000  0.66666667  1.0
  N  N31  1  0.00000000  0.51625699  0.33333333  1.0
  N  N32  1  0.48374301  0.48374301  0.00000000  1.0
  N  N33  1  0.62316920  0.61817866  0.55948646  1.0
  N  N34  1  0.38182134  0.00499054  0.22615312  1.0
  N  N35  1  0.99500946  0.37683080  0.89281979  1.0
  N  N36  1  0.61817866  0.62316920  0.44051354  1.0
  N  N37  1  0.00499054  0.38182134  0.77384688  1.0
  N  N38  1  0.37683080  0.99500946  0.10718021  1.0
  N  N39  1  0.62859682  0.62859682  0.50000000  1.0
  N  N40  1  0.37140318  0.00000000  0.16666667  1.0
  N  N41  1  -0.00000000  0.37140318  0.83333333  1.0
