# generated using pymatgen
data_LuCuSn
_symmetry_space_group_name_H-M   'P 1'
_cell_length_a   4.50161652
_cell_length_b   4.50161652
_cell_length_c   7.12954485
_cell_angle_alpha   90.00000000
_cell_angle_beta   90.00000000
_cell_angle_gamma   120.00000000
_symmetry_Int_Tables_number   1
_chemical_formula_structural   LuCuSn
_chemical_formula_sum   'Lu2 Cu2 Sn2'
_cell_volume   125.12077567
_cell_formula_units_Z   2
loop_
 _symmetry_equiv_pos_site_id
 _symmetry_equiv_pos_as_xyz
  1  'x, y, z'
loop_
 _atom_site_type_symbol
 _atom_site_label
 _atom_site_symmetry_multiplicity
 _atom_site_fract_x
 _atom_site_fract_y
 _atom_site_fract_z
 _atom_site_occupancy
  Lu  Lu0  1  -0.00000000  -0.00000000  0.00297511  1.0
  Lu  Lu1  1  0.00000000  0.00000000  0.50297511  1.0
  Cu  Cu2  1  0.33333333  0.66666667  0.67430504  1.0
  Cu  Cu3  1  0.66666667  0.33333333  0.17430504  1.0
  Sn  Sn4  1  0.33333333  0.66666667  0.27181985  1.0
  Sn  Sn5  1  0.66666667  0.33333333  0.77181985  1.0
