# generated using pymatgen
data_Na2Mo2O7
_symmetry_space_group_name_H-M   'P 1'
_cell_length_a   7.04741823
_cell_length_b   7.04741823
_cell_length_c   15.09665270
_cell_angle_alpha   90.00000000
_cell_angle_beta   90.00000000
_cell_angle_gamma   118.08542579
_symmetry_Int_Tables_number   1
_chemical_formula_structural   Na2Mo2O7
_chemical_formula_sum   'Na8 Mo8 O28'
_cell_volume   661.50140684
_cell_formula_units_Z   4
loop_
 _symmetry_equiv_pos_site_id
 _symmetry_equiv_pos_as_xyz
  1  'x, y, z'
loop_
 _atom_site_type_symbol
 _atom_site_label
 _atom_site_symmetry_multiplicity
 _atom_site_fract_x
 _atom_site_fract_y
 _atom_site_fract_z
 _atom_site_occupancy
  Na  Na0  1  -0.32168760  1.32168760  0.15238079  1.0
  Na  Na1  1  0.17831240  0.82168760  0.34761921  1.0
  Na  Na2  1  0.32168760  0.67831240  0.84761921  1.0
  Na  Na3  1  -0.17831240  1.17831240  0.65238079  1.0
  Na  Na4  1  0.24892317  1.24892317  0.50000000  1.0
  Na  Na5  1  -0.25107683  0.74892317  0.00000000  1.0
  Na  Na6  1  -0.24892317  0.75107683  0.50000000  1.0
  Na  Na7  1  0.25107683  1.25107683  0.00000000  1.0
  Mo  Mo8  1  -0.24646401  1.24646401  0.41424211  1.0
  Mo  Mo9  1  0.25353599  0.74646401  0.08575789  1.0
  Mo  Mo10  1  0.24646401  0.75353599  0.58575789  1.0
  Mo  Mo11  1  -0.25353599  1.25353599  0.91424211  1.0
  Mo  Mo12  1  -0.33418165  0.83418165  0.25000000  1.0
  Mo  Mo13  1  0.16581835  1.33418165  0.25000000  1.0
  Mo  Mo14  1  -0.16581835  0.66581835  0.75000000  1.0
  Mo  Mo15  1  0.33418165  1.16581835  0.75000000  1.0
  O  O16  1  -0.43219824  1.03063818  0.34489853  1.0
  O  O17  1  0.06780176  1.53063818  0.15510147  1.0
  O  O18  1  0.03063818  0.56780176  0.65510147  1.0
  O  O19  1  0.53063818  1.06780176  0.84489853  1.0
  O  O20  1  -0.03063818  1.43219824  0.34489853  1.0
  O  O21  1  0.46936182  0.93219824  0.15510147  1.0
  O  O22  1  0.43219824  0.96936182  0.65510147  1.0
  O  O23  1  -0.06780176  1.46936182  0.84489853  1.0
  O  O24  1  0.20662703  1.19603800  0.33677893  1.0
  O  O25  1  -0.29337297  0.69603800  0.16322107  1.0
  O  O26  1  0.19603800  1.20662703  0.66322107  1.0
  O  O27  1  -0.30396200  0.70662703  0.83677893  1.0
  O  O28  1  -0.19603800  0.79337297  0.33677893  1.0
  O  O29  1  0.30396200  1.29337297  0.16322107  1.0
  O  O30  1  -0.20662703  0.80396200  0.66322107  1.0
  O  O31  1  0.29337297  1.30396200  0.83677893  1.0
  O  O32  1  -0.37556483  1.37556483  0.46682239  1.0
  O  O33  1  0.12443517  0.87556483  0.03317761  1.0
  O  O34  1  0.37556483  0.62443517  0.53317761  1.0
  O  O35  1  -0.12443517  1.12443517  0.96682239  1.0
  O  O36  1  -0.14130600  1.14130600  0.49623778  1.0
  O  O37  1  0.35869400  0.64130600  1.00376222  1.0
  O  O38  1  0.14130600  0.85869400  0.50376222  1.0
  O  O39  1  -0.35869400  1.35869400  -0.00376222  1.0
  O  O40  1  -0.12333448  1.12333448  0.21938185  1.0
  O  O41  1  0.37666552  0.62333448  0.28061815  1.0
  O  O42  1  0.12333448  0.87666552  0.78061815  1.0
  O  O43  1  -0.37666552  1.37666552  0.71938185  1.0
