# generated using pymatgen
data_BaP2
_symmetry_space_group_name_H-M   'P 1'
_cell_length_a   6.43699664
_cell_length_b   12.34163269
_cell_length_c   7.77371912
_cell_angle_alpha   90.00000000
_cell_angle_beta   126.79981302
_cell_angle_gamma   90.00000000
_symmetry_Int_Tables_number   1
_chemical_formula_structural   BaP2
_chemical_formula_sum   'Ba6 P12'
_cell_volume   494.50723240
_cell_formula_units_Z   6
loop_
 _symmetry_equiv_pos_site_id
 _symmetry_equiv_pos_as_xyz
  1  'x, y, z'
loop_
 _atom_site_type_symbol
 _atom_site_label
 _atom_site_symmetry_multiplicity
 _atom_site_fract_x
 _atom_site_fract_y
 _atom_site_fract_z
 _atom_site_occupancy
  Ba  Ba0  1  0.72608340  0.83648335  0.32894075  1.0
  Ba  Ba1  1  0.72608340  0.66351665  0.82894075  1.0
  Ba  Ba2  1  0.27391660  0.33648335  0.17105925  1.0
  Ba  Ba3  1  0.27391660  0.16351665  0.67105925  1.0
  Ba  Ba4  1  -0.00000000  0.50000000  0.50000000  1.0
  Ba  Ba5  1  0.00000000  0.00000000  0.00000000  1.0
  P  P6  1  0.82206719  0.20201924  0.15336770  1.0
  P  P7  1  0.82206719  0.29798076  0.65336770  1.0
  P  P8  1  0.17793281  0.70201924  0.34663230  1.0
  P  P9  1  0.17793281  0.79798076  0.84663230  1.0
  P  P10  1  0.68426762  0.37040940  0.03740367  1.0
  P  P11  1  0.68426762  0.12959060  0.53740367  1.0
  P  P12  1  0.31573238  0.87040940  0.46259633  1.0
  P  P13  1  0.31573238  0.62959060  0.96259633  1.0
  P  P14  1  0.56750913  0.10720538  0.20065249  1.0
  P  P15  1  0.56750913  0.39279462  0.70065249  1.0
  P  P16  1  0.43249087  0.60720538  0.29934751  1.0
  P  P17  1  0.43249087  0.89279462  0.79934751  1.0
