# generated using pymatgen
data_LiB11
_symmetry_space_group_name_H-M   'P 1'
_cell_length_a   4.74761745
_cell_length_b   4.74761745
_cell_length_c   4.74761745
_cell_angle_alpha   110.06169583
_cell_angle_beta   110.06169583
_cell_angle_gamma   108.29661699
_symmetry_Int_Tables_number   1
_chemical_formula_structural   LiB11
_chemical_formula_sum   'Li1 B11'
_cell_volume   82.35096399
_cell_formula_units_Z   1
loop_
 _symmetry_equiv_pos_site_id
 _symmetry_equiv_pos_as_xyz
  1  'x, y, z'
loop_
 _atom_site_type_symbol
 _atom_site_label
 _atom_site_symmetry_multiplicity
 _atom_site_fract_x
 _atom_site_fract_y
 _atom_site_fract_z
 _atom_site_occupancy
  Li  Li0  1  0.25000000  0.75000000  0.50000000  1.0
  B  B1  1  0.45058054  0.16390139  0.28667915  1.0
  B  B2  1  0.87722224  0.16390139  0.71332085  1.0
  B  B3  1  0.83609861  0.54941946  0.71332085  1.0
  B  B4  1  0.83609861  1.12277776  1.28667915  1.0
  B  B5  1  0.32065778  0.32065778  -0.00000000  1.0
  B  B6  1  0.67934222  0.67934222  -0.00000000  1.0
  B  B7  1  0.00000000  0.00000000  -0.00000000  1.0
  B  B8  1  0.29717657  0.70282343  1.00000000  1.0
  B  B9  1  0.70282343  1.29717657  1.00000000  1.0
  B  B10  1  0.70282343  0.70282343  0.40564686  1.0
  B  B11  1  1.29717657  1.29717657  1.59435314  1.0
