# generated using pymatgen
data_AlCo3
_symmetry_space_group_name_H-M   'P 1'
_cell_length_a   5.05839202
_cell_length_b   5.05839202
_cell_length_c   4.10439383
_cell_angle_alpha   90.00000000
_cell_angle_beta   90.00000000
_cell_angle_gamma   120.00000000
_symmetry_Int_Tables_number   1
_chemical_formula_structural   AlCo3
_chemical_formula_sum   'Al2 Co6'
_cell_volume   90.95040226
_cell_formula_units_Z   2
loop_
 _symmetry_equiv_pos_site_id
 _symmetry_equiv_pos_as_xyz
  1  'x, y, z'
loop_
 _atom_site_type_symbol
 _atom_site_label
 _atom_site_symmetry_multiplicity
 _atom_site_fract_x
 _atom_site_fract_y
 _atom_site_fract_z
 _atom_site_occupancy
  Al  Al0  1  0.33333333  0.66666667  0.25000000  1.0
  Al  Al1  1  0.66666667  0.33333333  0.75000000  1.0
  Co  Co2  1  0.83430893  0.16569107  0.25000000  1.0
  Co  Co3  1  0.83430893  0.66861786  0.25000000  1.0
  Co  Co4  1  0.33138214  0.16569107  0.25000000  1.0
  Co  Co5  1  0.16569107  0.83430893  0.75000000  1.0
  Co  Co6  1  0.16569107  0.33138214  0.75000000  1.0
  Co  Co7  1  0.66861786  0.83430893  0.75000000  1.0
