# generated using pymatgen
data_As3(ClF3)2
_symmetry_space_group_name_H-M   'P 1'
_cell_length_a   12.07455890
_cell_length_b   12.07455890
_cell_length_c   9.60776419
_cell_angle_alpha   90.00000000
_cell_angle_beta   90.00000000
_cell_angle_gamma   90.00000000
_symmetry_Int_Tables_number   1
_chemical_formula_structural   As3(ClF3)2
_chemical_formula_sum   'As12 Cl8 F24'
_cell_volume   1400.76371795
_cell_formula_units_Z   4
loop_
 _symmetry_equiv_pos_site_id
 _symmetry_equiv_pos_as_xyz
  1  'x, y, z'
loop_
 _atom_site_type_symbol
 _atom_site_label
 _atom_site_symmetry_multiplicity
 _atom_site_fract_x
 _atom_site_fract_y
 _atom_site_fract_z
 _atom_site_occupancy
  As  As0  1  0.17143641  0.30122908  0.65395605  1.0
  As  As1  1  0.67143641  0.80122908  0.34604395  1.0
  As  As2  1  0.30122908  0.82856359  0.34604395  1.0
  As  As3  1  0.80122908  0.32856359  0.65395605  1.0
  As  As4  1  0.82856359  0.69877092  0.65395605  1.0
  As  As5  1  0.32856359  0.19877092  0.34604395  1.0
  As  As6  1  0.69877092  0.17143641  0.34604395  1.0
  As  As7  1  0.19877092  0.67143641  0.65395605  1.0
  As  As8  1  0.25000000  0.75000000  0.00000000  1.0
  As  As9  1  0.75000000  0.25000000  0.00000000  1.0
  As  As10  1  0.75000000  0.75000000  0.00000000  1.0
  As  As11  1  0.25000000  0.25000000  0.00000000  1.0
  Cl  Cl12  1  0.38938757  0.69766515  0.83075886  1.0
  Cl  Cl13  1  0.88938757  0.19766515  0.16924114  1.0
  Cl  Cl14  1  0.69766515  0.61061243  0.16924114  1.0
  Cl  Cl15  1  0.19766515  0.11061243  0.83075886  1.0
  Cl  Cl16  1  0.61061243  0.30233485  0.83075886  1.0
  Cl  Cl17  1  0.11061243  0.80233485  0.16924114  1.0
  Cl  Cl18  1  0.30233485  0.38938757  0.16924114  1.0
  Cl  Cl19  1  0.80233485  0.88938757  0.83075886  1.0
  F  F20  1  0.17041000  0.43992348  0.58349100  1.0
  F  F21  1  0.67041000  0.93992348  0.41650900  1.0
  F  F22  1  0.43992348  0.82959000  0.41650900  1.0
  F  F23  1  0.93992348  0.32959000  0.58349100  1.0
  F  F24  1  0.82959000  0.56007652  0.58349100  1.0
  F  F25  1  0.32959000  0.06007652  0.41650900  1.0
  F  F26  1  0.56007652  0.17041000  0.41650900  1.0
  F  F27  1  0.06007652  0.67041000  0.58349100  1.0
  F  F28  1  0.20286791  0.36635860  0.82900593  1.0
  F  F29  1  0.70286791  0.86635860  0.17099407  1.0
  F  F30  1  0.36635860  0.79713209  0.17099407  1.0
  F  F31  1  0.86635860  0.29713209  0.82900593  1.0
  F  F32  1  0.79713209  0.63364140  0.82900593  1.0
  F  F33  1  0.29713209  0.13364140  0.17099407  1.0
  F  F34  1  0.63364140  0.20286791  0.17099407  1.0
  F  F35  1  0.13364140  0.70286791  0.82900593  1.0
  F  F36  1  0.18425520  0.21785456  0.38819552  1.0
  F  F37  1  0.68425520  0.71785456  0.61180448  1.0
  F  F38  1  0.21785456  0.81574480  0.61180448  1.0
  F  F39  1  0.71785456  0.31574480  0.38819552  1.0
  F  F40  1  0.81574480  0.78214544  0.38819552  1.0
  F  F41  1  0.31574480  0.28214544  0.61180448  1.0
  F  F42  1  0.78214544  0.18425520  0.61180448  1.0
  F  F43  1  0.28214544  0.68425520  0.38819552  1.0
