# generated using pymatgen
data_AsRu
_symmetry_space_group_name_H-M   'P 1'
_cell_length_a   5.75598591
_cell_length_b   3.35215382
_cell_length_c   6.42782000
_cell_angle_alpha   90.00000000
_cell_angle_beta   90.00000000
_cell_angle_gamma   90.00000000
_symmetry_Int_Tables_number   1
_chemical_formula_structural   AsRu
_chemical_formula_sum   'As4 Ru4'
_cell_volume   124.02446659
_cell_formula_units_Z   4
loop_
 _symmetry_equiv_pos_site_id
 _symmetry_equiv_pos_as_xyz
  1  'x, y, z'
loop_
 _atom_site_type_symbol
 _atom_site_label
 _atom_site_symmetry_multiplicity
 _atom_site_fract_x
 _atom_site_fract_y
 _atom_site_fract_z
 _atom_site_occupancy
  As  As0  1  0.80343693  0.75000000  0.56852668  1.0
  As  As1  1  0.30343693  0.75000000  0.93147332  1.0
  As  As2  1  0.19656307  0.25000000  0.43147332  1.0
  As  As3  1  0.69656307  0.25000000  0.06852668  1.0
  Ru  Ru4  1  0.99930813  0.75000000  0.20326994  1.0
  Ru  Ru5  1  0.49930813  0.75000000  0.29673006  1.0
  Ru  Ru6  1  0.00069187  0.25000000  0.79673006  1.0
  Ru  Ru7  1  0.50069187  0.25000000  0.70326994  1.0
