# generated using pymatgen
data_Li2ZrF6
_symmetry_space_group_name_H-M   'P 1'
_cell_length_a   7.56808308
_cell_length_b   5.00526521
_cell_length_c   11.06731006
_cell_angle_alpha   90.00000000
_cell_angle_beta   106.66703613
_cell_angle_gamma   90.00000000
_symmetry_Int_Tables_number   1
_chemical_formula_structural   Li2ZrF6
_chemical_formula_sum   'Li8 Zr4 F24'
_cell_volume   401.61967309
_cell_formula_units_Z   4
loop_
 _symmetry_equiv_pos_site_id
 _symmetry_equiv_pos_as_xyz
  1  'x, y, z'
loop_
 _atom_site_type_symbol
 _atom_site_label
 _atom_site_symmetry_multiplicity
 _atom_site_fract_x
 _atom_site_fract_y
 _atom_site_fract_z
 _atom_site_occupancy
  Li  Li0  1  0.95698577  0.02731529  0.33565151  1.0
  Li  Li1  1  0.95698577  0.47268471  0.83565151  1.0
  Li  Li2  1  0.04301423  0.52731529  0.16434849  1.0
  Li  Li3  1  0.04301423  0.97268471  0.66434849  1.0
  Li  Li4  1  0.58754867  0.49156885  0.19114663  1.0
  Li  Li5  1  0.58754867  0.00843115  0.69114663  1.0
  Li  Li6  1  0.41245133  0.99156885  0.30885337  1.0
  Li  Li7  1  0.41245133  0.50843115  0.80885337  1.0
  Zr  Zr8  1  0.74479481  0.49244543  0.49835767  1.0
  Zr  Zr9  1  0.74479481  0.00755457  0.99835767  1.0
  Zr  Zr10  1  0.25520519  0.99244543  0.00164233  1.0
  Zr  Zr11  1  0.25520519  0.50755457  0.50164233  1.0
  F  F12  1  0.94877241  0.72447020  0.45285599  1.0
  F  F13  1  0.94877241  0.77552980  0.95285599  1.0
  F  F14  1  0.05122759  0.22447020  0.04714401  1.0
  F  F15  1  0.05122759  0.27552980  0.54714401  1.0
  F  F16  1  0.89564256  0.85469533  0.17245129  1.0
  F  F17  1  0.89564256  0.64530467  0.67245129  1.0
  F  F18  1  0.10435744  0.35469533  0.32754871  1.0
  F  F19  1  0.10435744  0.14530467  0.82754871  1.0
  F  F20  1  0.75353876  0.34180094  0.10336698  1.0
  F  F21  1  0.75353876  0.15819906  0.60336698  1.0
  F  F22  1  0.24646124  0.84180094  0.39663302  1.0
  F  F23  1  0.24646124  0.65819906  0.89663302  1.0
  F  F24  1  0.75244329  0.24929306  0.35304354  1.0
  F  F25  1  0.75244329  0.25070694  0.85304354  1.0
  F  F26  1  0.24755671  0.74929306  0.14695646  1.0
  F  F27  1  0.24755671  0.75070694  0.64695646  1.0
  F  F28  1  0.45394019  0.30832304  0.43030237  1.0
  F  F29  1  0.45394019  0.19167696  0.93030237  1.0
  F  F30  1  0.54605981  0.80832304  0.06969763  1.0
  F  F31  1  0.54605981  0.69167696  0.56969763  1.0
  F  F32  1  0.40178244  0.21556895  0.15731622  1.0
  F  F33  1  0.40178244  0.28443105  0.65731622  1.0
  F  F34  1  0.59821756  0.71556895  0.34268378  1.0
  F  F35  1  0.59821756  0.78443105  0.84268378  1.0
