# generated using pymatgen
data_BPO4
_symmetry_space_group_name_H-M   'P 1'
_cell_length_a   4.59701910
_cell_length_b   4.59701910
_cell_length_c   4.59701910
_cell_angle_alpha   122.23301774
_cell_angle_beta   122.23301774
_cell_angle_gamma   86.17394475
_symmetry_Int_Tables_number   1
_chemical_formula_structural   BPO4
_chemical_formula_sum   'B1 P1 O4'
_cell_volume   66.21389027
_cell_formula_units_Z   1
loop_
 _symmetry_equiv_pos_site_id
 _symmetry_equiv_pos_as_xyz
  1  'x, y, z'
loop_
 _atom_site_type_symbol
 _atom_site_label
 _atom_site_symmetry_multiplicity
 _atom_site_fract_x
 _atom_site_fract_y
 _atom_site_fract_z
 _atom_site_occupancy
  B  B0  1  0.00000000  0.00000000  0.00000000  1.0
  P  P1  1  0.25000000  0.75000000  0.50000000  1.0
  O  O2  1  0.25505346  0.88214365  0.89140736  1.0
  O  O3  1  1.11785635  1.00926371  1.37290981  1.0
  O  O4  1  0.99073629  0.36364610  1.10859264  1.0
  O  O5  1  0.63635390  0.74494654  0.62709019  1.0
