# generated using pymatgen
data_RbCdAuS2
_symmetry_space_group_name_H-M   'P 1'
_cell_length_a   13.93950156
_cell_length_b   5.79587511
_cell_length_c   7.18159459
_cell_angle_alpha   90.00000000
_cell_angle_beta   90.00000000
_cell_angle_gamma   90.00000000
_symmetry_Int_Tables_number   1
_chemical_formula_structural   RbCdAuS2
_chemical_formula_sum   'Rb4 Cd4 Au4 S8'
_cell_volume   580.21258966
_cell_formula_units_Z   4
loop_
 _symmetry_equiv_pos_site_id
 _symmetry_equiv_pos_as_xyz
  1  'x, y, z'
loop_
 _atom_site_type_symbol
 _atom_site_label
 _atom_site_symmetry_multiplicity
 _atom_site_fract_x
 _atom_site_fract_y
 _atom_site_fract_z
 _atom_site_occupancy
  Rb  Rb0  1  0.50000000  0.71218855  0.25000000  1.0
  Rb  Rb1  1  0.50000000  0.28781145  0.75000000  1.0
  Rb  Rb2  1  0.00000000  0.71218855  0.75000000  1.0
  Rb  Rb3  1  0.00000000  0.28781145  0.25000000  1.0
  Cd  Cd4  1  0.25000000  0.00000000  0.11346168  1.0
  Cd  Cd5  1  0.25000000  0.00000000  0.61346168  1.0
  Cd  Cd6  1  0.75000000  0.00000000  0.88653832  1.0
  Cd  Cd7  1  0.75000000  0.00000000  0.38653832  1.0
  Au  Au8  1  0.25000000  0.50000000  0.36749959  1.0
  Au  Au9  1  0.25000000  0.50000000  0.86749959  1.0
  Au  Au10  1  0.75000000  0.50000000  0.63250041  1.0
  Au  Au11  1  0.75000000  0.50000000  0.13250041  1.0
  S  S12  1  0.13964555  0.80056933  0.36549902  1.0
  S  S13  1  0.13964555  0.19943067  0.86549902  1.0
  S  S14  1  0.63964555  0.80056933  0.63450098  1.0
  S  S15  1  0.63964555  0.19943067  0.13450098  1.0
  S  S16  1  0.86035445  0.80056933  0.13450098  1.0
  S  S17  1  0.86035445  0.19943067  0.63450098  1.0
  S  S18  1  0.36035445  0.80056933  0.86549902  1.0
  S  S19  1  0.36035445  0.19943067  0.36549902  1.0
