# generated using pymatgen
data_VO2
_symmetry_space_group_name_H-M   'P 1'
_cell_length_a   9.16291067
_cell_length_b   7.07332968
_cell_length_c   7.07307495
_cell_angle_alpha   80.73985443
_cell_angle_beta   49.63128633
_cell_angle_gamma   49.62885925
_symmetry_Int_Tables_number   1
_chemical_formula_structural   VO2
_chemical_formula_sum   'V8 O16'
_cell_volume   238.22338954
_cell_formula_units_Z   8
loop_
 _symmetry_equiv_pos_site_id
 _symmetry_equiv_pos_as_xyz
  1  'x, y, z'
loop_
 _atom_site_type_symbol
 _atom_site_label
 _atom_site_symmetry_multiplicity
 _atom_site_fract_x
 _atom_site_fract_y
 _atom_site_fract_z
 _atom_site_occupancy
  V  V0  1  0.00000000  0.00000000  0.00000000  1.0
  V  V1  1  -0.50000000  0.50000000  0.50000000  1.0
  V  V2  1  0.49999211  0.49999211  1.00000789  1.0
  V  V3  1  1.00000789  1.00000789  0.49999211  1.0
  V  V4  1  0.49993689  1.00006311  0.49993689  1.0
  V  V5  1  1.00006311  0.49993689  1.00006311  1.0
  V  V6  1  0.49999710  1.00000290  1.00000290  1.0
  V  V7  1  1.00000290  0.49999710  0.49999710  1.0
  O  O8  1  0.35005537  0.85001718  0.64998978  1.0
  O  O9  1  1.14993768  0.64998978  0.85001718  1.0
  O  O10  1  0.85001718  0.35005537  1.14993768  1.0
  O  O11  1  0.64998978  1.14993768  0.35005537  1.0
  O  O12  1  0.34996777  1.15003828  0.85010621  1.0
  O  O13  1  0.64988774  0.85010621  1.15003828  1.0
  O  O14  1  1.15003828  0.34996777  0.64988774  1.0
  O  O15  1  0.85010621  0.64988774  0.34996777  1.0
  O  O16  1  0.14996247  -0.14996247  1.14996247  1.0
  O  O17  1  0.85003753  -0.85003753  0.85003753  1.0
  O  O18  1  0.35003573  -0.35003573  1.35003573  1.0
  O  O19  1  0.64996427  -0.64996427  0.64996427  1.0
  O  O20  1  0.64997593  0.64997593  0.85002407  1.0
  O  O21  1  0.85002407  0.85002407  0.64997593  1.0
  O  O22  1  1.35005168  0.35005168  0.14994832  1.0
  O  O23  1  1.14994832  0.14994832  0.35005168  1.0
