# generated using pymatgen
data_Ca(Al4Ni)2
_symmetry_space_group_name_H-M   'P 1'
_cell_length_a   12.58113702
_cell_length_b   14.52036534
_cell_length_c   3.96769903
_cell_angle_alpha   90.00000000
_cell_angle_beta   90.00000000
_cell_angle_gamma   90.00000000
_symmetry_Int_Tables_number   1
_chemical_formula_structural   Ca(Al4Ni)2
_chemical_formula_sum   'Ca4 Al32 Ni8'
_cell_volume   724.82999457
_cell_formula_units_Z   4
loop_
 _symmetry_equiv_pos_site_id
 _symmetry_equiv_pos_as_xyz
  1  'x, y, z'
loop_
 _atom_site_type_symbol
 _atom_site_label
 _atom_site_symmetry_multiplicity
 _atom_site_fract_x
 _atom_site_fract_y
 _atom_site_fract_z
 _atom_site_occupancy
  Ca  Ca0  1  0.15897676  0.81768495  0.00000000  1.0
  Ca  Ca1  1  0.65897676  0.68231505  0.00000000  1.0
  Ca  Ca2  1  0.84102324  0.18231505  0.00000000  1.0
  Ca  Ca3  1  0.34102324  0.31768495  0.00000000  1.0
  Al  Al4  1  0.15899375  0.54470942  0.00000000  1.0
  Al  Al5  1  0.65899375  0.95529058  0.00000000  1.0
  Al  Al6  1  0.84100625  0.45529058  0.00000000  1.0
  Al  Al7  1  0.34100625  0.04470942  0.00000000  1.0
  Al  Al8  1  0.50000000  0.00000000  0.50000000  1.0
  Al  Al9  1  0.00000000  0.50000000  0.50000000  1.0
  Al  Al10  1  0.50000000  0.50000000  0.00000000  1.0
  Al  Al11  1  0.00000000  0.00000000  0.00000000  1.0
  Al  Al12  1  0.47563228  0.63240459  0.50000000  1.0
  Al  Al13  1  0.97563228  0.86759541  0.50000000  1.0
  Al  Al14  1  0.52436772  0.36759541  0.50000000  1.0
  Al  Al15  1  0.02436772  0.13240459  0.50000000  1.0
  Al  Al16  1  0.33367454  0.48851467  0.50000000  1.0
  Al  Al17  1  0.83367454  0.01148533  0.50000000  1.0
  Al  Al18  1  0.66632546  0.51148533  0.50000000  1.0
  Al  Al19  1  0.16632546  0.98851467  0.50000000  1.0
  Al  Al20  1  0.33762224  0.88007278  0.50000000  1.0
  Al  Al21  1  0.83762224  0.61992722  0.50000000  1.0
  Al  Al22  1  0.66237776  0.11992722  0.50000000  1.0
  Al  Al23  1  0.16237776  0.38007278  0.50000000  1.0
  Al  Al24  1  0.26152294  0.67311798  0.50000000  1.0
  Al  Al25  1  0.76152294  0.82688202  0.50000000  1.0
  Al  Al26  1  0.73847706  0.32688202  0.50000000  1.0
  Al  Al27  1  0.23847706  0.17311798  0.50000000  1.0
  Al  Al28  1  0.04756019  0.68032126  0.50000000  1.0
  Al  Al29  1  0.54756019  0.81967874  0.50000000  1.0
  Al  Al30  1  0.95243981  0.31967874  0.50000000  1.0
  Al  Al31  1  0.45243981  0.18032126  0.50000000  1.0
  Al  Al32  1  0.40103420  0.75326166  0.00000000  1.0
  Al  Al33  1  0.90103420  0.74673834  0.00000000  1.0
  Al  Al34  1  0.59896580  0.24673834  0.00000000  1.0
  Al  Al35  1  0.09896580  0.25326166  0.00000000  1.0
  Ni  Ni36  1  0.46444106  0.90583637  0.00000000  1.0
  Ni  Ni37  1  0.96444106  0.59416363  0.00000000  1.0
  Ni  Ni38  1  0.53555894  0.09416363  0.00000000  1.0
  Ni  Ni39  1  0.03555894  0.40583637  0.00000000  1.0
  Ni  Ni40  1  0.34525134  0.59586141  0.00000000  1.0
  Ni  Ni41  1  0.84525134  0.90413859  0.00000000  1.0
  Ni  Ni42  1  0.65474866  0.40413859  0.00000000  1.0
  Ni  Ni43  1  0.15474866  0.09586141  0.00000000  1.0
