# generated using pymatgen
data_TeH4C4(NCl3)2
_symmetry_space_group_name_H-M   'P 1'
_cell_length_a   5.78760152
_cell_length_b   14.61368075
_cell_length_c   8.68342593
_cell_angle_alpha   90.00000000
_cell_angle_beta   90.00000000
_cell_angle_gamma   90.00000000
_symmetry_Int_Tables_number   1
_chemical_formula_structural   TeH4C4(NCl3)2
_chemical_formula_sum   'Te2 H8 C8 N4 Cl12'
_cell_volume   734.42819562
_cell_formula_units_Z   2
loop_
 _symmetry_equiv_pos_site_id
 _symmetry_equiv_pos_as_xyz
  1  'x, y, z'
loop_
 _atom_site_type_symbol
 _atom_site_label
 _atom_site_symmetry_multiplicity
 _atom_site_fract_x
 _atom_site_fract_y
 _atom_site_fract_z
 _atom_site_occupancy
  Te  Te0  1  0.50000000  0.50000000  0.50000000  1.0
  Te  Te1  1  0.00000000  0.00000000  0.00000000  1.0
  H  H2  1  0.56006852  0.38855835  0.89962531  1.0
  H  H3  1  0.43993148  0.61144165  0.89962531  1.0
  H  H4  1  0.06006852  0.11144165  0.60037469  1.0
  H  H5  1  0.93993148  0.88855835  0.60037469  1.0
  H  H6  1  0.43993148  0.61144165  0.10037469  1.0
  H  H7  1  0.56006852  0.38855835  0.10037469  1.0
  H  H8  1  0.93993148  0.88855835  0.39962531  1.0
  H  H9  1  0.06006852  0.11144165  0.39962531  1.0
  C  C10  1  0.82339936  0.31771505  0.00000000  1.0
  C  C11  1  0.17660064  0.68228495  0.00000000  1.0
  C  C12  1  0.32339936  0.18228495  0.50000000  1.0
  C  C13  1  0.67660064  0.81771505  0.50000000  1.0
  C  C14  1  1.00021050  0.27117063  0.00000000  1.0
  C  C15  1  -0.00021050  0.72882937  0.00000000  1.0
  C  C16  1  0.50021050  0.22882937  0.50000000  1.0
  C  C17  1  0.49978950  0.77117063  0.50000000  1.0
  N  N18  1  0.64080121  0.37005955  0.00000000  1.0
  N  N19  1  0.35919879  0.62994045  0.00000000  1.0
  N  N20  1  0.14080121  0.12994045  0.50000000  1.0
  N  N21  1  0.85919879  0.87005955  0.50000000  1.0
  Cl  Cl22  1  0.71543879  0.29891619  0.50000000  1.0
  Cl  Cl23  1  0.28456121  0.70108381  0.50000000  1.0
  Cl  Cl24  1  0.21543879  0.20108381  0.00000000  1.0
  Cl  Cl25  1  0.78456121  0.79891619  0.00000000  1.0
  Cl  Cl26  1  0.73530058  0.57943182  0.70778391  1.0
  Cl  Cl27  1  0.26469942  0.42056818  0.70778391  1.0
  Cl  Cl28  1  0.23530058  0.92056818  0.79221609  1.0
  Cl  Cl29  1  0.76469942  0.07943182  0.79221609  1.0
  Cl  Cl30  1  0.26469942  0.42056818  0.29221609  1.0
  Cl  Cl31  1  0.73530058  0.57943182  0.29221609  1.0
  Cl  Cl32  1  0.76469942  0.07943182  0.20778391  1.0
  Cl  Cl33  1  0.23530058  0.92056818  0.20778391  1.0
