# generated using pymatgen
data_NaB2H3
_symmetry_space_group_name_H-M   'P 1'
_cell_length_a   6.01231155
_cell_length_b   11.37926015
_cell_length_c   9.77701610
_cell_angle_alpha   90.00000000
_cell_angle_beta   90.00000000
_cell_angle_gamma   90.00000000
_symmetry_Int_Tables_number   1
_chemical_formula_structural   NaB2H3
_chemical_formula_sum   'Na8 B16 H24'
_cell_volume   668.90098225
_cell_formula_units_Z   8
loop_
 _symmetry_equiv_pos_site_id
 _symmetry_equiv_pos_as_xyz
  1  'x, y, z'
loop_
 _atom_site_type_symbol
 _atom_site_label
 _atom_site_symmetry_multiplicity
 _atom_site_fract_x
 _atom_site_fract_y
 _atom_site_fract_z
 _atom_site_occupancy
  Na  Na0  1  0.24430038  0.77365293  0.82280585  1.0
  Na  Na1  1  0.24430038  0.22634707  0.82280585  1.0
  Na  Na2  1  0.74430038  0.27365293  0.17719415  1.0
  Na  Na3  1  0.74430038  0.72634707  0.17719415  1.0
  Na  Na4  1  0.75569962  0.77365293  0.82280585  1.0
  Na  Na5  1  0.75569962  0.22634707  0.82280585  1.0
  Na  Na6  1  0.25569962  0.27365293  0.17719415  1.0
  Na  Na7  1  0.25569962  0.72634707  0.17719415  1.0
  B  B8  1  0.13860897  0.42696104  0.97750359  1.0
  B  B9  1  0.13860897  0.57303896  0.97750359  1.0
  B  B10  1  0.63860897  0.92696104  0.02249641  1.0
  B  B11  1  0.63860897  0.07303896  0.02249641  1.0
  B  B12  1  0.86139103  0.42696104  0.97750359  1.0
  B  B13  1  0.86139103  0.57303896  0.97750359  1.0
  B  B14  1  0.36139103  0.92696104  0.02249641  1.0
  B  B15  1  0.36139103  0.07303896  0.02249641  1.0
  B  B16  1  0.14081128  0.20948962  0.55295377  1.0
  B  B17  1  0.14081128  0.79051038  0.55295377  1.0
  B  B18  1  0.64081128  0.70948962  0.44704623  1.0
  B  B19  1  0.64081128  0.29051038  0.44704623  1.0
  B  B20  1  0.85918872  0.20948962  0.55295377  1.0
  B  B21  1  0.85918872  0.79051038  0.55295377  1.0
  B  B22  1  0.35918872  0.70948962  0.44704623  1.0
  B  B23  1  0.35918872  0.29051038  0.44704623  1.0
  H  H24  1  0.30292642  0.36105291  0.97647018  1.0
  H  H25  1  0.30292642  0.63894709  0.97647018  1.0
  H  H26  1  0.80292642  0.86105291  0.02352982  1.0
  H  H27  1  0.80292642  0.13894709  0.02352982  1.0
  H  H28  1  0.69707358  0.36105291  0.97647018  1.0
  H  H29  1  0.69707358  0.63894709  0.97647018  1.0
  H  H30  1  0.19707358  0.86105291  0.02352982  1.0
  H  H31  1  0.19707358  0.13894709  0.02352982  1.0
  H  H32  1  0.24897488  0.19111644  0.42788336  1.0
  H  H33  1  0.24897488  0.80888356  0.42788336  1.0
  H  H34  1  0.74897488  0.69111644  0.57211664  1.0
  H  H35  1  0.74897488  0.30888356  0.57211664  1.0
  H  H36  1  0.75102512  0.19111644  0.42788336  1.0
  H  H37  1  0.75102512  0.80888356  0.42788336  1.0
  H  H38  1  0.25102512  0.69111644  0.57211664  1.0
  H  H39  1  0.25102512  0.30888356  0.57211664  1.0
  H  H40  1  0.26930532  0.36826966  0.38142693  1.0
  H  H41  1  0.26930532  0.63173034  0.38142693  1.0
  H  H42  1  0.76930532  0.86826966  0.61857307  1.0
  H  H43  1  0.76930532  0.13173034  0.61857307  1.0
  H  H44  1  0.73069468  0.36826966  0.38142693  1.0
  H  H45  1  0.73069468  0.63173034  0.38142693  1.0
  H  H46  1  0.23069468  0.86826966  0.61857307  1.0
  H  H47  1  0.23069468  0.13173034  0.61857307  1.0
