# generated using pymatgen
data_PNCl2
_symmetry_space_group_name_H-M   'P 1'
_cell_length_a   15.18267936
_cell_length_b   13.90005405
_cell_length_c   6.73104661
_cell_angle_alpha   90.00000000
_cell_angle_beta   90.00000000
_cell_angle_gamma   90.00000000
_symmetry_Int_Tables_number   1
_chemical_formula_structural   PNCl2
_chemical_formula_sum   'P12 N12 Cl24'
_cell_volume   1420.52050689
_cell_formula_units_Z   12
loop_
 _symmetry_equiv_pos_site_id
 _symmetry_equiv_pos_as_xyz
  1  'x, y, z'
loop_
 _atom_site_type_symbol
 _atom_site_label
 _atom_site_symmetry_multiplicity
 _atom_site_fract_x
 _atom_site_fract_y
 _atom_site_fract_z
 _atom_site_occupancy
  P  P0  1  0.90293943  0.85009367  0.08807854  1.0
  P  P1  1  0.90293943  0.64990633  0.08807854  1.0
  P  P2  1  0.40293943  0.85009367  0.41192146  1.0
  P  P3  1  0.40293943  0.64990633  0.41192146  1.0
  P  P4  1  0.09706057  0.35009367  0.91192146  1.0
  P  P5  1  0.09706057  0.14990633  0.91192146  1.0
  P  P6  1  0.59706057  0.35009367  0.58807854  1.0
  P  P7  1  0.59706057  0.14990633  0.58807854  1.0
  P  P8  1  0.95105856  0.25000000  0.05142512  1.0
  P  P9  1  0.45105856  0.25000000  0.44857488  1.0
  P  P10  1  0.04894144  0.75000000  0.94857488  1.0
  P  P11  1  0.54894144  0.75000000  0.55142512  1.0
  N  N12  1  1.00098501  0.34915269  0.00856049  1.0
  N  N13  1  1.00098501  0.15084731  0.00856049  1.0
  N  N14  1  0.50098501  0.34915269  0.49143951  1.0
  N  N15  1  0.50098501  0.15084731  0.49143951  1.0
  N  N16  1  -0.00098501  0.84915269  0.99143951  1.0
  N  N17  1  -0.00098501  0.65084731  0.99143951  1.0
  N  N18  1  0.49901499  0.84915269  0.50856049  1.0
  N  N19  1  0.49901499  0.65084731  0.50856049  1.0
  N  N20  1  0.64504079  0.25000000  0.63383591  1.0
  N  N21  1  0.14504079  0.25000000  0.86616409  1.0
  N  N22  1  0.35495921  0.75000000  0.36616409  1.0
  N  N23  1  0.85495921  0.75000000  0.13383591  1.0
  Cl  Cl24  1  0.90647886  0.92808191  0.34189171  1.0
  Cl  Cl25  1  0.90647886  0.57191809  0.34189171  1.0
  Cl  Cl26  1  0.40647886  0.92808191  0.15810829  1.0
  Cl  Cl27  1  0.40647886  0.57191809  0.15810829  1.0
  Cl  Cl28  1  0.09352114  0.42808191  0.65810829  1.0
  Cl  Cl29  1  0.09352114  0.07191809  0.65810829  1.0
  Cl  Cl30  1  0.59352114  0.42808191  0.84189171  1.0
  Cl  Cl31  1  0.59352114  0.07191809  0.84189171  1.0
  Cl  Cl32  1  0.67747209  0.43054587  0.41566682  1.0
  Cl  Cl33  1  0.67747209  0.06945413  0.41566682  1.0
  Cl  Cl34  1  0.17747209  0.43054587  0.08433318  1.0
  Cl  Cl35  1  0.17747209  0.06945413  0.08433318  1.0
  Cl  Cl36  1  0.32252791  0.93054587  0.58433318  1.0
  Cl  Cl37  1  0.32252791  0.56945413  0.58433318  1.0
  Cl  Cl38  1  0.82252791  0.93054587  0.91566682  1.0
  Cl  Cl39  1  0.82252791  0.56945413  0.91566682  1.0
  Cl  Cl40  1  0.90992020  0.25000000  0.33708140  1.0
  Cl  Cl41  1  0.40992020  0.25000000  0.16291860  1.0
  Cl  Cl42  1  0.09007980  0.75000000  0.66291860  1.0
  Cl  Cl43  1  0.59007980  0.75000000  0.83708140  1.0
  Cl  Cl44  1  0.33526990  0.25000000  0.59760752  1.0
  Cl  Cl45  1  0.83526990  0.25000000  0.90239248  1.0
  Cl  Cl46  1  0.66473010  0.75000000  0.40239248  1.0
  Cl  Cl47  1  0.16473010  0.75000000  0.09760752  1.0
