# generated using pymatgen
data_ScCuSi
_symmetry_space_group_name_H-M   'P 1'
_cell_length_a   6.56523681
_cell_length_b   3.97628189
_cell_length_c   7.24255757
_cell_angle_alpha   90.00000000
_cell_angle_beta   90.00000000
_cell_angle_gamma   90.00000000
_symmetry_Int_Tables_number   1
_chemical_formula_structural   ScCuSi
_chemical_formula_sum   'Sc4 Cu4 Si4'
_cell_volume   189.06864756
_cell_formula_units_Z   4
loop_
 _symmetry_equiv_pos_site_id
 _symmetry_equiv_pos_as_xyz
  1  'x, y, z'
loop_
 _atom_site_type_symbol
 _atom_site_label
 _atom_site_symmetry_multiplicity
 _atom_site_fract_x
 _atom_site_fract_y
 _atom_site_fract_z
 _atom_site_occupancy
  Sc  Sc0  1  0.99083214  0.75000000  0.69409338  1.0
  Sc  Sc1  1  0.49083214  0.75000000  0.80590662  1.0
  Sc  Sc2  1  0.00916786  0.25000000  0.30590662  1.0
  Sc  Sc3  1  0.50916786  0.25000000  0.19409338  1.0
  Cu  Cu4  1  0.84234008  0.75000000  0.06681541  1.0
  Cu  Cu5  1  0.34234008  0.75000000  0.43318459  1.0
  Cu  Cu6  1  0.15765992  0.25000000  0.93318459  1.0
  Cu  Cu7  1  0.65765992  0.25000000  0.56681541  1.0
  Si  Si8  1  0.72772514  0.75000000  0.39083582  1.0
  Si  Si9  1  0.22772514  0.75000000  0.10916418  1.0
  Si  Si10  1  0.27227486  0.25000000  0.60916418  1.0
  Si  Si11  1  0.77227486  0.25000000  0.89083582  1.0
