# generated using pymatgen
data_Pb2Cl3O
_symmetry_space_group_name_H-M   'P 1'
_cell_length_a   12.19151689
_cell_length_b   12.19151689
_cell_length_c   3.98315281
_cell_angle_alpha   90.00000000
_cell_angle_beta   90.00000000
_cell_angle_gamma   120.00000000
_symmetry_Int_Tables_number   1
_chemical_formula_structural   Pb2Cl3O
_chemical_formula_sum   'Pb6 Cl9 O3'
_cell_volume   512.71153606
_cell_formula_units_Z   3
loop_
 _symmetry_equiv_pos_site_id
 _symmetry_equiv_pos_as_xyz
  1  'x, y, z'
loop_
 _atom_site_type_symbol
 _atom_site_label
 _atom_site_symmetry_multiplicity
 _atom_site_fract_x
 _atom_site_fract_y
 _atom_site_fract_z
 _atom_site_occupancy
  Pb  Pb0  1  0.85804643  0.73184124  0.50000000  1.0
  Pb  Pb1  1  0.87379481  0.14195357  0.50000000  1.0
  Pb  Pb2  1  0.26815876  0.12620519  0.50000000  1.0
  Pb  Pb3  1  0.45641035  0.99302402  0.00000000  1.0
  Pb  Pb4  1  0.53661366  0.54358965  0.00000000  1.0
  Pb  Pb5  1  0.00697598  0.46338634  0.00000000  1.0
  Cl  Cl6  1  0.13732309  0.64631059  0.50000000  1.0
  Cl  Cl7  1  0.50898750  0.86267691  0.50000000  1.0
  Cl  Cl8  1  0.35368941  0.49101250  0.50000000  1.0
  Cl  Cl9  1  0.14387226  0.93656881  0.00000000  1.0
  Cl  Cl10  1  0.79269656  0.85612774  0.00000000  1.0
  Cl  Cl11  1  0.06343119  0.20730344  0.00000000  1.0
  Cl  Cl12  1  0.82722248  0.53416436  0.00000000  1.0
  Cl  Cl13  1  0.70694188  0.17277752  0.00000000  1.0
  Cl  Cl14  1  0.46583564  0.29305812  0.00000000  1.0
  O  O15  1  0.64112478  0.59828133  0.50000000  1.0
  O  O16  1  0.95715655  0.35887522  0.50000000  1.0
  O  O17  1  0.40171867  0.04284345  0.50000000  1.0
