# generated using pymatgen
data_Ni(RhSe2)2
_symmetry_space_group_name_H-M   'P 1'
_cell_length_a   6.41512693
_cell_length_b   6.41512693
_cell_length_c   6.39903712
_cell_angle_alpha   61.78522210
_cell_angle_beta   118.21477790
_cell_angle_gamma   146.35766977
_symmetry_Int_Tables_number   1
_chemical_formula_structural   Ni(RhSe2)2
_chemical_formula_sum   'Ni1 Rh2 Se4'
_cell_volume   126.85744384
_cell_formula_units_Z   1
loop_
 _symmetry_equiv_pos_site_id
 _symmetry_equiv_pos_as_xyz
  1  'x, y, z'
loop_
 _atom_site_type_symbol
 _atom_site_label
 _atom_site_symmetry_multiplicity
 _atom_site_fract_x
 _atom_site_fract_y
 _atom_site_fract_z
 _atom_site_occupancy
  Ni  Ni0  1  0.00000000  0.00000000  0.00000000  1.0
  Rh  Rh1  1  0.73630253  -0.73630253  0.71740554  1.0
  Rh  Rh2  1  1.26369747  -0.26369747  0.28259446  1.0
  Se  Se3  1  0.63109644  -0.63109644  0.97533180  1.0
  Se  Se4  1  1.36890356  -0.36890356  0.02466820  1.0
  Se  Se5  1  0.88270183  -0.88270183  0.55120219  1.0
  Se  Se6  1  1.11729817  -0.11729817  0.44879781  1.0
