# generated using pymatgen
data_Zr3Ga2
_symmetry_space_group_name_H-M   'P 1'
_cell_length_a   7.35261732
_cell_length_b   7.35261732
_cell_length_c   3.70796277
_cell_angle_alpha   90.00000000
_cell_angle_beta   90.00000000
_cell_angle_gamma   90.00000000
_symmetry_Int_Tables_number   1
_chemical_formula_structural   Zr3Ga2
_chemical_formula_sum   'Zr6 Ga4'
_cell_volume   200.45610668
_cell_formula_units_Z   2
loop_
 _symmetry_equiv_pos_site_id
 _symmetry_equiv_pos_as_xyz
  1  'x, y, z'
loop_
 _atom_site_type_symbol
 _atom_site_label
 _atom_site_symmetry_multiplicity
 _atom_site_fract_x
 _atom_site_fract_y
 _atom_site_fract_z
 _atom_site_occupancy
  Zr  Zr0  1  0.32339139  0.17660861  0.50000000  1.0
  Zr  Zr1  1  0.82339139  0.32339139  0.50000000  1.0
  Zr  Zr2  1  0.67660861  0.82339139  0.50000000  1.0
  Zr  Zr3  1  0.17660861  0.67660861  0.50000000  1.0
  Zr  Zr4  1  0.50000000  0.50000000  0.00000000  1.0
  Zr  Zr5  1  0.00000000  0.00000000  0.00000000  1.0
  Ga  Ga6  1  0.87676122  0.62323878  0.00000000  1.0
  Ga  Ga7  1  0.37676122  0.87676122  0.00000000  1.0
  Ga  Ga8  1  0.12323878  0.37676122  0.00000000  1.0
  Ga  Ga9  1  0.62323878  0.12323878  0.00000000  1.0
