# generated using pymatgen
data_Sr6ScAl(BO3)6
_symmetry_space_group_name_H-M   'P 1'
_cell_length_a   7.65337963
_cell_length_b   7.65337963
_cell_length_c   7.65337963
_cell_angle_alpha   105.41317605
_cell_angle_beta   105.41317605
_cell_angle_gamma   105.41317605
_symmetry_Int_Tables_number   1
_chemical_formula_structural   Sr6ScAl(BO3)6
_chemical_formula_sum   'Sr6 Sc1 Al1 B6 O18'
_cell_volume   388.37052157
_cell_formula_units_Z   1
loop_
 _symmetry_equiv_pos_site_id
 _symmetry_equiv_pos_as_xyz
  1  'x, y, z'
loop_
 _atom_site_type_symbol
 _atom_site_label
 _atom_site_symmetry_multiplicity
 _atom_site_fract_x
 _atom_site_fract_y
 _atom_site_fract_z
 _atom_site_occupancy
  Sr  Sr0  1  0.76422345  0.66665692  0.15519699  1.0
  Sr  Sr1  1  1.33334308  -0.15519699  0.23577655  1.0
  Sr  Sr2  1  0.84480301  0.23577655  0.33334308  1.0
  Sr  Sr3  1  1.23577655  0.33334308  -0.15519699  1.0
  Sr  Sr4  1  0.66665692  1.15519699  -0.23577655  1.0
  Sr  Sr5  1  1.15519699  0.76422345  -0.33334308  1.0
  Sc  Sc6  1  0.50000000  0.50000000  0.50000000  1.0
  Al  Al7  1  0.00000000  0.00000000  0.00000000  1.0
  B  B8  1  1.55293597  0.79273998  -0.12823987  1.0
  B  B9  1  1.20726002  0.12823987  -0.55293597  1.0
  B  B10  1  1.12823987  -0.55293597  0.20726002  1.0
  B  B11  1  0.44706403  0.20726002  0.12823987  1.0
  B  B12  1  0.79273998  0.87176013  0.55293597  1.0
  B  B13  1  0.87176013  1.55293597  -0.20726002  1.0
  O  O14  1  0.73646932  0.92829924  -0.00574684  1.0
  O  O15  1  1.07170076  0.00574684  -0.73646932  1.0
  O  O16  1  1.00574684  -0.73646932  0.07170076  1.0
  O  O17  1  0.26353068  0.07170076  0.00574684  1.0
  O  O18  1  0.92829924  0.99425316  -0.26353068  1.0
  O  O19  1  0.99425316  0.73646932  -0.07170076  1.0
  O  O20  1  1.48884195  0.76468810  -0.32592317  1.0
  O  O21  1  1.23531190  0.32592317  -0.48884195  1.0
  O  O22  1  1.32592317  -0.48884195  0.23531190  1.0
  O  O23  1  0.51115805  0.23531190  0.32592317  1.0
  O  O24  1  0.76468810  0.67407683  0.48884195  1.0
  O  O25  1  0.67407683  1.48884195  -0.23531190  1.0
  O  O26  1  0.57013786  0.29960521  0.05149161  1.0
  O  O27  1  0.70039479  0.94850839  0.42986214  1.0
  O  O28  1  0.94850839  1.42986214  -0.29960521  1.0
  O  O29  1  1.42986214  0.70039479  -0.05149161  1.0
  O  O30  1  1.29960521  0.05149161  -0.42986214  1.0
  O  O31  1  1.05149161  -0.42986214  0.29960521  1.0
