# generated using pymatgen
data_Ca2Mn(AsO5)2
_symmetry_space_group_name_H-M   'P 1'
_cell_length_a   5.67807954
_cell_length_b   14.67609880
_cell_length_c   5.40622425
_cell_angle_alpha   90.00000000
_cell_angle_beta   101.87706330
_cell_angle_gamma   90.00000000
_symmetry_Int_Tables_number   1
_chemical_formula_structural   Ca2Mn(AsO5)2
_chemical_formula_sum   'Ca4 Mn2 As4 O20'
_cell_volume   440.86698125
_cell_formula_units_Z   2
loop_
 _symmetry_equiv_pos_site_id
 _symmetry_equiv_pos_as_xyz
  1  'x, y, z'
loop_
 _atom_site_type_symbol
 _atom_site_label
 _atom_site_symmetry_multiplicity
 _atom_site_fract_x
 _atom_site_fract_y
 _atom_site_fract_z
 _atom_site_occupancy
  Ca  Ca0  1  0.51486433  0.34658691  0.33812535  1.0
  Ca  Ca1  1  0.51486433  0.15341309  0.83812535  1.0
  Ca  Ca2  1  0.48513567  0.84658691  0.16187465  1.0
  Ca  Ca3  1  0.48513567  0.65341309  0.66187465  1.0
  As  As4  1  0.89274455  0.13058066  0.47145469  1.0
  As  As5  1  0.89274455  0.36941934  0.97145469  1.0
  As  As6  1  0.10725545  0.63058066  0.02854531  1.0
  As  As7  1  0.10725545  0.86941934  0.52854531  1.0
  Mn  Mn8  1  -0.00000000  0.50000000  0.50000000  1.0
  Mn  Mn9  1  0.00000000  0.00000000  0.00000000  1.0
  O  O10  1  0.17894183  0.33035360  1.03264459  1.0
  O  O11  1  0.17894183  0.16964640  0.53264459  1.0
  O  O12  1  0.82105817  0.83035360  0.46735541  1.0
  O  O13  1  0.82105817  0.66964640  -0.03264459  1.0
  O  O14  1  0.81637978  0.45367302  0.18237327  1.0
  O  O15  1  0.81637978  0.04632698  0.68237327  1.0
  O  O16  1  0.18362022  0.95367302  0.31762673  1.0
  O  O17  1  0.18362022  0.54632698  0.81762673  1.0
  O  O18  1  0.80229472  0.08171845  0.16819607  1.0
  O  O19  1  0.80229472  0.41828155  0.66819607  1.0
  O  O20  1  0.19770528  0.58171845  0.33180393  1.0
  O  O21  1  0.19770528  0.91828155  0.83180393  1.0
  O  O22  1  0.67132002  0.20882024  0.49188528  1.0
  O  O23  1  0.67132002  0.29117976  0.99188528  1.0
  O  O24  1  0.32867998  0.70882024  0.00811472  1.0
  O  O25  1  0.32867998  0.79117976  0.50811472  1.0
  O  O26  1  0.78877997  0.92181207  0.98851189  1.0
  O  O27  1  0.78877997  0.57818793  0.48851189  1.0
  O  O28  1  0.21122003  0.42181207  0.51148811  1.0
  O  O29  1  0.21122003  0.07818793  0.01148811  1.0
