# generated using pymatgen
data_BPBr2NCl3
_symmetry_space_group_name_H-M   'P 1'
_cell_length_a   9.39178400
_cell_length_b   9.39178400
_cell_length_c   10.71775315
_cell_angle_alpha   90.00000000
_cell_angle_beta   90.00000000
_cell_angle_gamma   87.01422475
_symmetry_Int_Tables_number   1
_chemical_formula_structural   BPBr2NCl3
_chemical_formula_sum   'B4 P4 Br8 N4 Cl12'
_cell_volume   944.08258161
_cell_formula_units_Z   4
loop_
 _symmetry_equiv_pos_site_id
 _symmetry_equiv_pos_as_xyz
  1  'x, y, z'
loop_
 _atom_site_type_symbol
 _atom_site_label
 _atom_site_symmetry_multiplicity
 _atom_site_fract_x
 _atom_site_fract_y
 _atom_site_fract_z
 _atom_site_occupancy
  B  B0  1  0.41932225  1.41932225  0.50000000  1.0
  B  B1  1  -0.08067775  0.91932225  0.00000000  1.0
  B  B2  1  -0.41932225  0.58067775  0.50000000  1.0
  B  B3  1  0.08067775  1.08067775  0.00000000  1.0
  P  P4  1  -0.50962761  1.50962761  0.25191267  1.0
  P  P5  1  -0.00962761  1.00962761  0.24808733  1.0
  P  P6  1  0.50962761  0.49037239  0.74808733  1.0
  P  P7  1  0.00962761  0.99037239  0.75191267  1.0
  Br  Br8  1  -0.46153018  0.79525128  0.48967459  1.0
  Br  Br9  1  0.03846982  1.29525128  0.01032541  1.0
  Br  Br10  1  -0.20474872  0.53846982  0.51032541  1.0
  Br  Br11  1  0.29525128  1.03846982  0.98967459  1.0
  Br  Br12  1  0.20474872  1.46153018  0.48967459  1.0
  Br  Br13  1  -0.29525128  0.96153018  0.01032541  1.0
  Br  Br14  1  0.46153018  1.20474872  0.51032541  1.0
  Br  Br15  1  -0.03846982  0.70474872  0.98967459  1.0
  N  N16  1  -0.49405289  1.49405289  0.39792956  1.0
  N  N17  1  0.00594711  0.99405289  0.10207044  1.0
  N  N18  1  0.49405289  0.50594711  0.60207044  1.0
  N  N19  1  -0.00594711  1.00594711  0.89792956  1.0
  Cl  Cl20  1  0.43593541  1.32776674  0.17448205  1.0
  Cl  Cl21  1  -0.06406459  0.82776674  0.32551795  1.0
  Cl  Cl22  1  0.32776674  1.43593541  0.82551795  1.0
  Cl  Cl23  1  -0.17223326  0.93593541  0.67448205  1.0
  Cl  Cl24  1  -0.32776674  0.56406459  0.17448205  1.0
  Cl  Cl25  1  0.17223326  1.06406459  0.32551795  1.0
  Cl  Cl26  1  -0.43593541  0.67223326  0.82551795  1.0
  Cl  Cl27  1  0.06406459  1.17223326  0.67448205  1.0
  Cl  Cl28  1  -0.15594991  1.15594991  0.31083629  1.0
  Cl  Cl29  1  0.34405009  0.65594991  0.18916371  1.0
  Cl  Cl30  1  0.15594991  0.84405009  0.68916371  1.0
  Cl  Cl31  1  -0.34405009  1.34405009  0.81083629  1.0
