# generated using pymatgen
data_Bi2MoO6
_symmetry_space_group_name_H-M   'P 1'
_cell_length_a   8.88449054
_cell_length_b   8.88449054
_cell_length_c   5.43511571
_cell_angle_alpha   90.00000000
_cell_angle_beta   90.00000000
_cell_angle_gamma   144.45562953
_symmetry_Int_Tables_number   1
_chemical_formula_structural   Bi2MoO6
_chemical_formula_sum   'Bi4 Mo2 O12'
_cell_volume   249.40147050
_cell_formula_units_Z   2
loop_
 _symmetry_equiv_pos_site_id
 _symmetry_equiv_pos_as_xyz
  1  'x, y, z'
loop_
 _atom_site_type_symbol
 _atom_site_label
 _atom_site_symmetry_multiplicity
 _atom_site_fract_x
 _atom_site_fract_y
 _atom_site_fract_z
 _atom_site_occupancy
  Bi  Bi0  1  0.17296313  0.82703687  0.52508093  1.0
  Bi  Bi1  1  -0.32703687  0.32703687  0.97491907  1.0
  Bi  Bi2  1  -0.17296313  0.17296313  0.47491907  1.0
  Bi  Bi3  1  0.32703687  0.67296313  0.02508093  1.0
  Mo  Mo4  1  0.00000000  0.00000000  0.00000000  1.0
  Mo  Mo5  1  0.50000000  0.50000000  0.50000000  1.0
  O  O6  1  0.10859957  0.89140043  0.91913906  1.0
  O  O7  1  -0.39140043  0.39140043  0.58086094  1.0
  O  O8  1  -0.10859957  0.10859957  0.08086094  1.0
  O  O9  1  0.39140043  0.60859957  0.41913906  1.0
  O  O10  1  0.00035973  0.49964027  0.75000000  1.0
  O  O11  1  0.50035973  0.99964027  0.75000000  1.0
  O  O12  1  0.49964027  1.00035973  0.25000000  1.0
  O  O13  1  -0.00035973  0.50035973  0.25000000  1.0
  O  O14  1  0.23069480  0.26930520  0.75000000  1.0
  O  O15  1  0.73069480  0.76930520  0.75000000  1.0
  O  O16  1  0.26930520  1.23069480  0.25000000  1.0
  O  O17  1  -0.23069480  0.73069480  0.25000000  1.0
