# generated using pymatgen
data_Na2CoP2O7
_symmetry_space_group_name_H-M   'P 1'
_cell_length_a   7.83392120
_cell_length_b   7.83392120
_cell_length_c   10.44630031
_cell_angle_alpha   90.00000000
_cell_angle_beta   90.00000000
_cell_angle_gamma   90.00000000
_symmetry_Int_Tables_number   1
_chemical_formula_structural   Na2CoP2O7
_chemical_formula_sum   'Na8 Co4 P8 O28'
_cell_volume   641.09280715
_cell_formula_units_Z   4
loop_
 _symmetry_equiv_pos_site_id
 _symmetry_equiv_pos_as_xyz
  1  'x, y, z'
loop_
 _atom_site_type_symbol
 _atom_site_label
 _atom_site_symmetry_multiplicity
 _atom_site_fract_x
 _atom_site_fract_y
 _atom_site_fract_z
 _atom_site_occupancy
  Na  Na0  1  0.30611587  0.30611587  0.50000000  1.0
  Na  Na1  1  0.80611587  0.19388413  0.00000000  1.0
  Na  Na2  1  0.69388413  0.69388413  0.50000000  1.0
  Na  Na3  1  0.19388413  0.80611587  0.00000000  1.0
  Na  Na4  1  0.14599389  0.85400611  0.50000000  1.0
  Na  Na5  1  0.64599389  0.64599389  0.00000000  1.0
  Na  Na6  1  0.85400611  0.14599389  0.50000000  1.0
  Na  Na7  1  0.35400611  0.35400611  0.00000000  1.0
  Co  Co8  1  0.50000000  0.00000000  0.25000000  1.0
  Co  Co9  1  0.50000000  0.00000000  0.75000000  1.0
  Co  Co10  1  0.00000000  0.50000000  0.75000000  1.0
  Co  Co11  1  0.00000000  0.50000000  0.25000000  1.0
  P  P12  1  0.36158950  0.63841050  0.28902922  1.0
  P  P13  1  0.36158950  0.63841050  0.71097078  1.0
  P  P14  1  0.86158950  0.86158950  0.78902922  1.0
  P  P15  1  0.86158950  0.86158950  0.21097078  1.0
  P  P16  1  0.63841050  0.36158950  0.28902922  1.0
  P  P17  1  0.63841050  0.36158950  0.71097078  1.0
  P  P18  1  0.13841050  0.13841050  0.78902922  1.0
  P  P19  1  0.13841050  0.13841050  0.21097078  1.0
  O  O20  1  0.41934971  0.80718184  0.35352125  1.0
  O  O21  1  0.41934971  0.80718184  0.64647875  1.0
  O  O22  1  0.91934971  0.69281816  0.85352125  1.0
  O  O23  1  0.91934971  0.69281816  0.14647875  1.0
  O  O24  1  0.19281816  0.58065029  0.35352125  1.0
  O  O25  1  0.19281816  0.58065029  0.64647875  1.0
  O  O26  1  0.69281816  0.91934971  0.85352125  1.0
  O  O27  1  0.69281816  0.91934971  0.14647875  1.0
  O  O28  1  0.58065029  0.19281816  0.35352125  1.0
  O  O29  1  0.58065029  0.19281816  0.64647875  1.0
  O  O30  1  0.08065029  0.30718184  0.85352125  1.0
  O  O31  1  0.08065029  0.30718184  0.14647875  1.0
  O  O32  1  0.80718184  0.41934971  0.35352125  1.0
  O  O33  1  0.80718184  0.41934971  0.64647875  1.0
  O  O34  1  0.30718184  0.08065029  0.85352125  1.0
  O  O35  1  0.30718184  0.08065029  0.14647875  1.0
  O  O36  1  0.36333654  0.63666346  0.14370502  1.0
  O  O37  1  0.36333654  0.63666346  0.85629498  1.0
  O  O38  1  0.86333654  0.86333654  0.64370503  1.0
  O  O39  1  0.86333654  0.86333654  0.35629497  1.0
  O  O40  1  0.63666346  0.36333654  0.14370502  1.0
  O  O41  1  0.63666346  0.36333654  0.85629498  1.0
  O  O42  1  0.13666346  0.13666346  0.64370503  1.0
  O  O43  1  0.13666346  0.13666346  0.35629497  1.0
  O  O44  1  0.50000000  0.50000000  0.34636079  1.0
  O  O45  1  0.50000000  0.50000000  0.65363921  1.0
  O  O46  1  0.00000000  0.00000000  0.84636079  1.0
  O  O47  1  0.00000000  0.00000000  0.15363921  1.0
