# generated using pymatgen
data_BaV2Ni3(HO5)2
_symmetry_space_group_name_H-M   'P 1'
_cell_length_a   5.90605777
_cell_length_b   5.90605777
_cell_length_c   7.77618780
_cell_angle_alpha   67.68603200
_cell_angle_beta   112.31396800
_cell_angle_gamma   119.99978469
_symmetry_Int_Tables_number   1
_chemical_formula_structural   BaV2Ni3(HO5)2
_chemical_formula_sum   'Ba1 V2 Ni3 H2 O10'
_cell_volume   211.12641397
_cell_formula_units_Z   1
loop_
 _symmetry_equiv_pos_site_id
 _symmetry_equiv_pos_as_xyz
  1  'x, y, z'
loop_
 _atom_site_type_symbol
 _atom_site_label
 _atom_site_symmetry_multiplicity
 _atom_site_fract_x
 _atom_site_fract_y
 _atom_site_fract_z
 _atom_site_occupancy
  Ni  Ni0  1  0.00000000  -0.00000000  0.50000000  1.0
  Ni  Ni1  1  1.50000000  0.00000000  0.50000000  1.0
  Ni  Ni2  1  1.00000000  -0.50000000  0.50000000  1.0
  Ba  Ba3  1  0.00000000  0.00000000  0.00000000  1.0
  V  V4  1  0.58469035  0.41530965  0.75410602  1.0
  V  V5  1  1.41530965  -0.41530965  0.24589398  1.0
  O  O6  1  0.66474304  0.33525696  0.99424614  1.0
  O  O7  1  1.33525696  -0.33525696  0.00575386  1.0
  O  O8  1  0.78809786  -0.78809786  0.36429263  1.0
  O  O9  1  0.21190214  -0.21190214  0.63570737  1.0
  O  O10  1  1.72277074  -0.23148492  0.67701905  1.0
  O  O11  1  1.23148492  -0.72277074  0.67701905  1.0
  O  O12  1  0.76851508  0.72277074  0.32298095  1.0
  O  O13  1  0.27722926  0.23148492  0.32298095  1.0
  O  O14  1  0.72275211  0.27724789  0.67702070  1.0
  O  O15  1  1.27724789  -0.27724789  0.32297930  1.0
  H  H16  1  0.25978261  -0.25978261  0.77937784  1.0
  H  H17  1  0.74021739  -0.74021739  0.22062216  1.0
