# generated using pymatgen
data_CsKNa2Li12(SiO4)4
_symmetry_space_group_name_H-M   'P 1'
_cell_length_a   8.50024493
_cell_length_b   8.50024493
_cell_length_c   8.50024493
_cell_angle_alpha   98.18351573
_cell_angle_beta   98.18351573
_cell_angle_gamma   135.66874757
_symmetry_Int_Tables_number   1
_chemical_formula_structural   CsKNa2Li12(SiO4)4
_chemical_formula_sum   'Cs1 K1 Na2 Li12 Si4 O16'
_cell_volume   397.47260018
_cell_formula_units_Z   1
loop_
 _symmetry_equiv_pos_site_id
 _symmetry_equiv_pos_as_xyz
  1  'x, y, z'
loop_
 _atom_site_type_symbol
 _atom_site_label
 _atom_site_symmetry_multiplicity
 _atom_site_fract_x
 _atom_site_fract_y
 _atom_site_fract_z
 _atom_site_occupancy
  Cs  Cs0  1  0.50000000  0.50000000  0.00000000  1.0
  K  K1  1  0.00000000  0.00000000  0.00000000  1.0
  Na  Na2  1  1.25000000  0.75000000  0.50000000  1.0
  Na  Na3  1  0.75000000  0.25000000  0.50000000  1.0
  Li  Li4  1  1.35572710  1.48436124  1.35694407  1.0
  Li  Li5  1  0.87258284  1.00121697  1.35694407  1.0
  Li  Li6  1  0.48436124  1.12741716  1.12863413  1.0
  Li  Li7  1  1.00121697  1.64427290  1.12863413  1.0
  Li  Li8  1  1.12741716  0.99878303  0.64305593  1.0
  Li  Li9  1  0.64427290  0.51563876  0.64305593  1.0
  Li  Li10  1  0.99878303  0.35572710  0.87136587  1.0
  Li  Li11  1  1.51563876  0.87258284  0.87136587  1.0
  Li  Li12  1  1.21044355  1.42544837  1.63589192  1.0
  Li  Li13  1  0.42544837  0.78955645  1.21500482  1.0
  Li  Li14  1  0.78955645  0.57455163  0.36410808  1.0
  Li  Li15  1  0.57455163  0.21044355  0.78499518  1.0
  Si  Si16  1  0.28479107  0.07899516  0.36378623  1.0
  Si  Si17  1  1.07899516  0.71520893  0.79420408  1.0
  Si  Si18  1  0.71520893  0.92100484  1.63621377  1.0
  Si  Si19  1  0.92100484  1.28479107  1.20579592  1.0
  O  O20  1  0.42193229  0.31238111  0.30155453  1.0
  O  O21  1  0.98917342  0.87962225  0.30155453  1.0
  O  O22  1  1.31238111  1.01082658  0.89044882  1.0
  O  O23  1  0.87962225  0.57806771  0.89044882  1.0
  O  O24  1  1.01082658  1.12037775  1.69844547  1.0
  O  O25  1  1.57806771  1.68761889  1.69844547  1.0
  O  O26  1  1.12037775  1.42193229  1.10955118  1.0
  O  O27  1  0.68761889  0.98917342  1.10955118  1.0
  O  O28  1  1.06150926  1.33655190  1.39806116  1.0
  O  O29  1  0.33655190  0.93849074  1.27504264  1.0
  O  O30  1  0.93849074  0.66344810  0.60193884  1.0
  O  O31  1  0.66344810  0.06150926  0.72495736  1.0
  O  O32  1  0.40149053  0.17111943  0.57260996  1.0
  O  O33  1  1.17111943  0.59850947  0.76962890  1.0
  O  O34  1  0.59850947  0.82888057  1.42739004  1.0
  O  O35  1  0.82888057  1.40149053  1.23037110  1.0
