# generated using pymatgen
data_LiTaO3
_symmetry_space_group_name_H-M   'P 1'
_cell_length_a   5.52140296
_cell_length_b   5.52140296
_cell_length_c   5.52140296
_cell_angle_alpha   56.07455430
_cell_angle_beta   56.07455430
_cell_angle_gamma   56.07455430
_symmetry_Int_Tables_number   1
_chemical_formula_structural   LiTaO3
_chemical_formula_sum   'Li2 Ta2 O6'
_cell_volume   108.20318829
_cell_formula_units_Z   2
loop_
 _symmetry_equiv_pos_site_id
 _symmetry_equiv_pos_as_xyz
  1  'x, y, z'
loop_
 _atom_site_type_symbol
 _atom_site_label
 _atom_site_symmetry_multiplicity
 _atom_site_fract_x
 _atom_site_fract_y
 _atom_site_fract_z
 _atom_site_occupancy
  Li  Li0  1  0.77821342  -0.22178658  -0.22178658  1.0
  Li  Li1  1  0.27821342  0.27821342  0.27821342  1.0
  Ta  Ta2  1  -0.00399975  -0.00399975  -0.00399975  1.0
  Ta  Ta3  1  0.49600025  0.49600025  -0.50399975  1.0
  O  O4  1  0.61521755  -0.14064229  0.22321107  1.0
  O  O5  1  0.11521755  0.72321107  -0.64064229  1.0
  O  O6  1  0.72321107  0.35935771  -0.88478245  1.0
  O  O7  1  1.22321107  -0.38478245  -0.14064229  1.0
  O  O8  1  0.35935771  0.11521755  -0.27678893  1.0
  O  O9  1  0.85935771  0.22321107  -0.38478245  1.0
