# generated using pymatgen
data_K2V2Co3(HO5)2
_symmetry_space_group_name_H-M   'P 1'
_cell_length_a   8.20686561
_cell_length_b   8.20686561
_cell_length_c   5.22279358
_cell_angle_alpha   76.89808643
_cell_angle_beta   103.10191357
_cell_angle_gamma   137.80638256
_symmetry_Int_Tables_number   1
_chemical_formula_structural   K2V2Co3(HO5)2
_chemical_formula_sum   'K2 V2 Co3 H2 O10'
_cell_volume   229.18160887
_cell_formula_units_Z   1
loop_
 _symmetry_equiv_pos_site_id
 _symmetry_equiv_pos_as_xyz
  1  'x, y, z'
loop_
 _atom_site_type_symbol
 _atom_site_label
 _atom_site_symmetry_multiplicity
 _atom_site_fract_x
 _atom_site_fract_y
 _atom_site_fract_z
 _atom_site_occupancy
  Co  Co0  1  0.77248870  0.77248870  0.50000000  1.0
  Co  Co1  1  0.22751130  0.22751130  0.50000000  1.0
  Co  Co2  1  0.50000000  0.50000000  -0.00000000  1.0
  O  O3  1  0.76795736  0.23204264  0.81867552  1.0
  O  O4  1  0.23204264  -0.23204264  0.18132448  1.0
  O  O5  1  0.56925801  0.43074199  0.71087344  1.0
  O  O6  1  0.43074199  -0.43074199  0.28912656  1.0
  O  O7  1  0.91678687  0.08321313  0.26037005  1.0
  O  O8  1  0.08321313  -0.08321313  0.73962995  1.0
  O  O9  1  0.67915984  -0.16154064  0.77976853  1.0
  O  O10  1  1.16154064  0.32084016  0.77976853  1.0
  O  O11  1  0.83845936  0.67915984  0.22023147  1.0
  O  O12  1  0.32084016  0.16154064  0.22023147  1.0
  H  H13  1  0.63525406  0.36474594  0.74513606  1.0
  H  H14  1  0.36474594  -0.36474594  0.25486394  1.0
  K  K15  1  0.73317752  0.26682248  0.29129476  1.0
  K  K16  1  0.26682248  -0.26682248  0.70870524  1.0
  V  V17  1  0.88255847  0.11744153  0.91174562  1.0
  V  V18  1  0.11744153  -0.11744153  0.08825438  1.0
