# generated using pymatgen
data_K3Na(FeO4)2
_symmetry_space_group_name_H-M   'P 1'
_cell_length_a   5.91128728
_cell_length_b   5.91128728
_cell_length_c   7.64906392
_cell_angle_alpha   90.00000000
_cell_angle_beta   90.00000000
_cell_angle_gamma   120.00000000
_symmetry_Int_Tables_number   1
_chemical_formula_structural   K3Na(FeO4)2
_chemical_formula_sum   'K3 Na1 Fe2 O8'
_cell_volume   231.47444600
_cell_formula_units_Z   1
loop_
 _symmetry_equiv_pos_site_id
 _symmetry_equiv_pos_as_xyz
  1  'x, y, z'
loop_
 _atom_site_type_symbol
 _atom_site_label
 _atom_site_symmetry_multiplicity
 _atom_site_fract_x
 _atom_site_fract_y
 _atom_site_fract_z
 _atom_site_occupancy
  K  K0  1  0.33333333  0.66666667  0.66633093  1.0
  K  K1  1  0.66666667  0.33333333  0.33366907  1.0
  K  K2  1  0.00000000  0.00000000  0.00000000  1.0
  Na  Na3  1  0.00000000  0.00000000  0.50000000  1.0
  Fe  Fe4  1  0.33333333  0.66666667  0.22580056  1.0
  Fe  Fe5  1  0.66666667  0.33333333  0.77419944  1.0
  O  O6  1  0.63781664  0.81890832  0.30412014  1.0
  O  O7  1  0.81890832  0.63781664  0.69587986  1.0
  O  O8  1  0.81890832  0.18109168  0.69587986  1.0
  O  O9  1  0.18109168  0.81890832  0.30412014  1.0
  O  O10  1  0.18109168  0.36218336  0.30412014  1.0
  O  O11  1  0.36218336  0.18109168  0.69587986  1.0
  O  O12  1  0.33333333  0.66666667  0.01184957  1.0
  O  O13  1  0.66666667  0.33333333  0.98815043  1.0
