# generated using pymatgen
data_K3Bi2
_symmetry_space_group_name_H-M   'P 1'
_cell_length_a   6.84601941
_cell_length_b   6.84601941
_cell_length_c   9.41479128
_cell_angle_alpha   79.73023368
_cell_angle_beta   100.26976632
_cell_angle_gamma   87.39837561
_symmetry_Int_Tables_number   1
_chemical_formula_structural   K3Bi2
_chemical_formula_sum   'K6 Bi4'
_cell_volume   425.86775000
_cell_formula_units_Z   2
loop_
 _symmetry_equiv_pos_site_id
 _symmetry_equiv_pos_as_xyz
  1  'x, y, z'
loop_
 _atom_site_type_symbol
 _atom_site_label
 _atom_site_symmetry_multiplicity
 _atom_site_fract_x
 _atom_site_fract_y
 _atom_site_fract_z
 _atom_site_occupancy
  K  K0  1  1.65185398  0.24077298  0.48505197  1.0
  K  K1  1  0.75922702  -0.65185398  0.98505197  1.0
  K  K2  1  1.24077298  0.65185398  0.01494803  1.0
  K  K3  1  0.34814602  -0.24077298  0.51494803  1.0
  K  K4  1  0.84572262  -0.15427738  0.25000000  1.0
  K  K5  1  1.15427738  0.15427738  0.75000000  1.0
  Bi  Bi6  1  1.32174573  0.11294208  0.15311485  1.0
  Bi  Bi7  1  0.88705792  -0.32174573  0.65311485  1.0
  Bi  Bi8  1  1.11294208  0.32174573  0.34688515  1.0
  Bi  Bi9  1  0.67825427  -0.11294208  0.84688515  1.0
