# generated using pymatgen
data_Sc13Pd4
_symmetry_space_group_name_H-M   'P 1'
_cell_length_a   11.60756251
_cell_length_b   11.60756251
_cell_length_c   11.60756251
_cell_angle_alpha   60.00000000
_cell_angle_beta   60.00000000
_cell_angle_gamma   60.00000000
_symmetry_Int_Tables_number   1
_chemical_formula_structural   Sc13Pd4
_chemical_formula_sum   'Sc26 Pd8'
_cell_volume   1105.88023457
_cell_formula_units_Z   2
loop_
 _symmetry_equiv_pos_site_id
 _symmetry_equiv_pos_as_xyz
  1  'x, y, z'
loop_
 _atom_site_type_symbol
 _atom_site_label
 _atom_site_symmetry_multiplicity
 _atom_site_fract_x
 _atom_site_fract_y
 _atom_site_fract_z
 _atom_site_occupancy
  Sc  Sc0  1  0.94245020  -0.56697729  0.68207690  1.0
  Sc  Sc1  1  -0.05754980  0.68207690  0.43302271  1.0
  Sc  Sc2  1  -0.18302271  0.30754980  0.30754980  1.0
  Sc  Sc3  1  0.56792310  0.30754980  0.30754980  1.0
  Sc  Sc4  1  -0.56697729  0.94245020  0.68207690  1.0
  Sc  Sc5  1  0.94245020  -0.05754980  0.68207690  1.0
  Sc  Sc6  1  0.94245020  -0.31792310  0.94245020  1.0
  Sc  Sc7  1  -0.56697729  0.68207690  0.94245020  1.0
  Sc  Sc8  1  0.30754980  -0.18302271  0.30754980  1.0
  Sc  Sc9  1  0.30754980  0.30754980  -0.18302271  1.0
  Sc  Sc10  1  0.56792310  0.30754980  -0.18302271  1.0
  Sc  Sc11  1  0.56792310  -0.18302271  0.30754980  1.0
  Sc  Sc12  1  0.68207690  -0.05754980  0.94245020  1.0
  Sc  Sc13  1  -0.56697729  0.94245020  0.94245020  1.0
  Sc  Sc14  1  0.30754980  0.56792310  -0.18302271  1.0
  Sc  Sc15  1  0.30754980  -0.18302271  0.56792310  1.0
  Sc  Sc16  1  -0.31792310  0.94245020  0.43302271  1.0
  Sc  Sc17  1  0.68207690  -0.56697729  0.94245020  1.0
  Sc  Sc18  1  0.94245020  -0.56697729  0.94245020  1.0
  Sc  Sc19  1  -0.05754980  0.94245020  0.43302271  1.0
  Sc  Sc20  1  0.30754980  0.56792310  0.30754980  1.0
  Sc  Sc21  1  -0.18302271  0.56792310  0.30754980  1.0
  Sc  Sc22  1  -0.18302271  0.30754980  0.56792310  1.0
  Sc  Sc23  1  0.30754980  0.30754980  0.56792310  1.0
  Sc  Sc24  1  0.50000000  0.50000000  -0.50000000  1.0
  Sc  Sc25  1  0.75000000  -0.25000000  0.75000000  1.0
  Pd  Pd26  1  0.66683926  -0.33316074  0.99948223  1.0
  Pd  Pd27  1  0.66683926  -0.00051777  0.66683926  1.0
  Pd  Pd28  1  0.58316074  -0.41683926  0.58316074  1.0
  Pd  Pd29  1  1.25051777  -0.41683926  0.58316074  1.0
  Pd  Pd30  1  0.99948223  -0.33316074  0.66683926  1.0
  Pd  Pd31  1  0.66683926  -0.33316074  0.66683926  1.0
  Pd  Pd32  1  0.58316074  0.25051777  0.58316074  1.0
  Pd  Pd33  1  0.58316074  -0.41683926  1.25051777  1.0
