# generated using pymatgen
data_Cs9ScO4
_symmetry_space_group_name_H-M   'P 1'
_cell_length_a   12.91544209
_cell_length_b   12.91544209
_cell_length_c   12.91544209
_cell_angle_alpha   104.75264913
_cell_angle_beta   104.75264913
_cell_angle_gamma   119.38704015
_symmetry_Int_Tables_number   1
_chemical_formula_structural   Cs9ScO4
_chemical_formula_sum   'Cs18 Sc2 O8'
_cell_volume   1620.64920149
_cell_formula_units_Z   2
loop_
 _symmetry_equiv_pos_site_id
 _symmetry_equiv_pos_as_xyz
  1  'x, y, z'
loop_
 _atom_site_type_symbol
 _atom_site_label
 _atom_site_symmetry_multiplicity
 _atom_site_fract_x
 _atom_site_fract_y
 _atom_site_fract_z
 _atom_site_occupancy
  Cs  Cs0  1  0.25000000  0.97790623  0.72790623  1.0
  Cs  Cs1  1  0.75000000  0.47790623  0.72790623  1.0
  Cs  Cs2  1  0.47790623  0.75000000  0.72790623  1.0
  Cs  Cs3  1  0.97790623  0.25000000  0.72790623  1.0
  Cs  Cs4  1  0.52209377  0.25000000  0.27209377  1.0
  Cs  Cs5  1  1.02209377  0.75000000  1.27209377  1.0
  Cs  Cs6  1  0.75000000  1.02209377  1.27209377  1.0
  Cs  Cs7  1  0.25000000  0.52209377  0.27209377  1.0
  Cs  Cs8  1  0.83561104  0.33561104  1.17122207  1.0
  Cs  Cs9  1  0.66438896  0.83561104  0.50000000  1.0
  Cs  Cs10  1  0.33561104  0.16438896  0.50000000  1.0
  Cs  Cs11  1  1.16438896  0.66438896  0.82877793  1.0
  Cs  Cs12  1  0.41992035  0.91992035  1.33984070  1.0
  Cs  Cs13  1  0.08007965  0.41992035  0.50000000  1.0
  Cs  Cs14  1  0.91992035  0.58007965  0.50000000  1.0
  Cs  Cs15  1  0.58007965  1.08007965  0.66015930  1.0
  Cs  Cs16  1  0.50000000  0.50000000  0.00000000  1.0
  Cs  Cs17  1  0.00000000  0.00000000  0.00000000  1.0
  Sc  Sc18  1  0.75000000  0.25000000  0.50000000  1.0
  Sc  Sc19  1  0.25000000  0.75000000  0.50000000  1.0
  O  O20  1  0.76935903  1.26935903  1.35517127  1.0
  O  O21  1  1.08581223  0.58581223  1.35517127  1.0
  O  O22  1  0.41418777  0.76935903  0.50000000  1.0
  O  O23  1  0.73064097  1.08581223  1.50000000  1.0
  O  O24  1  1.26935903  0.91418777  1.50000000  1.0
  O  O25  1  0.58581223  0.23064097  0.50000000  1.0
  O  O26  1  0.91418777  0.41418777  0.64482873  1.0
  O  O27  1  0.23064097  0.73064097  0.64482873  1.0
