# generated using pymatgen
data_K3Na(SO4)2
_symmetry_space_group_name_H-M   'P 1'
_cell_length_a   5.68576882
_cell_length_b   5.68576882
_cell_length_c   9.94251184
_cell_angle_alpha   90.00000000
_cell_angle_beta   90.00000000
_cell_angle_gamma   120.00000000
_symmetry_Int_Tables_number   1
_chemical_formula_structural   K3Na(SO4)2
_chemical_formula_sum   'K3 Na1 S2 O8'
_cell_volume   278.35892063
_cell_formula_units_Z   1
loop_
 _symmetry_equiv_pos_site_id
 _symmetry_equiv_pos_as_xyz
  1  'x, y, z'
loop_
 _atom_site_type_symbol
 _atom_site_label
 _atom_site_symmetry_multiplicity
 _atom_site_fract_x
 _atom_site_fract_y
 _atom_site_fract_z
 _atom_site_occupancy
  K  K0  1  -0.00000000  0.00000000  0.50000000  1.0
  K  K1  1  0.66666667  0.33333333  0.67022012  1.0
  K  K2  1  0.33333333  0.66666667  0.32977988  1.0
  Na  Na3  1  0.00000000  -0.00000000  0.00000000  1.0
  S  S4  1  0.66666667  0.33333333  0.25431090  1.0
  S  S5  1  0.33333333  0.66666667  0.74568910  1.0
  O  O6  1  0.66666667  0.33333333  0.41424770  1.0
  O  O7  1  0.33333333  0.66666667  0.58575230  1.0
  O  O8  1  0.09710162  0.90289838  0.21779489  1.0
  O  O9  1  0.09710162  0.19420324  0.21779489  1.0
  O  O10  1  0.80579676  0.90289838  0.21779489  1.0
  O  O11  1  0.90289838  0.09710162  0.78220511  1.0
  O  O12  1  0.90289838  0.80579676  0.78220511  1.0
  O  O13  1  0.19420324  0.09710162  0.78220511  1.0
