# generated using pymatgen
data_VCoAs
_symmetry_space_group_name_H-M   'P 1'
_cell_length_a   5.98690028
_cell_length_b   3.73008679
_cell_length_c   6.92721061
_cell_angle_alpha   90.00000000
_cell_angle_beta   90.00000000
_cell_angle_gamma   90.00000000
_symmetry_Int_Tables_number   1
_chemical_formula_structural   VCoAs
_chemical_formula_sum   'V4 Co4 As4'
_cell_volume   154.69609576
_cell_formula_units_Z   4
loop_
 _symmetry_equiv_pos_site_id
 _symmetry_equiv_pos_as_xyz
  1  'x, y, z'
loop_
 _atom_site_type_symbol
 _atom_site_label
 _atom_site_symmetry_multiplicity
 _atom_site_fract_x
 _atom_site_fract_y
 _atom_site_fract_z
 _atom_site_occupancy
  V  V0  1  0.97063776  0.75000000  0.68014755  1.0
  V  V1  1  0.47063776  0.75000000  0.81985245  1.0
  V  V2  1  0.02936224  0.25000000  0.31985245  1.0
  V  V3  1  0.52936224  0.25000000  0.18014755  1.0
  Co  Co4  1  0.85970622  0.75000000  0.05940511  1.0
  Co  Co5  1  0.35970622  0.75000000  0.44059489  1.0
  Co  Co6  1  0.14029378  0.25000000  0.94059489  1.0
  Co  Co7  1  0.64029378  0.25000000  0.55940511  1.0
  As  As8  1  0.74403697  0.75000000  0.37788066  1.0
  As  As9  1  0.24403697  0.75000000  0.12211934  1.0
  As  As10  1  0.25596303  0.25000000  0.62211934  1.0
  As  As11  1  0.75596303  0.25000000  0.87788066  1.0
