# generated using pymatgen
data_K2EuF5
_symmetry_space_group_name_H-M   'P 1'
_cell_length_a   11.06612042
_cell_length_b   7.53462502
_cell_length_c   6.73523124
_cell_angle_alpha   90.00000000
_cell_angle_beta   90.00000000
_cell_angle_gamma   90.00000000
_symmetry_Int_Tables_number   1
_chemical_formula_structural   K2EuF5
_chemical_formula_sum   'K8 Eu4 F20'
_cell_volume   561.57730208
_cell_formula_units_Z   4
loop_
 _symmetry_equiv_pos_site_id
 _symmetry_equiv_pos_as_xyz
  1  'x, y, z'
loop_
 _atom_site_type_symbol
 _atom_site_label
 _atom_site_symmetry_multiplicity
 _atom_site_fract_x
 _atom_site_fract_y
 _atom_site_fract_z
 _atom_site_occupancy
  K  K0  1  0.67098639  0.50223961  0.02744025  1.0
  K  K1  1  0.67098639  -0.00223961  0.02744025  1.0
  K  K2  1  0.17098639  0.50223961  0.47255975  1.0
  K  K3  1  0.17098639  -0.00223961  0.47255975  1.0
  K  K4  1  0.32901361  1.00223961  0.97255975  1.0
  K  K5  1  0.32901361  0.49776039  0.97255975  1.0
  K  K6  1  0.82901361  1.00223961  0.52744025  1.0
  K  K7  1  0.82901361  0.49776039  0.52744025  1.0
  Eu  Eu8  1  0.99860838  0.25000000  0.06047655  1.0
  Eu  Eu9  1  0.49860838  0.25000000  0.43952345  1.0
  Eu  Eu10  1  0.00139162  0.75000000  0.93952345  1.0
  Eu  Eu11  1  0.50139162  0.75000000  0.56047655  1.0
  F  F12  1  0.91852985  0.96829156  0.14575701  1.0
  F  F13  1  0.91852985  0.53170844  0.14575701  1.0
  F  F14  1  0.41852985  0.96829156  0.35424299  1.0
  F  F15  1  0.41852985  0.53170844  0.35424299  1.0
  F  F16  1  0.08147015  0.46829156  0.85424299  1.0
  F  F17  1  0.08147015  0.03170844  0.85424299  1.0
  F  F18  1  0.58147015  0.46829156  0.64575701  1.0
  F  F19  1  0.58147015  0.03170844  0.64575701  1.0
  F  F20  1  0.98795925  0.25000000  0.39922225  1.0
  F  F21  1  0.48795925  0.25000000  0.10077775  1.0
  F  F22  1  0.01204075  0.75000000  0.60077775  1.0
  F  F23  1  0.51204075  0.75000000  0.89922225  1.0
  F  F24  1  0.83103441  0.25000000  0.86833897  1.0
  F  F25  1  0.33103441  0.25000000  0.63166103  1.0
  F  F26  1  0.16896559  0.75000000  0.13166103  1.0
  F  F27  1  0.66896559  0.75000000  0.36833897  1.0
  F  F28  1  0.69363233  0.25000000  0.33387836  1.0
  F  F29  1  0.19363233  0.25000000  0.16612164  1.0
  F  F30  1  0.30636767  0.75000000  0.66612164  1.0
  F  F31  1  0.80636767  0.75000000  0.83387836  1.0
