# generated using pymatgen
data_I
_symmetry_space_group_name_H-M   'P 1'
_cell_length_a   4.94064095
_cell_length_b   4.94064095
_cell_length_c   9.73832595
_cell_angle_alpha   90.00000000
_cell_angle_beta   90.00000000
_cell_angle_gamma   55.44990511
_symmetry_Int_Tables_number   1
_chemical_formula_structural   I
_chemical_formula_sum   I4
_cell_volume   195.78679442
_cell_formula_units_Z   4
loop_
 _symmetry_equiv_pos_site_id
 _symmetry_equiv_pos_as_xyz
  1  'x, y, z'
loop_
 _atom_site_type_symbol
 _atom_site_label
 _atom_site_symmetry_multiplicity
 _atom_site_fract_x
 _atom_site_fract_y
 _atom_site_fract_z
 _atom_site_occupancy
  I  I0  1  -0.33505834  1.33505834  0.37744129  1.0
  I  I1  1  0.16494166  0.83505834  0.12255871  1.0
  I  I2  1  0.33505834  0.66494166  0.62255871  1.0
  I  I3  1  -0.16494166  1.16494166  0.87744129  1.0
