# generated using pymatgen
data_RbNb4Br11
_symmetry_space_group_name_H-M   'P 1'
_cell_length_a   17.01266784
_cell_length_b   7.38704638
_cell_length_c   7.53049533
_cell_angle_alpha   90.00000000
_cell_angle_beta   90.00000000
_cell_angle_gamma   90.00000000
_symmetry_Int_Tables_number   1
_chemical_formula_structural   RbNb4Br11
_chemical_formula_sum   'Rb2 Nb8 Br22'
_cell_volume   946.38269909
_cell_formula_units_Z   2
loop_
 _symmetry_equiv_pos_site_id
 _symmetry_equiv_pos_as_xyz
  1  'x, y, z'
loop_
 _atom_site_type_symbol
 _atom_site_label
 _atom_site_symmetry_multiplicity
 _atom_site_fract_x
 _atom_site_fract_y
 _atom_site_fract_z
 _atom_site_occupancy
  Rb  Rb0  1  0.75000000  0.50000000  0.59205274  1.0
  Rb  Rb1  1  0.25000000  0.50000000  0.40794726  1.0
  Nb  Nb2  1  0.36141611  0.00000000  0.11659979  1.0
  Nb  Nb3  1  0.86141611  0.00000000  0.88340021  1.0
  Nb  Nb4  1  0.63858389  0.00000000  0.88340021  1.0
  Nb  Nb5  1  0.13858389  0.00000000  0.11659979  1.0
  Nb  Nb6  1  0.00000000  0.79218180  0.00000000  1.0
  Nb  Nb7  1  0.00000000  0.20781820  0.00000000  1.0
  Nb  Nb8  1  0.50000000  0.79218180  0.00000000  1.0
  Nb  Nb9  1  0.50000000  0.20781820  0.00000000  1.0
  Br  Br10  1  0.42402871  0.74862326  0.30581541  1.0
  Br  Br11  1  0.42402871  0.25137674  0.30581541  1.0
  Br  Br12  1  0.92402871  0.74862326  0.69418459  1.0
  Br  Br13  1  0.92402871  0.25137674  0.69418459  1.0
  Br  Br14  1  0.57597129  0.74862326  0.69418459  1.0
  Br  Br15  1  0.57597129  0.25137674  0.69418459  1.0
  Br  Br16  1  0.07597129  0.74862326  0.30581541  1.0
  Br  Br17  1  0.07597129  0.25137674  0.30581541  1.0
  Br  Br18  1  0.75000000  0.76584978  0.01044855  1.0
  Br  Br19  1  0.75000000  0.23415022  0.01044855  1.0
  Br  Br20  1  0.25000000  0.76584978  0.98955145  1.0
  Br  Br21  1  0.25000000  0.23415022  0.98955145  1.0
  Br  Br22  1  0.91499340  0.50000000  0.12605465  1.0
  Br  Br23  1  0.41499340  0.50000000  0.87394535  1.0
  Br  Br24  1  0.08500660  0.50000000  0.87394535  1.0
  Br  Br25  1  0.58500660  0.50000000  0.12605465  1.0
  Br  Br26  1  0.91264098  0.00000000  0.20509747  1.0
  Br  Br27  1  0.41264098  0.00000000  0.79490253  1.0
  Br  Br28  1  0.08735902  0.00000000  0.79490253  1.0
  Br  Br29  1  0.58735902  0.00000000  0.20509747  1.0
  Br  Br30  1  0.75000000  0.00000000  0.60826500  1.0
  Br  Br31  1  0.25000000  0.00000000  0.39173500  1.0
