# generated using pymatgen
data_Na2Zn(SiO3)2
_symmetry_space_group_name_H-M   'P 1'
_cell_length_a   5.75357992
_cell_length_b   5.75357992
_cell_length_c   10.03577139
_cell_angle_alpha   88.30953590
_cell_angle_beta   91.69046410
_cell_angle_gamma   65.65947247
_symmetry_Int_Tables_number   1
_chemical_formula_structural   Na2Zn(SiO3)2
_chemical_formula_sum   'Na4 Zn2 Si4 O12'
_cell_volume   302.24207736
_cell_formula_units_Z   2
loop_
 _symmetry_equiv_pos_site_id
 _symmetry_equiv_pos_as_xyz
  1  'x, y, z'
loop_
 _atom_site_type_symbol
 _atom_site_label
 _atom_site_symmetry_multiplicity
 _atom_site_fract_x
 _atom_site_fract_y
 _atom_site_fract_z
 _atom_site_occupancy
  Na  Na0  1  0.61169173  -0.26220541  0.39608841  1.0
  Na  Na1  1  1.26220541  0.38830827  0.89608841  1.0
  Na  Na2  1  0.73779459  -0.38830827  0.10391159  1.0
  Na  Na3  1  1.38830827  0.26220541  0.60391159  1.0
  Zn  Zn4  1  1.27039812  0.27039812  0.25000000  1.0
  Zn  Zn5  1  0.72960188  -0.27039812  0.75000000  1.0
  Si  Si6  1  1.83573921  0.13754699  0.36095458  1.0
  Si  Si7  1  0.86245301  -0.83573921  0.86095458  1.0
  Si  Si8  1  1.13754699  0.83573921  0.13904542  1.0
  Si  Si9  1  0.16426079  -0.13754699  0.63904542  1.0
  O  O10  1  0.36598365  -0.08909444  0.19200232  1.0
  O  O11  1  1.08909444  0.63401635  0.69200232  1.0
  O  O12  1  0.91090556  -0.63401635  0.30799768  1.0
  O  O13  1  1.63401635  0.08909444  0.80799768  1.0
  O  O14  1  1.53442206  0.22583414  0.38992517  1.0
  O  O15  1  0.77416586  -0.53442206  0.88992517  1.0
  O  O16  1  1.22583414  0.53442206  0.11007483  1.0
  O  O17  1  0.46557794  -0.22583414  0.61007483  1.0
  O  O18  1  0.91006147  -0.08993853  0.25000000  1.0
  O  O19  1  1.08993853  0.08993853  0.75000000  1.0
  O  O20  1  -0.00000000  0.00000000  0.50000000  1.0
  O  O21  1  0.00000000  -0.00000000  0.00000000  1.0
