# generated using pymatgen
data_Y4Mg3Au10
_symmetry_space_group_name_H-M   'P 1'
_cell_length_a   8.51251609
_cell_length_b   8.51251609
_cell_length_c   10.07436098
_cell_angle_alpha   90.00000000
_cell_angle_beta   90.00000000
_cell_angle_gamma   72.27708210
_symmetry_Int_Tables_number   1
_chemical_formula_structural   Y4Mg3Au10
_chemical_formula_sum   'Y8 Mg6 Au20'
_cell_volume   695.37092449
_cell_formula_units_Z   2
loop_
 _symmetry_equiv_pos_site_id
 _symmetry_equiv_pos_as_xyz
  1  'x, y, z'
loop_
 _atom_site_type_symbol
 _atom_site_label
 _atom_site_symmetry_multiplicity
 _atom_site_fract_x
 _atom_site_fract_y
 _atom_site_fract_z
 _atom_site_occupancy
  Y  Y0  1  -0.19632321  1.19632321  0.30004979  1.0
  Y  Y1  1  0.30367679  0.69632321  0.19995021  1.0
  Y  Y2  1  0.19632321  0.80367679  0.69995021  1.0
  Y  Y3  1  -0.30367679  1.30367679  0.80004979  1.0
  Y  Y4  1  0.19707370  1.19707370  0.50000000  1.0
  Y  Y5  1  -0.30292630  0.69707370  0.00000000  1.0
  Y  Y6  1  -0.19707370  0.80292630  0.50000000  1.0
  Y  Y7  1  0.30292630  1.30292630  0.00000000  1.0
  Mg  Mg8  1  -0.48862401  0.98862401  0.25000000  1.0
  Mg  Mg9  1  0.01137599  1.48862401  0.25000000  1.0
  Mg  Mg10  1  -0.01137599  0.51137599  0.75000000  1.0
  Mg  Mg11  1  0.48862401  1.01137599  0.75000000  1.0
  Mg  Mg12  1  -0.50000000  0.50000000  0.50000000  1.0
  Mg  Mg13  1  -0.00000000  1.00000000  0.00000000  1.0
  Au  Au14  1  0.37590271  1.34029153  0.29358123  1.0
  Au  Au15  1  -0.12409729  0.84029153  0.20641877  1.0
  Au  Au16  1  0.34029153  1.37590271  0.70641877  1.0
  Au  Au17  1  -0.15970847  0.87590271  0.79358123  1.0
  Au  Au18  1  -0.34029153  0.62409729  0.29358123  1.0
  Au  Au19  1  0.15970847  1.12409729  0.20641877  1.0
  Au  Au20  1  -0.37590271  0.65970847  0.70641877  1.0
  Au  Au21  1  0.12409729  1.15970847  0.79358123  1.0
  Au  Au22  1  0.43502551  0.84869821  0.48600157  1.0
  Au  Au23  1  -0.06497449  1.34869821  0.01399843  1.0
  Au  Au24  1  -0.15130179  1.43502551  0.51399843  1.0
  Au  Au25  1  0.34869821  0.93502551  0.98600157  1.0
  Au  Au26  1  0.15130179  0.56497449  0.48600157  1.0
  Au  Au27  1  -0.34869821  1.06497449  0.01399843  1.0
  Au  Au28  1  -0.43502551  1.15130179  0.51399843  1.0
  Au  Au29  1  0.06497449  0.65130179  0.98600157  1.0
  Au  Au30  1  -0.40136250  1.40136250  0.09801822  1.0
  Au  Au31  1  0.09863750  0.90136250  0.40198178  1.0
  Au  Au32  1  0.40136250  0.59863750  0.90198178  1.0
  Au  Au33  1  -0.09863750  1.09863750  0.59801822  1.0
