# generated using pymatgen
data_Y12(OsC3)5
_symmetry_space_group_name_H-M   'P 1'
_cell_length_a   10.72775059
_cell_length_b   10.72775059
_cell_length_c   5.07498597
_cell_angle_alpha   90.00000000
_cell_angle_beta   90.00000000
_cell_angle_gamma   120.00000000
_symmetry_Int_Tables_number   1
_chemical_formula_structural   Y12(OsC3)5
_chemical_formula_sum   'Y12 Os5 C15'
_cell_volume   505.80464589
_cell_formula_units_Z   1
loop_
 _symmetry_equiv_pos_site_id
 _symmetry_equiv_pos_as_xyz
  1  'x, y, z'
loop_
 _atom_site_type_symbol
 _atom_site_label
 _atom_site_symmetry_multiplicity
 _atom_site_fract_x
 _atom_site_fract_y
 _atom_site_fract_z
 _atom_site_occupancy
  Y  Y0  1  0.20694043  0.20694043  0.50000000  1.0
  Y  Y1  1  0.00000000  0.79305957  0.50000000  1.0
  Y  Y2  1  0.79305957  0.00000000  0.50000000  1.0
  Y  Y3  1  0.56303428  0.56303428  0.50000000  1.0
  Y  Y4  1  0.00000000  0.43696572  0.50000000  1.0
  Y  Y5  1  0.43696572  0.00000000  0.50000000  1.0
  Y  Y6  1  0.18324846  0.72789575  0.00000000  1.0
  Y  Y7  1  0.72789575  0.18324846  0.00000000  1.0
  Y  Y8  1  0.54464728  0.81675154  0.00000000  1.0
  Y  Y9  1  0.27210425  0.45535272  0.00000000  1.0
  Y  Y10  1  0.81675154  0.54464728  0.00000000  1.0
  Y  Y11  1  0.45535272  0.27210425  0.00000000  1.0
  Os  Os12  1  0.83935840  0.83935840  0.00000000  1.0
  Os  Os13  1  0.00000000  0.16064160  0.00000000  1.0
  Os  Os14  1  0.16064160  0.00000000  0.00000000  1.0
  Os  Os15  1  0.33333333  0.66666667  0.50000000  1.0
  Os  Os16  1  0.66666667  0.33333333  0.50000000  1.0
  C  C17  1  0.18521476  0.71639497  0.50000000  1.0
  C  C18  1  0.71639497  0.18521476  0.50000000  1.0
  C  C19  1  0.53118021  0.81478524  0.50000000  1.0
  C  C20  1  0.28360503  0.46881979  0.50000000  1.0
  C  C21  1  0.81478524  0.53118021  0.50000000  1.0
  C  C22  1  0.46881979  0.28360503  0.50000000  1.0
  C  C23  1  0.20738472  0.20738472  0.00000000  1.0
  C  C24  1  -0.00000000  0.79261528  0.00000000  1.0
  C  C25  1  0.79261528  0.00000000  0.00000000  1.0
  C  C26  1  0.53970776  0.53970776  0.00000000  1.0
  C  C27  1  0.00000000  0.46029224  0.00000000  1.0
  C  C28  1  0.46029224  0.00000000  0.00000000  1.0
  C  C29  1  0.66443489  0.66443489  0.00000000  1.0
  C  C30  1  -0.00000000  0.33556511  0.00000000  1.0
  C  C31  1  0.33556511  0.00000000  0.00000000  1.0
