# generated using pymatgen
data_Cs3TlCl6
_symmetry_space_group_name_H-M   'P 1'
_cell_length_a   12.99280440
_cell_length_b   12.99280440
_cell_length_c   12.99280440
_cell_angle_alpha   64.71374563
_cell_angle_beta   64.71374563
_cell_angle_gamma   64.71374563
_symmetry_Int_Tables_number   1
_chemical_formula_structural   Cs3TlCl6
_chemical_formula_sum   'Cs12 Tl4 Cl24'
_cell_volume   1710.97772667
_cell_formula_units_Z   4
loop_
 _symmetry_equiv_pos_site_id
 _symmetry_equiv_pos_as_xyz
  1  'x, y, z'
loop_
 _atom_site_type_symbol
 _atom_site_label
 _atom_site_symmetry_multiplicity
 _atom_site_fract_x
 _atom_site_fract_y
 _atom_site_fract_z
 _atom_site_occupancy
  Cs  Cs0  1  0.22824394  0.86731094  -0.57120248  1.0
  Cs  Cs1  1  1.27175606  0.07120248  -0.36731094  1.0
  Cs  Cs2  1  0.57120248  0.77175606  0.13268906  1.0
  Cs  Cs3  1  1.36731094  -0.27175606  -0.07120248  1.0
  Cs  Cs4  1  0.86731094  0.42879752  0.22824394  1.0
  Cs  Cs5  1  1.07120248  -0.36731094  0.27175606  1.0
  Cs  Cs6  1  0.77175606  0.13268906  -0.42879752  1.0
  Cs  Cs7  1  0.72824394  -0.07120248  0.36731094  1.0
  Cs  Cs8  1  0.42879752  1.22824394  -0.13268906  1.0
  Cs  Cs9  1  0.63268906  0.27175606  0.07120248  1.0
  Cs  Cs10  1  1.13268906  0.57120248  -0.22824394  1.0
  Cs  Cs11  1  0.92879752  0.36731094  -0.27175606  1.0
  Tl  Tl12  1  1.61592172  0.61592172  0.61592172  1.0
  Tl  Tl13  1  0.88407828  -0.11592172  -0.11592172  1.0
  Tl  Tl14  1  1.38407828  0.38407828  0.38407828  1.0
  Tl  Tl15  1  1.11592172  0.11592172  0.11592172  1.0
  Cl  Cl16  1  0.72686858  0.40671874  -0.42181380  1.0
  Cl  Cl17  1  0.77313142  -0.07818620  0.09328126  1.0
  Cl  Cl18  1  0.42181380  1.27313142  -0.40671874  1.0
  Cl  Cl19  1  0.90671874  0.22686858  0.07818620  1.0
  Cl  Cl20  1  1.40671874  0.57818620  -0.27313142  1.0
  Cl  Cl21  1  0.92181380  0.09328126  -0.22686858  1.0
  Cl  Cl22  1  0.27313142  0.59328126  -0.57818620  1.0
  Cl  Cl23  1  1.22686858  0.07818620  -0.09328126  1.0
  Cl  Cl24  1  0.57818620  0.72686858  0.40671874  1.0
  Cl  Cl25  1  1.09328126  -0.22686858  -0.07818620  1.0
  Cl  Cl26  1  0.59328126  0.42181380  0.27313142  1.0
  Cl  Cl27  1  1.07818620  -0.09328126  0.22686858  1.0
  Cl  Cl28  1  0.83372200  -0.35527939  -0.47310185  1.0
  Cl  Cl29  1  0.66627800  -0.02689815  -0.14472061  1.0
  Cl  Cl30  1  1.47310185  0.16627800  0.35527939  1.0
  Cl  Cl31  1  1.14472061  0.33372200  0.02689815  1.0
  Cl  Cl32  1  0.64472061  0.52689815  -0.16627800  1.0
  Cl  Cl33  1  0.97310185  -0.14472061  -0.33372200  1.0
  Cl  Cl34  1  1.16627800  0.35527939  -0.52689815  1.0
  Cl  Cl35  1  1.33372200  0.02689815  0.14472061  1.0
  Cl  Cl36  1  0.52689815  0.83372200  -0.35527939  1.0
  Cl  Cl37  1  0.85527939  -0.33372200  -0.02689815  1.0
  Cl  Cl38  1  1.35527939  0.47310185  0.16627800  1.0
  Cl  Cl39  1  1.02689815  0.14472061  0.33372200  1.0
