# generated using pymatgen
data_Ti5GaSb2
_symmetry_space_group_name_H-M   'P 1'
_cell_length_a   7.84991448
_cell_length_b   7.84991448
_cell_length_c   7.84991448
_cell_angle_alpha   96.29742870
_cell_angle_beta   96.29742870
_cell_angle_gamma   141.31743131
_symmetry_Int_Tables_number   1
_chemical_formula_structural   Ti5GaSb2
_chemical_formula_sum   'Ti10 Ga2 Sb4'
_cell_volume   285.26540068
_cell_formula_units_Z   2
loop_
 _symmetry_equiv_pos_site_id
 _symmetry_equiv_pos_as_xyz
  1  'x, y, z'
loop_
 _atom_site_type_symbol
 _atom_site_label
 _atom_site_symmetry_multiplicity
 _atom_site_fract_x
 _atom_site_fract_y
 _atom_site_fract_z
 _atom_site_occupancy
  Ti  Ti0  1  0.75000000  1.25000000  0.50000000  1.0
  Ti  Ti1  1  0.25000000  0.75000000  0.50000000  1.0
  Ti  Ti2  1  0.07440709  0.21678493  0.29119202  1.0
  Ti  Ti3  1  0.92559291  0.78321507  1.70880798  1.0
  Ti  Ti4  1  0.57440709  1.28321507  0.85762216  1.0
  Ti  Ti5  1  1.42559291  0.71678493  1.14237784  1.0
  Ti  Ti6  1  0.78321507  1.07440709  0.85762216  1.0
  Ti  Ti7  1  1.21678493  0.92559291  1.14237784  1.0
  Ti  Ti8  1  0.71678493  0.57440709  1.29119202  1.0
  Ti  Ti9  1  0.28321507  0.42559291  0.70880798  1.0
  Ga  Ga10  1  0.75000000  0.75000000  0.00000000  1.0
  Ga  Ga11  1  0.25000000  0.25000000  -0.00000000  1.0
  Sb  Sb12  1  0.16412037  0.66412037  0.82824074  1.0
  Sb  Sb13  1  0.83587963  0.33587963  1.17175926  1.0
  Sb  Sb14  1  0.66412037  0.83587963  0.50000000  1.0
  Sb  Sb15  1  1.33587963  1.16412037  1.50000000  1.0
