# generated using pymatgen
data_Li3AlMo2(AsO7)2
_symmetry_space_group_name_H-M   'P 1'
_cell_length_a   9.60317403
_cell_length_b   5.49855903
_cell_length_c   5.27236178
_cell_angle_alpha   106.12136852
_cell_angle_beta   101.90015726
_cell_angle_gamma   97.00375933
_symmetry_Int_Tables_number   1
_chemical_formula_structural   Li3AlMo2(AsO7)2
_chemical_formula_sum   'Li3 Al1 Mo2 As2 O14'
_cell_volume   256.90507858
_cell_formula_units_Z   1
loop_
 _symmetry_equiv_pos_site_id
 _symmetry_equiv_pos_as_xyz
  1  'x, y, z'
loop_
 _atom_site_type_symbol
 _atom_site_label
 _atom_site_symmetry_multiplicity
 _atom_site_fract_x
 _atom_site_fract_y
 _atom_site_fract_z
 _atom_site_occupancy
  Li  Li0  1  -0.81431971  -0.37928130  -0.68318282  1.0
  Li  Li1  1  -0.18568029  -0.62071870  -0.31681718  1.0
  Li  Li2  1  -0.50000000  -0.50000000  -0.50000000  1.0
  Al  Al3  1  0.00000000  0.00000000  0.00000000  1.0
  Mo  Mo4  1  -0.35316253  -0.83931844  -0.99773114  1.0
  Mo  Mo5  1  -0.64683747  -0.16068156  -0.00226886  1.0
  As  As6  1  -0.82439943  -0.77254730  -0.34587020  1.0
  As  As7  1  -0.17560057  -0.22745270  -0.65412980  1.0
  O  O8  1  -0.82255316  -0.13172703  -0.94436885  1.0
  O  O9  1  -0.17744684  -0.86827297  -0.05563115  1.0
  O  O10  1  -0.53618011  -0.83813137  -0.82488998  1.0
  O  O11  1  -0.46381989  -0.16186863  -0.17511002  1.0
  O  O12  1  -0.59527194  -0.33220615  -0.78053132  1.0
  O  O13  1  -0.40472806  -0.66779385  -0.21946868  1.0
  O  O14  1  -0.26968944  -0.97812394  -0.63292607  1.0
  O  O15  1  -0.73031056  -0.02187606  -0.36707393  1.0
  O  O16  1  -0.96053253  -0.80352079  -0.63117453  1.0
  O  O17  1  -0.03946747  -0.19647921  -0.36882547  1.0
  O  O18  1  -0.70929022  -0.49003706  -0.33962760  1.0
  O  O19  1  -0.29070978  -0.50996294  -0.66037240  1.0
  O  O20  1  -0.89538928  -0.70484288  -0.06141045  1.0
  O  O21  1  -0.10461072  -0.29515712  -0.93858955  1.0
