# generated using pymatgen
data_ZnH4(NO4)2
_symmetry_space_group_name_H-M   'P 1'
_cell_length_a   5.69638068
_cell_length_b   6.31916066
_cell_length_c   8.74801696
_cell_angle_alpha   90.00000000
_cell_angle_beta   88.88553637
_cell_angle_gamma   90.00000000
_symmetry_Int_Tables_number   1
_chemical_formula_structural   ZnH4(NO4)2
_chemical_formula_sum   'Zn2 H8 N4 O16'
_cell_volume   314.83706622
_cell_formula_units_Z   2
loop_
 _symmetry_equiv_pos_site_id
 _symmetry_equiv_pos_as_xyz
  1  'x, y, z'
loop_
 _atom_site_type_symbol
 _atom_site_label
 _atom_site_symmetry_multiplicity
 _atom_site_fract_x
 _atom_site_fract_y
 _atom_site_fract_z
 _atom_site_occupancy
  Zn  Zn0  1  0.00000000  0.00000000  0.00000000  1.0
  Zn  Zn1  1  -0.00000000  0.50000000  0.50000000  1.0
  H  H2  1  0.18691599  0.69111174  0.87936491  1.0
  H  H3  1  0.18691599  0.80888826  0.37936491  1.0
  H  H4  1  0.81308401  0.19111174  0.62063509  1.0
  H  H5  1  0.81308401  0.30888826  0.12063509  1.0
  H  H6  1  0.59649536  0.20766355  1.03914014  1.0
  H  H7  1  0.59649536  0.29233645  0.53914014  1.0
  H  H8  1  0.40350464  0.70766355  0.46085986  1.0
  H  H9  1  0.40350464  0.79233645  -0.03914014  1.0
  N  N10  1  0.25093955  0.16944395  0.70601259  1.0
  N  N11  1  0.25093955  0.33055605  0.20601259  1.0
  N  N12  1  0.74906045  0.66944395  0.79398741  1.0
  N  N13  1  0.74906045  0.83055605  0.29398741  1.0
  O  O14  1  0.04604193  0.13313550  0.76260735  1.0
  O  O15  1  0.04604193  0.36686450  0.26260735  1.0
  O  O16  1  0.95395807  0.63313550  0.73739265  1.0
  O  O17  1  0.95395807  0.86686450  0.23739265  1.0
  O  O18  1  0.26729030  0.28153397  0.58339724  1.0
  O  O19  1  0.26729030  0.21846603  0.08339724  1.0
  O  O20  1  0.73270970  0.78153397  0.91660276  1.0
  O  O21  1  0.73270970  0.71846603  0.41660276  1.0
  O  O22  1  0.23479227  0.76020614  0.97492835  1.0
  O  O23  1  0.23479227  0.73979386  0.47492835  1.0
  O  O24  1  0.76520773  0.26020614  0.52507165  1.0
  O  O25  1  0.76520773  0.23979386  0.02507165  1.0
  O  O26  1  0.42902185  0.10063798  0.76514831  1.0
  O  O27  1  0.42902185  0.39936202  0.26514831  1.0
  O  O28  1  0.57097815  0.60063798  0.73485169  1.0
  O  O29  1  0.57097815  0.89936202  0.23485169  1.0
