# generated using pymatgen
data_SrNi5As3
_symmetry_space_group_name_H-M   'P 1'
_cell_length_a   6.42555305
_cell_length_b   6.42555305
_cell_length_c   11.98479339
_cell_angle_alpha   90.00000000
_cell_angle_beta   90.00000000
_cell_angle_gamma   145.82912290
_symmetry_Int_Tables_number   1
_chemical_formula_structural   SrNi5As3
_chemical_formula_sum   'Sr2 Ni10 As6'
_cell_volume   277.92481324
_cell_formula_units_Z   2
loop_
 _symmetry_equiv_pos_site_id
 _symmetry_equiv_pos_as_xyz
  1  'x, y, z'
loop_
 _atom_site_type_symbol
 _atom_site_label
 _atom_site_symmetry_multiplicity
 _atom_site_fract_x
 _atom_site_fract_y
 _atom_site_fract_z
 _atom_site_occupancy
  Sr  Sr0  1  -0.16428951  0.16428951  0.75000000  1.0
  Sr  Sr1  1  0.16428951  0.83571049  0.25000000  1.0
  Ni  Ni2  1  0.19286758  0.80713242  0.93301100  1.0
  Ni  Ni3  1  0.19286758  0.80713242  0.56698900  1.0
  Ni  Ni4  1  -0.19286758  0.19286758  0.43301100  1.0
  Ni  Ni5  1  -0.19286758  0.19286758  0.06698900  1.0
  Ni  Ni6  1  -0.45208085  0.45208085  0.85520525  1.0
  Ni  Ni7  1  -0.45208085  0.45208085  0.64479475  1.0
  Ni  Ni8  1  0.45208085  0.54791915  0.35520525  1.0
  Ni  Ni9  1  0.45208085  0.54791915  0.14479475  1.0
  Ni  Ni10  1  0.00000000  0.00000000  0.00000000  1.0
  Ni  Ni11  1  0.00000000  0.00000000  0.50000000  1.0
  As  As12  1  0.37887423  0.62112577  0.95921991  1.0
  As  As13  1  0.37887423  0.62112577  0.54078009  1.0
  As  As14  1  -0.37887423  0.37887423  0.45921991  1.0
  As  As15  1  -0.37887423  0.37887423  0.04078009  1.0
  As  As16  1  0.11307107  0.88692893  0.75000000  1.0
  As  As17  1  -0.11307107  0.11307107  0.25000000  1.0
