# generated using pymatgen
data_YCrTeO6
_symmetry_space_group_name_H-M   'P 1'
_cell_length_a   5.21002166
_cell_length_b   5.21002166
_cell_length_c   9.81121726
_cell_angle_alpha   90.00000000
_cell_angle_beta   90.00000000
_cell_angle_gamma   120.00000000
_symmetry_Int_Tables_number   1
_chemical_formula_structural   YCrTeO6
_chemical_formula_sum   'Y2 Cr2 Te2 O12'
_cell_volume   230.63891322
_cell_formula_units_Z   2
loop_
 _symmetry_equiv_pos_site_id
 _symmetry_equiv_pos_as_xyz
  1  'x, y, z'
loop_
 _atom_site_type_symbol
 _atom_site_label
 _atom_site_symmetry_multiplicity
 _atom_site_fract_x
 _atom_site_fract_y
 _atom_site_fract_z
 _atom_site_occupancy
  Y  Y0  1  0.00000000  0.00000000  0.00000000  1.0
  Y  Y1  1  0.00000000  0.00000000  0.50000000  1.0
  Cr  Cr2  1  0.66666667  0.33333333  0.75000000  1.0
  Cr  Cr3  1  0.33333333  0.66666667  0.25000000  1.0
  Te  Te4  1  0.66666667  0.33333333  0.25000000  1.0
  Te  Te5  1  0.33333333  0.66666667  0.75000000  1.0
  O  O6  1  0.64367549  0.00488544  0.86136386  1.0
  O  O7  1  0.36120995  0.35632451  0.86136386  1.0
  O  O8  1  -0.00488544  0.63879005  0.86136386  1.0
  O  O9  1  0.35632451  -0.00488544  0.13863614  1.0
  O  O10  1  0.63879005  0.64367549  0.13863614  1.0
  O  O11  1  0.00488544  0.36120995  0.13863614  1.0
  O  O12  1  0.36120995  0.00488544  0.63863614  1.0
  O  O13  1  0.64367549  0.63879005  0.63863614  1.0
  O  O14  1  -0.00488544  0.35632451  0.63863614  1.0
  O  O15  1  0.63879005  -0.00488544  0.36136386  1.0
  O  O16  1  0.35632451  0.36120995  0.36136386  1.0
  O  O17  1  0.00488544  0.64367549  0.36136386  1.0
