# generated using pymatgen
data_Y2PdO4
_symmetry_space_group_name_H-M   'P 1'
_cell_length_a   6.75377557
_cell_length_b   6.75377557
_cell_length_c   6.75377557
_cell_angle_alpha   120.07450038
_cell_angle_beta   120.07450038
_cell_angle_gamma   89.87100992
_symmetry_Int_Tables_number   1
_chemical_formula_structural   Y2PdO4
_chemical_formula_sum   'Y4 Pd2 O8'
_cell_volume   217.58770998
_cell_formula_units_Z   2
loop_
 _symmetry_equiv_pos_site_id
 _symmetry_equiv_pos_as_xyz
  1  'x, y, z'
loop_
 _atom_site_type_symbol
 _atom_site_label
 _atom_site_symmetry_multiplicity
 _atom_site_fract_x
 _atom_site_fract_y
 _atom_site_fract_z
 _atom_site_occupancy
  Y  Y0  1  0.37500000  0.62500000  0.75000000  1.0
  Y  Y1  1  0.87500000  0.62500000  1.25000000  1.0
  Y  Y2  1  0.37500000  1.12500000  0.75000000  1.0
  Y  Y3  1  0.37500000  0.62500000  0.25000000  1.0
  Pd  Pd4  1  0.00000000  0.00000000  0.00000000  1.0
  Pd  Pd5  1  0.75000000  0.25000000  0.50000000  1.0
  O  O6  1  1.13760587  0.86343690  1.72582328  1.0
  O  O7  1  0.61238638  0.83821741  1.22582328  1.0
  O  O8  1  1.13656310  0.86238638  1.27416897  1.0
  O  O9  1  1.16178259  1.38760587  1.77416897  1.0
  O  O10  1  0.13761362  0.41178259  0.27417672  1.0
  O  O11  1  0.61239413  0.38656310  0.77417672  1.0
  O  O12  1  0.58821741  0.86239413  0.72583103  1.0
  O  O13  1  0.61343690  0.38761362  0.22583103  1.0
