# generated using pymatgen
data_BaCu9Sn4
_symmetry_space_group_name_H-M   'P 1'
_cell_length_a   8.85760976
_cell_length_b   8.85760976
_cell_length_c   8.85760976
_cell_angle_alpha   120.55254978
_cell_angle_beta   120.55254978
_cell_angle_gamma   89.04559072
_symmetry_Int_Tables_number   1
_chemical_formula_structural   BaCu9Sn4
_chemical_formula_sum   'Ba2 Cu18 Sn8'
_cell_volume   487.22204545
_cell_formula_units_Z   2
loop_
 _symmetry_equiv_pos_site_id
 _symmetry_equiv_pos_as_xyz
  1  'x, y, z'
loop_
 _atom_site_type_symbol
 _atom_site_label
 _atom_site_symmetry_multiplicity
 _atom_site_fract_x
 _atom_site_fract_y
 _atom_site_fract_z
 _atom_site_occupancy
  Ba  Ba0  1  0.75000000  0.75000000  1.00000000  1.0
  Ba  Ba1  1  0.25000000  0.25000000  -0.00000000  1.0
  Cu  Cu2  1  0.71879378  1.21879378  1.28469238  1.0
  Cu  Cu3  1  1.06589860  0.56589860  1.28469238  1.0
  Cu  Cu4  1  0.43410140  0.71879378  0.50000000  1.0
  Cu  Cu5  1  0.78120622  1.06589860  1.50000000  1.0
  Cu  Cu6  1  1.21879378  0.93410140  1.50000000  1.0
  Cu  Cu7  1  0.56589860  0.28120622  0.50000000  1.0
  Cu  Cu8  1  0.93410140  0.43410140  0.71530762  1.0
  Cu  Cu9  1  0.28120622  0.78120622  0.71530762  1.0
  Cu  Cu10  1  0.79642909  0.94591426  1.74234335  1.0
  Cu  Cu11  1  0.70357091  0.44591426  1.14948516  1.0
  Cu  Cu12  1  0.44591426  0.29642909  0.74234335  1.0
  Cu  Cu13  1  0.05408574  0.79642909  0.85051484  1.0
  Cu  Cu14  1  0.29642909  0.55408574  0.85051484  1.0
  Cu  Cu15  1  0.20357091  0.05408574  0.25765665  1.0
  Cu  Cu16  1  0.94591426  0.20357091  1.14948516  1.0
  Cu  Cu17  1  0.55408574  0.70357091  1.25765665  1.0
  Cu  Cu18  1  0.50000000  -0.00000000  0.50000000  1.0
  Cu  Cu19  1  -0.00000000  0.50000000  0.50000000  1.0
  Sn  Sn20  1  1.19013393  0.69013393  1.13017002  1.0
  Sn  Sn21  1  0.44003609  0.94003609  1.13017002  1.0
  Sn  Sn22  1  1.05996391  1.19013393  1.50000000  1.0
  Sn  Sn23  1  0.30986607  0.44003609  0.50000000  1.0
  Sn  Sn24  1  0.69013393  0.55996391  0.50000000  1.0
  Sn  Sn25  1  0.94003609  0.80986607  1.50000000  1.0
  Sn  Sn26  1  0.55996391  1.05996391  0.86982998  1.0
  Sn  Sn27  1  0.80986607  0.30986607  0.86982998  1.0
