# generated using pymatgen
data_Na4BrN3
_symmetry_space_group_name_H-M   'P 1'
_cell_length_a   6.87582381
_cell_length_b   9.40748108
_cell_length_c   10.03878923
_cell_angle_alpha   90.00000000
_cell_angle_beta   90.00000000
_cell_angle_gamma   90.00000000
_symmetry_Int_Tables_number   1
_chemical_formula_structural   Na4BrN3
_chemical_formula_sum   'Na16 Br4 N12'
_cell_volume   649.35087325
_cell_formula_units_Z   4
loop_
 _symmetry_equiv_pos_site_id
 _symmetry_equiv_pos_as_xyz
  1  'x, y, z'
loop_
 _atom_site_type_symbol
 _atom_site_label
 _atom_site_symmetry_multiplicity
 _atom_site_fract_x
 _atom_site_fract_y
 _atom_site_fract_z
 _atom_site_occupancy
  Na  Na0  1  0.11556701  0.67434227  0.28412813  1.0
  Na  Na1  1  0.11556701  0.67434227  0.71587187  1.0
  Na  Na2  1  0.61556701  0.82565773  0.78412813  1.0
  Na  Na3  1  0.61556701  0.82565773  0.21587187  1.0
  Na  Na4  1  0.88443299  0.32565773  0.28412813  1.0
  Na  Na5  1  0.88443299  0.32565773  0.71587187  1.0
  Na  Na6  1  0.38443299  0.17434227  0.78412813  1.0
  Na  Na7  1  0.38443299  0.17434227  0.21587187  1.0
  Na  Na8  1  0.25560779  0.91885753  0.50000000  1.0
  Na  Na9  1  0.75560779  0.58114247  0.00000000  1.0
  Na  Na10  1  0.74439221  0.08114247  0.50000000  1.0
  Na  Na11  1  0.24439221  0.41885753  0.00000000  1.0
  Na  Na12  1  0.50000000  0.50000000  0.34995773  1.0
  Na  Na13  1  0.50000000  0.50000000  0.65004227  1.0
  Na  Na14  1  0.00000000  0.00000000  0.84995773  1.0
  Na  Na15  1  0.00000000  0.00000000  0.15004227  1.0
  Br  Br16  1  0.15693709  0.21207086  0.50000000  1.0
  Br  Br17  1  0.65693709  0.28792914  0.00000000  1.0
  Br  Br18  1  0.84306291  0.78792914  0.50000000  1.0
  Br  Br19  1  0.34306291  0.71207086  0.00000000  1.0
  N  N20  1  0.29169088  0.92202659  0.26551328  1.0
  N  N21  1  0.29169088  0.92202659  0.73448672  1.0
  N  N22  1  0.79169088  0.57797341  0.76551328  1.0
  N  N23  1  0.79169088  0.57797341  0.23448672  1.0
  N  N24  1  0.70830912  0.07797341  0.26551328  1.0
  N  N25  1  0.70830912  0.07797341  0.73448672  1.0
  N  N26  1  0.20830912  0.42202659  0.76551328  1.0
  N  N27  1  0.20830912  0.42202659  0.23448672  1.0
  N  N28  1  0.34106280  0.67106471  0.50000000  1.0
  N  N29  1  0.84106280  0.82893529  0.00000000  1.0
  N  N30  1  0.65893720  0.32893529  0.50000000  1.0
  N  N31  1  0.15893720  0.17106471  0.00000000  1.0
