# generated using pymatgen
data_Ag5HgSbO6
_symmetry_space_group_name_H-M   'P 1'
_cell_length_a   6.01487705
_cell_length_b   6.01487705
_cell_length_c   12.51009099
_cell_angle_alpha   90.00000000
_cell_angle_beta   90.00000000
_cell_angle_gamma   120.00000000
_symmetry_Int_Tables_number   1
_chemical_formula_structural   Ag5HgSbO6
_chemical_formula_sum   'Ag10 Hg2 Sb2 O12'
_cell_volume   391.96258161
_cell_formula_units_Z   2
loop_
 _symmetry_equiv_pos_site_id
 _symmetry_equiv_pos_as_xyz
  1  'x, y, z'
loop_
 _atom_site_type_symbol
 _atom_site_label
 _atom_site_symmetry_multiplicity
 _atom_site_fract_x
 _atom_site_fract_y
 _atom_site_fract_z
 _atom_site_occupancy
  Ag  Ag0  1  0.50000000  0.50000000  0.00000000  1.0
  Ag  Ag1  1  0.50000000  -0.00000000  0.50000000  1.0
  Ag  Ag2  1  0.50000000  0.50000000  0.50000000  1.0
  Ag  Ag3  1  0.50000000  -0.00000000  0.00000000  1.0
  Ag  Ag4  1  -0.00000000  0.50000000  0.50000000  1.0
  Ag  Ag5  1  -0.00000000  0.50000000  -0.00000000  1.0
  Ag  Ag6  1  -0.00000000  -0.00000000  0.11817895  1.0
  Ag  Ag7  1  0.00000000  0.00000000  0.38182105  1.0
  Ag  Ag8  1  -0.00000000  -0.00000000  0.61817895  1.0
  Ag  Ag9  1  0.00000000  0.00000000  0.88182105  1.0
  Hg  Hg10  1  0.66666667  0.33333333  0.25000000  1.0
  Hg  Hg11  1  0.33333333  0.66666667  0.75000000  1.0
  Sb  Sb12  1  0.33333333  0.66666667  0.25000000  1.0
  Sb  Sb13  1  0.66666667  0.33333333  0.75000000  1.0
  O  O14  1  0.34949435  0.95543928  0.15758078  1.0
  O  O15  1  0.34949435  0.39405508  0.34241922  1.0
  O  O16  1  0.95543928  0.34949435  0.65758078  1.0
  O  O17  1  0.95543928  0.60594492  0.84241922  1.0
  O  O18  1  0.60594492  0.95543928  0.34241922  1.0
  O  O19  1  0.60594492  0.65050565  0.15758078  1.0
  O  O20  1  0.04456072  0.65050565  0.34241922  1.0
  O  O21  1  0.04456072  0.39405508  0.15758078  1.0
  O  O22  1  0.65050565  0.60594492  0.65758078  1.0
  O  O23  1  0.65050565  0.04456072  0.84241922  1.0
  O  O24  1  0.39405508  0.34949435  0.84241922  1.0
  O  O25  1  0.39405508  0.04456072  0.65758078  1.0
