# generated using pymatgen
data_LaCr4(CuO4)3
_symmetry_space_group_name_H-M   'P 1'
_cell_length_a   6.36819327
_cell_length_b   6.36819327
_cell_length_c   6.36819327
_cell_angle_alpha   109.47122063
_cell_angle_beta   109.47122063
_cell_angle_gamma   109.47122063
_symmetry_Int_Tables_number   1
_chemical_formula_structural   LaCr4(CuO4)3
_chemical_formula_sum   'La1 Cr4 Cu3 O12'
_cell_volume   198.80477663
_cell_formula_units_Z   1
loop_
 _symmetry_equiv_pos_site_id
 _symmetry_equiv_pos_as_xyz
  1  'x, y, z'
loop_
 _atom_site_type_symbol
 _atom_site_label
 _atom_site_symmetry_multiplicity
 _atom_site_fract_x
 _atom_site_fract_y
 _atom_site_fract_z
 _atom_site_occupancy
  La  La0  1  0.00000000  0.00000000  0.00000000  1.0
  Cr  Cr1  1  0.50000000  1.00000000  1.00000000  1.0
  Cr  Cr2  1  0.50000000  0.50000000  0.50000000  1.0
  Cr  Cr3  1  1.00000000  1.00000000  0.50000000  1.0
  Cr  Cr4  1  1.00000000  0.50000000  1.00000000  1.0
  Cu  Cu5  1  0.50000000  0.50000000  0.00000000  1.0
  Cu  Cu6  1  0.00000000  0.50000000  0.50000000  1.0
  Cu  Cu7  1  0.50000000  0.00000000  0.50000000  1.0
  O  O8  1  0.81740703  1.30099995  1.11840699  1.0
  O  O9  1  0.81740703  0.69900005  0.51640708  1.0
  O  O10  1  0.18259297  0.30099995  0.48359292  1.0
  O  O11  1  0.18259297  0.69900005  0.88159301  1.0
  O  O12  1  0.51640708  0.81740703  0.69900005  1.0
  O  O13  1  1.11840699  0.81740703  1.30099995  1.0
  O  O14  1  0.69900005  0.88159301  0.18259297  1.0
  O  O15  1  0.69900005  0.51640708  0.81740703  1.0
  O  O16  1  0.88159301  0.18259297  0.69900005  1.0
  O  O17  1  0.48359292  0.18259297  0.30099995  1.0
  O  O18  1  0.30099995  0.48359292  0.18259297  1.0
  O  O19  1  1.30099995  1.11840699  0.81740703  1.0
