# generated using pymatgen
data_Cd2Os(CN)6
_symmetry_space_group_name_H-M   'P 1'
_cell_length_a   6.43772670
_cell_length_b   6.43772670
_cell_length_c   6.64822211
_cell_angle_alpha   90.00000000
_cell_angle_beta   90.00000000
_cell_angle_gamma   120.00000000
_symmetry_Int_Tables_number   1
_chemical_formula_structural   Cd2Os(CN)6
_chemical_formula_sum   'Cd2 Os1 C6 N6'
_cell_volume   238.61691330
_cell_formula_units_Z   1
loop_
 _symmetry_equiv_pos_site_id
 _symmetry_equiv_pos_as_xyz
  1  'x, y, z'
loop_
 _atom_site_type_symbol
 _atom_site_label
 _atom_site_symmetry_multiplicity
 _atom_site_fract_x
 _atom_site_fract_y
 _atom_site_fract_z
 _atom_site_occupancy
  Cd  Cd0  1  0.33333333  0.66666667  0.49996386  1.0
  Cd  Cd1  1  0.66666667  0.33333333  0.50003614  1.0
  Os  Os2  1  0.00000000  0.00000000  0.00000000  1.0
  C  C3  1  0.24727136  1.00002116  0.18496335  1.0
  C  C4  1  1.00002116  0.75274980  0.81503665  1.0
  C  C5  1  0.75274980  0.75272864  0.18496335  1.0
  C  C6  1  -0.00002116  0.24725020  0.18496335  1.0
  C  C7  1  0.75272864  -0.00002116  0.81503665  1.0
  C  C8  1  0.24725020  0.24727136  0.81503665  1.0
  N  N9  1  0.38252994  1.00002755  0.30553684  1.0
  N  N10  1  1.00002755  0.61749761  0.69446316  1.0
  N  N11  1  0.61749761  0.61747006  0.30553684  1.0
  N  N12  1  -0.00002755  0.38250239  0.30553684  1.0
  N  N13  1  0.61747006  -0.00002755  0.69446316  1.0
  N  N14  1  0.38250239  0.38252994  0.69446316  1.0
