# generated using pymatgen
data_K3Na4Si3BF22
_symmetry_space_group_name_H-M   'P 1'
_cell_length_a   10.33222596
_cell_length_b   10.33222596
_cell_length_c   10.33222596
_cell_angle_alpha   148.26070417
_cell_angle_beta   64.28954458
_cell_angle_gamma   125.68813206
_symmetry_Int_Tables_number   1
_chemical_formula_structural   K3Na4Si3BF22
_chemical_formula_sum   'K3 Na4 Si3 B1 F22'
_cell_volume   466.24125481
_cell_formula_units_Z   1
loop_
 _symmetry_equiv_pos_site_id
 _symmetry_equiv_pos_as_xyz
  1  'x, y, z'
loop_
 _atom_site_type_symbol
 _atom_site_label
 _atom_site_symmetry_multiplicity
 _atom_site_fract_x
 _atom_site_fract_y
 _atom_site_fract_z
 _atom_site_occupancy
  K  K0  1  0.54068921  0.16781379  0.37287542  1.0
  K  K1  1  0.79493838  1.16781379  0.62712458  1.0
  K  K2  1  -0.00382339  -0.00382339  -0.00000000  1.0
  Na  Na3  1  0.48053060  0.34015464  0.14037595  1.0
  Na  Na4  1  1.19977869  1.34015464  0.85962405  1.0
  Na  Na5  1  0.92366776  0.59380588  0.32986187  1.0
  Na  Na6  1  0.26394401  0.59380588  0.67013813  1.0
  Si  Si7  1  1.14681145  0.92980338  0.21700807  1.0
  Si  Si8  1  0.71279531  0.92980338  0.78299193  1.0
  Si  Si9  1  0.23361816  0.73361816  0.50000000  1.0
  B  B10  1  0.62893118  0.62893118  -0.00000000  1.0
  F  F11  1  1.15701267  1.51262356  1.21488621  1.0
  F  F12  1  0.29773735  0.51262356  0.35561089  1.0
  F  F13  1  1.15701267  0.94212646  0.64438911  1.0
  F  F14  1  0.29773735  0.94212646  0.78511379  1.0
  F  F15  1  1.23618238  1.73462306  1.06928667  1.0
  F  F16  1  0.66533640  0.73462306  0.49844068  1.0
  F  F17  1  1.23618238  1.16689572  0.50155932  1.0
  F  F18  1  0.66533640  1.16689572  0.93071333  1.0
  F  F19  1  1.06302581  1.69883131  0.93192818  1.0
  F  F20  1  0.76690313  0.69883131  0.63580550  1.0
  F  F21  1  1.06302581  1.13109763  0.36419450  1.0
  F  F22  1  0.76690313  1.13109763  1.06807182  1.0
  F  F23  1  0.61200211  0.54531022  0.06669188  1.0
  F  F24  1  0.47861834  0.54531022  0.93330812  1.0
  F  F25  1  0.31685107  0.11241074  0.20444033  1.0
  F  F26  1  0.90797040  1.11241074  0.79555967  1.0
  F  F27  1  0.98161160  0.75124725  0.23036435  1.0
  F  F28  1  0.52088290  0.75124725  0.76963565  1.0
  F  F29  1  0.71684733  1.51184869  0.79500136  1.0
  F  F30  1  0.71684733  0.92184598  0.20499864  1.0
  F  F31  1  0.41172341  0.91172341  0.50000000  1.0
  F  F32  1  0.05046865  0.55046865  0.50000000  1.0
