# generated using pymatgen
data_Sr8Co8O23
_symmetry_space_group_name_H-M   'P 1'
_cell_length_a   8.58088796
_cell_length_b   8.58088796
_cell_length_c   8.58088796
_cell_angle_alpha   101.46264393
_cell_angle_beta   101.46264393
_cell_angle_gamma   127.05217354
_symmetry_Int_Tables_number   1
_chemical_formula_structural   Sr8Co8O23
_chemical_formula_sum   'Sr8 Co8 O23'
_cell_volume   451.37420406
_cell_formula_units_Z   1
loop_
 _symmetry_equiv_pos_site_id
 _symmetry_equiv_pos_as_xyz
  1  'x, y, z'
loop_
 _atom_site_type_symbol
 _atom_site_label
 _atom_site_symmetry_multiplicity
 _atom_site_fract_x
 _atom_site_fract_y
 _atom_site_fract_z
 _atom_site_occupancy
  Co  Co0  1  0.50000000  0.50000000  0.50000000  1.0
  Co  Co1  1  1.00000000  1.00000000  0.50000000  1.0
  Co  Co2  1  1.00000000  0.50000000  1.00000000  1.0
  Co  Co3  1  1.50000000  1.00000000  1.00000000  1.0
  Co  Co4  1  0.25000000  0.75000000  0.50000000  1.0
  Co  Co5  1  0.75000000  1.25000000  0.50000000  1.0
  Co  Co6  1  0.75823164  0.75823164  -0.00000000  1.0
  Co  Co7  1  0.24176836  0.24176836  0.00000000  1.0
  Sr  Sr8  1  0.50000000  0.75829772  0.25829772  1.0
  Sr  Sr9  1  0.75829772  0.50000000  1.25829772  1.0
  Sr  Sr10  1  0.24170228  0.50000000  0.74170228  1.0
  Sr  Sr11  1  0.50000000  1.24170228  0.74170228  1.0
  Sr  Sr12  1  -0.00000000  0.74710626  0.74710626  1.0
  Sr  Sr13  1  0.74710626  1.00000000  0.74710626  1.0
  Sr  Sr14  1  1.25289374  1.00000000  1.25289374  1.0
  Sr  Sr15  1  -0.00000000  0.25289374  0.25289374  1.0
  O  O16  1  0.00000000  0.00000000  0.00000000  1.0
  O  O17  1  0.60503657  0.60503657  0.75972552  1.0
  O  O18  1  1.15468895  1.15468895  0.75972552  1.0
  O  O19  1  0.84531105  0.60503657  1.00000000  1.0
  O  O20  1  1.39496343  1.15468895  1.00000000  1.0
  O  O21  1  1.60503657  0.84531105  1.00000000  1.0
  O  O22  1  1.15468895  0.39496343  1.00000000  1.0
  O  O23  1  0.84531105  0.84531105  0.24027448  1.0
  O  O24  1  0.39496343  0.39496343  0.24027448  1.0
  O  O25  1  1.12447849  0.62447849  1.24895698  1.0
  O  O26  1  1.62447849  1.12447849  1.24895698  1.0
  O  O27  1  0.37552151  0.62447849  0.50000000  1.0
  O  O28  1  0.87552151  1.12447849  0.50000000  1.0
  O  O29  1  1.12447849  0.87552151  1.50000000  1.0
  O  O30  1  1.62447849  1.37552151  1.50000000  1.0
  O  O31  1  0.37552151  0.87552151  0.75104302  1.0
  O  O32  1  0.87552151  1.37552151  0.75104302  1.0
  O  O33  1  0.76074850  0.76074850  0.52149699  1.0
  O  O34  1  1.23925150  0.76074850  1.00000000  1.0
  O  O35  1  0.76074850  0.23925150  1.00000000  1.0
  O  O36  1  0.23925150  0.23925150  0.47850301  1.0
  O  O37  1  0.50000000  1.00000000  0.50000000  1.0
  O  O38  1  -0.00000000  0.50000000  0.50000000  1.0
