# generated using pymatgen
data_Cs2LaCl5
_symmetry_space_group_name_H-M   'P 1'
_cell_length_a   14.12033279
_cell_length_b   9.28383950
_cell_length_c   8.70823321
_cell_angle_alpha   90.00000000
_cell_angle_beta   90.00000000
_cell_angle_gamma   90.00000000
_symmetry_Int_Tables_number   1
_chemical_formula_structural   Cs2LaCl5
_chemical_formula_sum   'Cs8 La4 Cl20'
_cell_volume   1141.57015729
_cell_formula_units_Z   4
loop_
 _symmetry_equiv_pos_site_id
 _symmetry_equiv_pos_as_xyz
  1  'x, y, z'
loop_
 _atom_site_type_symbol
 _atom_site_label
 _atom_site_symmetry_multiplicity
 _atom_site_fract_x
 _atom_site_fract_y
 _atom_site_fract_z
 _atom_site_occupancy
  Cs  Cs0  1  0.67036350  0.99536467  0.44332004  1.0
  Cs  Cs1  1  0.67036350  0.50463533  0.44332004  1.0
  Cs  Cs2  1  0.17036350  0.99536467  0.05667996  1.0
  Cs  Cs3  1  0.17036350  0.50463533  0.05667996  1.0
  Cs  Cs4  1  0.32963650  0.49536467  0.55667996  1.0
  Cs  Cs5  1  0.32963650  0.00463533  0.55667996  1.0
  Cs  Cs6  1  0.82963650  0.49536467  0.94332004  1.0
  Cs  Cs7  1  0.82963650  0.00463533  0.94332004  1.0
  La  La8  1  0.99605596  0.25000000  0.43533884  1.0
  La  La9  1  0.49605596  0.25000000  0.06466116  1.0
  La  La10  1  0.00394404  0.75000000  0.56466116  1.0
  La  La11  1  0.50394404  0.75000000  0.93533884  1.0
  Cl  Cl12  1  0.68926651  0.25000000  0.14501808  1.0
  Cl  Cl13  1  0.18926651  0.25000000  0.35498192  1.0
  Cl  Cl14  1  0.31073349  0.75000000  0.85498192  1.0
  Cl  Cl15  1  0.81073349  0.75000000  0.64501808  1.0
  Cl  Cl16  1  0.82858019  0.25000000  0.61141449  1.0
  Cl  Cl17  1  0.32858019  0.25000000  0.88858551  1.0
  Cl  Cl18  1  0.17141981  0.75000000  0.38858551  1.0
  Cl  Cl19  1  0.67141981  0.75000000  0.11141449  1.0
  Cl  Cl20  1  0.98545939  0.25000000  0.11018986  1.0
  Cl  Cl21  1  0.48545939  0.25000000  0.38981014  1.0
  Cl  Cl22  1  0.01454061  0.75000000  0.88981014  1.0
  Cl  Cl23  1  0.51454061  0.75000000  0.61018986  1.0
  Cl  Cl24  1  0.93177539  0.95978532  0.34316930  1.0
  Cl  Cl25  1  0.93177539  0.54021468  0.34316930  1.0
  Cl  Cl26  1  0.43177539  0.95978532  0.15683070  1.0
  Cl  Cl27  1  0.43177539  0.54021468  0.15683070  1.0
  Cl  Cl28  1  0.06822461  0.45978532  0.65683070  1.0
  Cl  Cl29  1  0.06822461  0.04021468  0.65683070  1.0
  Cl  Cl30  1  0.56822461  0.45978532  0.84316930  1.0
  Cl  Cl31  1  0.56822461  0.04021468  0.84316930  1.0
