# generated using pymatgen
data_KY(CO)8
_symmetry_space_group_name_H-M   'P 1'
_cell_length_a   6.29708638
_cell_length_b   6.29708638
_cell_length_c   11.67264690
_cell_angle_alpha   90.00000000
_cell_angle_beta   90.00000000
_cell_angle_gamma   90.00000000
_symmetry_Int_Tables_number   1
_chemical_formula_structural   KY(CO)8
_chemical_formula_sum   'K2 Y2 C16 O16'
_cell_volume   462.85893214
_cell_formula_units_Z   2
loop_
 _symmetry_equiv_pos_site_id
 _symmetry_equiv_pos_as_xyz
  1  'x, y, z'
loop_
 _atom_site_type_symbol
 _atom_site_label
 _atom_site_symmetry_multiplicity
 _atom_site_fract_x
 _atom_site_fract_y
 _atom_site_fract_z
 _atom_site_occupancy
  K  K0  1  0.50000000  0.50000000  0.75000000  1.0
  K  K1  1  0.50000000  0.50000000  0.25000000  1.0
  Y  Y2  1  0.00000000  0.00000000  0.75000000  1.0
  Y  Y3  1  0.00000000  0.00000000  0.25000000  1.0
  C  C4  1  0.93716380  0.59837252  0.93685113  1.0
  C  C5  1  0.93716380  0.59837252  0.06314887  1.0
  C  C6  1  0.93716380  0.40162748  0.43685113  1.0
  C  C7  1  0.93716380  0.40162748  0.56314887  1.0
  C  C8  1  0.59837252  0.93716380  0.43685113  1.0
  C  C9  1  0.59837252  0.93716380  0.56314887  1.0
  C  C10  1  0.59837252  0.06283620  0.93685113  1.0
  C  C11  1  0.59837252  0.06283620  0.06314887  1.0
  C  C12  1  0.06283620  0.59837252  0.43685113  1.0
  C  C13  1  0.06283620  0.59837252  0.56314887  1.0
  C  C14  1  0.06283620  0.40162748  0.93685113  1.0
  C  C15  1  0.06283620  0.40162748  0.06314887  1.0
  C  C16  1  0.40162748  0.93716380  0.93685113  1.0
  C  C17  1  0.40162748  0.93716380  0.06314887  1.0
  C  C18  1  0.40162748  0.06283620  0.43685113  1.0
  C  C19  1  0.40162748  0.06283620  0.56314887  1.0
  O  O20  1  0.85770051  0.71565001  0.86056391  1.0
  O  O21  1  0.85770051  0.71565001  0.13943609  1.0
  O  O22  1  0.85770051  0.28434999  0.36056391  1.0
  O  O23  1  0.85770051  0.28434999  0.63943609  1.0
  O  O24  1  0.71565001  0.85770051  0.36056391  1.0
  O  O25  1  0.71565001  0.85770051  0.63943609  1.0
  O  O26  1  0.71565001  0.14229949  0.86056391  1.0
  O  O27  1  0.71565001  0.14229949  0.13943609  1.0
  O  O28  1  0.14229949  0.71565001  0.36056391  1.0
  O  O29  1  0.14229949  0.71565001  0.63943609  1.0
  O  O30  1  0.14229949  0.28434999  0.86056391  1.0
  O  O31  1  0.14229949  0.28434999  0.13943609  1.0
  O  O32  1  0.28434999  0.85770051  0.86056391  1.0
  O  O33  1  0.28434999  0.85770051  0.13943609  1.0
  O  O34  1  0.28434999  0.14229949  0.36056391  1.0
  O  O35  1  0.28434999  0.14229949  0.63943609  1.0
