# generated using pymatgen
data_MnBiO3
_symmetry_space_group_name_H-M   'P 1'
_cell_length_a   9.62678075
_cell_length_b   5.60159854
_cell_length_c   9.76334290
_cell_angle_alpha   90.00000000
_cell_angle_beta   109.04481376
_cell_angle_gamma   90.00000000
_symmetry_Int_Tables_number   1
_chemical_formula_structural   MnBiO3
_chemical_formula_sum   'Mn8 Bi8 O24'
_cell_volume   497.67354902
_cell_formula_units_Z   8
loop_
 _symmetry_equiv_pos_site_id
 _symmetry_equiv_pos_as_xyz
  1  'x, y, z'
loop_
 _atom_site_type_symbol
 _atom_site_label
 _atom_site_symmetry_multiplicity
 _atom_site_fract_x
 _atom_site_fract_y
 _atom_site_fract_z
 _atom_site_occupancy
  Mn  Mn0  1  0.74997897  0.53313032  0.75001077  1.0
  Mn  Mn1  1  0.25002103  0.53313032  0.24998923  1.0
  Mn  Mn2  1  0.75001645  0.03308956  0.24999184  1.0
  Mn  Mn3  1  0.24998355  0.03308956  0.75000816  1.0
  Mn  Mn4  1  0.50000000  0.04609890  0.50000000  1.0
  Mn  Mn5  1  0.50000000  0.52008382  0.00000000  1.0
  Mn  Mn6  1  -0.00000000  0.54615897  0.50000000  1.0
  Mn  Mn7  1  0.00000000  0.02006055  0.00000000  1.0
  Bi  Bi8  1  0.86547995  -0.00754833  0.62078602  1.0
  Bi  Bi9  1  0.13452005  -0.00754833  0.37921398  1.0
  Bi  Bi10  1  0.63454034  0.49240681  0.37923589  1.0
  Bi  Bi11  1  0.36545966  0.49240681  0.62076411  1.0
  Bi  Bi12  1  0.63451255  0.07380856  0.87921459  1.0
  Bi  Bi13  1  0.36548745  0.07380856  0.12078541  1.0
  Bi  Bi14  1  0.13450650  0.57374363  0.87919193  1.0
  Bi  Bi15  1  0.86549350  0.57374363  0.12080807  1.0
  O  O16  1  0.91064945  0.97676440  0.16405496  1.0
  O  O17  1  0.08935055  0.97676440  0.83594504  1.0
  O  O18  1  0.91061625  0.58947593  0.66403017  1.0
  O  O19  1  0.08938375  0.58947593  0.33596983  1.0
  O  O20  1  0.84749604  0.31867524  0.38007148  1.0
  O  O21  1  0.15250396  0.31867524  0.61992852  1.0
  O  O22  1  0.84750127  0.24759971  0.88010095  1.0
  O  O23  1  0.15249873  0.24759971  0.11989905  1.0
  O  O24  1  0.85293830  0.75153848  0.90738470  1.0
  O  O25  1  0.14706170  0.75153848  0.09261530  1.0
  O  O26  1  0.85294593  0.81467777  0.40736732  1.0
  O  O27  1  0.14705407  0.81467777  0.59263268  1.0
  O  O28  1  0.64703193  0.31471403  0.59263141  1.0
  O  O29  1  0.35296807  0.31471403  0.40736859  1.0
  O  O30  1  0.65251498  0.81866587  0.61990774  1.0
  O  O31  1  0.34748502  0.81866587  0.38009226  1.0
  O  O32  1  0.58934879  0.47679506  0.83596870  1.0
  O  O33  1  0.41065121  0.47679506  0.16403130  1.0
  O  O34  1  0.41060313  0.08942592  0.66400940  1.0
  O  O35  1  0.58939687  0.08942592  0.33599060  1.0
  O  O36  1  0.34748424  0.74761811  0.88015101  1.0
  O  O37  1  0.65251576  0.74761811  0.11984899  1.0
  O  O38  1  0.35295897  0.25151778  0.90738022  1.0
  O  O39  1  0.64704103  0.25151778  0.09261978  1.0
