# generated using pymatgen
data_CsTi3P5O19
_symmetry_space_group_name_H-M   'P 1'
_cell_length_a   8.59707067
_cell_length_b   8.59707067
_cell_length_c   6.40713023
_cell_angle_alpha   81.28281589
_cell_angle_beta   98.71718411
_cell_angle_gamma   66.93650633
_symmetry_Int_Tables_number   1
_chemical_formula_structural   CsTi3P5O19
_chemical_formula_sum   'Cs1 Ti3 P5 O19'
_cell_volume   418.92197463
_cell_formula_units_Z   1
loop_
 _symmetry_equiv_pos_site_id
 _symmetry_equiv_pos_as_xyz
  1  'x, y, z'
loop_
 _atom_site_type_symbol
 _atom_site_label
 _atom_site_symmetry_multiplicity
 _atom_site_fract_x
 _atom_site_fract_y
 _atom_site_fract_z
 _atom_site_occupancy
  Cs  Cs0  1  0.42700606  -0.42700606  0.22307675  1.0
  Ti  Ti1  1  1.57433194  0.17980622  0.87811446  1.0
  Ti  Ti2  1  0.82019378  -0.57433194  0.87811446  1.0
  Ti  Ti3  1  0.09434557  -0.09434557  0.54230204  1.0
  P  P4  1  -0.00129684  0.00129684  0.00128005  1.0
  P  P5  1  0.51505217  -0.14525296  0.69654581  1.0
  P  P6  1  1.14525296  0.48494783  0.69654581  1.0
  P  P7  1  1.64676781  0.06007881  0.42682387  1.0
  P  P8  1  0.93992119  -0.64676781  0.42682387  1.0
  O  O9  1  0.65196559  -0.32925296  0.80689117  1.0
  O  O10  1  1.32925296  0.34803441  0.80689117  1.0
  O  O11  1  0.84526753  -0.03605223  0.47801650  1.0
  O  O12  1  1.03605223  0.15473247  0.47801650  1.0
  O  O13  1  1.81370178  0.00773181  0.96006298  1.0
  O  O14  1  0.99226819  -0.81370178  0.96006298  1.0
  O  O15  1  0.57558088  -0.08615364  0.48102601  1.0
  O  O16  1  1.08615364  0.42441912  0.48102601  1.0
  O  O17  1  0.49957754  -0.01686448  0.84032227  1.0
  O  O18  1  1.01686448  0.50042246  0.84032227  1.0
  O  O19  1  0.34196611  -0.15081954  0.60333953  1.0
  O  O20  1  1.15081954  0.65803389  0.60333953  1.0
  O  O21  1  1.56489314  0.14644615  0.18605971  1.0
  O  O22  1  0.85355385  -0.56489314  0.18605971  1.0
  O  O23  1  1.57975630  0.19474303  0.56248420  1.0
  O  O24  1  0.80525697  -0.57975630  0.56248420  1.0
  O  O25  1  0.64738681  -0.64738681  0.88113226  1.0
  O  O26  1  0.10130549  -0.10130549  0.84964254  1.0
  O  O27  1  0.09880234  -0.09880234  0.23819332  1.0
