# generated using pymatgen
data_CsSr(BH4)3
_symmetry_space_group_name_H-M   'P 1'
_cell_length_a   8.34504316
_cell_length_b   8.21463279
_cell_length_c   6.10774646
_cell_angle_alpha   90.00000000
_cell_angle_beta   90.00000000
_cell_angle_gamma   90.00000000
_symmetry_Int_Tables_number   1
_chemical_formula_structural   CsSr(BH4)3
_chemical_formula_sum   'Cs2 Sr2 B6 H24'
_cell_volume   418.69496906
_cell_formula_units_Z   2
loop_
 _symmetry_equiv_pos_site_id
 _symmetry_equiv_pos_as_xyz
  1  'x, y, z'
loop_
 _atom_site_type_symbol
 _atom_site_label
 _atom_site_symmetry_multiplicity
 _atom_site_fract_x
 _atom_site_fract_y
 _atom_site_fract_z
 _atom_site_occupancy
  Cs  Cs0  1  0.50000000  0.00000000  0.45554779  1.0
  Cs  Cs1  1  0.00000000  0.50000000  0.54445221  1.0
  Sr  Sr2  1  0.50000000  0.50000000  0.99159883  1.0
  Sr  Sr3  1  0.00000000  0.00000000  0.00840117  1.0
  B  B4  1  0.70382250  0.79070757  -0.06502971  1.0
  B  B5  1  0.29617750  0.20929243  -0.06502971  1.0
  B  B6  1  0.20382250  0.70929243  1.06502971  1.0
  B  B7  1  0.79617750  0.29070757  1.06502971  1.0
  B  B8  1  0.00000000  0.00000000  0.50881770  1.0
  B  B9  1  0.50000000  0.50000000  0.49118230  1.0
  H  H10  1  0.55707716  0.80332820  -0.06443574  1.0
  H  H11  1  0.44292284  0.19667180  -0.06443574  1.0
  H  H12  1  0.05707716  0.69667180  1.06443574  1.0
  H  H13  1  0.94292284  0.30332820  1.06443574  1.0
  H  H14  1  0.74676760  0.65290541  -0.11650524  1.0
  H  H15  1  0.25323240  0.34709459  -0.11650524  1.0
  H  H16  1  0.24676760  0.84709459  1.11650524  1.0
  H  H17  1  0.75323240  0.15290541  1.11650524  1.0
  H  H18  1  0.75703035  0.88588038  0.79940960  1.0
  H  H19  1  0.24296965  0.11411962  0.79940960  1.0
  H  H20  1  0.25703035  0.61411962  0.20059040  1.0
  H  H21  1  0.74296965  0.38588038  0.20059040  1.0
  H  H22  1  0.75421639  0.82002441  0.11954493  1.0
  H  H23  1  0.24578361  0.17997559  0.11954493  1.0
  H  H24  1  0.25421639  0.67997559  0.88045507  1.0
  H  H25  1  0.74578361  0.32002441  0.88045507  1.0
  H  H26  1  0.93154317  0.10254757  0.62215601  1.0
  H  H27  1  0.06845683  0.89745243  0.62215601  1.0
  H  H28  1  0.43154317  0.39745243  0.37784399  1.0
  H  H29  1  0.56845683  0.60254757  0.37784399  1.0
  H  H30  1  0.89900005  0.93047050  0.39650611  1.0
  H  H31  1  0.10099995  0.06952950  0.39650611  1.0
  H  H32  1  0.39900005  0.56952950  0.60349389  1.0
  H  H33  1  0.60099995  0.43047050  0.60349389  1.0
