# generated using pymatgen
data_NaH4BrO2
_symmetry_space_group_name_H-M   'P 1'
_cell_length_a   6.34350197
_cell_length_b   10.35506422
_cell_length_c   6.85264132
_cell_angle_alpha   90.00000000
_cell_angle_beta   105.85425758
_cell_angle_gamma   90.00000000
_symmetry_Int_Tables_number   1
_chemical_formula_structural   NaH4BrO2
_chemical_formula_sum   'Na4 H16 Br4 O8'
_cell_volume   433.00884110
_cell_formula_units_Z   4
loop_
 _symmetry_equiv_pos_site_id
 _symmetry_equiv_pos_as_xyz
  1  'x, y, z'
loop_
 _atom_site_type_symbol
 _atom_site_label
 _atom_site_symmetry_multiplicity
 _atom_site_fract_x
 _atom_site_fract_y
 _atom_site_fract_z
 _atom_site_occupancy
  Na  Na0  1  0.98929700  0.16977055  0.03830939  1.0
  Na  Na1  1  0.98929700  0.33022945  0.53830939  1.0
  Na  Na2  1  0.01070300  0.66977055  0.46169061  1.0
  Na  Na3  1  0.01070300  0.83022945  0.96169061  1.0
  H  H4  1  0.74909732  0.89721734  0.24191314  1.0
  H  H5  1  0.74909732  0.60278266  0.74191314  1.0
  H  H6  1  0.25090268  0.39721734  0.25808686  1.0
  H  H7  1  0.25090268  0.10278266  0.75808686  1.0
  H  H8  1  0.78657276  0.46131365  0.15714581  1.0
  H  H9  1  0.78657276  0.03868635  0.65714581  1.0
  H  H10  1  0.21342724  0.96131365  0.34285419  1.0
  H  H11  1  0.21342724  0.53868635  0.84285419  1.0
  H  H12  1  0.35840114  0.01649608  0.21569404  1.0
  H  H13  1  0.35840114  0.48350392  0.71569404  1.0
  H  H14  1  0.64159886  0.51649608  0.28430596  1.0
  H  H15  1  0.64159886  0.98350392  0.78430596  1.0
  H  H16  1  0.36519812  0.26655498  0.33591166  1.0
  H  H17  1  0.36519812  0.23344502  0.83591166  1.0
  H  H18  1  0.63480188  0.76655498  0.16408834  1.0
  H  H19  1  0.63480188  0.73344502  0.66408834  1.0
  Br  Br20  1  0.69983229  0.11716199  0.31859990  1.0
  Br  Br21  1  0.69983229  0.38283801  0.81859990  1.0
  Br  Br22  1  0.30016771  0.61716199  0.18140010  1.0
  Br  Br23  1  0.30016771  0.88283801  0.68140010  1.0
  O  O24  1  0.77849844  0.80895702  0.20154637  1.0
  O  O25  1  0.77849844  0.69104298  0.70154637  1.0
  O  O26  1  0.22150156  0.30895702  0.29845363  1.0
  O  O27  1  0.22150156  0.19104298  0.79845363  1.0
  O  O28  1  0.79297113  0.48777917  0.29691446  1.0
  O  O29  1  0.79297113  0.01222083  0.79691446  1.0
  O  O30  1  0.20702887  0.98777917  0.20308554  1.0
  O  O31  1  0.20702887  0.51222083  0.70308554  1.0
