# generated using pymatgen
data_Ti2Cu(PO5)2
_symmetry_space_group_name_H-M   'P 1'
_cell_length_a   7.09972777
_cell_length_b   7.97661126
_cell_length_c   7.39495328
_cell_angle_alpha   90.00000000
_cell_angle_beta   119.40921625
_cell_angle_gamma   90.00000000
_symmetry_Int_Tables_number   1
_chemical_formula_structural   Ti2Cu(PO5)2
_chemical_formula_sum   'Ti4 Cu2 P4 O20'
_cell_volume   364.82193263
_cell_formula_units_Z   2
loop_
 _symmetry_equiv_pos_site_id
 _symmetry_equiv_pos_as_xyz
  1  'x, y, z'
loop_
 _atom_site_type_symbol
 _atom_site_label
 _atom_site_symmetry_multiplicity
 _atom_site_fract_x
 _atom_site_fract_y
 _atom_site_fract_z
 _atom_site_occupancy
  Ti  Ti0  1  0.73763834  0.28292160  0.03678215  1.0
  Ti  Ti1  1  0.73763834  0.21707840  0.53678215  1.0
  Ti  Ti2  1  0.26236166  0.78292160  0.46321785  1.0
  Ti  Ti3  1  0.26236166  0.71707840  0.96321785  1.0
  Cu  Cu4  1  0.00000000  0.50000000  0.50000000  1.0
  Cu  Cu5  1  0.00000000  0.00000000  0.00000000  1.0
  P  P6  1  0.74951388  0.90586565  0.24666719  1.0
  P  P7  1  0.74951388  0.59413435  0.74666719  1.0
  P  P8  1  0.25048612  0.40586565  0.25333281  1.0
  P  P9  1  0.25048612  0.09413435  0.75333281  1.0
  O  O10  1  0.94562416  0.79371908  0.37994813  1.0
  O  O11  1  0.94562416  0.70628092  0.87994813  1.0
  O  O12  1  0.05437584  0.29371908  0.12005187  1.0
  O  O13  1  0.05437584  0.20628092  0.62005187  1.0
  O  O14  1  0.81595349  0.03217319  0.12355969  1.0
  O  O15  1  0.81595349  0.46782681  0.62355969  1.0
  O  O16  1  0.18404651  0.53217319  0.37644031  1.0
  O  O17  1  0.18404651  0.96782681  0.87644031  1.0
  O  O18  1  0.77631985  0.35503088  0.27559100  1.0
  O  O19  1  0.77631985  0.14496912  0.77559100  1.0
  O  O20  1  0.22368015  0.85503088  0.22440900  1.0
  O  O21  1  0.22368015  0.64496912  0.72440900  1.0
  O  O22  1  0.68304594  0.01368843  0.38028786  1.0
  O  O23  1  0.68304594  0.48631157  0.88028786  1.0
  O  O24  1  0.31695406  0.51368843  0.11971214  1.0
  O  O25  1  0.31695406  0.98631157  0.61971214  1.0
  O  O26  1  0.44086832  0.29400752  0.40344357  1.0
  O  O27  1  0.44086832  0.20599248  0.90344357  1.0
  O  O28  1  0.55913168  0.79400752  0.09655643  1.0
  O  O29  1  0.55913168  0.70599248  0.59655643  1.0
