# generated using pymatgen
data_KInTe2
_symmetry_space_group_name_H-M   'P 1'
_cell_length_a   7.25278519
_cell_length_b   7.25278519
_cell_length_c   7.25278519
_cell_angle_alpha   105.26979773
_cell_angle_beta   105.26979773
_cell_angle_gamma   118.24682585
_symmetry_Int_Tables_number   1
_chemical_formula_structural   KInTe2
_chemical_formula_sum   'K2 In2 Te4'
_cell_volume   288.45343706
_cell_formula_units_Z   2
loop_
 _symmetry_equiv_pos_site_id
 _symmetry_equiv_pos_as_xyz
  1  'x, y, z'
loop_
 _atom_site_type_symbol
 _atom_site_label
 _atom_site_symmetry_multiplicity
 _atom_site_fract_x
 _atom_site_fract_y
 _atom_site_fract_z
 _atom_site_occupancy
  K  K0  1  0.25000000  0.25000000  -0.00000000  1.0
  K  K1  1  0.75000000  0.75000000  -0.00000000  1.0
  In  In2  1  0.75000000  0.25000000  0.50000000  1.0
  In  In3  1  0.25000000  0.75000000  0.50000000  1.0
  Te  Te4  1  0.82548444  0.32548444  1.15096888  1.0
  Te  Te5  1  0.67451556  0.82548444  0.50000000  1.0
  Te  Te6  1  0.32548444  0.17451556  0.50000000  1.0
  Te  Te7  1  1.17451556  0.67451556  0.84903112  1.0
