# generated using pymatgen
data_H8CS(NO)4
_symmetry_space_group_name_H-M   'P 1'
_cell_length_a   7.30366560
_cell_length_b   6.25360005
_cell_length_c   8.06435912
_cell_angle_alpha   96.22429771
_cell_angle_beta   100.83402365
_cell_angle_gamma   95.88848566
_symmetry_Int_Tables_number   1
_chemical_formula_structural   H8CS(NO)4
_chemical_formula_sum   'H16 C2 S2 N8 O8'
_cell_volume   356.77160116
_cell_formula_units_Z   2
loop_
 _symmetry_equiv_pos_site_id
 _symmetry_equiv_pos_as_xyz
  1  'x, y, z'
loop_
 _atom_site_type_symbol
 _atom_site_label
 _atom_site_symmetry_multiplicity
 _atom_site_fract_x
 _atom_site_fract_y
 _atom_site_fract_z
 _atom_site_occupancy
  H  H0  1  -0.58327044  -0.93582167  -0.31450519  1.0
  H  H1  1  -0.41672956  -0.06417833  -0.68549481  1.0
  H  H2  1  -0.75840277  -0.86879196  -0.11077284  1.0
  H  H3  1  -0.24159723  -0.13120804  -0.88922716  1.0
  H  H4  1  -0.69054194  -0.76701634  -0.44280490  1.0
  H  H5  1  -0.30945806  -0.23298366  -0.55719510  1.0
  H  H6  1  -0.52954399  -0.65549743  -0.25638145  1.0
  H  H7  1  -0.47045601  -0.34450257  -0.74361855  1.0
  H  H8  1  -0.24920038  -0.59972888  -0.68619740  1.0
  H  H9  1  -0.75079962  -0.40027112  -0.31380260  1.0
  H  H10  1  -0.84586894  -0.41846897  -0.84066830  1.0
  H  H11  1  -0.15413106  -0.58153103  -0.15933170  1.0
  H  H12  1  -0.98910069  -0.37482363  -0.31897501  1.0
  H  H13  1  -0.01089931  -0.62517637  -0.68102499  1.0
  H  H14  1  -0.89589547  -0.15432189  -0.85729390  1.0
  H  H15  1  -0.10410453  -0.84567811  -0.14270610  1.0
  C  C16  1  -0.90849995  -0.64858313  -0.23063048  1.0
  C  C17  1  -0.09150005  -0.35141687  -0.76936952  1.0
  S  S18  1  -0.65182299  -0.76484793  -0.76493909  1.0
  S  S19  1  -0.34817701  -0.23515207  -0.23506091  1.0
  N  N20  1  -0.78760916  -0.80149960  -0.22468284  1.0
  N  N21  1  -0.21239084  -0.19850040  -0.77531716  1.0
  N  N22  1  -0.63709242  -0.78422201  -0.31282197  1.0
  N  N23  1  -0.36290758  -0.21577800  -0.68717803  1.0
  N  N24  1  -0.88076733  -0.46835167  -0.30133326  1.0
  N  N25  1  -0.11923267  -0.53164833  -0.69866674  1.0
  N  N26  1  -0.93999310  -0.30764630  -0.83426296  1.0
  N  N27  1  -0.06000690  -0.69235370  -0.16573704  1.0
  O  O28  1  -0.72535669  -0.94276118  -0.90889994  1.0
  O  O29  1  -0.27464331  -0.05723882  -0.09110006  1.0
  O  O30  1  -0.46276648  -0.80318860  -0.67000879  1.0
  O  O31  1  -0.53723352  -0.19681140  -0.32999121  1.0
  O  O32  1  -0.78594483  -0.75922006  -0.64439689  1.0
  O  O33  1  -0.21405517  -0.24077994  -0.35560311  1.0
  O  O34  1  -0.63381237  -0.55233907  -0.83441616  1.0
  O  O35  1  -0.36618763  -0.44766093  -0.16558384  1.0
