# generated using pymatgen
data_Tm(PO)2
_symmetry_space_group_name_H-M   'P 1'
_cell_length_a   8.09540607
_cell_length_b   8.09540607
_cell_length_c   8.09540607
_cell_angle_alpha   104.38158133
_cell_angle_beta   104.38158133
_cell_angle_gamma   120.21478713
_symmetry_Int_Tables_number   1
_chemical_formula_structural   Tm(PO)2
_chemical_formula_sum   'Tm4 P8 O8'
_cell_volume   397.46794264
_cell_formula_units_Z   4
loop_
 _symmetry_equiv_pos_site_id
 _symmetry_equiv_pos_as_xyz
  1  'x, y, z'
loop_
 _atom_site_type_symbol
 _atom_site_label
 _atom_site_symmetry_multiplicity
 _atom_site_fract_x
 _atom_site_fract_y
 _atom_site_fract_z
 _atom_site_occupancy
  Tm  Tm0  1  1.37500000  1.12500000  1.25000000  1.0
  Tm  Tm1  1  0.87500000  1.12500000  0.75000000  1.0
  Tm  Tm2  1  0.87500000  1.12500000  0.25000000  1.0
  Tm  Tm3  1  0.87500000  1.62500000  0.75000000  1.0
  P  P4  1  1.20341282  1.49427698  0.70913584  1.0
  P  P5  1  0.96485886  0.75572302  0.20913584  1.0
  P  P6  1  0.78514114  0.49427698  0.29086416  1.0
  P  P7  1  1.54658718  0.75572302  0.79086416  1.0
  P  P8  1  0.50572302  0.21485886  0.70913584  1.0
  P  P9  1  1.24427698  1.45341282  1.20913584  1.0
  P  P10  1  0.50572302  0.79658718  0.29086416  1.0
  P  P11  1  1.24427698  1.03514114  0.79086416  1.0
  O  O12  1  1.21612307  1.37857702  0.83754605  1.0
  O  O13  1  1.20896903  0.87142298  1.33754605  1.0
  O  O14  1  0.54103097  0.37857702  0.16245395  1.0
  O  O15  1  0.53387693  0.87142298  0.66245395  1.0
  O  O16  1  0.62142298  0.45896903  0.83754605  1.0
  O  O17  1  1.12857702  1.46612307  0.33754605  1.0
  O  O18  1  0.62142298  0.78387693  0.16245395  1.0
  O  O19  1  1.12857702  1.79103097  0.66245395  1.0
