# generated using pymatgen
data_LiTaO3
_symmetry_space_group_name_H-M   'P 1'
_cell_length_a   5.48388841
_cell_length_b   7.60224875
_cell_length_c   5.23065176
_cell_angle_alpha   90.00000000
_cell_angle_beta   90.00000000
_cell_angle_gamma   90.00000000
_symmetry_Int_Tables_number   1
_chemical_formula_structural   LiTaO3
_chemical_formula_sum   'Li4 Ta4 O12'
_cell_volume   218.06526409
_cell_formula_units_Z   4
loop_
 _symmetry_equiv_pos_site_id
 _symmetry_equiv_pos_as_xyz
  1  'x, y, z'
loop_
 _atom_site_type_symbol
 _atom_site_label
 _atom_site_symmetry_multiplicity
 _atom_site_fract_x
 _atom_site_fract_y
 _atom_site_fract_z
 _atom_site_occupancy
  Li  Li0  1  -0.01657534  0.25000000  0.49924943  1.0
  Li  Li1  1  0.48342466  0.25000000  1.00075057  1.0
  Li  Li2  1  1.01657534  0.75000000  0.50075057  1.0
  Li  Li3  1  0.51657534  0.75000000  -0.00075057  1.0
  Ta  Ta4  1  0.50000000  0.50000000  0.50000000  1.0
  Ta  Ta5  1  0.50000000  0.00000000  0.50000000  1.0
  Ta  Ta6  1  0.00000000  0.50000000  0.00000000  1.0
  Ta  Ta7  1  0.00000000  0.00000000  0.00000000  1.0
  O  O8  1  0.30563853  0.44238680  0.81129784  1.0
  O  O9  1  0.30563853  0.05761320  0.81129784  1.0
  O  O10  1  0.80563853  0.44238680  0.68870216  1.0
  O  O11  1  0.80563853  0.05761320  0.68870216  1.0
  O  O12  1  0.69436147  0.94238680  0.18870216  1.0
  O  O13  1  0.69436147  0.55761320  0.18870216  1.0
  O  O14  1  0.19436147  0.94238680  0.31129784  1.0
  O  O15  1  0.19436147  0.55761320  0.31129784  1.0
  O  O16  1  0.97408826  0.25000000  0.11543400  1.0
  O  O17  1  0.47408826  0.25000000  0.38456600  1.0
  O  O18  1  0.02591174  0.75000000  0.88456600  1.0
  O  O19  1  0.52591174  0.75000000  0.61543400  1.0
