# generated using pymatgen
data_H16RhN5(Cl2O)3
_symmetry_space_group_name_H-M   'P 1'
_cell_length_a   9.66427372
_cell_length_b   9.66427372
_cell_length_c   9.66427372
_cell_angle_alpha   41.91775872
_cell_angle_beta   41.91775872
_cell_angle_gamma   41.91775872
_symmetry_Int_Tables_number   1
_chemical_formula_structural   H16RhN5(Cl2O)3
_chemical_formula_sum   'H16 Rh1 N5 Cl6 O3'
_cell_volume   364.34575734
_cell_formula_units_Z   1
loop_
 _symmetry_equiv_pos_site_id
 _symmetry_equiv_pos_as_xyz
  1  'x, y, z'
loop_
 _atom_site_type_symbol
 _atom_site_label
 _atom_site_symmetry_multiplicity
 _atom_site_fract_x
 _atom_site_fract_y
 _atom_site_fract_z
 _atom_site_occupancy
  H  H0  1  1.74415264  1.03036873  -0.11447250  1.0
  H  H1  1  1.11447250  0.96963127  0.25584736  1.0
  H  H2  1  0.96963127  1.25584736  0.11447250  1.0
  H  H3  1  1.25584736  1.11447250  -0.03036873  1.0
  H  H4  1  0.88552750  1.74415264  0.03036873  1.0
  H  H5  1  1.03036873  0.88552750  0.74415264  1.0
  H  H6  1  1.50750495  0.74403747  -0.23691035  1.0
  H  H7  1  1.23691035  1.25596253  0.49249505  1.0
  H  H8  1  1.25596253  1.49249505  0.23691035  1.0
  H  H9  1  1.49249505  1.23691035  0.25596253  1.0
  H  H10  1  0.76308965  1.50750495  -0.25596253  1.0
  H  H11  1  0.74403747  0.76308965  0.50750495  1.0
  H  H12  1  0.83578297  0.83578297  0.83578297  1.0
  H  H13  1  1.16421703  1.16421703  0.16421703  1.0
  H  H14  1  1.62007982  0.62007982  0.62007982  1.0
  H  H15  1  1.37992018  0.37992018  0.37992018  1.0
  Rh  Rh16  1  1.50000000  0.50000000  0.50000000  1.0
  N  N17  1  0.87496469  0.87496469  0.87496469  1.0
  N  N18  1  1.12503531  1.12503531  0.12503531  1.0
  N  N19  1  0.65939099  0.65939099  0.65939099  1.0
  N  N20  1  1.34060901  1.34060901  0.34060901  1.0
  N  N21  1  0.00000000  0.00000000  0.00000000  1.0
  Cl  Cl22  1  1.59194521  0.12993374  0.61509666  1.0
  Cl  Cl23  1  1.38490334  0.87006626  0.40805479  1.0
  Cl  Cl24  1  1.87006626  0.40805479  0.38490334  1.0
  Cl  Cl25  1  1.40805479  0.38490334  0.87006626  1.0
  Cl  Cl26  1  1.61509666  0.59194521  0.12993374  1.0
  Cl  Cl27  1  1.12993374  0.61509666  0.59194521  1.0
  O  O28  1  0.81708474  0.00000000  -0.81708474  1.0
  O  O29  1  -0.00000000  0.18291526  -0.18291526  1.0
  O  O30  1  0.18291526  -0.18291526  0.00000000  1.0
