# generated using pymatgen
data_Ca5CdAu2
_symmetry_space_group_name_H-M   'P 1'
_cell_length_a   9.26304538
_cell_length_b   9.26304538
_cell_length_c   9.26304538
_cell_angle_alpha   128.24551052
_cell_angle_beta   128.24551052
_cell_angle_gamma   76.22764708
_symmetry_Int_Tables_number   1
_chemical_formula_structural   Ca5CdAu2
_chemical_formula_sum   'Ca10 Cd2 Au4'
_cell_volume   476.47058265
_cell_formula_units_Z   2
loop_
 _symmetry_equiv_pos_site_id
 _symmetry_equiv_pos_as_xyz
  1  'x, y, z'
loop_
 _atom_site_type_symbol
 _atom_site_label
 _atom_site_symmetry_multiplicity
 _atom_site_fract_x
 _atom_site_fract_y
 _atom_site_fract_z
 _atom_site_occupancy
  Ca  Ca0  1  1.19562788  0.69562788  1.17040953  1.0
  Ca  Ca1  1  0.47478165  0.97478165  1.17040953  1.0
  Ca  Ca2  1  1.02521835  1.19562788  1.50000000  1.0
  Ca  Ca3  1  0.30437212  0.47478165  0.50000000  1.0
  Ca  Ca4  1  0.69562788  0.52521835  0.50000000  1.0
  Ca  Ca5  1  0.97478165  0.80437212  1.50000000  1.0
  Ca  Ca6  1  0.52521835  1.02521835  0.82959047  1.0
  Ca  Ca7  1  0.80437212  0.30437212  0.82959047  1.0
  Ca  Ca8  1  0.00000000  0.00000000  0.00000000  1.0
  Ca  Ca9  1  0.50000000  0.50000000  1.00000000  1.0
  Cd  Cd10  1  0.75000000  0.75000000  1.00000000  1.0
  Cd  Cd11  1  0.25000000  0.25000000  -0.00000000  1.0
  Au  Au12  1  0.86811393  0.36811393  1.23622786  1.0
  Au  Au13  1  0.63188607  0.86811393  1.50000000  1.0
  Au  Au14  1  0.36811393  0.13188607  0.50000000  1.0
  Au  Au15  1  0.13188607  0.63188607  0.76377214  1.0
