# generated using pymatgen
data_NaIn2
_symmetry_space_group_name_H-M   'P 1'
_cell_length_a   8.03905057
_cell_length_b   8.03905057
_cell_length_c   8.03905057
_cell_angle_alpha   60.00000000
_cell_angle_beta   60.00000000
_cell_angle_gamma   60.00000000
_symmetry_Int_Tables_number   1
_chemical_formula_structural   NaIn2
_chemical_formula_sum   'Na4 In8'
_cell_volume   367.36627421
_cell_formula_units_Z   4
loop_
 _symmetry_equiv_pos_site_id
 _symmetry_equiv_pos_as_xyz
  1  'x, y, z'
loop_
 _atom_site_type_symbol
 _atom_site_label
 _atom_site_symmetry_multiplicity
 _atom_site_fract_x
 _atom_site_fract_y
 _atom_site_fract_z
 _atom_site_occupancy
  Na  Na0  1  0.62500000  -0.37500000  1.12500000  1.0
  Na  Na1  1  0.62500000  0.12500000  0.62500000  1.0
  Na  Na2  1  0.62500000  -0.37500000  0.62500000  1.0
  Na  Na3  1  1.12500000  -0.37500000  0.62500000  1.0
  In  In4  1  -0.09768181  0.90231819  0.29304542  1.0
  In  In5  1  0.90231819  -0.70695458  0.90231819  1.0
  In  In6  1  0.34768181  0.34768181  0.34768181  1.0
  In  In7  1  -0.04304542  0.34768181  0.34768181  1.0
  In  In8  1  -0.70695458  0.90231819  0.90231819  1.0
  In  In9  1  0.90231819  -0.09768181  0.90231819  1.0
  In  In10  1  0.34768181  -0.04304542  0.34768181  1.0
  In  In11  1  0.34768181  0.34768181  -0.04304542  1.0
