# generated using pymatgen
data_ZrCoSi
_symmetry_space_group_name_H-M   'P 1'
_cell_length_a   6.46889826
_cell_length_b   3.85565288
_cell_length_c   7.11943305
_cell_angle_alpha   90.00000000
_cell_angle_beta   90.00000000
_cell_angle_gamma   90.00000000
_symmetry_Int_Tables_number   1
_chemical_formula_structural   ZrCoSi
_chemical_formula_sum   'Zr4 Co4 Si4'
_cell_volume   177.57166171
_cell_formula_units_Z   4
loop_
 _symmetry_equiv_pos_site_id
 _symmetry_equiv_pos_as_xyz
  1  'x, y, z'
loop_
 _atom_site_type_symbol
 _atom_site_label
 _atom_site_symmetry_multiplicity
 _atom_site_fract_x
 _atom_site_fract_y
 _atom_site_fract_z
 _atom_site_occupancy
  Zr  Zr0  1  0.99339395  0.75000000  0.69404177  1.0
  Zr  Zr1  1  0.49339395  0.75000000  0.80595823  1.0
  Zr  Zr2  1  0.00660605  0.25000000  0.30595823  1.0
  Zr  Zr3  1  0.50660605  0.25000000  0.19404177  1.0
  Co  Co4  1  0.85625253  0.75000000  0.06919742  1.0
  Co  Co5  1  0.35625253  0.75000000  0.43080258  1.0
  Co  Co6  1  0.14374747  0.25000000  0.93080258  1.0
  Co  Co7  1  0.64374747  0.25000000  0.56919742  1.0
  Si  Si8  1  0.71743405  0.75000000  0.39584371  1.0
  Si  Si9  1  0.21743405  0.75000000  0.10415629  1.0
  Si  Si10  1  0.28256595  0.25000000  0.60415629  1.0
  Si  Si11  1  0.78256595  0.25000000  0.89584371  1.0
