# generated using pymatgen
data_Cs2MnH12(SeO7)2
_symmetry_space_group_name_H-M   'P 1'
_cell_length_a   6.62621650
_cell_length_b   13.25578996
_cell_length_c   9.64021071
_cell_angle_alpha   90.00000000
_cell_angle_beta   105.13881369
_cell_angle_gamma   90.00000000
_symmetry_Int_Tables_number   1
_chemical_formula_structural   Cs2MnH12(SeO7)2
_chemical_formula_sum   'Cs4 Mn2 H24 Se4 O28'
_cell_volume   817.36914594
_cell_formula_units_Z   2
loop_
 _symmetry_equiv_pos_site_id
 _symmetry_equiv_pos_as_xyz
  1  'x, y, z'
loop_
 _atom_site_type_symbol
 _atom_site_label
 _atom_site_symmetry_multiplicity
 _atom_site_fract_x
 _atom_site_fract_y
 _atom_site_fract_z
 _atom_site_occupancy
  Cs  Cs0  1  0.84494140  0.64742205  0.13123522  1.0
  Cs  Cs1  1  0.84494140  0.85257795  0.63123522  1.0
  Cs  Cs2  1  0.15505860  0.14742205  0.36876478  1.0
  Cs  Cs3  1  0.15505860  0.35257795  0.86876478  1.0
  Mn  Mn4  1  0.50000000  0.50000000  0.50000000  1.0
  Mn  Mn5  1  0.50000000  0.00000000  0.00000000  1.0
  H  H6  1  0.82909862  0.43390287  0.39415209  1.0
  H  H7  1  0.82909862  0.06609713  0.89415209  1.0
  H  H8  1  0.17090138  0.93390287  0.10584791  1.0
  H  H9  1  0.17090138  0.56609713  0.60584791  1.0
  H  H10  1  0.81542590  0.13940633  0.02046937  1.0
  H  H11  1  0.81542590  0.36059367  0.52046937  1.0
  H  H12  1  0.18457410  0.63940633  0.47953063  1.0
  H  H13  1  0.18457410  0.86059367  0.97953063  1.0
  H  H14  1  0.81946620  0.90325390  0.21069716  1.0
  H  H15  1  0.81946620  0.59674610  0.71069716  1.0
  H  H16  1  0.18053380  0.40325390  0.28930284  1.0
  H  H17  1  0.18053380  0.09674610  0.78930284  1.0
  H  H18  1  0.57964877  0.09928703  0.27513735  1.0
  H  H19  1  0.57964877  0.40071297  0.77513735  1.0
  H  H20  1  0.42035123  0.59928703  0.22486265  1.0
  H  H21  1  0.42035123  0.90071297  0.72486265  1.0
  H  H22  1  0.51570907  0.18409667  0.15613206  1.0
  H  H23  1  0.51570907  0.31590333  0.65613206  1.0
  H  H24  1  0.48429093  0.68409667  0.34386794  1.0
  H  H25  1  0.48429093  0.81590333  0.84386794  1.0
  H  H26  1  0.40139465  0.37088627  0.26150122  1.0
  H  H27  1  0.40139465  0.12911373  0.76150122  1.0
  H  H28  1  0.59860535  0.87088627  0.23849878  1.0
  H  H29  1  0.59860535  0.62911373  0.73849878  1.0
  Se  Se30  1  0.76283700  0.35394199  0.10149628  1.0
  Se  Se31  1  0.76283700  0.14605801  0.60149628  1.0
  Se  Se32  1  0.23716300  0.85394199  0.39850372  1.0
  Se  Se33  1  0.23716300  0.64605801  0.89850372  1.0
  O  O34  1  0.90789087  0.25421825  0.08353414  1.0
  O  O35  1  0.90789087  0.24578175  0.58353414  1.0
  O  O36  1  0.09210913  0.75421825  0.41646586  1.0
  O  O37  1  0.09210913  0.74578175  0.91646586  1.0
  O  O38  1  0.90432423  0.42446271  0.23720252  1.0
  O  O39  1  0.90432423  0.07553729  0.73720252  1.0
  O  O40  1  0.09567577  0.92446271  0.26279748  1.0
  O  O41  1  0.09567577  0.57553729  0.76279748  1.0
  O  O42  1  0.78567347  0.43116941  0.48544691  1.0
  O  O43  1  0.78567347  0.06883059  0.98544691  1.0
  O  O44  1  0.21432653  0.93116941  0.01455309  1.0
  O  O45  1  0.21432653  0.56883059  0.51455309  1.0
  O  O46  1  0.71130133  0.07569054  0.45327546  1.0
  O  O47  1  0.71130133  0.42430946  0.95327546  1.0
  O  O48  1  0.28869867  0.57569054  0.04672454  1.0
  O  O49  1  0.28869867  0.92430946  0.54672454  1.0
  O  O50  1  0.54087053  0.31513835  0.13814765  1.0
  O  O51  1  0.54087053  0.18486165  0.63814765  1.0
  O  O52  1  0.45912947  0.81513835  0.36185235  1.0
  O  O53  1  0.45912947  0.68486165  0.86185235  1.0
  O  O54  1  0.49350451  0.11169048  0.17542355  1.0
  O  O55  1  0.49350451  0.38830952  0.67542355  1.0
  O  O56  1  0.50649549  0.61169048  0.32457645  1.0
  O  O57  1  0.50649549  0.88830952  0.82457645  1.0
  O  O58  1  0.33007963  0.38902921  0.33632096  1.0
  O  O59  1  0.33007963  0.11097079  0.83632096  1.0
  O  O60  1  0.66992037  0.88902921  0.16367904  1.0
  O  O61  1  0.66992037  0.61097079  0.66367904  1.0
