# generated using pymatgen
data_Ca2Zn2Ni5
_symmetry_space_group_name_H-M   'P 1'
_cell_length_a   12.46208116
_cell_length_b   12.46208116
_cell_length_c   12.46208116
_cell_angle_alpha   23.64889242
_cell_angle_beta   23.64889242
_cell_angle_gamma   23.64889242
_symmetry_Int_Tables_number   1
_chemical_formula_structural   Ca2Zn2Ni5
_chemical_formula_sum   'Ca4 Zn4 Ni10'
_cell_volume   273.52274777
_cell_formula_units_Z   2
loop_
 _symmetry_equiv_pos_site_id
 _symmetry_equiv_pos_as_xyz
  1  'x, y, z'
loop_
 _atom_site_type_symbol
 _atom_site_label
 _atom_site_symmetry_multiplicity
 _atom_site_fract_x
 _atom_site_fract_y
 _atom_site_fract_z
 _atom_site_occupancy
  Ca  Ca0  1  0.94234215  0.94234215  0.94234215  1.0
  Ca  Ca1  1  1.05765785  1.05765785  0.05765785  1.0
  Ca  Ca2  1  0.85192539  0.85192539  0.85192539  1.0
  Ca  Ca3  1  1.14807461  1.14807461  0.14807461  1.0
  Zn  Zn4  1  0.50000000  0.00000000  -0.50000000  1.0
  Zn  Zn5  1  0.50000000  -0.50000000  -0.00000000  1.0
  Zn  Zn6  1  0.00000000  0.50000000  -0.50000000  1.0
  Zn  Zn7  1  1.50000000  0.50000000  0.50000000  1.0
  Ni  Ni8  1  1.61121457  0.61121457  0.61121457  1.0
  Ni  Ni9  1  1.38878543  0.38878543  0.38878543  1.0
  Ni  Ni10  1  1.39012276  1.39012276  -0.10831007  1.0
  Ni  Ni11  1  1.39012276  0.89168993  0.39012276  1.0
  Ni  Ni12  1  1.10831007  0.60987724  0.60987724  1.0
  Ni  Ni13  1  1.60987724  0.10831007  0.60987724  1.0
  Ni  Ni14  1  1.60987724  0.60987724  0.10831007  1.0
  Ni  Ni15  1  0.89168993  1.39012276  0.39012276  1.0
  Ni  Ni16  1  0.72256614  0.72256614  0.72256614  1.0
  Ni  Ni17  1  1.27743386  1.27743386  0.27743386  1.0
