# generated using pymatgen
data_H4CN2O
_symmetry_space_group_name_H-M   'P 1'
_cell_length_a   5.16295919
_cell_length_b   5.16295919
_cell_length_c   5.81049968
_cell_angle_alpha   90.00000000
_cell_angle_beta   90.00000000
_cell_angle_gamma   90.00000000
_symmetry_Int_Tables_number   1
_chemical_formula_structural   H4CN2O
_chemical_formula_sum   'H8 C2 N4 O2'
_cell_volume   154.88553723
_cell_formula_units_Z   2
loop_
 _symmetry_equiv_pos_site_id
 _symmetry_equiv_pos_as_xyz
  1  'x, y, z'
loop_
 _atom_site_type_symbol
 _atom_site_label
 _atom_site_symmetry_multiplicity
 _atom_site_fract_x
 _atom_site_fract_y
 _atom_site_fract_z
 _atom_site_occupancy
  H  H0  1  0.50000000  0.66607231  0.89724205  1.0
  H  H1  1  0.50000000  0.33392769  0.89724205  1.0
  H  H2  1  0.16607231  -0.00000000  0.89724205  1.0
  H  H3  1  0.83392769  -0.00000000  0.89724205  1.0
  H  H4  1  -0.00000000  0.83392769  0.10275795  1.0
  H  H5  1  -0.00000000  0.16607231  0.10275795  1.0
  H  H6  1  0.33392769  0.50000000  0.10275795  1.0
  H  H7  1  0.66607231  0.50000000  0.10275795  1.0
  C  C8  1  0.00000000  0.50000000  0.45614909  1.0
  C  C9  1  0.50000000  0.00000000  0.54385091  1.0
  N  N10  1  0.00000000  0.50000000  0.24804434  1.0
  N  N11  1  0.50000000  0.00000000  0.75195566  1.0
  N  N12  1  0.50000000  0.50000000  0.00000000  1.0
  N  N13  1  0.00000000  0.00000000  0.00000000  1.0
  O  O14  1  0.00000000  0.50000000  0.66323263  1.0
  O  O15  1  0.50000000  0.00000000  0.33676737  1.0
