# generated using pymatgen
data_Li(GdGe)4
_symmetry_space_group_name_H-M   'P 1'
_cell_length_a   7.24699903
_cell_length_b   14.88822379
_cell_length_c   7.82367542
_cell_angle_alpha   90.00000000
_cell_angle_beta   90.00000000
_cell_angle_gamma   90.00000000
_symmetry_Int_Tables_number   1
_chemical_formula_structural   Li(GdGe)4
_chemical_formula_sum   'Li4 Gd16 Ge16'
_cell_volume   844.13501655
_cell_formula_units_Z   4
loop_
 _symmetry_equiv_pos_site_id
 _symmetry_equiv_pos_as_xyz
  1  'x, y, z'
loop_
 _atom_site_type_symbol
 _atom_site_label
 _atom_site_symmetry_multiplicity
 _atom_site_fract_x
 _atom_site_fract_y
 _atom_site_fract_z
 _atom_site_occupancy
  Li  Li0  1  0.33877309  0.25000000  0.02916738  1.0
  Li  Li1  1  0.83877309  0.25000000  0.47083262  1.0
  Li  Li2  1  0.66122691  0.75000000  0.97083262  1.0
  Li  Li3  1  0.16122691  0.75000000  0.52916738  1.0
  Gd  Gd4  1  0.48367738  0.90162417  0.68653157  1.0
  Gd  Gd5  1  0.48367738  0.59837583  0.68653157  1.0
  Gd  Gd6  1  0.98367738  0.90162417  0.81346843  1.0
  Gd  Gd7  1  0.98367738  0.59837583  0.81346843  1.0
  Gd  Gd8  1  0.51632262  0.40162417  0.31346843  1.0
  Gd  Gd9  1  0.51632262  0.09837583  0.31346843  1.0
  Gd  Gd10  1  0.01632262  0.40162417  0.18653157  1.0
  Gd  Gd11  1  0.01632262  0.09837583  0.18653157  1.0
  Gd  Gd12  1  0.17135819  0.37164271  0.67785758  1.0
  Gd  Gd13  1  0.17135819  0.12835729  0.67785758  1.0
  Gd  Gd14  1  0.67135819  0.37164271  0.82214242  1.0
  Gd  Gd15  1  0.67135819  0.12835729  0.82214242  1.0
  Gd  Gd16  1  0.82864181  0.87164271  0.32214242  1.0
  Gd  Gd17  1  0.82864181  0.62835729  0.32214242  1.0
  Gd  Gd18  1  0.32864181  0.87164271  0.17785758  1.0
  Gd  Gd19  1  0.32864181  0.62835729  0.17785758  1.0
  Ge  Ge20  1  0.33649330  0.46367392  0.96754121  1.0
  Ge  Ge21  1  0.33649330  0.03632608  0.96754121  1.0
  Ge  Ge22  1  0.83649330  0.46367392  0.53245879  1.0
  Ge  Ge23  1  0.83649330  0.03632608  0.53245879  1.0
  Ge  Ge24  1  0.66350670  0.96367392  0.03245879  1.0
  Ge  Ge25  1  0.66350670  0.53632608  0.03245879  1.0
  Ge  Ge26  1  0.16350670  0.96367392  0.46754121  1.0
  Ge  Ge27  1  0.16350670  0.53632608  0.46754121  1.0
  Ge  Ge28  1  0.21875237  0.25000000  0.36478918  1.0
  Ge  Ge29  1  0.71875237  0.25000000  0.13521082  1.0
  Ge  Ge30  1  0.78124763  0.75000000  0.63521082  1.0
  Ge  Ge31  1  0.28124763  0.75000000  0.86478918  1.0
  Ge  Ge32  1  0.48306805  0.25000000  0.58163999  1.0
  Ge  Ge33  1  0.98306805  0.25000000  0.91836001  1.0
  Ge  Ge34  1  0.51693195  0.75000000  0.41836001  1.0
  Ge  Ge35  1  0.01693195  0.75000000  0.08163999  1.0
