# generated using pymatgen
data_V3As2O9
_symmetry_space_group_name_H-M   'P 1'
_cell_length_a   8.85318532
_cell_length_b   8.85318532
_cell_length_c   4.96101273
_cell_angle_alpha   90.00000000
_cell_angle_beta   90.00000000
_cell_angle_gamma   90.00000000
_symmetry_Int_Tables_number   1
_chemical_formula_structural   V3As2O9
_chemical_formula_sum   'V6 As4 O18'
_cell_volume   388.83867286
_cell_formula_units_Z   2
loop_
 _symmetry_equiv_pos_site_id
 _symmetry_equiv_pos_as_xyz
  1  'x, y, z'
loop_
 _atom_site_type_symbol
 _atom_site_label
 _atom_site_symmetry_multiplicity
 _atom_site_fract_x
 _atom_site_fract_y
 _atom_site_fract_z
 _atom_site_occupancy
  V  V0  1  0.89714680  0.60285320  0.91595269  1.0
  V  V1  1  0.39714680  0.89714680  0.91595269  1.0
  V  V2  1  0.10285320  0.39714680  0.91595269  1.0
  V  V3  1  0.60285320  0.10285320  0.91595269  1.0
  V  V4  1  0.50000000  0.50000000  -0.00092840  1.0
  V  V5  1  0.00000000  0.00000000  -0.00092840  1.0
  As  As6  1  0.28941855  0.21058145  0.27320860  1.0
  As  As7  1  0.78941855  0.28941855  0.27320860  1.0
  As  As8  1  0.71058145  0.78941855  0.27320860  1.0
  As  As9  1  0.21058145  0.71058145  0.27320860  1.0
  O  O10  1  0.39609256  0.69390695  0.10477806  1.0
  O  O11  1  0.89609256  0.80609305  0.10477806  1.0
  O  O12  1  0.30609305  0.39609256  0.10477806  1.0
  O  O13  1  0.80609305  0.10390744  0.10477806  1.0
  O  O14  1  0.60390744  0.30609305  0.10477806  1.0
  O  O15  1  0.10390744  0.19390695  0.10477806  1.0
  O  O16  1  0.69390695  0.60390744  0.10477806  1.0
  O  O17  1  0.19390695  0.89609256  0.10477806  1.0
  O  O18  1  0.39200570  0.10799430  -0.01302472  1.0
  O  O19  1  0.89200570  0.39200570  -0.01302472  1.0
  O  O20  1  0.60799430  0.89200570  -0.01302472  1.0
  O  O21  1  0.10799430  0.60799430  -0.01302472  1.0
  O  O22  1  0.86705919  0.63294081  0.59915054  1.0
  O  O23  1  0.36705919  0.86705919  0.59915054  1.0
  O  O24  1  0.13294081  0.36705919  0.59915054  1.0
  O  O25  1  0.63294081  0.13294081  0.59915054  1.0
  O  O26  1  0.50000000  0.50000000  0.67784194  1.0
  O  O27  1  0.00000000  0.00000000  0.67784194  1.0
