# generated using pymatgen
data_Gd2Au
_symmetry_space_group_name_H-M   'P 1'
_cell_length_a   7.18188105
_cell_length_b   4.99630037
_cell_length_c   9.11788110
_cell_angle_alpha   90.00000000
_cell_angle_beta   90.00000000
_cell_angle_gamma   90.00000000
_symmetry_Int_Tables_number   1
_chemical_formula_structural   Gd2Au
_chemical_formula_sum   'Gd8 Au4'
_cell_volume   327.17542278
_cell_formula_units_Z   4
loop_
 _symmetry_equiv_pos_site_id
 _symmetry_equiv_pos_as_xyz
  1  'x, y, z'
loop_
 _atom_site_type_symbol
 _atom_site_label
 _atom_site_symmetry_multiplicity
 _atom_site_fract_x
 _atom_site_fract_y
 _atom_site_fract_z
 _atom_site_occupancy
  Gd  Gd0  1  0.98794436  0.75000000  0.67731178  1.0
  Gd  Gd1  1  0.48794436  0.75000000  0.82268822  1.0
  Gd  Gd2  1  0.01205564  0.25000000  0.32268822  1.0
  Gd  Gd3  1  0.51205564  0.25000000  0.17731178  1.0
  Gd  Gd4  1  0.84795374  0.75000000  0.08041763  1.0
  Gd  Gd5  1  0.34795374  0.75000000  0.41958237  1.0
  Gd  Gd6  1  0.15204626  0.25000000  0.91958237  1.0
  Gd  Gd7  1  0.65204626  0.25000000  0.58041763  1.0
  Au  Au8  1  0.75952170  0.75000000  0.40039600  1.0
  Au  Au9  1  0.25952170  0.75000000  0.09960400  1.0
  Au  Au10  1  0.24047830  0.25000000  0.59960400  1.0
  Au  Au11  1  0.74047830  0.25000000  0.90039600  1.0
