# generated using pymatgen
data_SiO2
_symmetry_space_group_name_H-M   'P 1'
_cell_length_a   11.30062861
_cell_length_b   11.30062861
_cell_length_c   5.16237561
_cell_angle_alpha   90.00000000
_cell_angle_beta   90.00000000
_cell_angle_gamma   90.00000000
_symmetry_Int_Tables_number   1
_chemical_formula_structural   SiO2
_chemical_formula_sum   'Si16 O32'
_cell_volume   659.25708395
_cell_formula_units_Z   16
loop_
 _symmetry_equiv_pos_site_id
 _symmetry_equiv_pos_as_xyz
  1  'x, y, z'
loop_
 _atom_site_type_symbol
 _atom_site_label
 _atom_site_symmetry_multiplicity
 _atom_site_fract_x
 _atom_site_fract_y
 _atom_site_fract_z
 _atom_site_occupancy
  Si  Si0  1  0.11958315  0.30678231  0.12288239  1.0
  Si  Si1  1  0.88041685  0.69321769  0.12288239  1.0
  Si  Si2  1  0.61958315  0.80678231  0.37711761  1.0
  Si  Si3  1  0.38041685  0.19321769  0.37711761  1.0
  Si  Si4  1  0.11958315  0.69321769  0.87711761  1.0
  Si  Si5  1  0.88041685  0.30678231  0.87711761  1.0
  Si  Si6  1  0.61958315  0.19321769  0.62288239  1.0
  Si  Si7  1  0.38041685  0.80678231  0.62288239  1.0
  Si  Si8  1  0.30678231  0.88041685  0.12288239  1.0
  Si  Si9  1  0.69321769  0.11958315  0.12288239  1.0
  Si  Si10  1  0.80678231  0.38041685  0.37711761  1.0
  Si  Si11  1  0.19321769  0.61958315  0.37711761  1.0
  Si  Si12  1  0.69321769  0.88041685  0.87711761  1.0
  Si  Si13  1  0.30678231  0.11958315  0.87711761  1.0
  Si  Si14  1  0.19321769  0.38041685  0.62288239  1.0
  Si  Si15  1  0.80678231  0.61958315  0.62288239  1.0
  O  O16  1  0.09096670  0.36649847  0.40129963  1.0
  O  O17  1  0.90903330  0.63350153  0.40129963  1.0
  O  O18  1  0.59096670  0.86649847  0.09870037  1.0
  O  O19  1  0.40903330  0.13350153  0.09870037  1.0
  O  O20  1  0.09096670  0.63350153  0.59870037  1.0
  O  O21  1  0.90903330  0.36649847  0.59870037  1.0
  O  O22  1  0.59096670  0.13350153  0.90129963  1.0
  O  O23  1  0.40903330  0.86649847  0.90129963  1.0
  O  O24  1  0.36649847  0.90903330  0.40129963  1.0
  O  O25  1  0.63350153  0.09096670  0.40129963  1.0
  O  O26  1  0.86649847  0.40903330  0.09870037  1.0
  O  O27  1  0.13350153  0.59096670  0.09870037  1.0
  O  O28  1  0.63350153  0.90903330  0.59870037  1.0
  O  O29  1  0.36649847  0.09096670  0.59870037  1.0
  O  O30  1  0.13350153  0.40903330  0.90129963  1.0
  O  O31  1  0.86649847  0.59096670  0.90129963  1.0
  O  O32  1  0.25000000  0.25000000  0.25000000  1.0
  O  O33  1  0.75000000  0.75000000  0.25000000  1.0
  O  O34  1  0.25000000  0.75000000  0.75000000  1.0
  O  O35  1  0.75000000  0.25000000  0.75000000  1.0
  O  O36  1  0.25000000  0.75000000  0.25000000  1.0
  O  O37  1  0.75000000  0.25000000  0.25000000  1.0
  O  O38  1  0.75000000  0.75000000  0.75000000  1.0
  O  O39  1  0.25000000  0.25000000  0.75000000  1.0
  O  O40  1  0.00000000  0.76788349  0.00000000  1.0
  O  O41  1  0.00000000  0.23211651  0.00000000  1.0
  O  O42  1  0.50000000  0.26788349  0.50000000  1.0
  O  O43  1  0.50000000  0.73211651  0.50000000  1.0
  O  O44  1  0.76788349  0.00000000  -0.00000000  1.0
  O  O45  1  0.23211651  0.00000000  0.00000000  1.0
  O  O46  1  0.26788349  0.50000000  0.50000000  1.0
  O  O47  1  0.73211651  0.50000000  0.50000000  1.0
