# generated using pymatgen
data_ZrSO7
_symmetry_space_group_name_H-M   'P 1'
_cell_length_a   7.54617149
_cell_length_b   7.54617149
_cell_length_c   7.23183949
_cell_angle_alpha   89.81365401
_cell_angle_beta   90.18634599
_cell_angle_gamma   53.20736220
_symmetry_Int_Tables_number   1
_chemical_formula_structural   ZrSO7
_chemical_formula_sum   'Zr2 S2 O14'
_cell_volume   329.77615508
_cell_formula_units_Z   2
loop_
 _symmetry_equiv_pos_site_id
 _symmetry_equiv_pos_as_xyz
  1  'x, y, z'
loop_
 _atom_site_type_symbol
 _atom_site_label
 _atom_site_symmetry_multiplicity
 _atom_site_fract_x
 _atom_site_fract_y
 _atom_site_fract_z
 _atom_site_occupancy
  Zr  Zr0  1  0.96826652  0.96826652  0.25000000  1.0
  Zr  Zr1  1  1.03173348  0.03173348  0.75000000  1.0
  O  O2  1  1.64614253  0.29393586  0.24785273  1.0
  O  O3  1  0.70606414  0.35385747  0.74785273  1.0
  O  O4  1  1.29393586  0.64614253  0.25214727  1.0
  O  O5  1  1.35385747  -0.29393586  0.75214727  1.0
  O  O6  1  0.81594148  0.81594148  0.25000000  1.0
  O  O7  1  1.18405852  0.18405852  0.75000000  1.0
  O  O8  1  1.07670530  0.07607808  0.46364348  1.0
  O  O9  1  0.92392192  0.92329470  0.96364348  1.0
  O  O10  1  1.07607808  0.07670530  0.03635652  1.0
  O  O11  1  1.92329470  -0.07607808  0.53635652  1.0
  O  O12  1  1.33763264  0.33089045  0.41009649  1.0
  O  O13  1  0.66910955  0.66236736  0.91009649  1.0
  O  O14  1  1.33089045  0.33763264  0.08990351  1.0
  O  O15  1  1.66236736  -0.33089045  0.58990351  1.0
  S  S16  1  1.40310438  0.40310438  0.25000000  1.0
  S  S17  1  0.59689562  0.59689562  0.75000000  1.0
