# generated using pymatgen
data_NaTa3N5
_symmetry_space_group_name_H-M   'P 1'
_cell_length_a   5.50437102
_cell_length_b   5.50437102
_cell_length_c   10.41272146
_cell_angle_alpha   90.00000000
_cell_angle_beta   90.00000000
_cell_angle_gamma   137.02488096
_symmetry_Int_Tables_number   1
_chemical_formula_structural   NaTa3N5
_chemical_formula_sum   'Na2 Ta6 N10'
_cell_volume   215.06049960
_cell_formula_units_Z   2
loop_
 _symmetry_equiv_pos_site_id
 _symmetry_equiv_pos_as_xyz
  1  'x, y, z'
loop_
 _atom_site_type_symbol
 _atom_site_label
 _atom_site_symmetry_multiplicity
 _atom_site_fract_x
 _atom_site_fract_y
 _atom_site_fract_z
 _atom_site_occupancy
  Na  Na0  1  0.00587149  0.99412851  0.75000000  1.0
  Na  Na1  1  -0.00587149  0.00587149  0.25000000  1.0
  Ta  Ta2  1  -0.35918705  0.35918705  0.95331677  1.0
  Ta  Ta3  1  -0.35918705  0.35918705  0.54668323  1.0
  Ta  Ta4  1  0.35918705  0.64081295  0.45331677  1.0
  Ta  Ta5  1  0.35918705  0.64081295  0.04668323  1.0
  Ta  Ta6  1  0.29802757  0.70197243  0.75000000  1.0
  Ta  Ta7  1  -0.29802757  0.29802757  0.25000000  1.0
  N  N8  1  0.17999070  0.82000930  0.92112492  1.0
  N  N9  1  0.17999070  0.82000930  0.57887508  1.0
  N  N10  1  -0.17999070  0.17999070  0.42112492  1.0
  N  N11  1  -0.17999070  0.17999070  0.07887508  1.0
  N  N12  1  0.45506026  0.54493974  0.87872412  1.0
  N  N13  1  0.45506026  0.54493974  0.62127588  1.0
  N  N14  1  -0.45506026  0.45506026  0.37872412  1.0
  N  N15  1  -0.45506026  0.45506026  0.12127588  1.0
  N  N16  1  -0.24711628  0.24711628  0.75000000  1.0
  N  N17  1  0.24711628  0.75288372  0.25000000  1.0
