# generated using pymatgen
data_SrZr4(PO4)6
_symmetry_space_group_name_H-M   'P 1'
_cell_length_a   9.35882145
_cell_length_b   9.35882145
_cell_length_c   9.35882146
_cell_angle_alpha   56.61273385
_cell_angle_beta   56.61273385
_cell_angle_gamma   56.61273385
_symmetry_Int_Tables_number   1
_chemical_formula_structural   SrZr4(PO4)6
_chemical_formula_sum   'Sr1 Zr4 P6 O24'
_cell_volume   534.27113319
_cell_formula_units_Z   1
loop_
 _symmetry_equiv_pos_site_id
 _symmetry_equiv_pos_as_xyz
  1  'x, y, z'
loop_
 _atom_site_type_symbol
 _atom_site_label
 _atom_site_symmetry_multiplicity
 _atom_site_fract_x
 _atom_site_fract_y
 _atom_site_fract_z
 _atom_site_occupancy
  Sr  Sr0  1  0.00000000  0.00000000  0.00000000  1.0
  Zr  Zr1  1  0.14977502  0.14977502  0.14977502  1.0
  Zr  Zr2  1  0.85022498  -0.14977502  -0.14977502  1.0
  Zr  Zr3  1  0.35726946  0.35726946  -0.64273054  1.0
  Zr  Zr4  1  0.64273054  0.64273054  -0.35726946  1.0
  P  P5  1  0.54264433  0.24456028  -0.03029974  1.0
  P  P6  1  1.03029974  -0.54264433  -0.24456028  1.0
  P  P7  1  0.75543972  0.03029974  -0.54264433  1.0
  P  P8  1  0.45735567  -0.24456028  0.03029974  1.0
  P  P9  1  0.96970026  -0.45735567  0.24456028  1.0
  P  P10  1  1.24456028  -0.03029974  -0.45735567  1.0
  O  O11  1  0.20341178  1.00267658  -0.61484525  1.0
  O  O12  1  0.61484525  -0.20341178  -0.00267658  1.0
  O  O13  1  0.99732342  -0.38515475  -0.20341178  1.0
  O  O14  1  0.79658822  -0.00267658  -0.38515475  1.0
  O  O15  1  0.38515475  0.20341178  0.00267658  1.0
  O  O16  1  1.00267658  0.38515475  -0.79658822  1.0
  O  O17  1  0.57282572  0.19137394  -0.54954547  1.0
  O  O18  1  0.54954547  0.42717428  -0.19137394  1.0
  O  O19  1  0.80862606  0.54954547  -0.57282572  1.0
  O  O20  1  0.42717428  0.80862606  -0.45045453  1.0
  O  O21  1  0.45045453  0.57282572  -0.80862606  1.0
  O  O22  1  0.19137394  0.45045453  -0.42717428  1.0
  O  O23  1  0.27182756  0.91285741  -0.92092435  1.0
  O  O24  1  0.92092435  -0.27182756  0.08714259  1.0
  O  O25  1  1.08714259  -0.07907565  -0.27182756  1.0
  O  O26  1  0.72817244  0.08714259  -0.07907565  1.0
  O  O27  1  0.07907565  0.27182756  -0.08714259  1.0
  O  O28  1  0.91285741  0.07907565  -0.72817244  1.0
  O  O29  1  0.51733194  0.25023402  0.14432924  1.0
  O  O30  1  0.85567076  -0.51733194  -0.25023402  1.0
  O  O31  1  0.74976598  -0.14432924  -0.51733194  1.0
  O  O32  1  0.48266806  -0.25023402  -0.14432924  1.0
  O  O33  1  1.14432924  -0.48266806  0.25023402  1.0
  O  O34  1  1.25023402  0.14432924  -0.48266806  1.0
