# generated using pymatgen
data_BaS3
_symmetry_space_group_name_H-M   'P 1'
_cell_length_a   6.97422637
_cell_length_b   6.97422637
_cell_length_c   4.21554452
_cell_angle_alpha   90.00000000
_cell_angle_beta   90.00000000
_cell_angle_gamma   90.00000000
_symmetry_Int_Tables_number   1
_chemical_formula_structural   BaS3
_chemical_formula_sum   'Ba2 S6'
_cell_volume   205.04338338
_cell_formula_units_Z   2
loop_
 _symmetry_equiv_pos_site_id
 _symmetry_equiv_pos_as_xyz
  1  'x, y, z'
loop_
 _atom_site_type_symbol
 _atom_site_label
 _atom_site_symmetry_multiplicity
 _atom_site_fract_x
 _atom_site_fract_y
 _atom_site_fract_z
 _atom_site_occupancy
  Ba  Ba0  1  0.50000000  0.50000000  0.00000000  1.0
  Ba  Ba1  1  0.00000000  0.00000000  0.00000000  1.0
  S  S2  1  0.82079704  0.32079704  0.52584607  1.0
  S  S3  1  0.67920296  0.82079704  0.47415393  1.0
  S  S4  1  0.17920296  0.67920296  0.52584607  1.0
  S  S5  1  0.32079704  0.17920296  0.47415393  1.0
  S  S6  1  0.00000000  0.50000000  0.79201926  1.0
  S  S7  1  0.50000000  0.00000000  0.20798074  1.0
