# generated using pymatgen
data_H4CN8O
_symmetry_space_group_name_H-M   'P 1'
_cell_length_a   5.01419995
_cell_length_b   8.24926888
_cell_length_c   7.73237853
_cell_angle_alpha   90.00000000
_cell_angle_beta   98.20158745
_cell_angle_gamma   90.00000000
_symmetry_Int_Tables_number   1
_chemical_formula_structural   H4CN8O
_chemical_formula_sum   'H8 C2 N16 O2'
_cell_volume   316.56689725
_cell_formula_units_Z   2
loop_
 _symmetry_equiv_pos_site_id
 _symmetry_equiv_pos_as_xyz
  1  'x, y, z'
loop_
 _atom_site_type_symbol
 _atom_site_label
 _atom_site_symmetry_multiplicity
 _atom_site_fract_x
 _atom_site_fract_y
 _atom_site_fract_z
 _atom_site_occupancy
  H  H0  1  0.90442725  0.36500924  0.36184115  1.0
  H  H1  1  0.09557275  0.86500924  0.63815885  1.0
  H  H2  1  0.74761175  0.09424820  0.49182523  1.0
  H  H3  1  0.25238825  0.59424820  0.50817477  1.0
  H  H4  1  0.69696464  0.27224752  0.22606058  1.0
  H  H5  1  0.30303536  0.77224752  0.77393942  1.0
  H  H6  1  0.41526783  0.42736764  0.44578389  1.0
  H  H7  1  0.58473217  0.92736764  0.55421611  1.0
  C  C8  1  0.74932128  0.10065089  0.89633359  1.0
  C  C9  1  0.25067872  0.60065089  0.10366641  1.0
  N  N10  1  0.96914327  0.00720644  0.95677828  1.0
  N  N11  1  0.03085673  0.50720644  0.04322172  1.0
  N  N12  1  0.94952054  0.51301849  0.88432985  1.0
  N  N13  1  0.05047946  0.01301849  0.11567015  1.0
  N  N14  1  0.85092064  0.50557421  0.74298538  1.0
  N  N15  1  0.14907936  0.00557421  0.25701462  1.0
  N  N16  1  0.73065030  0.01334540  0.59212583  1.0
  N  N17  1  0.26934970  0.51334540  0.40787417  1.0
  N  N18  1  0.64400846  0.10216978  0.72558725  1.0
  N  N19  1  0.35599154  0.60216978  0.27441275  1.0
  N  N20  1  0.60761966  0.20116541  0.98262144  1.0
  N  N21  1  0.39238034  0.70116541  0.01737856  1.0
  N  N22  1  0.43136831  0.20623839  0.70575978  1.0
  N  N23  1  0.56863169  0.70623839  0.29424022  1.0
  N  N24  1  0.41420760  0.26427913  0.85932932  1.0
  N  N25  1  0.58579240  0.76427913  0.14067068  1.0
  O  O26  1  0.74283134  0.29627924  0.35186136  1.0
  O  O27  1  0.25716866  0.79627924  0.64813864  1.0
