# generated using pymatgen
data_HC2(N2O)2
_symmetry_space_group_name_H-M   'P 1'
_cell_length_a   5.68396807
_cell_length_b   6.40549213
_cell_length_c   12.96194267
_cell_angle_alpha   90.00000000
_cell_angle_beta   106.42675520
_cell_angle_gamma   90.00000000
_symmetry_Int_Tables_number   1
_chemical_formula_structural   HC2(N2O)2
_chemical_formula_sum   'H4 C8 N16 O8'
_cell_volume   452.66327400
_cell_formula_units_Z   4
loop_
 _symmetry_equiv_pos_site_id
 _symmetry_equiv_pos_as_xyz
  1  'x, y, z'
loop_
 _atom_site_type_symbol
 _atom_site_label
 _atom_site_symmetry_multiplicity
 _atom_site_fract_x
 _atom_site_fract_y
 _atom_site_fract_z
 _atom_site_occupancy
  H  H0  1  0.84224352  0.26989523  0.00589173  1.0
  H  H1  1  0.84224352  0.23010477  0.50589173  1.0
  H  H2  1  0.15775648  0.76989523  0.49410827  1.0
  H  H3  1  0.15775648  0.73010477  0.99410827  1.0
  C  C4  1  0.73235060  0.40617154  0.21379359  1.0
  C  C5  1  0.73235060  0.09382846  0.71379359  1.0
  C  C6  1  0.26764940  0.90617154  0.28620641  1.0
  C  C7  1  0.26764940  0.59382846  0.78620641  1.0
  C  C8  1  0.57624971  0.46445903  0.05156153  1.0
  C  C9  1  0.57624971  0.03554097  0.55156153  1.0
  C  C10  1  0.42375029  0.96445903  0.44843847  1.0
  C  C11  1  0.42375029  0.53554097  0.94843847  1.0
  N  N12  1  0.87499433  0.29517742  0.16846483  1.0
  N  N13  1  0.87499433  0.20482258  0.66846483  1.0
  N  N14  1  0.12500567  0.79517742  0.33153517  1.0
  N  N15  1  0.12500567  0.70482258  0.83153517  1.0
  N  N16  1  0.77271509  0.33484496  0.06448761  1.0
  N  N17  1  0.77271509  0.16515504  0.56448761  1.0
  N  N18  1  0.22728491  0.83484496  0.43551239  1.0
  N  N19  1  0.22728491  0.66515504  0.93551239  1.0
  N  N20  1  0.77109273  0.40679686  0.32895724  1.0
  N  N21  1  0.77109273  0.09320314  0.82895724  1.0
  N  N22  1  0.22890727  0.90679686  0.17104276  1.0
  N  N23  1  0.22890727  0.59320314  0.67104276  1.0
  N  N24  1  0.45265197  0.01299643  0.35303701  1.0
  N  N25  1  0.45265197  0.48700357  0.85303701  1.0
  N  N26  1  0.54734803  0.51299643  0.14696299  1.0
  N  N27  1  0.54734803  0.98700357  0.64696299  1.0
  O  O28  1  0.94000957  0.29659457  0.38453907  1.0
  O  O29  1  0.94000957  0.20340543  0.88453907  1.0
  O  O30  1  0.05999043  0.79659457  0.11546093  1.0
  O  O31  1  0.05999043  0.70340543  0.61546093  1.0
  O  O32  1  0.36705494  0.01324879  0.13519386  1.0
  O  O33  1  0.36705494  0.48675121  0.63519386  1.0
  O  O34  1  0.63294506  0.51324879  0.36480614  1.0
  O  O35  1  0.63294506  0.98675121  0.86480614  1.0
