# generated using pymatgen
data_La7C3I10
_symmetry_space_group_name_H-M   'P 1'
_cell_length_a   14.24306818
_cell_length_b   12.01004064
_cell_length_c   9.90939937
_cell_angle_alpha   65.97859017
_cell_angle_beta   71.23096176
_cell_angle_gamma   79.50418309
_symmetry_Int_Tables_number   1
_chemical_formula_structural   La7C3I10
_chemical_formula_sum   'La14 C6 I20'
_cell_volume   1463.39032060
_cell_formula_units_Z   2
loop_
 _symmetry_equiv_pos_site_id
 _symmetry_equiv_pos_as_xyz
  1  'x, y, z'
loop_
 _atom_site_type_symbol
 _atom_site_label
 _atom_site_symmetry_multiplicity
 _atom_site_fract_x
 _atom_site_fract_y
 _atom_site_fract_z
 _atom_site_occupancy
  La  La0  1  -0.69329399  -0.70530867  -0.95896729  1.0
  La  La1  1  -0.30670601  -0.29469133  -0.04103271  1.0
  La  La2  1  -0.64172377  -0.42900348  -0.87657047  1.0
  La  La3  1  -0.35827623  -0.57099652  -0.12342953  1.0
  La  La4  1  -0.92184457  -0.54966665  -0.75266308  1.0
  La  La5  1  -0.07815543  -0.45033335  -0.24733692  1.0
  La  La6  1  -0.89991929  -0.25860297  -0.66835595  1.0
  La  La7  1  -0.10008071  -0.74139703  -0.33164405  1.0
  La  La8  1  -0.58683116  -0.77468927  -0.63158731  1.0
  La  La9  1  -0.41316884  -0.22531073  -0.36841269  1.0
  La  La10  1  -0.83495228  -0.91898464  -0.54396805  1.0
  La  La11  1  -0.16504772  -0.08101536  -0.45603195  1.0
  La  La12  1  -0.82529263  -0.61459055  -0.44993047  1.0
  La  La13  1  -0.17470737  -0.38540945  -0.55006953  1.0
  C  C14  1  -0.72488052  -0.61268705  -0.74398440  1.0
  C  C15  1  -0.27511948  -0.38731295  -0.25601560  1.0
  C  C16  1  -0.76959751  -0.72524548  -0.66743063  1.0
  C  C17  1  -0.23040249  -0.27475452  -0.33256937  1.0
  C  C18  1  -0.97740092  -0.44396995  -0.53830525  1.0
  C  C19  1  -0.02259908  -0.55603005  -0.46169475  1.0
  I  I20  1  -0.16839598  -0.71682667  -1.00228861  1.0
  I  I21  1  -0.83160402  -0.28317333  0.00228861  1.0
  I  I22  1  -0.47977407  -0.83966699  -0.93498149  1.0
  I  I23  1  -0.52022593  -0.16033301  -0.06501851  1.0
  I  I24  1  -0.77470050  -0.97523803  -0.85154842  1.0
  I  I25  1  -0.22529950  -0.02476197  -0.14845158  1.0
  I  I26  1  -0.43130071  -0.54635965  -0.78408419  1.0
  I  I27  1  -0.56869929  -0.45364035  -0.21591581  1.0
  I  I28  1  -0.69773343  -0.37000134  -0.56868593  1.0
  I  I29  1  -0.30226657  -0.62999866  -0.43131407  1.0
  I  I30  1  -0.36360638  -0.93811415  -0.54236158  1.0
  I  I31  1  -0.63639362  -0.06188585  -0.45763842  1.0
  I  I32  1  -0.95816091  -0.19542185  -0.35766118  1.0
  I  I33  1  -0.04183909  -0.80457815  -0.64233882  1.0
  I  I34  1  -0.62753297  -0.74452707  -0.31197841  1.0
  I  I35  1  -0.37246703  -0.25547293  -0.68802159  1.0
  I  I36  1  -0.90877664  -0.88971231  -0.21595785  1.0
  I  I37  1  -0.09122336  -0.11028769  -0.78404215  1.0
  I  I38  1  -0.87884201  -0.57758766  -0.10368194  1.0
  I  I39  1  -0.12115799  -0.42241234  -0.89631806  1.0
