# generated using pymatgen
data_KClO3
_symmetry_space_group_name_H-M   'P 1'
_cell_length_a   13.78217187
_cell_length_b   5.72017039
_cell_length_c   4.72978730
_cell_angle_alpha   90.00000000
_cell_angle_beta   90.00000000
_cell_angle_gamma   90.00000000
_symmetry_Int_Tables_number   1
_chemical_formula_structural   KClO3
_chemical_formula_sum   'K4 Cl4 O12'
_cell_volume   372.87926808
_cell_formula_units_Z   4
loop_
 _symmetry_equiv_pos_site_id
 _symmetry_equiv_pos_as_xyz
  1  'x, y, z'
loop_
 _atom_site_type_symbol
 _atom_site_label
 _atom_site_symmetry_multiplicity
 _atom_site_fract_x
 _atom_site_fract_y
 _atom_site_fract_z
 _atom_site_occupancy
  K  K0  1  0.64704203  0.25000000  0.01580739  1.0
  K  K1  1  0.14704203  0.25000000  0.48419261  1.0
  K  K2  1  0.35295797  0.75000000  -0.01580739  1.0
  K  K3  1  0.85295797  0.75000000  0.51580739  1.0
  Cl  Cl4  1  0.90901745  0.25000000  0.04842894  1.0
  Cl  Cl5  1  0.40901745  0.25000000  0.45157106  1.0
  Cl  Cl6  1  0.09098255  0.75000000  -0.04842894  1.0
  Cl  Cl7  1  0.59098255  0.75000000  0.54842894  1.0
  O  O8  1  0.84457421  0.46229844  0.01376870  1.0
  O  O9  1  0.84457421  0.03770156  0.01376870  1.0
  O  O10  1  0.34457421  0.46229844  0.48623130  1.0
  O  O11  1  0.34457421  0.03770156  0.48623130  1.0
  O  O12  1  0.15542579  0.96229844  -0.01376870  1.0
  O  O13  1  0.15542579  0.53770156  -0.01376870  1.0
  O  O14  1  0.65542579  0.96229844  0.51376870  1.0
  O  O15  1  0.65542579  0.53770156  0.51376870  1.0
  O  O16  1  0.94425200  0.25000000  0.35056940  1.0
  O  O17  1  0.44425200  0.25000000  0.14943060  1.0
  O  O18  1  0.05574800  0.75000000  0.64943060  1.0
  O  O19  1  0.55574800  0.75000000  0.85056940  1.0
