# generated using pymatgen
data_MgH12SO9
_symmetry_space_group_name_H-M   'P 1'
_cell_length_a   5.96115890
_cell_length_b   5.96115890
_cell_length_c   5.96115890
_cell_angle_alpha   95.40133143
_cell_angle_beta   95.40133143
_cell_angle_gamma   95.40133143
_symmetry_Int_Tables_number   1
_chemical_formula_structural   MgH12SO9
_chemical_formula_sum   'Mg1 H12 S1 O9'
_cell_volume   208.81865502
_cell_formula_units_Z   1
loop_
 _symmetry_equiv_pos_site_id
 _symmetry_equiv_pos_as_xyz
  1  'x, y, z'
loop_
 _atom_site_type_symbol
 _atom_site_label
 _atom_site_symmetry_multiplicity
 _atom_site_fract_x
 _atom_site_fract_y
 _atom_site_fract_z
 _atom_site_occupancy
  Mg  Mg0  1  -0.00500844  -0.00500844  -0.00500844  1.0
  H  H1  1  1.02158097  0.53975581  -0.05518181  1.0
  H  H2  1  0.94481819  1.02158097  -0.46024419  1.0
  H  H3  1  0.53975581  0.94481819  0.02158097  1.0
  H  H4  1  1.13119337  0.62614370  -0.26959237  1.0
  H  H5  1  0.73040763  1.13119337  -0.37385630  1.0
  H  H6  1  0.62614370  0.73040763  0.13119337  1.0
  H  H7  1  1.05813258  0.40005504  -0.73468853  1.0
  H  H8  1  0.26531147  1.05813258  -0.59994496  1.0
  H  H9  1  0.40005504  0.26531147  0.05813258  1.0
  H  H10  1  0.79596372  0.36742648  0.18034804  1.0
  H  H11  1  1.18034804  -0.20403628  0.36742648  1.0
  H  H12  1  1.36742648  0.18034804  -0.20403628  1.0
  S  S13  1  0.48923471  0.48923471  0.48923471  1.0
  O  O14  1  1.23877463  0.54856303  -0.53021718  1.0
  O  O15  1  0.46978282  1.23877463  -0.45143697  1.0
  O  O16  1  0.54856303  0.46978282  0.23877463  1.0
  O  O17  1  1.07405725  1.67707752  -0.12437170  1.0
  O  O18  1  0.87562830  1.07405725  0.67707752  1.0
  O  O19  1  1.67707752  0.87562830  0.07405725  1.0
  O  O20  1  0.94651612  0.33027603  0.13438104  1.0
  O  O21  1  1.13438104  -0.05348388  0.33027603  1.0
  O  O22  1  1.33027603  0.13438104  -0.05348388  1.0
