# generated using pymatgen
data_GdTiClO3
_symmetry_space_group_name_H-M   'P 1'
_cell_length_a   5.30202056
_cell_length_b   5.30202056
_cell_length_c   10.08861690
_cell_angle_alpha   74.86099446
_cell_angle_beta   105.13900554
_cell_angle_gamma   136.37675024
_symmetry_Int_Tables_number   1
_chemical_formula_structural   GdTiClO3
_chemical_formula_sum   'Gd2 Ti2 Cl2 O6'
_cell_volume   187.76223570
_cell_formula_units_Z   2
loop_
 _symmetry_equiv_pos_site_id
 _symmetry_equiv_pos_as_xyz
  1  'x, y, z'
loop_
 _atom_site_type_symbol
 _atom_site_label
 _atom_site_symmetry_multiplicity
 _atom_site_fract_x
 _atom_site_fract_y
 _atom_site_fract_z
 _atom_site_occupancy
  Gd  Gd0  1  0.27611210  -0.27611210  0.79414510  1.0
  Gd  Gd1  1  0.72388790  -0.72388790  0.20585490  1.0
  Ti  Ti2  1  0.87987604  -0.87987604  0.56787730  1.0
  Ti  Ti3  1  0.12012396  -0.12012396  0.43212270  1.0
  Cl  Cl4  1  0.61355316  0.38644684  0.90547892  1.0
  Cl  Cl5  1  1.38644684  -0.38644684  0.09452108  1.0
  O  O6  1  0.84903362  0.15096638  0.74286651  1.0
  O  O7  1  1.15096638  -0.15096638  0.25713349  1.0
  O  O8  1  0.92445763  -0.92445763  0.37819587  1.0
  O  O9  1  0.07554237  -0.07554237  0.62180413  1.0
  O  O10  1  0.66863701  0.33136299  0.43775500  1.0
  O  O11  1  1.33136299  -0.33136299  0.56224500  1.0
