# generated using pymatgen
data_NbTe4Os
_symmetry_space_group_name_H-M   'P 1'
_cell_length_a   3.79924869
_cell_length_b   12.53061362
_cell_length_c   13.71803765
_cell_angle_alpha   90.00000000
_cell_angle_beta   90.00000000
_cell_angle_gamma   90.00000000
_symmetry_Int_Tables_number   1
_chemical_formula_structural   NbTe4Os
_chemical_formula_sum   'Nb4 Te16 Os4'
_cell_volume   653.07348413
_cell_formula_units_Z   4
loop_
 _symmetry_equiv_pos_site_id
 _symmetry_equiv_pos_as_xyz
  1  'x, y, z'
loop_
 _atom_site_type_symbol
 _atom_site_label
 _atom_site_symmetry_multiplicity
 _atom_site_fract_x
 _atom_site_fract_y
 _atom_site_fract_z
 _atom_site_occupancy
  Nb  Nb0  1  0.50000000  0.94852314  0.50731333  1.0
  Nb  Nb1  1  0.00000000  0.05147686  0.00731333  1.0
  Nb  Nb2  1  0.50000000  0.71489384  0.98865016  1.0
  Nb  Nb3  1  0.00000000  0.28510616  0.48865016  1.0
  Te  Te4  1  0.50000000  0.92581809  0.89729812  1.0
  Te  Te5  1  -0.00000000  0.07418191  0.39729812  1.0
  Te  Te6  1  0.50000000  0.81157342  0.35325433  1.0
  Te  Te7  1  -0.00000000  0.18842658  0.85325433  1.0
  Te  Te8  1  0.50000000  0.66236302  0.59173681  1.0
  Te  Te9  1  0.00000000  0.33763698  0.09173681  1.0
  Te  Te10  1  0.50000000  0.57371039  0.13814583  1.0
  Te  Te11  1  -0.00000000  0.42628961  0.63814583  1.0
  Te  Te12  1  0.50000000  0.42675107  0.89845707  1.0
  Te  Te13  1  0.00000000  0.57324893  0.39845707  1.0
  Te  Te14  1  0.50000000  0.33223037  0.34662697  1.0
  Te  Te15  1  0.00000000  0.66776963  0.84662697  1.0
  Te  Te16  1  0.50000000  0.15987695  0.60192600  1.0
  Te  Te17  1  -0.00000000  0.84012305  0.10192600  1.0
  Te  Te18  1  0.50000000  0.10042638  0.14899667  1.0
  Te  Te19  1  0.00000000  0.89957362  0.64899667  1.0
  Os  Os20  1  0.50000000  0.46370018  0.50284530  1.0
  Os  Os21  1  -0.00000000  0.53629982  0.00284530  1.0
  Os  Os22  1  0.50000000  0.22792757  0.98874941  1.0
  Os  Os23  1  -0.00000000  0.77207243  0.48874941  1.0
