# generated using pymatgen
data_VAg3O4
_symmetry_space_group_name_H-M   'P 1'
_cell_length_a   6.12022134
_cell_length_b   6.12022134
_cell_length_c   6.12022134
_cell_angle_alpha   131.52091332
_cell_angle_beta   131.52091332
_cell_angle_gamma   70.98675287
_symmetry_Int_Tables_number   1
_chemical_formula_structural   VAg3O4
_chemical_formula_sum   'V1 Ag3 O4'
_cell_volume   125.84052043
_cell_formula_units_Z   1
loop_
 _symmetry_equiv_pos_site_id
 _symmetry_equiv_pos_as_xyz
  1  'x, y, z'
loop_
 _atom_site_type_symbol
 _atom_site_label
 _atom_site_symmetry_multiplicity
 _atom_site_fract_x
 _atom_site_fract_y
 _atom_site_fract_z
 _atom_site_occupancy
  V  V0  1  -0.00000000  -0.00000000  -0.00000000  1.0
  Ag  Ag1  1  0.25000000  0.75000000  0.50000000  1.0
  Ag  Ag2  1  0.75000000  0.25000000  0.50000000  1.0
  Ag  Ag3  1  0.50000000  0.50000000  1.00000000  1.0
  O  O4  1  0.30029390  0.90088970  1.00000000  1.0
  O  O5  1  1.09911030  1.09911030  1.39940420  1.0
  O  O6  1  0.69970610  0.69970610  0.60059580  1.0
  O  O7  1  0.90088970  0.30029390  1.00000000  1.0
