# generated using pymatgen
data_Cs(BBr)6
_symmetry_space_group_name_H-M   'P 1'
_cell_length_a   10.58415201
_cell_length_b   10.58415201
_cell_length_c   10.58415201
_cell_angle_alpha   57.10315977
_cell_angle_beta   57.10315977
_cell_angle_gamma   57.10315977
_symmetry_Int_Tables_number   1
_chemical_formula_structural   Cs(BBr)6
_chemical_formula_sum   'Cs2 B12 Br12'
_cell_volume   782.43170292
_cell_formula_units_Z   2
loop_
 _symmetry_equiv_pos_site_id
 _symmetry_equiv_pos_as_xyz
  1  'x, y, z'
loop_
 _atom_site_type_symbol
 _atom_site_label
 _atom_site_symmetry_multiplicity
 _atom_site_fract_x
 _atom_site_fract_y
 _atom_site_fract_z
 _atom_site_occupancy
  Cs  Cs0  1  0.39781934  0.39781934  -0.60218066  1.0
  Cs  Cs1  1  0.60218066  0.60218066  -0.39781934  1.0
  B  B2  1  1.19107286  -0.02228060  -0.13216437  1.0
  B  B3  1  0.86783563  0.19107286  -0.02228060  1.0
  B  B4  1  0.97771940  -0.13216437  0.19107286  1.0
  B  B5  1  1.80892714  1.02228060  0.13216437  1.0
  B  B6  1  1.13216437  1.80892714  0.02228060  1.0
  B  B7  1  1.02228060  1.13216437  0.80892714  1.0
  B  B8  1  0.14114252  0.93981960  -0.92712352  1.0
  B  B9  1  0.07287648  0.14114252  -0.06018040  1.0
  B  B10  1  0.93981960  0.07287648  -0.85885748  1.0
  B  B11  1  0.85885748  0.06018040  -0.07287648  1.0
  B  B12  1  0.92712352  -0.14114252  0.06018040  1.0
  B  B13  1  1.06018040  -0.07287648  -0.14114252  1.0
  Br  Br14  1  0.41334569  0.95557479  -0.28369712  1.0
  Br  Br15  1  0.71630288  0.41334569  -0.04442521  1.0
  Br  Br16  1  0.95557479  0.71630288  -0.58665431  1.0
  Br  Br17  1  1.58665431  1.04442521  0.28369712  1.0
  Br  Br18  1  1.28369712  1.58665431  0.04442521  1.0
  Br  Br19  1  1.04442521  1.28369712  0.58665431  1.0
  Br  Br20  1  0.30525306  0.86953330  -0.84486651  1.0
  Br  Br21  1  0.15513349  0.30525306  -0.13046670  1.0
  Br  Br22  1  0.86953330  0.15513349  -0.69474694  1.0
  Br  Br23  1  0.69474694  0.13046670  -0.15513349  1.0
  Br  Br24  1  0.84486651  -0.30525306  0.13046670  1.0
  Br  Br25  1  1.13046670  -0.15513349  -0.30525306  1.0
