# generated using pymatgen
data_Ba3(SnP2)2
_symmetry_space_group_name_H-M   'P 1'
_cell_length_a   7.97976807
_cell_length_b   19.67555412
_cell_length_c   7.82766445
_cell_angle_alpha   90.00000000
_cell_angle_beta   112.36998202
_cell_angle_gamma   90.00000000
_symmetry_Int_Tables_number   1
_chemical_formula_structural   Ba3(SnP2)2
_chemical_formula_sum   'Ba12 Sn8 P16'
_cell_volume   1136.50589867
_cell_formula_units_Z   4
loop_
 _symmetry_equiv_pos_site_id
 _symmetry_equiv_pos_as_xyz
  1  'x, y, z'
loop_
 _atom_site_type_symbol
 _atom_site_label
 _atom_site_symmetry_multiplicity
 _atom_site_fract_x
 _atom_site_fract_y
 _atom_site_fract_z
 _atom_site_occupancy
  Ba  Ba0  1  0.78851051  0.18255669  0.99293807  1.0
  Ba  Ba1  1  0.78851051  0.31744331  0.49293807  1.0
  Ba  Ba2  1  0.21148949  0.68255669  0.50706193  1.0
  Ba  Ba3  1  0.21148949  0.81744331  0.00706193  1.0
  Ba  Ba4  1  0.74101773  0.43491714  0.98874085  1.0
  Ba  Ba5  1  0.74101773  0.06508286  0.48874085  1.0
  Ba  Ba6  1  0.25898227  0.93491714  0.51125915  1.0
  Ba  Ba7  1  0.25898227  0.56508286  0.01125915  1.0
  Ba  Ba8  1  0.73808042  0.94043121  0.99277639  1.0
  Ba  Ba9  1  0.73808042  0.55956879  0.49277639  1.0
  Ba  Ba10  1  0.26191958  0.44043121  0.50722361  1.0
  Ba  Ba11  1  0.26191958  0.05956879  0.00722361  1.0
  Sn  Sn12  1  0.79032649  0.62188065  0.97646366  1.0
  Sn  Sn13  1  0.79032649  0.87811935  0.47646366  1.0
  Sn  Sn14  1  0.20967351  0.12188065  0.52353634  1.0
  Sn  Sn15  1  0.20967351  0.37811935  0.02353634  1.0
  Sn  Sn16  1  0.68412432  0.75722154  0.60597664  1.0
  Sn  Sn17  1  0.68412432  0.74277846  0.10597664  1.0
  Sn  Sn18  1  0.31587568  0.25722154  0.89402336  1.0
  Sn  Sn19  1  0.31587568  0.24277846  0.39402336  1.0
  P  P20  1  0.99859031  0.94619833  0.74695093  1.0
  P  P21  1  0.99859031  0.55380167  0.24695093  1.0
  P  P22  1  0.00140969  0.44619833  0.75304907  1.0
  P  P23  1  0.00140969  0.05380167  0.25304907  1.0
  P  P24  1  0.95904232  0.68168088  0.78593179  1.0
  P  P25  1  0.95904232  0.81831912  0.28593179  1.0
  P  P26  1  0.04095768  0.18168088  0.71406821  1.0
  P  P27  1  0.04095768  0.31831912  0.21406821  1.0
  P  P28  1  0.50665557  0.56403953  0.75641863  1.0
  P  P29  1  0.50665557  0.93596047  0.25641863  1.0
  P  P30  1  0.49334443  0.06403953  0.74358137  1.0
  P  P31  1  0.49334443  0.43596047  0.24358137  1.0
  P  P32  1  0.49065439  0.79821128  0.79036168  1.0
  P  P33  1  0.49065439  0.70178872  0.29036168  1.0
  P  P34  1  0.50934561  0.29821128  0.70963832  1.0
  P  P35  1  0.50934561  0.20178872  0.20963832  1.0
