# generated using pymatgen
data_VInO4
_symmetry_space_group_name_H-M   'P 1'
_cell_length_a   4.78391818
_cell_length_b   5.72774174
_cell_length_c   4.98952149
_cell_angle_alpha   90.00000000
_cell_angle_beta   91.88457571
_cell_angle_gamma   90.00000000
_symmetry_Int_Tables_number   1
_chemical_formula_structural   VInO4
_chemical_formula_sum   'V2 In2 O8'
_cell_volume   136.64416724
_cell_formula_units_Z   2
loop_
 _symmetry_equiv_pos_site_id
 _symmetry_equiv_pos_as_xyz
  1  'x, y, z'
loop_
 _atom_site_type_symbol
 _atom_site_label
 _atom_site_symmetry_multiplicity
 _atom_site_fract_x
 _atom_site_fract_y
 _atom_site_fract_z
 _atom_site_occupancy
  V  V0  1  0.50000000  0.31952146  0.25000000  1.0
  V  V1  1  0.50000000  0.68047854  0.75000000  1.0
  In  In2  1  0.00000000  0.79981848  0.25000000  1.0
  In  In3  1  0.00000000  0.20018152  0.75000000  1.0
  O  O4  1  0.74782861  0.87395703  0.88834638  1.0
  O  O5  1  0.74782861  0.12604297  0.38834638  1.0
  O  O6  1  0.25217139  0.87395703  0.61165362  1.0
  O  O7  1  0.25217139  0.12604297  0.11165362  1.0
  O  O8  1  0.70823323  0.59724674  0.45480380  1.0
  O  O9  1  0.70823323  0.40275326  0.95480380  1.0
  O  O10  1  0.29176677  0.59724674  0.04519620  1.0
  O  O11  1  0.29176677  0.40275326  0.54519620  1.0
