# generated using pymatgen
data_AlO2
_symmetry_space_group_name_H-M   'P 1'
_cell_length_a   9.35370557
_cell_length_b   2.91837034
_cell_length_c   4.82774806
_cell_angle_alpha   90.00000000
_cell_angle_beta   90.00000000
_cell_angle_gamma   90.00000000
_symmetry_Int_Tables_number   1
_chemical_formula_structural   AlO2
_chemical_formula_sum   'Al4 O8'
_cell_volume   131.78582405
_cell_formula_units_Z   4
loop_
 _symmetry_equiv_pos_site_id
 _symmetry_equiv_pos_as_xyz
  1  'x, y, z'
loop_
 _atom_site_type_symbol
 _atom_site_label
 _atom_site_symmetry_multiplicity
 _atom_site_fract_x
 _atom_site_fract_y
 _atom_site_fract_z
 _atom_site_occupancy
  Al  Al0  1  0.16274975  0.75000000  0.54220311  1.0
  Al  Al1  1  0.66274975  0.75000000  0.95779689  1.0
  Al  Al2  1  0.83725025  0.25000000  0.45779689  1.0
  Al  Al3  1  0.33725025  0.25000000  0.04220311  1.0
  O  O4  1  0.46817672  0.75000000  0.84573555  1.0
  O  O5  1  0.96817672  0.75000000  0.65426445  1.0
  O  O6  1  0.53182328  0.25000000  0.15426445  1.0
  O  O7  1  0.03182328  0.25000000  0.34573555  1.0
  O  O8  1  0.27120281  0.75000000  0.23073088  1.0
  O  O9  1  0.77120281  0.75000000  0.26926912  1.0
  O  O10  1  0.72879719  0.25000000  0.76926912  1.0
  O  O11  1  0.22879719  0.25000000  0.73073088  1.0
