# generated using pymatgen
data_Sr3InRhO6
_symmetry_space_group_name_H-M   'P 1'
_cell_length_a   6.80150191
_cell_length_b   6.80150191
_cell_length_c   6.80150191
_cell_angle_alpha   90.92670729
_cell_angle_beta   90.92670729
_cell_angle_gamma   90.92670729
_symmetry_Int_Tables_number   1
_chemical_formula_structural   Sr3InRhO6
_chemical_formula_sum   'Sr6 In2 Rh2 O12'
_cell_volume   314.51557985
_cell_formula_units_Z   2
loop_
 _symmetry_equiv_pos_site_id
 _symmetry_equiv_pos_as_xyz
  1  'x, y, z'
loop_
 _atom_site_type_symbol
 _atom_site_label
 _atom_site_symmetry_multiplicity
 _atom_site_fract_x
 _atom_site_fract_y
 _atom_site_fract_z
 _atom_site_occupancy
  Sr  Sr0  1  0.88178955  1.25000000  -0.38178955  1.0
  Sr  Sr1  1  1.38178955  0.11821045  -0.25000000  1.0
  Sr  Sr2  1  0.75000000  0.38178955  0.11821045  1.0
  Sr  Sr3  1  1.25000000  0.61821045  -0.11821045  1.0
  Sr  Sr4  1  1.11821045  -0.25000000  0.38178955  1.0
  Sr  Sr5  1  0.61821045  0.88178955  0.25000000  1.0
  In  In6  1  0.25000000  0.25000000  0.25000000  1.0
  In  In7  1  0.75000000  0.75000000  0.75000000  1.0
  Rh  Rh8  1  0.50000000  0.50000000  0.50000000  1.0
  Rh  Rh9  1  0.00000000  0.00000000  0.00000000  1.0
  O  O10  1  1.21106681  0.40587606  -0.45938864  1.0
  O  O11  1  0.71106681  1.04061136  -0.09412394  1.0
  O  O12  1  0.95938864  0.09412394  0.28893319  1.0
  O  O13  1  1.45938864  -0.21106681  0.59412394  1.0
  O  O14  1  1.59412394  0.45938864  -0.21106681  1.0
  O  O15  1  1.09412394  0.28893319  -0.04061136  1.0
  O  O16  1  0.78893319  0.59412394  0.45938864  1.0
  O  O17  1  1.28893319  -0.04061136  0.09412394  1.0
  O  O18  1  0.54061136  1.21106681  -0.59412394  1.0
  O  O19  1  1.04061136  0.90587606  -0.28893319  1.0
  O  O20  1  0.90587606  0.71106681  0.04061136  1.0
  O  O21  1  0.40587606  0.54061136  0.21106681  1.0
