# generated using pymatgen
data_AgAs(S8F3)2
_symmetry_space_group_name_H-M   'P 1'
_cell_length_a   10.51004809
_cell_length_b   10.51004809
_cell_length_c   16.02359376
_cell_angle_alpha   81.54446285
_cell_angle_beta   98.45553715
_cell_angle_gamma   132.81227355
_symmetry_Int_Tables_number   1
_chemical_formula_structural   AgAs(S8F3)2
_chemical_formula_sum   'Ag2 As2 S32 F12'
_cell_volume   1281.60886432
_cell_formula_units_Z   2
loop_
 _symmetry_equiv_pos_site_id
 _symmetry_equiv_pos_as_xyz
  1  'x, y, z'
loop_
 _atom_site_type_symbol
 _atom_site_label
 _atom_site_symmetry_multiplicity
 _atom_site_fract_x
 _atom_site_fract_y
 _atom_site_fract_z
 _atom_site_occupancy
  Ag  Ag0  1  0.18487326  0.18487326  0.75000000  1.0
  Ag  Ag1  1  0.81512674  0.81512674  0.25000000  1.0
  As  As2  1  0.50000000  0.50000000  0.50000000  1.0
  As  As3  1  0.50000000  0.50000000  -0.00000000  1.0
  S  S4  1  1.23219847  0.47912053  0.74141445  1.0
  S  S5  1  0.47912053  0.23219847  0.75858555  1.0
  S  S6  1  0.76780153  0.52087947  0.25858555  1.0
  S  S7  1  0.52087947  -0.23219847  0.24141445  1.0
  S  S8  1  1.07054684  0.36918664  0.83995381  1.0
  S  S9  1  0.36918664  0.07054684  0.66004619  1.0
  S  S10  1  0.92945316  0.63081336  0.16004619  1.0
  S  S11  1  0.63081336  -0.07054684  0.33995381  1.0
  S  S12  1  0.95972401  0.11345509  0.85457357  1.0
  S  S13  1  0.11345509  -0.04027599  0.64542643  1.0
  S  S14  1  1.04027599  0.88654491  0.14542643  1.0
  S  S15  1  0.88654491  0.04027599  0.35457357  1.0
  S  S16  1  0.70963093  -0.05002286  0.79545854  1.0
  S  S17  1  0.94997714  0.70963093  0.70454146  1.0
  S  S18  1  0.29036907  0.05002286  0.20454146  1.0
  S  S19  1  1.05002286  0.29036907  0.29545854  1.0
  S  S20  1  0.71596497  -0.08924194  0.67471623  1.0
  S  S21  1  0.91075806  0.71596497  0.82528377  1.0
  S  S22  1  0.28403503  0.08924194  0.32528377  1.0
  S  S23  1  1.08924194  0.28403503  0.17471623  1.0
  S  S24  1  0.73730956  0.09024418  0.58786952  1.0
  S  S25  1  1.09024418  0.73730956  0.91213048  1.0
  S  S26  1  0.26269044  -0.09024418  0.41213048  1.0
  S  S27  1  0.90975582  0.26269044  0.08786952  1.0
  S  S28  1  0.99614263  0.28555774  0.56130531  1.0
  S  S29  1  0.28555774  -0.00385737  0.93869469  1.0
  S  S30  1  1.00385737  0.71444226  0.43869469  1.0
  S  S31  1  0.71444226  0.00385737  0.06130531  1.0
  S  S32  1  1.11398985  0.49627137  0.62983799  1.0
  S  S33  1  0.49627137  0.11398985  0.87016201  1.0
  S  S34  1  0.88601015  0.50372863  0.37016201  1.0
  S  S35  1  0.50372863  -0.11398985  0.12983799  1.0
  F  F36  1  1.36316834  0.54620978  0.46841098  1.0
  F  F37  1  0.54620978  0.36316834  0.03158902  1.0
  F  F38  1  0.63683166  0.45379022  0.53158902  1.0
  F  F39  1  0.45379022  -0.36316834  0.96841098  1.0
  F  F40  1  0.68056052  -0.27547480  0.52046545  1.0
  F  F41  1  0.72452520  0.68056052  0.97953455  1.0
  F  F42  1  0.31943948  0.27547480  0.47953455  1.0
  F  F43  1  1.27547480  0.31943948  0.02046545  1.0
  F  F44  1  1.44038438  0.45422196  0.60785440  1.0
  F  F45  1  0.45422196  0.44038438  0.89214560  1.0
  F  F46  1  0.55961562  0.54577804  0.39214560  1.0
  F  F47  1  0.54577804  -0.44038438  0.10785440  1.0
