# generated using pymatgen
data_Ni21SnB20
_symmetry_space_group_name_H-M   'P 1'
_cell_length_a   7.18598802
_cell_length_b   7.18598802
_cell_length_c   7.18598802
_cell_angle_alpha   90.00000000
_cell_angle_beta   90.00000000
_cell_angle_gamma   90.00000000
_symmetry_Int_Tables_number   1
_chemical_formula_structural   Ni21SnB20
_chemical_formula_sum   'Ni21 Sn1 B20'
_cell_volume   371.07309433
_cell_formula_units_Z   1
loop_
 _symmetry_equiv_pos_site_id
 _symmetry_equiv_pos_as_xyz
  1  'x, y, z'
loop_
 _atom_site_type_symbol
 _atom_site_label
 _atom_site_symmetry_multiplicity
 _atom_site_fract_x
 _atom_site_fract_y
 _atom_site_fract_z
 _atom_site_occupancy
  Ni  Ni0  1  0.00000000  0.00000000  0.50000000  1.0
  Ni  Ni1  1  0.50000000  0.00000000  0.00000000  1.0
  Ni  Ni2  1  0.00000000  0.50000000  0.00000000  1.0
  Ni  Ni3  1  0.50000000  0.23453984  0.50000000  1.0
  Ni  Ni4  1  0.50000000  0.50000000  0.23453984  1.0
  Ni  Ni5  1  0.23453984  0.50000000  0.50000000  1.0
  Ni  Ni6  1  0.50000000  0.50000000  0.76546016  1.0
  Ni  Ni7  1  0.76546016  0.50000000  0.50000000  1.0
  Ni  Ni8  1  0.50000000  0.76546016  0.50000000  1.0
  Ni  Ni9  1  0.29322041  0.29322041  0.00000000  1.0
  Ni  Ni10  1  0.00000000  0.29322041  0.29322041  1.0
  Ni  Ni11  1  0.29322041  0.00000000  0.29322041  1.0
  Ni  Ni12  1  0.00000000  0.29322041  0.70677959  1.0
  Ni  Ni13  1  0.29322041  0.00000000  0.70677959  1.0
  Ni  Ni14  1  0.70677959  0.29322041  0.00000000  1.0
  Ni  Ni15  1  0.70677959  0.00000000  0.29322041  1.0
  Ni  Ni16  1  0.70677959  0.00000000  0.70677959  1.0
  Ni  Ni17  1  0.29322041  0.70677959  0.00000000  1.0
  Ni  Ni18  1  0.00000000  0.70677959  0.29322041  1.0
  Ni  Ni19  1  0.00000000  0.70677959  0.70677959  1.0
  Ni  Ni20  1  0.70677959  0.70677959  0.00000000  1.0
  Sn  Sn21  1  0.00000000  0.00000000  0.00000000  1.0
  B  B22  1  0.29242788  0.29242788  0.29242788  1.0
  B  B23  1  0.29242788  0.29242788  0.70757212  1.0
  B  B24  1  0.70757212  0.29242788  0.29242788  1.0
  B  B25  1  0.70757212  0.29242788  0.70757212  1.0
  B  B26  1  0.29242788  0.70757212  0.29242788  1.0
  B  B27  1  0.29242788  0.70757212  0.70757212  1.0
  B  B28  1  0.70757212  0.70757212  0.70757212  1.0
  B  B29  1  0.70757212  0.70757212  0.29242788  1.0
  B  B30  1  0.50000000  0.19948866  0.19948866  1.0
  B  B31  1  0.19948866  0.50000000  0.19948866  1.0
  B  B32  1  0.19948866  0.19948866  0.50000000  1.0
  B  B33  1  0.50000000  0.19948866  0.80051134  1.0
  B  B34  1  0.19948866  0.50000000  0.80051134  1.0
  B  B35  1  0.80051134  0.50000000  0.19948866  1.0
  B  B36  1  0.80051134  0.19948866  0.50000000  1.0
  B  B37  1  0.80051134  0.50000000  0.80051134  1.0
  B  B38  1  0.50000000  0.80051134  0.19948866  1.0
  B  B39  1  0.19948866  0.80051134  0.50000000  1.0
  B  B40  1  0.50000000  0.80051134  0.80051134  1.0
  B  B41  1  0.80051134  0.80051134  0.50000000  1.0
