# generated using pymatgen
data_Ce(Ga4Co)2
_symmetry_space_group_name_H-M   'P 1'
_cell_length_a   12.38121649
_cell_length_b   14.41216587
_cell_length_c   4.04096030
_cell_angle_alpha   90.00000000
_cell_angle_beta   90.00000000
_cell_angle_gamma   90.00000000
_symmetry_Int_Tables_number   1
_chemical_formula_structural   Ce(Ga4Co)2
_chemical_formula_sum   'Ce4 Ga32 Co8'
_cell_volume   721.06954418
_cell_formula_units_Z   4
loop_
 _symmetry_equiv_pos_site_id
 _symmetry_equiv_pos_as_xyz
  1  'x, y, z'
loop_
 _atom_site_type_symbol
 _atom_site_label
 _atom_site_symmetry_multiplicity
 _atom_site_fract_x
 _atom_site_fract_y
 _atom_site_fract_z
 _atom_site_occupancy
  Ce  Ce0  1  0.15687041  0.82046869  0.00000000  1.0
  Ce  Ce1  1  0.65687041  0.67953131  0.00000000  1.0
  Ce  Ce2  1  0.84312959  0.17953131  0.00000000  1.0
  Ce  Ce3  1  0.34312959  0.32046869  0.00000000  1.0
  Ga  Ga4  1  0.47877512  0.63196546  0.50000000  1.0
  Ga  Ga5  1  0.97877512  0.86803454  0.50000000  1.0
  Ga  Ga6  1  0.52122488  0.36803454  0.50000000  1.0
  Ga  Ga7  1  0.02122488  0.13196546  0.50000000  1.0
  Ga  Ga8  1  0.32857909  0.49108128  0.50000000  1.0
  Ga  Ga9  1  0.82857909  0.00891872  0.50000000  1.0
  Ga  Ga10  1  0.67142091  0.50891872  0.50000000  1.0
  Ga  Ga11  1  0.17142091  -0.00891872  0.50000000  1.0
  Ga  Ga12  1  0.33641240  0.87745781  0.50000000  1.0
  Ga  Ga13  1  0.83641240  0.62254219  0.50000000  1.0
  Ga  Ga14  1  0.66358760  0.12254219  0.50000000  1.0
  Ga  Ga15  1  0.16358760  0.37745781  0.50000000  1.0
  Ga  Ga16  1  0.26205178  0.67700226  0.50000000  1.0
  Ga  Ga17  1  0.76205178  0.82299774  0.50000000  1.0
  Ga  Ga18  1  0.73794822  0.32299774  0.50000000  1.0
  Ga  Ga19  1  0.23794822  0.17700226  0.50000000  1.0
  Ga  Ga20  1  0.05050339  0.68068080  0.50000000  1.0
  Ga  Ga21  1  0.55050339  0.81931920  0.50000000  1.0
  Ga  Ga22  1  0.94949661  0.31931920  0.50000000  1.0
  Ga  Ga23  1  0.44949661  0.18068080  0.50000000  1.0
  Ga  Ga24  1  0.40271164  0.75296759  0.00000000  1.0
  Ga  Ga25  1  0.90271164  0.74703241  0.00000000  1.0
  Ga  Ga26  1  0.59728836  0.24703241  0.00000000  1.0
  Ga  Ga27  1  0.09728836  0.25296759  0.00000000  1.0
  Ga  Ga28  1  0.15954136  0.54443601  0.00000000  1.0
  Ga  Ga29  1  0.65954136  0.95556399  0.00000000  1.0
  Ga  Ga30  1  0.84045864  0.45556399  0.00000000  1.0
  Ga  Ga31  1  0.34045864  0.04443601  0.00000000  1.0
  Ga  Ga32  1  0.50000000  0.00000000  0.50000000  1.0
  Ga  Ga33  1  0.00000000  0.50000000  0.50000000  1.0
  Ga  Ga34  1  0.50000000  0.50000000  0.00000000  1.0
  Ga  Ga35  1  0.00000000  0.00000000  0.00000000  1.0
  Co  Co36  1  0.46500559  0.90480137  0.00000000  1.0
  Co  Co37  1  0.96500559  0.59519863  0.00000000  1.0
  Co  Co38  1  0.53499441  0.09519863  0.00000000  1.0
  Co  Co39  1  0.03499441  0.40480137  0.00000000  1.0
  Co  Co40  1  0.34609916  0.59686241  0.00000000  1.0
  Co  Co41  1  0.84609916  0.90313759  0.00000000  1.0
  Co  Co42  1  0.65390084  0.40313759  0.00000000  1.0
  Co  Co43  1  0.15390084  0.09686241  0.00000000  1.0
