# generated using pymatgen
data_Y4CoB13
_symmetry_space_group_name_H-M   'P 1'
_cell_length_a   7.31183565
_cell_length_b   7.31183565
_cell_length_c   6.89742332
_cell_angle_alpha   90.00000000
_cell_angle_beta   90.00000000
_cell_angle_gamma   90.00000000
_symmetry_Int_Tables_number   1
_chemical_formula_structural   Y4CoB13
_chemical_formula_sum   'Y8 Co2 B26'
_cell_volume   368.75653294
_cell_formula_units_Z   2
loop_
 _symmetry_equiv_pos_site_id
 _symmetry_equiv_pos_as_xyz
  1  'x, y, z'
loop_
 _atom_site_type_symbol
 _atom_site_label
 _atom_site_symmetry_multiplicity
 _atom_site_fract_x
 _atom_site_fract_y
 _atom_site_fract_z
 _atom_site_occupancy
  Y  Y0  1  0.31895469  0.81546712  0.50000000  1.0
  Y  Y1  1  0.81895469  0.68453288  0.00000000  1.0
  Y  Y2  1  0.18453288  0.31895469  0.50000000  1.0
  Y  Y3  1  0.68453288  0.18104531  0.00000000  1.0
  Y  Y4  1  0.68104531  0.18453288  0.50000000  1.0
  Y  Y5  1  0.18104531  0.31546712  -0.00000000  1.0
  Y  Y6  1  0.81546712  0.68104531  0.50000000  1.0
  Y  Y7  1  0.31546712  0.81895469  0.00000000  1.0
  Co  Co8  1  0.50000000  0.50000000  0.00000000  1.0
  Co  Co9  1  0.00000000  0.00000000  0.50000000  1.0
  B  B10  1  0.33039514  0.53920373  0.25400812  1.0
  B  B11  1  0.33039514  0.53920373  0.74599188  1.0
  B  B12  1  0.83039514  0.96079627  0.75400812  1.0
  B  B13  1  0.83039514  0.96079627  0.24599188  1.0
  B  B14  1  0.46079627  0.33039514  0.25400812  1.0
  B  B15  1  0.46079627  0.33039514  0.74599188  1.0
  B  B16  1  0.96079627  0.16960486  0.75400812  1.0
  B  B17  1  0.96079627  0.16960486  0.24599188  1.0
  B  B18  1  0.66960486  0.46079627  0.25400812  1.0
  B  B19  1  0.66960486  0.46079627  0.74599188  1.0
  B  B20  1  0.16960486  0.03920373  0.75400812  1.0
  B  B21  1  0.16960486  0.03920373  0.24599188  1.0
  B  B22  1  0.53920373  0.66960486  0.25400812  1.0
  B  B23  1  0.53920373  0.66960486  0.74599188  1.0
  B  B24  1  0.03920373  0.83039514  0.75400812  1.0
  B  B25  1  0.03920373  0.83039514  0.24599188  1.0
  B  B26  1  0.40921898  0.09078102  0.25000000  1.0
  B  B27  1  0.40921898  0.09078102  0.75000000  1.0
  B  B28  1  0.90921898  0.40921898  0.75000000  1.0
  B  B29  1  0.90921898  0.40921898  0.25000000  1.0
  B  B30  1  0.59078102  0.90921898  0.25000000  1.0
  B  B31  1  0.59078102  0.90921898  0.75000000  1.0
  B  B32  1  0.09078102  0.59078102  0.75000000  1.0
  B  B33  1  0.09078102  0.59078102  0.25000000  1.0
  B  B34  1  0.50000000  0.50000000  0.50000000  1.0
  B  B35  1  0.00000000  0.00000000  -0.00000000  1.0
