# generated using pymatgen
data_Mn2N
_symmetry_space_group_name_H-M   'P 1'
_cell_length_a   4.38468510
_cell_length_b   5.53743943
_cell_length_c   4.80916713
_cell_angle_alpha   90.00000000
_cell_angle_beta   90.00000000
_cell_angle_gamma   90.00000000
_symmetry_Int_Tables_number   1
_chemical_formula_structural   Mn2N
_chemical_formula_sum   'Mn8 N4'
_cell_volume   116.76623245
_cell_formula_units_Z   4
loop_
 _symmetry_equiv_pos_site_id
 _symmetry_equiv_pos_as_xyz
  1  'x, y, z'
loop_
 _atom_site_type_symbol
 _atom_site_label
 _atom_site_symmetry_multiplicity
 _atom_site_fract_x
 _atom_site_fract_y
 _atom_site_fract_z
 _atom_site_occupancy
  Mn  Mn0  1  0.24970582  0.37857538  0.08333906  1.0
  Mn  Mn1  1  0.24970582  0.62142462  0.58333906  1.0
  Mn  Mn2  1  0.74970582  0.87857538  0.41666094  1.0
  Mn  Mn3  1  0.74970582  0.12142462  0.91666094  1.0
  Mn  Mn4  1  0.75029418  0.37857538  0.41666094  1.0
  Mn  Mn5  1  0.75029418  0.62142462  0.91666094  1.0
  Mn  Mn6  1  0.25029418  0.87857538  0.08333906  1.0
  Mn  Mn7  1  0.25029418  0.12142462  0.58333906  1.0
  N  N8  1  0.50000000  0.13359957  0.25000000  1.0
  N  N9  1  0.50000000  0.86640043  0.75000000  1.0
  N  N10  1  0.00000000  0.63359957  0.25000000  1.0
  N  N11  1  0.00000000  0.36640043  0.75000000  1.0
