# generated using pymatgen
data_NdZnPO
_symmetry_space_group_name_H-M   'P 1'
_cell_length_a   10.59908090
_cell_length_b   10.59908090
_cell_length_c   10.59908090
_cell_angle_alpha   21.65131546
_cell_angle_beta   21.65131546
_cell_angle_gamma   21.65131546
_symmetry_Int_Tables_number   1
_chemical_formula_structural   NdZnPO
_chemical_formula_sum   'Nd2 Zn2 P2 O2'
_cell_volume   142.04392469
_cell_formula_units_Z   2
loop_
 _symmetry_equiv_pos_site_id
 _symmetry_equiv_pos_as_xyz
  1  'x, y, z'
loop_
 _atom_site_type_symbol
 _atom_site_label
 _atom_site_symmetry_multiplicity
 _atom_site_fract_x
 _atom_site_fract_y
 _atom_site_fract_z
 _atom_site_occupancy
  Nd  Nd0  1  1.61891253  0.61891253  0.61891253  1.0
  Nd  Nd1  1  1.38108747  0.38108747  0.38108747  1.0
  Zn  Zn2  1  0.80357161  0.80357161  0.80357161  1.0
  Zn  Zn3  1  1.19642839  1.19642839  0.19642839  1.0
  P  P4  1  0.88602588  0.88602588  0.88602588  1.0
  P  P5  1  1.11397412  1.11397412  0.11397412  1.0
  O  O6  1  0.69466933  0.69466933  0.69466933  1.0
  O  O7  1  1.30533067  1.30533067  0.30533067  1.0
