# generated using pymatgen
data_Cs7O
_symmetry_space_group_name_H-M   'P 1'
_cell_length_a   16.44567786
_cell_length_b   16.44567786
_cell_length_c   9.31529876
_cell_angle_alpha   90.00000000
_cell_angle_beta   90.00000000
_cell_angle_gamma   120.00000000
_symmetry_Int_Tables_number   1
_chemical_formula_structural   Cs7O
_chemical_formula_sum   'Cs21 O3'
_cell_volume   2181.88058470
_cell_formula_units_Z   3
loop_
 _symmetry_equiv_pos_site_id
 _symmetry_equiv_pos_as_xyz
  1  'x, y, z'
loop_
 _atom_site_type_symbol
 _atom_site_label
 _atom_site_symmetry_multiplicity
 _atom_site_fract_x
 _atom_site_fract_y
 _atom_site_fract_z
 _atom_site_occupancy
  Cs  Cs0  1  0.62680817  0.81340408  0.78193918  1.0
  Cs  Cs1  1  0.62680817  0.81340408  0.21806082  1.0
  Cs  Cs2  1  0.18659592  0.81340408  0.78193918  1.0
  Cs  Cs3  1  0.18659592  0.81340408  0.21806082  1.0
  Cs  Cs4  1  0.18659592  0.37319183  0.78193918  1.0
  Cs  Cs5  1  0.18659592  0.37319183  0.21806082  1.0
  Cs  Cs6  1  0.89875935  0.44937967  0.50000000  1.0
  Cs  Cs7  1  0.55062033  0.44937967  0.50000000  1.0
  Cs  Cs8  1  0.55062033  0.10124065  0.50000000  1.0
  Cs  Cs9  1  0.22463328  0.11231664  0.50000000  1.0
  Cs  Cs10  1  0.88768336  0.11231664  0.50000000  1.0
  Cs  Cs11  1  0.88768336  0.77536672  0.50000000  1.0
  Cs  Cs12  1  0.10088467  0.55044234  0.00000000  1.0
  Cs  Cs13  1  0.44955766  0.55044234  0.00000000  1.0
  Cs  Cs14  1  0.44955766  0.89911533  0.00000000  1.0
  Cs  Cs15  1  0.43025189  0.21512595  0.00000000  1.0
  Cs  Cs16  1  0.78487405  0.21512595  0.00000000  1.0
  Cs  Cs17  1  0.78487405  0.56974811  0.00000000  1.0
  Cs  Cs18  1  0.33333333  0.66666667  0.79765163  1.0
  Cs  Cs19  1  0.33333333  0.66666667  0.20234837  1.0
  Cs  Cs20  1  0.00000000  0.00000000  0.00000000  1.0
  O  O21  1  0.49702256  0.74851128  0.00000000  1.0
  O  O22  1  0.25148872  0.74851128  0.00000000  1.0
  O  O23  1  0.25148872  0.50297744  0.00000000  1.0
