# generated using pymatgen
data_Cr4Re7Ni4
_symmetry_space_group_name_H-M   'P 1'
_cell_length_a   9.18029337
_cell_length_b   9.18029337
_cell_length_c   4.62308134
_cell_angle_alpha   90.00000000
_cell_angle_beta   90.00000000
_cell_angle_gamma   90.00000000
_symmetry_Int_Tables_number   1
_chemical_formula_structural   Cr4Re7Ni4
_chemical_formula_sum   'Cr8 Re14 Ni8'
_cell_volume   389.62306160
_cell_formula_units_Z   2
loop_
 _symmetry_equiv_pos_site_id
 _symmetry_equiv_pos_as_xyz
  1  'x, y, z'
loop_
 _atom_site_type_symbol
 _atom_site_label
 _atom_site_symmetry_multiplicity
 _atom_site_fract_x
 _atom_site_fract_y
 _atom_site_fract_z
 _atom_site_occupancy
  Cr  Cr0  1  0.31606388  0.68393612  0.25337289  1.0
  Cr  Cr1  1  0.68393612  0.31606388  0.25337289  1.0
  Cr  Cr2  1  0.18393612  0.18393612  0.75337289  1.0
  Cr  Cr3  1  0.81606388  0.81606388  0.75337289  1.0
  Cr  Cr4  1  0.68393612  0.31606388  0.74662711  1.0
  Cr  Cr5  1  0.31606388  0.68393612  0.74662711  1.0
  Cr  Cr6  1  0.81606388  0.81606388  0.24662711  1.0
  Cr  Cr7  1  0.18393612  0.18393612  0.24662711  1.0
  Re  Re8  1  0.50000000  0.50000000  0.50000000  1.0
  Re  Re9  1  0.00000000  0.00000000  0.00000000  1.0
  Re  Re10  1  0.10477997  0.89522003  0.50000000  1.0
  Re  Re11  1  0.89522003  0.10477997  0.50000000  1.0
  Re  Re12  1  0.39522003  0.39522003  0.00000000  1.0
  Re  Re13  1  0.60477997  0.60477997  0.00000000  1.0
  Re  Re14  1  0.36855153  0.96198298  0.50000000  1.0
  Re  Re15  1  0.63144847  0.03801702  0.50000000  1.0
  Re  Re16  1  0.13144847  0.46198298  0.00000000  1.0
  Re  Re17  1  0.86855153  0.53801702  0.00000000  1.0
  Re  Re18  1  0.96198298  0.36855153  0.50000000  1.0
  Re  Re19  1  0.03801702  0.63144847  0.50000000  1.0
  Re  Re20  1  0.46198298  0.13144847  0.00000000  1.0
  Re  Re21  1  0.53801702  0.86855153  0.00000000  1.0
  Ni  Ni22  1  0.43187904  0.24129160  0.50000000  1.0
  Ni  Ni23  1  0.56812096  0.75870840  0.50000000  1.0
  Ni  Ni24  1  0.06812096  0.74129160  0.00000000  1.0
  Ni  Ni25  1  0.93187904  0.25870840  0.00000000  1.0
  Ni  Ni26  1  0.24129160  0.43187904  0.50000000  1.0
  Ni  Ni27  1  0.75870840  0.56812096  0.50000000  1.0
  Ni  Ni28  1  0.74129160  0.06812096  0.00000000  1.0
  Ni  Ni29  1  0.25870840  0.93187904  0.00000000  1.0
