# generated using pymatgen
data_CdCu3(ClO3)2
_symmetry_space_group_name_H-M   'P 1'
_cell_length_a   5.68792054
_cell_length_b   5.68792054
_cell_length_c   6.60547878
_cell_angle_alpha   69.39542268
_cell_angle_beta   110.60457732
_cell_angle_gamma   112.78603105
_symmetry_Int_Tables_number   1
_chemical_formula_structural   CdCu3(ClO3)2
_chemical_formula_sum   'Cd1 Cu3 Cl2 O6'
_cell_volume   178.57261030
_cell_formula_units_Z   1
loop_
 _symmetry_equiv_pos_site_id
 _symmetry_equiv_pos_as_xyz
  1  'x, y, z'
loop_
 _atom_site_type_symbol
 _atom_site_label
 _atom_site_symmetry_multiplicity
 _atom_site_fract_x
 _atom_site_fract_y
 _atom_site_fract_z
 _atom_site_occupancy
  Cd  Cd0  1  -0.00000000  0.00000000  0.50000000  1.0
  Cu  Cu1  1  1.50000000  -0.00000000  -0.00000000  1.0
  Cu  Cu2  1  1.00000000  0.50000000  -0.00000000  1.0
  Cu  Cu3  1  0.00000000  0.00000000  -0.00000000  1.0
  Cl  Cl4  1  0.70763665  0.29236335  0.35004611  1.0
  Cl  Cl5  1  1.29236335  -0.29236335  0.64995389  1.0
  O  O6  1  0.24694796  0.16207503  0.82285977  1.0
  O  O7  1  0.83792497  0.75305204  0.82285977  1.0
  O  O8  1  1.16207503  -0.75305204  0.17714023  1.0
  O  O9  1  1.75305204  -0.16207503  0.17714023  1.0
  O  O10  1  0.76393456  0.23606544  0.85873484  1.0
  O  O11  1  1.23606544  -0.23606544  0.14126516  1.0
