# generated using pymatgen
data_Zn2SiO4
_symmetry_space_group_name_H-M   'P 1'
_cell_length_a   10.43590762
_cell_length_b   6.74254180
_cell_length_c   5.14453709
_cell_angle_alpha   90.00000000
_cell_angle_beta   90.00000000
_cell_angle_gamma   90.00000000
_symmetry_Int_Tables_number   1
_chemical_formula_structural   Zn2SiO4
_chemical_formula_sum   'Zn8 Si4 O16'
_cell_volume   361.99300319
_cell_formula_units_Z   4
loop_
 _symmetry_equiv_pos_site_id
 _symmetry_equiv_pos_as_xyz
  1  'x, y, z'
loop_
 _atom_site_type_symbol
 _atom_site_label
 _atom_site_symmetry_multiplicity
 _atom_site_fract_x
 _atom_site_fract_y
 _atom_site_fract_z
 _atom_site_occupancy
  Zn  Zn0  1  0.65586439  0.49961187  0.31888545  1.0
  Zn  Zn1  1  0.65586439  0.00038813  0.31888545  1.0
  Zn  Zn2  1  0.15586439  0.49961187  0.18111455  1.0
  Zn  Zn3  1  0.15586439  0.00038813  0.18111455  1.0
  Zn  Zn4  1  0.34413561  0.99961187  0.68111455  1.0
  Zn  Zn5  1  0.34413561  0.50038813  0.68111455  1.0
  Zn  Zn6  1  0.84413561  0.99961187  0.81888545  1.0
  Zn  Zn7  1  0.84413561  0.50038813  0.81888545  1.0
  Si  Si8  1  0.90641122  0.25000000  0.31710418  1.0
  Si  Si9  1  0.40641122  0.25000000  0.18289582  1.0
  Si  Si10  1  0.09358878  0.75000000  0.68289582  1.0
  Si  Si11  1  0.59358878  0.75000000  0.81710418  1.0
  O  O12  1  0.83638322  0.44969994  0.19830264  1.0
  O  O13  1  0.83638322  0.05030006  0.19830264  1.0
  O  O14  1  0.33638322  0.44969994  0.30169736  1.0
  O  O15  1  0.33638322  0.05030006  0.30169736  1.0
  O  O16  1  0.16361678  0.94969994  0.80169736  1.0
  O  O17  1  0.16361678  0.55030006  0.80169736  1.0
  O  O18  1  0.66361678  0.94969994  0.69830264  1.0
  O  O19  1  0.66361678  0.55030006  0.69830264  1.0
  O  O20  1  0.88593000  0.25000000  0.63541941  1.0
  O  O21  1  0.38593000  0.25000000  0.86458059  1.0
  O  O22  1  0.11407000  0.75000000  0.36458059  1.0
  O  O23  1  0.61407000  0.75000000  0.13541941  1.0
  O  O24  1  0.55901962  0.25000000  0.26368460  1.0
  O  O25  1  0.05901962  0.25000000  0.23631540  1.0
  O  O26  1  0.44098038  0.75000000  0.73631540  1.0
  O  O27  1  0.94098038  0.75000000  0.76368460  1.0
