# generated using pymatgen
data_CCl2O
_symmetry_space_group_name_H-M   'P 1'
_cell_length_a   12.66799070
_cell_length_b   12.66799070
_cell_length_c   12.66799070
_cell_angle_alpha   93.21530426
_cell_angle_beta   93.21530426
_cell_angle_gamma   152.60102372
_symmetry_Int_Tables_number   1
_chemical_formula_structural   CCl2O
_chemical_formula_sum   'C8 Cl16 O8'
_cell_volume   908.90890188
_cell_formula_units_Z   8
loop_
 _symmetry_equiv_pos_site_id
 _symmetry_equiv_pos_as_xyz
  1  'x, y, z'
loop_
 _atom_site_type_symbol
 _atom_site_label
 _atom_site_symmetry_multiplicity
 _atom_site_fract_x
 _atom_site_fract_y
 _atom_site_fract_z
 _atom_site_occupancy
  C  C0  1  1.01177563  1.28001105  0.98789611  1.0
  C  C1  1  0.29211494  1.02387952  1.01210389  1.0
  C  C2  1  1.03001105  1.54211494  0.76823542  1.0
  C  C3  1  0.77387952  1.26177563  1.23176458  1.0
  C  C4  1  0.73822437  0.96998895  1.51210389  1.0
  C  C5  1  1.45788506  1.22612048  1.48789611  1.0
  C  C6  1  1.71998895  1.70788506  1.73176458  1.0
  C  C7  1  0.97612048  0.98822437  1.26823542  1.0
  Cl  Cl8  1  1.18077305  0.33856008  0.92987391  1.0
  Cl  Cl9  1  0.40868617  1.25089914  1.07012609  1.0
  Cl  Cl10  1  0.08856008  0.65868617  0.65778703  1.0
  Cl  Cl11  1  1.00089914  0.43077305  1.34221297  1.0
  Cl  Cl12  1  0.56922695  0.91143992  0.57012609  1.0
  Cl  Cl13  1  1.34131383  0.99910086  1.42987391  1.0
  Cl  Cl14  1  1.66143992  1.59131383  1.84221297  1.0
  Cl  Cl15  1  0.74910086  0.81922695  0.15778703  1.0
  Cl  Cl16  1  0.72034467  1.02313795  0.91360175  1.0
  Cl  Cl17  1  1.10953621  1.80674292  1.08639825  1.0
  Cl  Cl18  1  0.77313795  1.35953621  0.80279328  1.0
  Cl  Cl19  1  0.55674292  0.97034467  1.19720672  1.0
  Cl  Cl20  1  1.02965533  1.22686205  1.58639825  1.0
  Cl  Cl21  1  1.64046379  1.44325708  1.41360175  1.0
  Cl  Cl22  1  0.97686205  0.89046379  1.69720672  1.0
  Cl  Cl23  1  1.19325708  1.27965533  1.30279328  1.0
  O  O24  1  1.08846868  1.40155256  1.06861129  1.0
  O  O25  1  0.33294128  1.01985739  0.93138871  1.0
  O  O26  1  1.15155256  1.58294128  0.81308389  1.0
  O  O27  1  0.76985739  1.33846868  1.18691611  1.0
  O  O28  1  0.66153132  0.84844744  1.43138871  1.0
  O  O29  1  1.41705872  1.23014261  1.56861129  1.0
  O  O30  1  1.59844744  1.66705872  1.68691611  1.0
  O  O31  1  0.98014261  0.91153132  1.31308389  1.0
