# generated using pymatgen
data_Rb2W3SeO12
_symmetry_space_group_name_H-M   'P 1'
_cell_length_a   7.32361265
_cell_length_b   7.32361265
_cell_length_c   12.66173233
_cell_angle_alpha   90.00000000
_cell_angle_beta   90.00000000
_cell_angle_gamma   120.00000000
_symmetry_Int_Tables_number   1
_chemical_formula_structural   Rb2W3SeO12
_chemical_formula_sum   'Rb4 W6 Se2 O24'
_cell_volume   588.13157036
_cell_formula_units_Z   2
loop_
 _symmetry_equiv_pos_site_id
 _symmetry_equiv_pos_as_xyz
  1  'x, y, z'
loop_
 _atom_site_type_symbol
 _atom_site_label
 _atom_site_symmetry_multiplicity
 _atom_site_fract_x
 _atom_site_fract_y
 _atom_site_fract_z
 _atom_site_occupancy
  Rb  Rb0  1  0.33333333  0.66666667  0.06170482  1.0
  Rb  Rb1  1  0.66666667  0.33333333  0.56170482  1.0
  Rb  Rb2  1  0.33333333  0.66666667  0.45279581  1.0
  Rb  Rb3  1  0.66666667  0.33333333  0.95279581  1.0
  W  W4  1  0.81245224  0.66108987  0.23676936  1.0
  W  W5  1  0.66108987  0.84863763  0.73676936  1.0
  W  W6  1  0.84863763  0.18754776  0.23676936  1.0
  W  W7  1  0.33891013  0.15136237  0.23676936  1.0
  W  W8  1  0.18754776  0.33891013  0.73676936  1.0
  W  W9  1  0.15136237  0.81245224  0.73676936  1.0
  Se  Se10  1  0.00000000  0.00000000  0.01150698  1.0
  Se  Se11  1  0.00000000  0.00000000  0.51150698  1.0
  O  O12  1  0.87203867  0.75068736  0.06890385  1.0
  O  O13  1  0.75068736  0.87864869  0.56890385  1.0
  O  O14  1  0.87864869  0.12796133  0.06890385  1.0
  O  O15  1  0.24931264  0.12135131  0.06890385  1.0
  O  O16  1  0.12796133  0.24931264  0.56890385  1.0
  O  O17  1  0.12135131  0.87203867  0.56890385  1.0
  O  O18  1  0.79296645  0.60019694  0.37128517  1.0
  O  O19  1  0.60019694  0.80723049  0.87128517  1.0
  O  O20  1  0.80723049  0.20703355  0.37128517  1.0
  O  O21  1  0.39980306  0.19276951  0.37128517  1.0
  O  O22  1  0.20703355  0.39980306  0.87128517  1.0
  O  O23  1  0.19276951  0.79296645  0.87128517  1.0
  O  O24  1  0.53980818  0.45147985  0.19374662  1.0
  O  O25  1  0.45147985  0.91167167  0.69374662  1.0
  O  O26  1  0.91167167  0.46019182  0.19374662  1.0
  O  O27  1  0.54852015  0.08832833  0.19374662  1.0
  O  O28  1  0.46019182  0.54852015  0.69374662  1.0
  O  O29  1  0.08832833  0.53980818  0.69374662  1.0
  O  O30  1  0.11951272  0.87180225  0.24599246  1.0
  O  O31  1  0.87180225  0.75228953  0.74599246  1.0
  O  O32  1  0.75228953  0.88048728  0.24599246  1.0
  O  O33  1  0.12819775  0.24771047  0.24599246  1.0
  O  O34  1  0.88048728  0.12819775  0.74599246  1.0
  O  O35  1  0.24771047  0.11951272  0.74599246  1.0
