# generated using pymatgen
data_Mn(SbS2)2
_symmetry_space_group_name_H-M   'P 1'
_cell_length_a   11.53727507
_cell_length_b   3.84093262
_cell_length_c   14.68368457
_cell_angle_alpha   90.00000000
_cell_angle_beta   90.00000000
_cell_angle_gamma   90.00000000
_symmetry_Int_Tables_number   1
_chemical_formula_structural   Mn(SbS2)2
_chemical_formula_sum   'Mn4 Sb8 S16'
_cell_volume   650.69127309
_cell_formula_units_Z   4
loop_
 _symmetry_equiv_pos_site_id
 _symmetry_equiv_pos_as_xyz
  1  'x, y, z'
loop_
 _atom_site_type_symbol
 _atom_site_label
 _atom_site_symmetry_multiplicity
 _atom_site_fract_x
 _atom_site_fract_y
 _atom_site_fract_z
 _atom_site_occupancy
  Mn  Mn0  1  0.68137782  0.75000000  0.16680162  1.0
  Mn  Mn1  1  0.18137782  0.75000000  0.33319838  1.0
  Mn  Mn2  1  0.31862218  0.25000000  0.83319838  1.0
  Mn  Mn3  1  0.81862218  0.25000000  0.66680162  1.0
  Sb  Sb4  1  0.85805409  0.75000000  0.44421397  1.0
  Sb  Sb5  1  0.35805409  0.75000000  0.05578603  1.0
  Sb  Sb6  1  0.14194591  0.25000000  0.55578603  1.0
  Sb  Sb7  1  0.64194591  0.25000000  0.94421397  1.0
  Sb  Sb8  1  0.54470626  0.75000000  0.61692651  1.0
  Sb  Sb9  1  0.04470626  0.75000000  0.88307349  1.0
  Sb  Sb10  1  0.45529374  0.25000000  0.38307349  1.0
  Sb  Sb11  1  0.95529374  0.25000000  0.11692651  1.0
  S  S12  1  0.95767173  0.75000000  0.59697283  1.0
  S  S13  1  0.45767173  0.75000000  0.90302717  1.0
  S  S14  1  0.04232827  0.25000000  0.40302717  1.0
  S  S15  1  0.54232827  0.25000000  0.09697283  1.0
  S  S16  1  0.77475863  0.75000000  0.01237486  1.0
  S  S17  1  0.27475863  0.75000000  0.48762514  1.0
  S  S18  1  0.22524137  0.25000000  0.98762514  1.0
  S  S19  1  0.72524137  0.25000000  0.51237486  1.0
  S  S20  1  0.70024199  0.75000000  0.73052968  1.0
  S  S21  1  0.20024199  0.75000000  0.76947032  1.0
  S  S22  1  0.29975801  0.25000000  0.26947032  1.0
  S  S23  1  0.79975801  0.25000000  0.23052968  1.0
  S  S24  1  0.57495398  0.75000000  0.31659649  1.0
  S  S25  1  0.07495398  0.75000000  0.18340351  1.0
  S  S26  1  0.42504602  0.25000000  0.68340351  1.0
  S  S27  1  0.92504602  0.25000000  0.81659649  1.0
