# generated using pymatgen
data_Ca2CdAs2
_symmetry_space_group_name_H-M   'P 1'
_cell_length_a   8.53958257
_cell_length_b   8.53958257
_cell_length_c   7.23178331
_cell_angle_alpha   90.00000000
_cell_angle_beta   90.00000000
_cell_angle_gamma   150.59381066
_symmetry_Int_Tables_number   1
_chemical_formula_structural   Ca2CdAs2
_chemical_formula_sum   'Ca4 Cd2 As4'
_cell_volume   258.93949168
_cell_formula_units_Z   2
loop_
 _symmetry_equiv_pos_site_id
 _symmetry_equiv_pos_as_xyz
  1  'x, y, z'
loop_
 _atom_site_type_symbol
 _atom_site_label
 _atom_site_symmetry_multiplicity
 _atom_site_fract_x
 _atom_site_fract_y
 _atom_site_fract_z
 _atom_site_occupancy
  Ca  Ca0  1  -0.69999352  0.69999352  0.92505999  1.0
  Ca  Ca1  1  -0.30000648  1.30000648  0.42505999  1.0
  Ca  Ca2  1  -0.53348662  0.53348662  0.27393940  1.0
  Ca  Ca3  1  -0.46651338  1.46651338  0.77393940  1.0
  Cd  Cd4  1  -0.90153798  0.90153798  0.10919397  1.0
  Cd  Cd5  1  -0.09846202  1.09846202  0.60919397  1.0
  As  As6  1  -0.93514692  0.93514692  0.48553654  1.0
  As  As7  1  -0.06485308  1.06485308  0.98553654  1.0
  As  As8  1  -0.68138557  0.68138557  0.50187010  1.0
  As  As9  1  -0.31861443  1.31861443  0.00187010  1.0
