# generated using pymatgen
data_La4Mg3Ag10
_symmetry_space_group_name_H-M   'P 1'
_cell_length_a   8.87732767
_cell_length_b   8.87732767
_cell_length_c   10.49532354
_cell_angle_alpha   90.00000000
_cell_angle_beta   90.00000000
_cell_angle_gamma   71.80860116
_symmetry_Int_Tables_number   1
_chemical_formula_structural   La4Mg3Ag10
_chemical_formula_sum   'La8 Mg6 Ag20'
_cell_volume   785.76483671
_cell_formula_units_Z   2
loop_
 _symmetry_equiv_pos_site_id
 _symmetry_equiv_pos_as_xyz
  1  'x, y, z'
loop_
 _atom_site_type_symbol
 _atom_site_label
 _atom_site_symmetry_multiplicity
 _atom_site_fract_x
 _atom_site_fract_y
 _atom_site_fract_z
 _atom_site_occupancy
  La  La0  1  0.20205736  1.20205736  0.50000000  1.0
  La  La1  1  -0.29794264  0.70205736  -0.00000000  1.0
  La  La2  1  -0.20205736  0.79794264  0.50000000  1.0
  La  La3  1  0.29794264  1.29794264  -0.00000000  1.0
  La  La4  1  -0.19781442  1.19781442  0.29803785  1.0
  La  La5  1  0.30218558  0.69781442  0.20196215  1.0
  La  La6  1  0.19781442  0.80218558  0.70196215  1.0
  La  La7  1  -0.30218558  1.30218558  0.79803785  1.0
  Mg  Mg8  1  -0.50000000  0.50000000  0.50000000  1.0
  Mg  Mg9  1  -0.00000000  1.00000000  0.00000000  1.0
  Mg  Mg10  1  -0.48461816  0.98461816  0.25000000  1.0
  Mg  Mg11  1  0.01538184  1.48461816  0.25000000  1.0
  Mg  Mg12  1  -0.01538184  0.51538184  0.75000000  1.0
  Mg  Mg13  1  0.48461816  1.01538184  0.75000000  1.0
  Ag  Ag14  1  -0.40325215  1.40325215  0.09545372  1.0
  Ag  Ag15  1  0.09674785  0.90325215  0.40454628  1.0
  Ag  Ag16  1  0.40325215  0.59674785  0.90454628  1.0
  Ag  Ag17  1  -0.09674785  1.09674785  0.59545372  1.0
  Ag  Ag18  1  0.39451324  1.32940484  0.29584044  1.0
  Ag  Ag19  1  -0.10548676  0.82940484  0.20415956  1.0
  Ag  Ag20  1  0.32940484  1.39451324  0.70415956  1.0
  Ag  Ag21  1  -0.17059516  0.89451324  0.79584044  1.0
  Ag  Ag22  1  -0.32940484  0.60548676  0.29584044  1.0
  Ag  Ag23  1  0.17059516  1.10548676  0.20415956  1.0
  Ag  Ag24  1  -0.39451324  0.67059516  0.70415956  1.0
  Ag  Ag25  1  0.10548676  1.17059516  0.79584044  1.0
  Ag  Ag26  1  0.43303607  0.83847778  0.47298913  1.0
  Ag  Ag27  1  -0.06696393  1.33847778  0.02701087  1.0
  Ag  Ag28  1  -0.16152222  1.43303607  0.52701087  1.0
  Ag  Ag29  1  0.33847778  0.93303607  0.97298913  1.0
  Ag  Ag30  1  0.16152222  0.56696393  0.47298913  1.0
  Ag  Ag31  1  -0.33847778  1.06696393  0.02701087  1.0
  Ag  Ag32  1  -0.43303607  1.16152222  0.52701087  1.0
  Ag  Ag33  1  0.06696393  0.66152222  0.97298913  1.0
