# generated using pymatgen
data_TlPbF7
_symmetry_space_group_name_H-M   'P 1'
_cell_length_a   9.02668930
_cell_length_b   5.65159104
_cell_length_c   12.41096537
_cell_angle_alpha   90.00000000
_cell_angle_beta   117.50590500
_cell_angle_gamma   90.00000000
_symmetry_Int_Tables_number   1
_chemical_formula_structural   TlPbF7
_chemical_formula_sum   'Tl4 Pb4 F28'
_cell_volume   561.57841523
_cell_formula_units_Z   4
loop_
 _symmetry_equiv_pos_site_id
 _symmetry_equiv_pos_as_xyz
  1  'x, y, z'
loop_
 _atom_site_type_symbol
 _atom_site_label
 _atom_site_symmetry_multiplicity
 _atom_site_fract_x
 _atom_site_fract_y
 _atom_site_fract_z
 _atom_site_occupancy
  Tl  Tl0  1  0.81634858  0.76242514  0.23540152  1.0
  Tl  Tl1  1  0.81634858  0.73757486  0.73540152  1.0
  Tl  Tl2  1  0.18365142  0.26242514  0.26459848  1.0
  Tl  Tl3  1  0.18365142  0.23757486  0.76459848  1.0
  Pb  Pb4  1  0.73187137  0.26756796  0.45759166  1.0
  Pb  Pb5  1  0.73187137  0.23243204  0.95759166  1.0
  Pb  Pb6  1  0.26812863  0.76756796  0.04240834  1.0
  Pb  Pb7  1  0.26812863  0.73243204  0.54240834  1.0
  F  F8  1  0.96326930  0.09708134  0.26853966  1.0
  F  F9  1  0.96326930  0.40291866  0.76853966  1.0
  F  F10  1  0.03673070  0.59708134  0.23146034  1.0
  F  F11  1  0.03673070  0.90291866  0.73146034  1.0
  F  F12  1  0.99377708  0.24659031  0.05265748  1.0
  F  F13  1  0.99377708  0.25340969  0.55265748  1.0
  F  F14  1  0.00622292  0.74659031  0.44734252  1.0
  F  F15  1  0.00622292  0.75340969  0.94734252  1.0
  F  F16  1  0.72587820  0.46995447  0.30993085  1.0
  F  F17  1  0.72587820  0.03004553  0.80993085  1.0
  F  F18  1  0.27412179  0.96995447  0.19006915  1.0
  F  F19  1  0.27412179  0.53004553  0.69006915  1.0
  F  F20  1  0.70925591  0.97533383  0.34543146  1.0
  F  F21  1  0.70925591  0.52466617  0.84543146  1.0
  F  F22  1  0.29074409  0.47533383  0.15456853  1.0
  F  F23  1  0.29074409  0.02466617  0.65456854  1.0
  F  F24  1  0.70879529  0.43582139  0.09077497  1.0
  F  F25  1  0.70879529  0.06417861  0.59077497  1.0
  F  F26  1  0.29120471  0.93582139  0.40922503  1.0
  F  F27  1  0.29120471  0.56417861  0.90922503  1.0
  F  F28  1  0.47040997  0.31413608  0.37571570  1.0
  F  F29  1  0.47040997  0.18586392  0.87571570  1.0
  F  F30  1  0.52959003  0.81413608  0.12428430  1.0
  F  F31  1  0.52959003  0.68586392  0.62428430  1.0
  F  F32  1  0.24590147  0.40275150  0.45313559  1.0
  F  F33  1  0.24590147  0.09724850  0.95313559  1.0
  F  F34  1  0.75409853  0.90275150  0.04686441  1.0
  F  F35  1  0.75409853  0.59724850  0.54686441  1.0
