# generated using pymatgen
data_BaSb2
_symmetry_space_group_name_H-M   'P 1'
_cell_length_a   5.24312663
_cell_length_b   4.45081651
_cell_length_c   9.48998362
_cell_angle_alpha   90.00000000
_cell_angle_beta   101.36412997
_cell_angle_gamma   90.00000000
_symmetry_Int_Tables_number   1
_chemical_formula_structural   BaSb2
_chemical_formula_sum   'Ba2 Sb4'
_cell_volume   217.11831828
_cell_formula_units_Z   2
loop_
 _symmetry_equiv_pos_site_id
 _symmetry_equiv_pos_as_xyz
  1  'x, y, z'
loop_
 _atom_site_type_symbol
 _atom_site_label
 _atom_site_symmetry_multiplicity
 _atom_site_fract_x
 _atom_site_fract_y
 _atom_site_fract_z
 _atom_site_occupancy
  Ba  Ba0  1  0.08444677  0.25000000  0.71336432  1.0
  Ba  Ba1  1  0.91555323  0.75000000  0.28663568  1.0
  Sb  Sb2  1  0.45503974  0.25000000  0.39518725  1.0
  Sb  Sb3  1  0.54496026  0.75000000  0.60481275  1.0
  Sb  Sb4  1  0.66939829  0.25000000  0.97714398  1.0
  Sb  Sb5  1  0.33060171  0.75000000  0.02285602  1.0
