# generated using pymatgen
data_Rb2Na(NO3)3
_symmetry_space_group_name_H-M   'P 1'
_cell_length_a   5.40705310
_cell_length_b   9.24355464
_cell_length_c   9.74223200
_cell_angle_alpha   90.00000000
_cell_angle_beta   90.00000000
_cell_angle_gamma   90.00000000
_symmetry_Int_Tables_number   1
_chemical_formula_structural   Rb2Na(NO3)3
_chemical_formula_sum   'Rb4 Na2 N6 O18'
_cell_volume   486.92056264
_cell_formula_units_Z   2
loop_
 _symmetry_equiv_pos_site_id
 _symmetry_equiv_pos_as_xyz
  1  'x, y, z'
loop_
 _atom_site_type_symbol
 _atom_site_label
 _atom_site_symmetry_multiplicity
 _atom_site_fract_x
 _atom_site_fract_y
 _atom_site_fract_z
 _atom_site_occupancy
  Rb  Rb0  1  0.50000000  0.92524598  0.79780190  1.0
  Rb  Rb1  1  0.50000000  0.07475402  0.29780190  1.0
  Rb  Rb2  1  0.50000000  0.37624337  0.97044291  1.0
  Rb  Rb3  1  0.50000000  0.62375663  0.47044291  1.0
  Na  Na4  1  0.00000000  0.69591727  0.00738903  1.0
  Na  Na5  1  0.00000000  0.30408273  0.50738903  1.0
  N  N6  1  0.50000000  0.74433438  0.14323154  1.0
  N  N7  1  0.50000000  0.25566562  0.64323154  1.0
  N  N8  1  0.00000000  0.95138920  0.50039724  1.0
  N  N9  1  0.00000000  0.04861080  0.00039724  1.0
  N  N10  1  0.00000000  0.59025625  0.70909624  1.0
  N  N11  1  0.00000000  0.40974375  0.20909624  1.0
  O  O12  1  0.79788443  0.61211427  0.77043067  1.0
  O  O13  1  0.79788443  0.38788573  0.27043067  1.0
  O  O14  1  0.20211557  0.61211427  0.77043067  1.0
  O  O15  1  0.20211557  0.38788573  0.27043067  1.0
  O  O16  1  0.79723904  0.89747412  0.53746961  1.0
  O  O17  1  0.79723904  0.10252588  0.03746961  1.0
  O  O18  1  0.20276096  0.89747412  0.53746961  1.0
  O  O19  1  0.20276096  0.10252588  0.03746961  1.0
  O  O20  1  0.70292687  0.76679890  0.20380011  1.0
  O  O21  1  0.70292687  0.23320110  0.70380011  1.0
  O  O22  1  0.29707313  0.76679890  0.20380011  1.0
  O  O23  1  0.29707313  0.23320110  0.70380011  1.0
  O  O24  1  0.50000000  0.69906136  0.02019021  1.0
  O  O25  1  0.50000000  0.30093864  0.52019021  1.0
  O  O26  1  0.00000000  0.93730419  0.92290728  1.0
  O  O27  1  0.00000000  0.06269581  0.42290728  1.0
  O  O28  1  0.00000000  0.54702331  0.58544287  1.0
  O  O29  1  0.00000000  0.45297669  0.08544287  1.0
