# generated using pymatgen
data_Gd2NiB10
_symmetry_space_group_name_H-M   'P 1'
_cell_length_a   5.56996341
_cell_length_b   11.13863617
_cell_length_c   4.15754677
_cell_angle_alpha   90.00000000
_cell_angle_beta   90.00000000
_cell_angle_gamma   90.00000000
_symmetry_Int_Tables_number   1
_chemical_formula_structural   Gd2NiB10
_chemical_formula_sum   'Gd4 Ni2 B20'
_cell_volume   257.94166829
_cell_formula_units_Z   2
loop_
 _symmetry_equiv_pos_site_id
 _symmetry_equiv_pos_as_xyz
  1  'x, y, z'
loop_
 _atom_site_type_symbol
 _atom_site_label
 _atom_site_symmetry_multiplicity
 _atom_site_fract_x
 _atom_site_fract_y
 _atom_site_fract_z
 _atom_site_occupancy
  Gd  Gd0  1  0.31356282  0.86227481  0.50000000  1.0
  Gd  Gd1  1  0.81356282  0.63772519  0.50000000  1.0
  Gd  Gd2  1  0.68643718  0.13772519  0.50000000  1.0
  Gd  Gd3  1  0.18643718  0.36227481  0.50000000  1.0
  Ni  Ni4  1  0.50000000  0.50000000  0.00000000  1.0
  Ni  Ni5  1  0.00000000  0.00000000  0.00000000  1.0
  B  B6  1  0.29855313  0.61446488  0.69887061  1.0
  B  B7  1  0.29855313  0.61446488  0.30112939  1.0
  B  B8  1  0.79855313  0.88553512  0.69887061  1.0
  B  B9  1  0.79855313  0.88553512  0.30112939  1.0
  B  B10  1  0.70144687  0.38553512  0.69887061  1.0
  B  B11  1  0.70144687  0.38553512  0.30112939  1.0
  B  B12  1  0.20144687  0.11446488  0.69887061  1.0
  B  B13  1  0.20144687  0.11446488  0.30112939  1.0
  B  B14  1  0.46934182  0.68678817  0.00000000  1.0
  B  B15  1  0.96934182  0.81321183  0.00000000  1.0
  B  B16  1  0.53065818  0.31321183  0.00000000  1.0
  B  B17  1  0.03065818  0.18678817  0.00000000  1.0
  B  B18  1  0.12579789  0.54111871  0.00000000  1.0
  B  B19  1  0.62579789  0.95888129  0.00000000  1.0
  B  B20  1  0.87420211  0.45888129  0.00000000  1.0
  B  B21  1  0.37420211  0.04111871  0.00000000  1.0
  B  B22  1  0.15820769  0.69815805  0.00000000  1.0
  B  B23  1  0.65820769  0.80184195  0.00000000  1.0
  B  B24  1  0.84179231  0.30184195  0.00000000  1.0
  B  B25  1  0.34179231  0.19815805  0.00000000  1.0
