# generated using pymatgen
data_CaZn(CO3)2
_symmetry_space_group_name_H-M   'P 1'
_cell_length_a   6.10910147
_cell_length_b   6.10910147
_cell_length_c   6.10910147
_cell_angle_alpha   46.93853112
_cell_angle_beta   46.93853112
_cell_angle_gamma   46.93853112
_symmetry_Int_Tables_number   1
_chemical_formula_structural   CaZn(CO3)2
_chemical_formula_sum   'Ca1 Zn1 C2 O6'
_cell_volume   111.23885025
_cell_formula_units_Z   1
loop_
 _symmetry_equiv_pos_site_id
 _symmetry_equiv_pos_as_xyz
  1  'x, y, z'
loop_
 _atom_site_type_symbol
 _atom_site_label
 _atom_site_symmetry_multiplicity
 _atom_site_fract_x
 _atom_site_fract_y
 _atom_site_fract_z
 _atom_site_occupancy
  Ca  Ca0  1  0.00000000  0.00000000  0.00000000  1.0
  Zn  Zn1  1  0.50000000  0.50000000  -0.50000000  1.0
  C  C2  1  0.75738545  -0.24261455  -0.24261455  1.0
  C  C3  1  0.24261455  0.24261455  0.24261455  1.0
  O  O4  1  1.03391775  -0.26882313  -0.49723028  1.0
  O  O5  1  0.73117687  -0.49723028  0.03391775  1.0
  O  O6  1  0.50276972  0.03391775  -0.26882313  1.0
  O  O7  1  0.96608225  0.26882313  -0.50276972  1.0
  O  O8  1  0.26882313  0.49723028  -0.03391775  1.0
  O  O9  1  0.49723028  0.96608225  -0.73117687  1.0
