# generated using pymatgen
data_YMg2
_symmetry_space_group_name_H-M   'P 1'
_cell_length_a   6.05703532
_cell_length_b   6.05703532
_cell_length_c   9.82797893
_cell_angle_alpha   90.00000000
_cell_angle_beta   90.00000000
_cell_angle_gamma   120.00000000
_symmetry_Int_Tables_number   1
_chemical_formula_structural   YMg2
_chemical_formula_sum   'Y4 Mg8'
_cell_volume   312.25906882
_cell_formula_units_Z   4
loop_
 _symmetry_equiv_pos_site_id
 _symmetry_equiv_pos_as_xyz
  1  'x, y, z'
loop_
 _atom_site_type_symbol
 _atom_site_label
 _atom_site_symmetry_multiplicity
 _atom_site_fract_x
 _atom_site_fract_y
 _atom_site_fract_z
 _atom_site_occupancy
  Y  Y0  1  0.33333333  0.66666667  0.43516184  1.0
  Y  Y1  1  0.66666667  0.33333333  -0.06483816  1.0
  Y  Y2  1  0.33333333  0.66666667  1.06483816  1.0
  Y  Y3  1  0.66666667  0.33333333  0.56483816  1.0
  Mg  Mg4  1  0.82898443  0.65796885  0.25000000  1.0
  Mg  Mg5  1  0.17101557  0.82898443  0.75000000  1.0
  Mg  Mg6  1  0.34203115  0.17101557  0.25000000  1.0
  Mg  Mg7  1  0.17101557  0.34203115  0.75000000  1.0
  Mg  Mg8  1  0.82898443  0.17101557  0.25000000  1.0
  Mg  Mg9  1  0.65796885  0.82898443  0.75000000  1.0
  Mg  Mg10  1  0.00000000  0.00000000  0.00000000  1.0
  Mg  Mg11  1  -0.00000000  -0.00000000  0.50000000  1.0
