# generated using pymatgen
data_AgAsF7
_symmetry_space_group_name_H-M   'P 1'
_cell_length_a   7.80934958
_cell_length_b   7.38599443
_cell_length_c   10.09563929
_cell_angle_alpha   90.00000000
_cell_angle_beta   90.00000000
_cell_angle_gamma   90.00000000
_symmetry_Int_Tables_number   1
_chemical_formula_structural   AgAsF7
_chemical_formula_sum   'Ag4 As4 F28'
_cell_volume   582.31458038
_cell_formula_units_Z   4
loop_
 _symmetry_equiv_pos_site_id
 _symmetry_equiv_pos_as_xyz
  1  'x, y, z'
loop_
 _atom_site_type_symbol
 _atom_site_label
 _atom_site_symmetry_multiplicity
 _atom_site_fract_x
 _atom_site_fract_y
 _atom_site_fract_z
 _atom_site_occupancy
  Ag  Ag0  1  0.87009061  0.75000000  0.24219120  1.0
  Ag  Ag1  1  0.37009061  0.75000000  0.25780880  1.0
  Ag  Ag2  1  0.12990939  0.25000000  0.75780880  1.0
  Ag  Ag3  1  0.62990939  0.25000000  0.74219120  1.0
  As  As4  1  0.70145208  0.75000000  0.55521824  1.0
  As  As5  1  0.20145208  0.75000000  0.94478176  1.0
  As  As6  1  0.29854792  0.25000000  0.44478176  1.0
  As  As7  1  0.79854792  0.25000000  0.05521824  1.0
  F  F8  1  0.99121007  0.75000000  0.02436820  1.0
  F  F9  1  0.49121007  0.75000000  0.47563180  1.0
  F  F10  1  0.00878993  0.25000000  0.97563180  1.0
  F  F11  1  0.50878993  0.25000000  0.52436820  1.0
  F  F12  1  0.77072678  0.91911801  0.43551440  1.0
  F  F13  1  0.77072678  0.58088199  0.43551440  1.0
  F  F14  1  0.27072678  0.91911801  0.06448560  1.0
  F  F15  1  0.27072678  0.58088199  0.06448560  1.0
  F  F16  1  0.22927322  0.41911801  0.56448560  1.0
  F  F17  1  0.22927322  0.08088199  0.56448560  1.0
  F  F18  1  0.72927322  0.41911801  0.93551440  1.0
  F  F19  1  0.72927322  0.08088199  0.93551440  1.0
  F  F20  1  0.90473924  0.75000000  0.63026889  1.0
  F  F21  1  0.40473924  0.75000000  0.86973111  1.0
  F  F22  1  0.09526076  0.25000000  0.36973111  1.0
  F  F23  1  0.59526076  0.25000000  0.13026889  1.0
  F  F24  1  0.61675296  0.75000000  0.19338209  1.0
  F  F25  1  0.11675296  0.75000000  0.30661791  1.0
  F  F26  1  0.38324704  0.25000000  0.80661791  1.0
  F  F27  1  0.88324704  0.25000000  0.69338209  1.0
  F  F28  1  0.87479823  0.42371454  0.16426934  1.0
  F  F29  1  0.87479823  0.07628546  0.16426934  1.0
  F  F30  1  0.37479823  0.42371454  0.33573066  1.0
  F  F31  1  0.37479823  0.07628546  0.33573066  1.0
  F  F32  1  0.12520177  0.92371454  0.83573066  1.0
  F  F33  1  0.12520177  0.57628546  0.83573066  1.0
  F  F34  1  0.62520177  0.92371454  0.66426934  1.0
  F  F35  1  0.62520177  0.57628546  0.66426934  1.0
