# generated using pymatgen
data_VS
_symmetry_space_group_name_H-M   'P 1'
_cell_length_a   5.82464851
_cell_length_b   3.20463468
_cell_length_c   5.78738886
_cell_angle_alpha   90.00000000
_cell_angle_beta   90.00000000
_cell_angle_gamma   90.00000000
_symmetry_Int_Tables_number   1
_chemical_formula_structural   VS
_chemical_formula_sum   'V4 S4'
_cell_volume   108.02665148
_cell_formula_units_Z   4
loop_
 _symmetry_equiv_pos_site_id
 _symmetry_equiv_pos_as_xyz
  1  'x, y, z'
loop_
 _atom_site_type_symbol
 _atom_site_label
 _atom_site_symmetry_multiplicity
 _atom_site_fract_x
 _atom_site_fract_y
 _atom_site_fract_z
 _atom_site_occupancy
  V  V0  1  0.48806231  0.75000000  0.69523126  1.0
  V  V1  1  0.98806231  0.75000000  0.80476874  1.0
  V  V2  1  0.51193769  0.25000000  0.30476874  1.0
  V  V3  1  0.01193769  0.25000000  0.19523126  1.0
  S  S4  1  0.28257642  0.75000000  0.07611839  1.0
  S  S5  1  0.78257642  0.75000000  0.42388161  1.0
  S  S6  1  0.71742358  0.25000000  0.92388161  1.0
  S  S7  1  0.21742358  0.25000000  0.57611839  1.0
