# generated using pymatgen
data_NiC10(NCl)2
_symmetry_space_group_name_H-M   'P 1'
_cell_length_a   13.71102786
_cell_length_b   7.30905124
_cell_length_c   3.84224147
_cell_angle_alpha   90.00000000
_cell_angle_beta   90.00000000
_cell_angle_gamma   90.00000000
_symmetry_Int_Tables_number   1
_chemical_formula_structural   NiC10(NCl)2
_chemical_formula_sum   'Ni2 C20 N4 Cl4'
_cell_volume   385.04871198
_cell_formula_units_Z   2
loop_
 _symmetry_equiv_pos_site_id
 _symmetry_equiv_pos_as_xyz
  1  'x, y, z'
loop_
 _atom_site_type_symbol
 _atom_site_label
 _atom_site_symmetry_multiplicity
 _atom_site_fract_x
 _atom_site_fract_y
 _atom_site_fract_z
 _atom_site_occupancy
  Ni  Ni0  1  0.50000000  0.50000000  0.00000000  1.0
  Ni  Ni1  1  0.00000000  0.00000000  0.00000000  1.0
  N  N2  1  0.29113672  0.50000000  0.00000000  1.0
  N  N3  1  0.70886328  0.50000000  0.00000000  1.0
  N  N4  1  0.20886328  0.00000000  0.00000000  1.0
  N  N5  1  0.79113672  0.00000000  0.00000000  1.0
  C  C6  1  0.05296053  0.50000000  0.00000000  1.0
  C  C7  1  0.94703947  0.50000000  0.00000000  1.0
  C  C8  1  0.44703947  0.00000000  0.00000000  1.0
  C  C9  1  0.55296053  0.00000000  0.00000000  1.0
  C  C10  1  0.23268776  0.34468909  1.00000062  1.0
  C  C11  1  0.76731224  0.34468909  -0.00000062  1.0
  C  C12  1  0.23268776  0.65531091  -0.00000062  1.0
  C  C13  1  0.76731224  0.65531091  1.00000062  1.0
  C  C14  1  0.26731224  0.15531091  -0.00000062  1.0
  C  C15  1  0.73268776  0.15531091  1.00000062  1.0
  C  C16  1  0.26731224  0.84468909  1.00000062  1.0
  C  C17  1  0.73268776  0.84468909  -0.00000062  1.0
  C  C18  1  0.13496545  0.39674459  1.00000107  1.0
  C  C19  1  0.86503455  0.39674459  -0.00000106  1.0
  C  C20  1  0.13496545  0.60325541  -0.00000106  1.0
  C  C21  1  0.86503455  0.60325541  1.00000107  1.0
  C  C22  1  0.36503455  0.10325541  -0.00000106  1.0
  C  C23  1  0.63496545  0.10325541  1.00000107  1.0
  C  C24  1  0.36503455  0.89674459  1.00000107  1.0
  C  C25  1  0.63496545  0.89674459  -0.00000106  1.0
  Cl  Cl26  1  0.50000000  0.30679519  0.50000000  1.0
  Cl  Cl27  1  0.50000000  0.69320481  0.50000000  1.0
  Cl  Cl28  1  0.00000000  0.19320481  0.50000000  1.0
  Cl  Cl29  1  0.00000000  0.80679519  0.50000000  1.0
