# generated using pymatgen
data_KMnAg3(CN)6
_symmetry_space_group_name_H-M   'P 1'
_cell_length_a   7.08844523
_cell_length_b   7.08844523
_cell_length_c   8.02419552
_cell_angle_alpha   90.00000000
_cell_angle_beta   90.00000000
_cell_angle_gamma   120.00000000
_symmetry_Int_Tables_number   1
_chemical_formula_structural   KMnAg3(CN)6
_chemical_formula_sum   'K1 Mn1 Ag3 C6 N6'
_cell_volume   349.16773813
_cell_formula_units_Z   1
loop_
 _symmetry_equiv_pos_site_id
 _symmetry_equiv_pos_as_xyz
  1  'x, y, z'
loop_
 _atom_site_type_symbol
 _atom_site_label
 _atom_site_symmetry_multiplicity
 _atom_site_fract_x
 _atom_site_fract_y
 _atom_site_fract_z
 _atom_site_occupancy
  K  K0  1  0.00000000  0.00000000  0.00000000  1.0
  Mn  Mn1  1  0.33333333  0.66666667  0.00000000  1.0
  Ag  Ag2  1  0.35680604  0.17840302  0.50000000  1.0
  Ag  Ag3  1  0.82159698  0.17840302  0.50000000  1.0
  Ag  Ag4  1  0.82159698  0.64319396  0.50000000  1.0
  C  C5  1  0.67175297  0.65796690  0.28603592  1.0
  C  C6  1  0.67175297  0.01378607  0.71396408  1.0
  C  C7  1  0.98621393  0.65796690  0.71396408  1.0
  C  C8  1  0.98621393  0.32824703  0.28603592  1.0
  C  C9  1  0.34203310  0.32824703  0.71396408  1.0
  C  C10  1  0.34203310  0.01378607  0.28603592  1.0
  N  N11  1  0.58725003  0.67273071  0.16533377  1.0
  N  N12  1  0.58725003  0.91451932  0.83466623  1.0
  N  N13  1  0.08548068  0.67273071  0.83466623  1.0
  N  N14  1  0.08548068  0.41274997  0.16533377  1.0
  N  N15  1  0.32726929  0.41274997  0.83466623  1.0
  N  N16  1  0.32726929  0.91451932  0.16533377  1.0
