# generated using pymatgen
data_GdBr
_symmetry_space_group_name_H-M   'P 1'
_cell_length_a   10.87044838
_cell_length_b   10.87044838
_cell_length_c   10.87044838
_cell_angle_alpha   20.69053040
_cell_angle_beta   20.69053040
_cell_angle_gamma   20.69053040
_symmetry_Int_Tables_number   1
_chemical_formula_structural   GdBr
_chemical_formula_sum   'Gd2 Br2'
_cell_volume   140.37915776
_cell_formula_units_Z   2
loop_
 _symmetry_equiv_pos_site_id
 _symmetry_equiv_pos_as_xyz
  1  'x, y, z'
loop_
 _atom_site_type_symbol
 _atom_site_label
 _atom_site_symmetry_multiplicity
 _atom_site_fract_x
 _atom_site_fract_y
 _atom_site_fract_z
 _atom_site_occupancy
  Gd  Gd0  1  1.62280975  0.62280975  0.62280975  1.0
  Gd  Gd1  1  1.37719025  0.37719025  0.37719025  1.0
  Br  Br2  1  0.89641784  0.89641784  0.89641784  1.0
  Br  Br3  1  1.10358216  1.10358216  0.10358216  1.0
