# generated using pymatgen
data_BaCO3
_symmetry_space_group_name_H-M   'P 1'
_cell_length_a   5.49134545
_cell_length_b   5.49134545
_cell_length_c   5.73585212
_cell_angle_alpha   90.00000000
_cell_angle_beta   90.00000000
_cell_angle_gamma   120.00000000
_symmetry_Int_Tables_number   1
_chemical_formula_structural   BaCO3
_chemical_formula_sum   'Ba2 C2 O6'
_cell_volume   149.79113408
_cell_formula_units_Z   2
loop_
 _symmetry_equiv_pos_site_id
 _symmetry_equiv_pos_as_xyz
  1  'x, y, z'
loop_
 _atom_site_type_symbol
 _atom_site_label
 _atom_site_symmetry_multiplicity
 _atom_site_fract_x
 _atom_site_fract_y
 _atom_site_fract_z
 _atom_site_occupancy
  Ba  Ba0  1  0.33333333  0.66666667  0.75000000  1.0
  Ba  Ba1  1  0.66666667  0.33333333  0.25000000  1.0
  C  C2  1  0.00000000  0.00000000  0.25000000  1.0
  C  C3  1  -0.00000000  -0.00000000  0.75000000  1.0
  O  O4  1  0.13707161  0.86292839  0.25000000  1.0
  O  O5  1  0.13707161  0.27414321  0.25000000  1.0
  O  O6  1  0.86292839  0.13707161  0.75000000  1.0
  O  O7  1  0.86292839  0.72585679  0.75000000  1.0
  O  O8  1  0.72585679  0.86292839  0.25000000  1.0
  O  O9  1  0.27414321  0.13707161  0.75000000  1.0
