# generated using pymatgen
data_Cd2Te2O7
_symmetry_space_group_name_H-M   'P 1'
_cell_length_a   10.02063130
_cell_length_b   8.57840258
_cell_length_c   7.63792046
_cell_angle_alpha   76.94156119
_cell_angle_beta   78.63523719
_cell_angle_gamma   85.04629163
_symmetry_Int_Tables_number   1
_chemical_formula_structural   Cd2Te2O7
_chemical_formula_sum   'Cd8 Te8 O28'
_cell_volume   626.44241045
_cell_formula_units_Z   4
loop_
 _symmetry_equiv_pos_site_id
 _symmetry_equiv_pos_as_xyz
  1  'x, y, z'
loop_
 _atom_site_type_symbol
 _atom_site_label
 _atom_site_symmetry_multiplicity
 _atom_site_fract_x
 _atom_site_fract_y
 _atom_site_fract_z
 _atom_site_occupancy
  Cd  Cd0  1  -0.10898507  -0.65149581  -0.80904098  1.0
  Cd  Cd1  1  -0.89101493  -0.34850419  -0.19095902  1.0
  Cd  Cd2  1  -0.51292877  -0.51284167  -0.73820584  1.0
  Cd  Cd3  1  -0.48707123  -0.48715833  -0.26179416  1.0
  Cd  Cd4  1  -0.88852019  -0.37550995  -0.69590072  1.0
  Cd  Cd5  1  -0.11147981  -0.62449005  -0.30409928  1.0
  Cd  Cd6  1  -0.00000000  -0.00000000  -0.50000000  1.0
  Cd  Cd7  1  0.00000000  0.00000000  0.00000000  1.0
  Te  Te8  1  -0.36116429  -0.82639259  -0.96038456  1.0
  Te  Te9  1  -0.63883571  -0.17360741  -0.03961544  1.0
  Te  Te10  1  -0.75805209  -0.74152166  -0.87887167  1.0
  Te  Te11  1  -0.24194791  -0.25847834  -0.12112833  1.0
  Te  Te12  1  -0.35769789  -0.88204032  -0.45029479  1.0
  Te  Te13  1  -0.64230211  -0.11795968  -0.54970521  1.0
  Te  Te14  1  -0.76708899  -0.73003540  -0.37466125  1.0
  Te  Te15  1  -0.23291101  -0.26996460  -0.62533875  1.0
  O  O16  1  -0.84061108  -0.18903322  -0.99701119  1.0
  O  O17  1  -0.15938892  -0.81096678  -0.00298881  1.0
  O  O18  1  -0.57067184  -0.65689392  -0.96307106  1.0
  O  O19  1  -0.42932816  -0.34310608  -0.03692894  1.0
  O  O20  1  -0.86124175  -0.53980026  -0.94467822  1.0
  O  O21  1  -0.13875825  -0.46019974  -0.05532178  1.0
  O  O22  1  -0.66199322  -0.31145815  -0.78797623  1.0
  O  O23  1  -0.33800678  -0.68854185  -0.21202377  1.0
  O  O24  1  -0.93214802  -0.85077985  -0.78846667  1.0
  O  O25  1  -0.06785198  -0.14922015  -0.21153333  1.0
  O  O26  1  -0.65572944  -0.95822001  -0.79056698  1.0
  O  O27  1  -0.34427056  -0.04177999  -0.20943302  1.0
  O  O28  1  -0.35877707  -0.71268621  -0.75611370  1.0
  O  O29  1  -0.64122293  -0.28731379  -0.24388630  1.0
  O  O30  1  -0.76517370  -0.65942752  -0.64670337  1.0
  O  O31  1  -0.23482630  -0.34057248  -0.35329663  1.0
  O  O32  1  -0.82776313  -0.18611482  -0.49033062  1.0
  O  O33  1  -0.17223687  -0.81388518  -0.50966938  1.0
  O  O34  1  -0.59649366  -0.61991024  -0.42419148  1.0
  O  O35  1  -0.40350634  -0.38008976  -0.57580852  1.0
  O  O36  1  -0.64798873  -0.94266428  -0.41012989  1.0
  O  O37  1  -0.35201127  -0.05733572  -0.58987011  1.0
  O  O38  1  -0.89047094  -0.53379458  -0.36358623  1.0
  O  O39  1  -0.10952906  -0.46620542  -0.63641377  1.0
  O  O40  1  -0.93398673  -0.85001895  -0.32026882  1.0
  O  O41  1  -0.06601327  -0.14998105  -0.67973118  1.0
  O  O42  1  -0.74770868  -0.82471433  -0.11018470  1.0
  O  O43  1  -0.25229132  -0.17528567  -0.88981530  1.0
