# generated using pymatgen
data_LaGe3Ir
_symmetry_space_group_name_H-M   'P 1'
_cell_length_a   5.99048992
_cell_length_b   5.99048992
_cell_length_c   5.99048992
_cell_angle_alpha   136.17354680
_cell_angle_beta   136.17354680
_cell_angle_gamma   63.71214301
_symmetry_Int_Tables_number   1
_chemical_formula_structural   LaGe3Ir
_chemical_formula_sum   'La1 Ge3 Ir1'
_cell_volume   101.72674291
_cell_formula_units_Z   1
loop_
 _symmetry_equiv_pos_site_id
 _symmetry_equiv_pos_as_xyz
  1  'x, y, z'
loop_
 _atom_site_type_symbol
 _atom_site_label
 _atom_site_symmetry_multiplicity
 _atom_site_fract_x
 _atom_site_fract_y
 _atom_site_fract_z
 _atom_site_occupancy
  La  La0  1  0.56975052  0.56975052  1.00000000  1.0
  Ge  Ge1  1  0.83356858  0.33356858  0.50000000  1.0
  Ge  Ge2  1  0.33356858  0.83356858  0.50000000  1.0
  Ge  Ge3  1  -0.00847138  -0.00847138  0.00000000  1.0
  Ir  Ir4  1  0.22938370  0.22938370  -0.00000000  1.0
