# generated using pymatgen
data_IO6
_symmetry_space_group_name_H-M   'P 1'
_cell_length_a   3.98363491
_cell_length_b   21.98280154
_cell_length_c   5.63649645
_cell_angle_alpha   90.00000000
_cell_angle_beta   118.18876244
_cell_angle_gamma   90.00000000
_symmetry_Int_Tables_number   1
_chemical_formula_structural   IO6
_chemical_formula_sum   'I4 O24'
_cell_volume   435.05377331
_cell_formula_units_Z   4
loop_
 _symmetry_equiv_pos_site_id
 _symmetry_equiv_pos_as_xyz
  1  'x, y, z'
loop_
 _atom_site_type_symbol
 _atom_site_label
 _atom_site_symmetry_multiplicity
 _atom_site_fract_x
 _atom_site_fract_y
 _atom_site_fract_z
 _atom_site_occupancy
  I  I0  1  0.62336632  0.37464277  0.17277059  1.0
  I  I1  1  0.62336632  0.12535723  0.67277059  1.0
  I  I2  1  0.37663368  0.87464277  0.32722941  1.0
  I  I3  1  0.37663368  0.62535723  0.82722941  1.0
  O  O4  1  0.84616272  0.45241961  0.16310713  1.0
  O  O5  1  0.84616272  0.04758039  0.66310713  1.0
  O  O6  1  0.15383728  0.95241961  0.33689287  1.0
  O  O7  1  0.15383728  0.54758039  0.83689287  1.0
  O  O8  1  0.82473607  0.16713014  0.44926846  1.0
  O  O9  1  0.82473607  0.33286986  0.94926846  1.0
  O  O10  1  0.17526393  0.66713014  0.05073154  1.0
  O  O11  1  0.17526393  0.83286986  0.55073154  1.0
  O  O12  1  1.09823508  0.34839496  0.50084775  1.0
  O  O13  1  1.09823508  0.15160504  1.00084775  1.0
  O  O14  1  -0.09823508  0.84839496  -0.00084775  1.0
  O  O15  1  -0.09823508  0.65160504  0.49915225  1.0
  O  O16  1  0.14832629  0.09928826  0.34439804  1.0
  O  O17  1  0.14832629  0.40071174  0.84439804  1.0
  O  O18  1  0.85167371  0.59928826  0.15560196  1.0
  O  O19  1  0.85167371  0.90071174  0.65560196  1.0
  O  O20  1  0.40058538  0.29681482  0.18280350  1.0
  O  O21  1  0.40058538  0.20318518  0.68280350  1.0
  O  O22  1  0.59941462  0.79681482  0.31719650  1.0
  O  O23  1  0.59941462  0.70318518  0.81719650  1.0
  O  O24  1  0.42205423  0.41629518  0.39660117  1.0
  O  O25  1  0.42205423  0.08370482  0.89660117  1.0
  O  O26  1  0.57794577  0.91629518  0.10339883  1.0
  O  O27  1  0.57794577  0.58370482  0.60339883  1.0
