# generated using pymatgen
data_ZnS
_symmetry_space_group_name_H-M   'P 1'
_cell_length_a   3.84990989
_cell_length_b   3.84990989
_cell_length_c   75.49440285
_cell_angle_alpha   90.00000000
_cell_angle_beta   90.00000000
_cell_angle_gamma   120.00000000
_symmetry_Int_Tables_number   1
_chemical_formula_structural   ZnS
_chemical_formula_sum   'Zn24 S24'
_cell_volume   969.05073469
_cell_formula_units_Z   24
loop_
 _symmetry_equiv_pos_site_id
 _symmetry_equiv_pos_as_xyz
  1  'x, y, z'
loop_
 _atom_site_type_symbol
 _atom_site_label
 _atom_site_symmetry_multiplicity
 _atom_site_fract_x
 _atom_site_fract_y
 _atom_site_fract_z
 _atom_site_occupancy
  Zn  Zn0  1  -0.00000000  -0.00000000  0.04167237  1.0
  Zn  Zn1  1  -0.00000000  -0.00000000  0.16666708  1.0
  Zn  Zn2  1  0.00000000  0.00000000  0.33334603  1.0
  Zn  Zn3  1  -0.00000000  -0.00000000  0.45833993  1.0
  Zn  Zn4  1  -0.00000000  -0.00000000  0.58330774  1.0
  Zn  Zn5  1  -0.00000000  -0.00000000  0.66670112  1.0
  Zn  Zn6  1  0.00000000  0.00000000  0.79167232  1.0
  Zn  Zn7  1  0.00000000  0.00000000  0.91667313  1.0
  Zn  Zn8  1  0.66666667  0.33333333  0.12501142  1.0
  Zn  Zn9  1  0.66666667  0.33333333  0.25000584  1.0
  Zn  Zn10  1  0.66666667  0.33333333  0.37500642  1.0
  Zn  Zn11  1  0.66666667  0.33333333  0.50000453  1.0
  Zn  Zn12  1  0.66666667  0.33333333  0.62500552  1.0
  Zn  Zn13  1  0.66666667  0.33333333  0.74997352  1.0
  Zn  Zn14  1  0.66666667  0.33333333  0.83336905  1.0
  Zn  Zn15  1  0.66666667  0.33333333  0.95833478  1.0
  Zn  Zn16  1  0.33333333  0.66666667  -0.00002823  1.0
  Zn  Zn17  1  0.33333333  0.66666667  0.08336987  1.0
  Zn  Zn18  1  0.33333333  0.66666667  0.20830632  1.0
  Zn  Zn19  1  0.33333333  0.66666667  0.29170220  1.0
  Zn  Zn20  1  0.33333333  0.66666667  0.41667309  1.0
  Zn  Zn21  1  0.33333333  0.66666667  0.54166764  1.0
  Zn  Zn22  1  0.33333333  0.66666667  0.70834131  1.0
  Zn  Zn23  1  0.33333333  0.66666667  0.87501185  1.0
  S  S24  1  -0.00000000  -0.00000000  0.01038580  1.0
  S  S25  1  -0.00000000  -0.00000000  0.13542675  1.0
  S  S26  1  -0.00000000  -0.00000000  0.30210816  1.0
  S  S27  1  -0.00000000  -0.00000000  0.42709453  1.0
  S  S28  1  -0.00000000  -0.00000000  0.55207996  1.0
  S  S29  1  0.00000000  0.00000000  0.63546968  1.0
  S  S30  1  0.00000000  0.00000000  0.76038623  1.0
  S  S31  1  -0.00000000  -0.00000000  0.88543038  1.0
  S  S32  1  0.66666667  0.33333333  0.09377468  1.0
  S  S33  1  0.66666667  0.33333333  0.21871969  1.0
  S  S34  1  0.66666667  0.33333333  0.34376335  1.0
  S  S35  1  0.66666667  0.33333333  0.46875980  1.0
  S  S36  1  0.66666667  0.33333333  0.59371939  1.0
  S  S37  1  0.66666667  0.33333333  0.71874880  1.0
  S  S38  1  0.66666667  0.33333333  0.80213769  1.0
  S  S39  1  0.66666667  0.33333333  0.92709282  1.0
  S  S40  1  0.33333333  0.66666667  0.05213850  1.0
  S  S41  1  0.33333333  0.66666667  0.17707911  1.0
  S  S42  1  0.33333333  0.66666667  0.26047062  1.0
  S  S43  1  0.33333333  0.66666667  0.38542798  1.0
  S  S44  1  0.33333333  0.66666667  0.51042475  1.0
  S  S45  1  0.33333333  0.66666667  0.67710652  1.0
  S  S46  1  0.33333333  0.66666667  0.84377501  1.0
  S  S47  1  0.33333333  0.66666667  0.96874495  1.0
