# generated using pymatgen
data_Cs2W3SeO12
_symmetry_space_group_name_H-M   'P 1'
_cell_length_a   7.34294247
_cell_length_b   7.34294247
_cell_length_c   13.13299347
_cell_angle_alpha   90.00000000
_cell_angle_beta   90.00000000
_cell_angle_gamma   120.00000000
_symmetry_Int_Tables_number   1
_chemical_formula_structural   Cs2W3SeO12
_chemical_formula_sum   'Cs4 W6 Se2 O24'
_cell_volume   613.24584111
_cell_formula_units_Z   2
loop_
 _symmetry_equiv_pos_site_id
 _symmetry_equiv_pos_as_xyz
  1  'x, y, z'
loop_
 _atom_site_type_symbol
 _atom_site_label
 _atom_site_symmetry_multiplicity
 _atom_site_fract_x
 _atom_site_fract_y
 _atom_site_fract_z
 _atom_site_occupancy
  Cs  Cs0  1  0.33333333  0.66666667  0.05176808  1.0
  Cs  Cs1  1  0.66666667  0.33333333  0.55176808  1.0
  Cs  Cs2  1  0.33333333  0.66666667  0.42487116  1.0
  Cs  Cs3  1  0.66666667  0.33333333  0.92487116  1.0
  W  W4  1  0.81455943  0.66156880  0.22512470  1.0
  W  W5  1  0.66156880  0.84700937  0.72512470  1.0
  W  W6  1  0.84700937  0.18544057  0.22512470  1.0
  W  W7  1  0.33843120  0.15299063  0.22512470  1.0
  W  W8  1  0.18544057  0.33843120  0.72512470  1.0
  W  W9  1  0.15299063  0.81455943  0.72512470  1.0
  Se  Se10  1  -0.00000000  -0.00000000  0.00744108  1.0
  Se  Se11  1  0.00000000  0.00000000  0.50744108  1.0
  O  O12  1  0.12023322  0.87265969  0.23245622  1.0
  O  O13  1  0.87265969  0.75242647  0.73245622  1.0
  O  O14  1  0.75242647  0.87976678  0.23245622  1.0
  O  O15  1  0.12734031  0.24757353  0.23245622  1.0
  O  O16  1  0.87976678  0.12734031  0.73245622  1.0
  O  O17  1  0.24757353  0.12023322  0.73245622  1.0
  O  O18  1  0.87346994  0.75077630  0.06223447  1.0
  O  O19  1  0.75077630  0.87730636  0.56223447  1.0
  O  O20  1  0.87730636  0.12653006  0.06223447  1.0
  O  O21  1  0.24922370  0.12269364  0.06223447  1.0
  O  O22  1  0.12653006  0.24922370  0.56223447  1.0
  O  O23  1  0.12269364  0.87346994  0.56223447  1.0
  O  O24  1  0.79735661  0.60571271  0.35531163  1.0
  O  O25  1  0.60571271  0.80835610  0.85531163  1.0
  O  O26  1  0.80835610  0.20264339  0.35531163  1.0
  O  O27  1  0.39428729  0.19164390  0.35531163  1.0
  O  O28  1  0.20264339  0.39428729  0.85531163  1.0
  O  O29  1  0.19164390  0.79735661  0.85531163  1.0
  O  O30  1  0.54141571  0.45156813  0.18544620  1.0
  O  O31  1  0.45156813  0.91015242  0.68544620  1.0
  O  O32  1  0.91015242  0.45858429  0.18544620  1.0
  O  O33  1  0.54843187  0.08984758  0.18544620  1.0
  O  O34  1  0.45858429  0.54843187  0.68544620  1.0
  O  O35  1  0.08984758  0.54141571  0.68544620  1.0
