# generated using pymatgen
data_Sr(BS2)2
_symmetry_space_group_name_H-M   'P 1'
_cell_length_a   6.52962261
_cell_length_b   14.25226094
_cell_length_c   6.14723171
_cell_angle_alpha   90.00000000
_cell_angle_beta   109.53282611
_cell_angle_gamma   90.00000000
_symmetry_Int_Tables_number   1
_chemical_formula_structural   Sr(BS2)2
_chemical_formula_sum   'Sr4 B8 S16'
_cell_volume   539.15022405
_cell_formula_units_Z   4
loop_
 _symmetry_equiv_pos_site_id
 _symmetry_equiv_pos_as_xyz
  1  'x, y, z'
loop_
 _atom_site_type_symbol
 _atom_site_label
 _atom_site_symmetry_multiplicity
 _atom_site_fract_x
 _atom_site_fract_y
 _atom_site_fract_z
 _atom_site_occupancy
  Sr  Sr0  1  0.18987163  0.60387241  0.80195552  1.0
  Sr  Sr1  1  0.18987163  0.89612759  0.30195552  1.0
  Sr  Sr2  1  0.81012837  0.10387241  0.69804448  1.0
  Sr  Sr3  1  0.81012837  0.39612759  0.19804448  1.0
  B  B4  1  0.72783721  0.77231438  0.67747955  1.0
  B  B5  1  0.72783721  0.72768562  0.17747955  1.0
  B  B6  1  0.27216279  0.27231438  0.82252045  1.0
  B  B7  1  0.27216279  0.22768562  0.32252045  1.0
  B  B8  1  0.53390741  0.91621742  0.93011722  1.0
  B  B9  1  0.53390741  0.58378258  0.43011722  1.0
  B  B10  1  0.46609259  0.41621742  0.56988278  1.0
  B  B11  1  0.46609259  0.08378258  0.06988278  1.0
  S  S12  1  0.91250040  0.73931258  0.98977966  1.0
  S  S13  1  0.91250040  0.76068742  0.48977966  1.0
  S  S14  1  0.08749960  0.23931258  0.51022034  1.0
  S  S15  1  0.08749960  0.26068742  0.01022034  1.0
  S  S16  1  0.73126305  0.49247451  0.63873951  1.0
  S  S17  1  0.73126305  0.00752549  0.13873951  1.0
  S  S18  1  0.26873695  0.99247451  0.86126049  1.0
  S  S19  1  0.26873695  0.50752549  0.36126049  1.0
  S  S20  1  0.62654390  0.90007773  0.66718294  1.0
  S  S21  1  0.62654390  0.59992227  0.16718294  1.0
  S  S22  1  0.37345610  0.40007773  0.83281706  1.0
  S  S23  1  0.37345610  0.09992227  0.33281706  1.0
  S  S24  1  0.47241413  0.69577392  0.56014072  1.0
  S  S25  1  0.47241413  0.80422608  0.06014072  1.0
  S  S26  1  0.52758587  0.19577392  0.93985928  1.0
  S  S27  1  0.52758587  0.30422608  0.43985928  1.0
