# generated using pymatgen
data_CdPtO12
_symmetry_space_group_name_H-M   'P 1'
_cell_length_a   9.65737392
_cell_length_b   9.65737392
_cell_length_c   6.41593804
_cell_angle_alpha   90.00000000
_cell_angle_beta   90.00000000
_cell_angle_gamma   90.00000000
_symmetry_Int_Tables_number   1
_chemical_formula_structural   CdPtO12
_chemical_formula_sum   'Cd2 Pt2 O24'
_cell_volume   598.38163363
_cell_formula_units_Z   2
loop_
 _symmetry_equiv_pos_site_id
 _symmetry_equiv_pos_as_xyz
  1  'x, y, z'
loop_
 _atom_site_type_symbol
 _atom_site_label
 _atom_site_symmetry_multiplicity
 _atom_site_fract_x
 _atom_site_fract_y
 _atom_site_fract_z
 _atom_site_occupancy
  Cd  Cd0  1  0.50000000  0.50000000  0.00000000  1.0
  Cd  Cd1  1  0.00000000  0.00000000  0.50000000  1.0
  Pt  Pt2  1  0.50000000  0.50000000  0.50000000  1.0
  Pt  Pt3  1  0.00000000  0.00000000  0.00000000  1.0
  O  O4  1  0.43690252  0.10204948  0.49995219  1.0
  O  O5  1  0.43690252  0.89795052  0.50004781  1.0
  O  O6  1  0.93690252  0.60204948  0.00004781  1.0
  O  O7  1  0.93690252  0.39795052  0.99995219  1.0
  O  O8  1  0.10204948  0.43690252  0.49995219  1.0
  O  O9  1  0.10204948  0.56309748  0.50004781  1.0
  O  O10  1  0.60204948  0.93690252  0.00004781  1.0
  O  O11  1  0.60204948  0.06309748  0.99995219  1.0
  O  O12  1  0.56309748  0.10204948  0.50004781  1.0
  O  O13  1  0.56309748  0.89795052  0.49995219  1.0
  O  O14  1  0.06309748  0.60204948  0.99995219  1.0
  O  O15  1  0.06309748  0.39795052  0.00004781  1.0
  O  O16  1  0.89795052  0.43690252  0.50004781  1.0
  O  O17  1  0.89795052  0.56309748  0.49995219  1.0
  O  O18  1  0.39795052  0.93690252  0.99995219  1.0
  O  O19  1  0.39795052  0.06309748  0.00004781  1.0
  O  O20  1  0.09381624  0.90618376  0.20800719  1.0
  O  O21  1  0.09381624  0.09381624  0.79199281  1.0
  O  O22  1  0.59381624  0.40618376  0.29199281  1.0
  O  O23  1  0.59381624  0.59381624  0.70800719  1.0
  O  O24  1  0.90618376  0.09381624  0.20800719  1.0
  O  O25  1  0.90618376  0.90618376  0.79199281  1.0
  O  O26  1  0.40618376  0.59381624  0.29199281  1.0
  O  O27  1  0.40618376  0.40618376  0.70800719  1.0
