# generated using pymatgen
data_Na3GeSe3
_symmetry_space_group_name_H-M   'P 1'
_cell_length_a   8.51577788
_cell_length_b   12.07162149
_cell_length_c   8.38050189
_cell_angle_alpha   90.00000000
_cell_angle_beta   120.00828990
_cell_angle_gamma   90.00000000
_symmetry_Int_Tables_number   1
_chemical_formula_structural   Na3GeSe3
_chemical_formula_sum   'Na12 Ge4 Se12'
_cell_volume   746.02659541
_cell_formula_units_Z   4
loop_
 _symmetry_equiv_pos_site_id
 _symmetry_equiv_pos_as_xyz
  1  'x, y, z'
loop_
 _atom_site_type_symbol
 _atom_site_label
 _atom_site_symmetry_multiplicity
 _atom_site_fract_x
 _atom_site_fract_y
 _atom_site_fract_z
 _atom_site_occupancy
  Na  Na0  1  0.96911371  0.22960793  0.74430630  1.0
  Na  Na1  1  0.96911371  0.27039207  0.24430630  1.0
  Na  Na2  1  0.03088629  0.72960793  0.75569370  1.0
  Na  Na3  1  0.03088629  0.77039207  0.25569370  1.0
  Na  Na4  1  0.72886956  0.94256295  0.71287241  1.0
  Na  Na5  1  0.72886956  0.55743705  0.21287241  1.0
  Na  Na6  1  0.27113044  0.44256295  0.78712759  1.0
  Na  Na7  1  0.27113044  0.05743705  0.28712759  1.0
  Na  Na8  1  0.50440179  0.83830271  0.98052805  1.0
  Na  Na9  1  0.50440179  0.66169729  0.48052805  1.0
  Na  Na10  1  0.49559821  0.33830271  0.51947195  1.0
  Na  Na11  1  0.49559821  0.16169729  0.01947195  1.0
  Ge  Ge12  1  0.83949748  0.50982977  0.87611394  1.0
  Ge  Ge13  1  0.83949748  0.99017023  0.37611394  1.0
  Ge  Ge14  1  0.16050252  0.00982977  0.62388606  1.0
  Ge  Ge15  1  0.16050252  0.49017023  0.12388606  1.0
  Se  Se16  1  0.83205716  0.46883708  0.59496641  1.0
  Se  Se17  1  0.83205716  0.03116292  0.09496641  1.0
  Se  Se18  1  0.16794284  0.96883708  0.90503359  1.0
  Se  Se19  1  0.16794284  0.53116292  0.40503359  1.0
  Se  Se20  1  0.75323808  0.69746988  0.88505902  1.0
  Se  Se21  1  0.75323808  0.80253012  0.38505902  1.0
  Se  Se22  1  0.24676192  0.19746988  0.61494098  1.0
  Se  Se23  1  0.24676192  0.30253012  0.11494098  1.0
  Se  Se24  1  0.66102480  0.38053858  0.93230376  1.0
  Se  Se25  1  0.66102480  0.11946142  0.43230376  1.0
  Se  Se26  1  0.33897520  0.88053858  0.56769624  1.0
  Se  Se27  1  0.33897520  0.61946142  0.06769624  1.0
