# generated using pymatgen
data_HfReSi2
_symmetry_space_group_name_H-M   'P 1'
_cell_length_a   9.17349370
_cell_length_b   10.06798539
_cell_length_c   8.11005602
_cell_angle_alpha   90.00000000
_cell_angle_beta   90.00000000
_cell_angle_gamma   90.00000000
_symmetry_Int_Tables_number   1
_chemical_formula_structural   HfReSi2
_chemical_formula_sum   'Hf12 Re12 Si24'
_cell_volume   749.03342465
_cell_formula_units_Z   12
loop_
 _symmetry_equiv_pos_site_id
 _symmetry_equiv_pos_as_xyz
  1  'x, y, z'
loop_
 _atom_site_type_symbol
 _atom_site_label
 _atom_site_symmetry_multiplicity
 _atom_site_fract_x
 _atom_site_fract_y
 _atom_site_fract_z
 _atom_site_occupancy
  Hf  Hf0  1  0.17505657  0.54885402  0.75251975  1.0
  Hf  Hf1  1  0.17505657  0.54885402  0.24748025  1.0
  Hf  Hf2  1  0.67505657  0.95114598  0.75251975  1.0
  Hf  Hf3  1  0.67505657  0.95114598  0.24748025  1.0
  Hf  Hf4  1  0.82494343  0.45114598  0.75251975  1.0
  Hf  Hf5  1  0.82494343  0.45114598  0.24748025  1.0
  Hf  Hf6  1  0.32494343  0.04885402  0.75251975  1.0
  Hf  Hf7  1  0.32494343  0.04885402  0.24748025  1.0
  Hf  Hf8  1  0.17047435  0.82060969  0.00000000  1.0
  Hf  Hf9  1  0.67047435  0.67939031  0.00000000  1.0
  Hf  Hf10  1  0.82952565  0.17939031  0.00000000  1.0
  Hf  Hf11  1  0.32952565  0.32060969  0.00000000  1.0
  Re  Re12  1  0.41510205  0.76164010  0.75074210  1.0
  Re  Re13  1  0.41510205  0.76164010  0.24925790  1.0
  Re  Re14  1  0.91510205  0.73835990  0.75074210  1.0
  Re  Re15  1  0.91510205  0.73835990  0.24925790  1.0
  Re  Re16  1  0.58489795  0.23835990  0.75074210  1.0
  Re  Re17  1  0.58489795  0.23835990  0.24925790  1.0
  Re  Re18  1  0.08489795  0.26164010  0.75074210  1.0
  Re  Re19  1  0.08489795  0.26164010  0.24925790  1.0
  Re  Re20  1  0.50000000  0.50000000  0.75508934  1.0
  Re  Re21  1  0.50000000  0.50000000  0.24491066  1.0
  Re  Re22  1  0.00000000  0.00000000  0.75508934  1.0
  Re  Re23  1  0.00000000  0.00000000  0.24491066  1.0
  Si  Si24  1  0.16646593  0.81920349  0.64555158  1.0
  Si  Si25  1  0.16646593  0.81920349  0.35444842  1.0
  Si  Si26  1  0.66646593  0.68079651  0.64555158  1.0
  Si  Si27  1  0.66646593  0.68079651  0.35444842  1.0
  Si  Si28  1  0.83353407  0.18079651  0.64555158  1.0
  Si  Si29  1  0.83353407  0.18079651  0.35444842  1.0
  Si  Si30  1  0.33353407  0.31920349  0.64555158  1.0
  Si  Si31  1  0.33353407  0.31920349  0.35444842  1.0
  Si  Si32  1  0.46396868  0.88531641  0.50000000  1.0
  Si  Si33  1  0.96396868  0.61468359  0.50000000  1.0
  Si  Si34  1  0.53603132  0.11468359  0.50000000  1.0
  Si  Si35  1  0.03603132  0.38531641  0.50000000  1.0
  Si  Si36  1  0.37573296  0.59689880  0.50000000  1.0
  Si  Si37  1  0.87573296  0.90310120  0.50000000  1.0
  Si  Si38  1  0.62426704  0.40310120  0.50000000  1.0
  Si  Si39  1  0.12426704  0.09689880  0.50000000  1.0
  Si  Si40  1  0.46594557  0.88574816  0.00000000  1.0
  Si  Si41  1  0.96594557  0.61425184  0.00000000  1.0
  Si  Si42  1  0.53405443  0.11425184  0.00000000  1.0
  Si  Si43  1  0.03405443  0.38574816  0.00000000  1.0
  Si  Si44  1  0.36876084  0.60167363  0.00000000  1.0
  Si  Si45  1  0.86876084  0.89832637  0.00000000  1.0
  Si  Si46  1  0.63123916  0.39832637  0.00000000  1.0
  Si  Si47  1  0.13123916  0.10167363  0.00000000  1.0
