# generated using pymatgen
data_Tl2Sn(AsS3)2
_symmetry_space_group_name_H-M   'P 1'
_cell_length_a   6.76534499
_cell_length_b   6.76534499
_cell_length_c   7.47239422
_cell_angle_alpha   90.00000000
_cell_angle_beta   90.00000000
_cell_angle_gamma   120.00000000
_symmetry_Int_Tables_number   1
_chemical_formula_structural   Tl2Sn(AsS3)2
_chemical_formula_sum   'Tl2 Sn1 As2 S6'
_cell_volume   296.18993924
_cell_formula_units_Z   1
loop_
 _symmetry_equiv_pos_site_id
 _symmetry_equiv_pos_as_xyz
  1  'x, y, z'
loop_
 _atom_site_type_symbol
 _atom_site_label
 _atom_site_symmetry_multiplicity
 _atom_site_fract_x
 _atom_site_fract_y
 _atom_site_fract_z
 _atom_site_occupancy
  Tl  Tl0  1  0.33333333  0.66666667  0.61710013  1.0
  Tl  Tl1  1  0.66666667  0.33333333  0.38289987  1.0
  Sn  Sn2  1  0.00000000  0.00000000  0.00000000  1.0
  As  As3  1  0.33333333  0.66666667  0.06863478  1.0
  As  As4  1  0.66666667  0.33333333  0.93136522  1.0
  S  S5  1  0.22768930  0.89120784  0.22223218  1.0
  S  S6  1  0.89120784  0.66351854  0.77776782  1.0
  S  S7  1  0.66351854  0.77231070  0.22223218  1.0
  S  S8  1  0.10879216  0.33648146  0.22223218  1.0
  S  S9  1  0.77231070  0.10879216  0.77776782  1.0
  S  S10  1  0.33648146  0.22768930  0.77776782  1.0
