# generated using pymatgen
data_Mn2SiSe4
_symmetry_space_group_name_H-M   'P 1'
_cell_length_a   13.39627710
_cell_length_b   7.83761686
_cell_length_c   6.27205423
_cell_angle_alpha   90.00000000
_cell_angle_beta   90.00000000
_cell_angle_gamma   90.00000000
_symmetry_Int_Tables_number   1
_chemical_formula_structural   Mn2SiSe4
_chemical_formula_sum   'Mn8 Si4 Se16'
_cell_volume   658.53362700
_cell_formula_units_Z   4
loop_
 _symmetry_equiv_pos_site_id
 _symmetry_equiv_pos_as_xyz
  1  'x, y, z'
loop_
 _atom_site_type_symbol
 _atom_site_label
 _atom_site_symmetry_multiplicity
 _atom_site_fract_x
 _atom_site_fract_y
 _atom_site_fract_z
 _atom_site_occupancy
  Mn  Mn0  1  0.76635270  0.25000000  0.50452147  1.0
  Mn  Mn1  1  0.26635270  0.25000000  0.99547853  1.0
  Mn  Mn2  1  0.23364730  0.75000000  0.49547853  1.0
  Mn  Mn3  1  0.73364730  0.75000000  0.00452147  1.0
  Mn  Mn4  1  0.00000000  0.50000000  0.00000000  1.0
  Mn  Mn5  1  0.00000000  0.00000000  0.00000000  1.0
  Mn  Mn6  1  0.50000000  0.50000000  0.50000000  1.0
  Mn  Mn7  1  0.50000000  0.00000000  0.50000000  1.0
  Se  Se8  1  0.59214997  0.25000000  0.72941066  1.0
  Se  Se9  1  0.09214997  0.25000000  0.77058934  1.0
  Se  Se10  1  0.40785003  0.75000000  0.27058934  1.0
  Se  Se11  1  0.90785003  0.75000000  0.22941066  1.0
  Se  Se12  1  0.66786152  0.48035540  0.25144663  1.0
  Se  Se13  1  0.66786152  0.01964460  0.25144663  1.0
  Se  Se14  1  0.16786152  0.48035540  0.24855336  1.0
  Se  Se15  1  0.16786152  0.01964460  0.24855336  1.0
  Se  Se16  1  0.33213848  0.98035540  0.74855337  1.0
  Se  Se17  1  0.33213848  0.51964460  0.74855337  1.0
  Se  Se18  1  0.83213848  0.98035540  0.75144664  1.0
  Se  Se19  1  0.83213848  0.51964460  0.75144664  1.0
  Se  Se20  1  0.93049727  0.25000000  0.25625555  1.0
  Se  Se21  1  0.43049727  0.25000000  0.24374445  1.0
  Se  Se22  1  0.06950273  0.75000000  0.74374445  1.0
  Se  Se23  1  0.56950273  0.75000000  0.75625555  1.0
  Si  Si24  1  0.58856402  0.25000000  0.09398995  1.0
  Si  Si25  1  0.08856402  0.25000000  0.40601005  1.0
  Si  Si26  1  0.41143598  0.75000000  0.90601005  1.0
  Si  Si27  1  0.91143598  0.75000000  0.59398995  1.0
