# generated using pymatgen
data_Ba(HO)2
_symmetry_space_group_name_H-M   'P 1'
_cell_length_a   6.82862530
_cell_length_b   7.95472871
_cell_length_c   11.14388122
_cell_angle_alpha   90.00000000
_cell_angle_beta   122.17265283
_cell_angle_gamma   90.00000000
_symmetry_Int_Tables_number   1
_chemical_formula_structural   Ba(HO)2
_chemical_formula_sum   'Ba8 H16 O16'
_cell_volume   512.38347044
_cell_formula_units_Z   8
loop_
 _symmetry_equiv_pos_site_id
 _symmetry_equiv_pos_as_xyz
  1  'x, y, z'
loop_
 _atom_site_type_symbol
 _atom_site_label
 _atom_site_symmetry_multiplicity
 _atom_site_fract_x
 _atom_site_fract_y
 _atom_site_fract_z
 _atom_site_occupancy
  Ba  Ba0  1  0.96524681  0.44977526  0.18288240  1.0
  Ba  Ba1  1  0.96524681  0.05022474  0.68288240  1.0
  Ba  Ba2  1  0.03475319  0.94977526  0.31711760  1.0
  Ba  Ba3  1  0.03475319  0.55022474  0.81711760  1.0
  Ba  Ba4  1  0.35308044  0.14281554  0.10377377  1.0
  Ba  Ba5  1  0.35308044  0.35718446  0.60377377  1.0
  Ba  Ba6  1  0.64691956  0.64281554  0.39622623  1.0
  Ba  Ba7  1  0.64691956  0.85718446  0.89622623  1.0
  H  H8  1  0.82011928  0.23191008  0.38062573  1.0
  H  H9  1  0.82011928  0.26808992  0.88062573  1.0
  H  H10  1  0.17988072  0.73191008  0.11937427  1.0
  H  H11  1  0.17988072  0.76808992  0.61937427  1.0
  H  H12  1  0.79844005  0.14992760  0.02490372  1.0
  H  H13  1  0.79844005  0.35007240  0.52490372  1.0
  H  H14  1  0.20155995  0.64992760  0.47509628  1.0
  H  H15  1  0.20155995  0.85007240  0.97509628  1.0
  H  H16  1  0.57374152  0.03847858  0.38203430  1.0
  H  H17  1  0.57374152  0.46152142  0.88203430  1.0
  H  H18  1  0.42625848  0.53847858  0.11796570  1.0
  H  H19  1  0.42625848  0.96152142  0.61796570  1.0
  H  H20  1  0.45513839  0.25575873  0.40435891  1.0
  H  H21  1  0.45513839  0.24424127  0.90435891  1.0
  H  H22  1  0.54486161  0.75575873  0.09564109  1.0
  H  H23  1  0.54486161  0.74424127  0.59564109  1.0
  O  O24  1  0.88880033  0.34460843  0.39809283  1.0
  O  O25  1  0.88880033  0.15539157  0.89809283  1.0
  O  O26  1  0.11119967  0.84460843  0.10190717  1.0
  O  O27  1  0.11119967  0.65539157  0.60190717  1.0
  O  O28  1  0.73158063  0.14089691  0.08498899  1.0
  O  O29  1  0.73158063  0.35910309  0.58498899  1.0
  O  O30  1  0.26841937  0.64089691  0.41501101  1.0
  O  O31  1  0.26841937  0.85910309  0.91501101  1.0
  O  O32  1  0.70734738  0.99253245  0.38221363  1.0
  O  O33  1  0.70734738  0.50746755  0.88221363  1.0
  O  O34  1  0.29265262  0.49253245  0.11778637  1.0
  O  O35  1  0.29265262  0.00746755  0.61778637  1.0
  O  O36  1  0.30927379  0.19949731  0.33640098  1.0
  O  O37  1  0.30927379  0.30050269  0.83640098  1.0
  O  O38  1  0.69072621  0.69949731  0.16359902  1.0
  O  O39  1  0.69072621  0.80050269  0.66359902  1.0
