# generated using pymatgen
data_Sc2FeB2Rh5
_symmetry_space_group_name_H-M   'P 1'
_cell_length_a   9.29466952
_cell_length_b   9.29466952
_cell_length_c   3.07914775
_cell_angle_alpha   90.00000000
_cell_angle_beta   90.00000000
_cell_angle_gamma   90.00000000
_symmetry_Int_Tables_number   1
_chemical_formula_structural   Sc2FeB2Rh5
_chemical_formula_sum   'Sc4 Fe2 B4 Rh10'
_cell_volume   266.01028829
_cell_formula_units_Z   2
loop_
 _symmetry_equiv_pos_site_id
 _symmetry_equiv_pos_as_xyz
  1  'x, y, z'
loop_
 _atom_site_type_symbol
 _atom_site_label
 _atom_site_symmetry_multiplicity
 _atom_site_fract_x
 _atom_site_fract_y
 _atom_site_fract_z
 _atom_site_occupancy
  Sc  Sc0  1  0.32487855  0.17512145  0.00000000  1.0
  Sc  Sc1  1  0.82487855  0.32487855  0.00000000  1.0
  Sc  Sc2  1  0.67512145  0.82487855  0.00000000  1.0
  Sc  Sc3  1  0.17512145  0.67512145  0.00000000  1.0
  Fe  Fe4  1  0.50000000  0.50000000  0.00000000  1.0
  Fe  Fe5  1  0.00000000  0.00000000  0.00000000  1.0
  B  B6  1  0.87538912  0.62461088  0.00000000  1.0
  B  B7  1  0.37538912  0.87538912  0.00000000  1.0
  B  B8  1  0.12461088  0.37538912  0.00000000  1.0
  B  B9  1  0.62461088  0.12461088  0.00000000  1.0
  Rh  Rh10  1  0.42924205  0.71600067  0.50000000  1.0
  Rh  Rh11  1  0.92924205  0.78399933  0.50000000  1.0
  Rh  Rh12  1  0.28399933  0.42924205  0.50000000  1.0
  Rh  Rh13  1  0.78399933  0.07075795  0.50000000  1.0
  Rh  Rh14  1  0.57075795  0.28399933  0.50000000  1.0
  Rh  Rh15  1  0.07075795  0.21600067  0.50000000  1.0
  Rh  Rh16  1  0.71600067  0.57075795  0.50000000  1.0
  Rh  Rh17  1  0.21600067  0.92924205  0.50000000  1.0
  Rh  Rh18  1  0.50000000  0.00000000  0.50000000  1.0
  Rh  Rh19  1  0.00000000  0.50000000  0.50000000  1.0
