# generated using pymatgen
data_VBr3
_symmetry_space_group_name_H-M   'P 1'
_cell_length_a   7.67619702
_cell_length_b   7.67619702
_cell_length_c   7.67619702
_cell_angle_alpha   50.69805123
_cell_angle_beta   50.69805123
_cell_angle_gamma   50.69805123
_symmetry_Int_Tables_number   1
_chemical_formula_structural   VBr3
_chemical_formula_sum   'V2 Br6'
_cell_volume   249.64924562
_cell_formula_units_Z   2
loop_
 _symmetry_equiv_pos_site_id
 _symmetry_equiv_pos_as_xyz
  1  'x, y, z'
loop_
 _atom_site_type_symbol
 _atom_site_label
 _atom_site_symmetry_multiplicity
 _atom_site_fract_x
 _atom_site_fract_y
 _atom_site_fract_z
 _atom_site_occupancy
  V  V0  1  0.16666348  0.16666348  0.16666348  1.0
  V  V1  1  0.83333652  -0.16666348  -0.16666348  1.0
  Br  Br2  1  0.42724108  0.05665461  -0.20263796  1.0
  Br  Br3  1  0.20263796  0.57275892  -0.05665461  1.0
  Br  Br4  1  0.94334539  0.20263796  -0.42724108  1.0
  Br  Br5  1  0.57275892  0.94334539  -0.79736204  1.0
  Br  Br6  1  0.79736204  -0.57275892  0.05665461  1.0
  Br  Br7  1  1.05665461  -0.20263796  -0.57275892  1.0
