# generated using pymatgen
data_Mo(SeCl6)2
_symmetry_space_group_name_H-M   'P 1'
_cell_length_a   12.86451781
_cell_length_b   12.75842646
_cell_length_c   9.27203057
_cell_angle_alpha   69.39769931
_cell_angle_beta   68.17535617
_cell_angle_gamma   42.42694452
_symmetry_Int_Tables_number   1
_chemical_formula_structural   Mo(SeCl6)2
_chemical_formula_sum   'Mo2 Se4 Cl24'
_cell_volume   945.79417540
_cell_formula_units_Z   2
loop_
 _symmetry_equiv_pos_site_id
 _symmetry_equiv_pos_as_xyz
  1  'x, y, z'
loop_
 _atom_site_type_symbol
 _atom_site_label
 _atom_site_symmetry_multiplicity
 _atom_site_fract_x
 _atom_site_fract_y
 _atom_site_fract_z
 _atom_site_occupancy
  Mo  Mo0  1  0.99719005  -0.00280995  0.00280995  1.0
  Mo  Mo1  1  0.24719005  0.24719005  0.25280995  1.0
  Se  Se2  1  0.06563807  0.59608807  0.90592028  1.0
  Se  Se3  1  -0.65592028  0.81764642  1.18436193  1.0
  Se  Se4  1  0.59608807  0.06563807  0.43235358  1.0
  Se  Se5  1  0.81764642  -0.65592028  0.65391193  1.0
  Cl  Cl6  1  0.74127004  0.10567966  0.10518251  1.0
  Cl  Cl7  1  0.14481749  0.20213222  0.50872996  1.0
  Cl  Cl8  1  0.10567966  0.74127004  0.04786778  1.0
  Cl  Cl9  1  0.20213222  0.14481749  0.14432034  1.0
  Cl  Cl10  1  0.34892318  -0.19976860  0.42813175  1.0
  Cl  Cl11  1  0.82186825  -0.17271367  0.90107682  1.0
  Cl  Cl12  1  -0.19976860  0.34892318  1.42271367  1.0
  Cl  Cl13  1  0.82728633  -0.17813175  0.44976860  1.0
  Cl  Cl14  1  0.35054395  0.30131377  0.99608872  1.0
  Cl  Cl15  1  0.25391128  -0.10205356  0.89945605  1.0
  Cl  Cl16  1  0.30131377  0.35054395  0.35205356  1.0
  Cl  Cl17  1  0.89794644  -0.74608872  0.94868623  1.0
  Cl  Cl18  1  0.18499412  0.62867577  0.67492400  1.0
  Cl  Cl19  1  -0.42492400  0.73859389  1.06500588  1.0
  Cl  Cl20  1  0.62867577  0.18499412  0.51140611  1.0
  Cl  Cl21  1  0.73859389  -0.42492400  0.62132423  1.0
  Cl  Cl22  1  0.50793260  -0.00721577  0.28770014  1.0
  Cl  Cl23  1  0.96229986  0.03841697  0.74206740  1.0
  Cl  Cl24  1  -0.00721577  0.50793260  1.21158303  1.0
  Cl  Cl25  1  0.03841697  0.96229986  0.25721577  1.0
  Cl  Cl26  1  0.04130159  0.47343350  0.82530583  1.0
  Cl  Cl27  1  -0.57530583  0.59004092  1.20869841  1.0
  Cl  Cl28  1  0.47343350  0.04130159  0.65995908  1.0
  Cl  Cl29  1  0.59004092  -0.57530583  0.77656650  1.0
