# generated using pymatgen
data_Ce2(Si2Pd7)3
_symmetry_space_group_name_H-M   'P 1'
_cell_length_a   8.66460030
_cell_length_b   8.66460030
_cell_length_c   8.66460030
_cell_angle_alpha   60.00000000
_cell_angle_beta   60.00000000
_cell_angle_gamma   60.00000000
_symmetry_Int_Tables_number   1
_chemical_formula_structural   Ce2(Si2Pd7)3
_chemical_formula_sum   'Ce2 Si6 Pd21'
_cell_volume   459.97116048
_cell_formula_units_Z   1
loop_
 _symmetry_equiv_pos_site_id
 _symmetry_equiv_pos_as_xyz
  1  'x, y, z'
loop_
 _atom_site_type_symbol
 _atom_site_label
 _atom_site_symmetry_multiplicity
 _atom_site_fract_x
 _atom_site_fract_y
 _atom_site_fract_z
 _atom_site_occupancy
  Ce  Ce0  1  0.75000000  0.75000000  -0.25000000  1.0
  Ce  Ce1  1  1.25000000  0.25000000  0.25000000  1.0
  Si  Si2  1  -0.73699708  0.73699708  0.73699708  1.0
  Si  Si3  1  -0.26300292  0.26300292  0.73699708  1.0
  Si  Si4  1  0.73699708  0.73699708  -0.73699708  1.0
  Si  Si5  1  0.26300292  1.26300292  -0.26300292  1.0
  Si  Si6  1  0.26300292  -0.26300292  1.26300292  1.0
  Si  Si7  1  -0.26300292  0.26300292  0.26300292  1.0
  Pd  Pd8  1  1.65455414  0.00000000  -0.00000000  1.0
  Pd  Pd9  1  1.00000000  0.34544586  -0.34544586  1.0
  Pd  Pd10  1  1.00000000  0.65455414  -0.65455414  1.0
  Pd  Pd11  1  1.34544586  -0.00000000  0.00000000  1.0
  Pd  Pd12  1  0.00000000  1.65455414  -0.00000000  1.0
  Pd  Pd13  1  0.34544586  1.00000000  -0.34544586  1.0
  Pd  Pd14  1  -0.00000000  -0.00000000  0.65455414  1.0
  Pd  Pd15  1  0.34544586  -0.34544586  1.00000000  1.0
  Pd  Pd16  1  0.65455414  1.00000000  -0.65455414  1.0
  Pd  Pd17  1  -0.00000000  1.34544586  0.00000000  1.0
  Pd  Pd18  1  0.65455414  -0.65455414  1.00000000  1.0
  Pd  Pd19  1  0.00000000  -0.00000000  0.34544586  1.0
  Pd  Pd20  1  0.61603938  0.61603938  -0.38396062  1.0
  Pd  Pd21  1  0.38396062  1.38396062  -0.15188186  1.0
  Pd  Pd22  1  1.38396062  -0.15188186  0.38396062  1.0
  Pd  Pd23  1  1.15188186  0.61603938  0.61603938  1.0
  Pd  Pd24  1  -0.15188186  1.38396062  0.38396062  1.0
  Pd  Pd25  1  0.61603938  1.15188186  -0.38396062  1.0
  Pd  Pd26  1  0.61603938  0.61603938  1.15188186  1.0
  Pd  Pd27  1  1.38396062  0.38396062  0.38396062  1.0
  Pd  Pd28  1  -0.00000000  0.00000000  -0.00000000  1.0
