# generated using pymatgen
data_Hf9Mo4S
_symmetry_space_group_name_H-M   'P 1'
_cell_length_a   8.67593560
_cell_length_b   8.67593560
_cell_length_c   8.53340761
_cell_angle_alpha   90.00000000
_cell_angle_beta   90.00000000
_cell_angle_gamma   120.00000000
_symmetry_Int_Tables_number   1
_chemical_formula_structural   Hf9Mo4S
_chemical_formula_sum   'Hf18 Mo8 S2'
_cell_volume   556.27015684
_cell_formula_units_Z   2
loop_
 _symmetry_equiv_pos_site_id
 _symmetry_equiv_pos_as_xyz
  1  'x, y, z'
loop_
 _atom_site_type_symbol
 _atom_site_label
 _atom_site_symmetry_multiplicity
 _atom_site_fract_x
 _atom_site_fract_y
 _atom_site_fract_z
 _atom_site_occupancy
  Hf  Hf0  1  0.54268085  0.45731915  0.25000000  1.0
  Hf  Hf1  1  0.54268085  0.08536171  0.25000000  1.0
  Hf  Hf2  1  0.45731915  0.54268085  0.75000000  1.0
  Hf  Hf3  1  0.45731915  0.91463829  0.75000000  1.0
  Hf  Hf4  1  0.91463829  0.45731915  0.25000000  1.0
  Hf  Hf5  1  0.08536171  0.54268085  0.75000000  1.0
  Hf  Hf6  1  0.19714676  0.80285324  0.45019803  1.0
  Hf  Hf7  1  0.19714676  0.80285324  0.04980197  1.0
  Hf  Hf8  1  0.19714676  0.39429352  0.45019803  1.0
  Hf  Hf9  1  0.19714676  0.39429352  0.04980197  1.0
  Hf  Hf10  1  0.80285324  0.19714676  0.95019803  1.0
  Hf  Hf11  1  0.80285324  0.19714676  0.54980197  1.0
  Hf  Hf12  1  0.80285324  0.60570648  0.95019803  1.0
  Hf  Hf13  1  0.80285324  0.60570648  0.54980197  1.0
  Hf  Hf14  1  0.60570648  0.80285324  0.45019803  1.0
  Hf  Hf15  1  0.60570648  0.80285324  0.04980197  1.0
  Hf  Hf16  1  0.39429352  0.19714676  0.95019803  1.0
  Hf  Hf17  1  0.39429352  0.19714676  0.54980197  1.0
  Mo  Mo18  1  0.00000000  -0.00000000  0.50000000  1.0
  Mo  Mo19  1  -0.00000000  -0.00000000  0.00000000  1.0
  Mo  Mo20  1  0.88961404  0.11038596  0.25000000  1.0
  Mo  Mo21  1  0.88961404  0.77922808  0.25000000  1.0
  Mo  Mo22  1  0.11038596  0.88961404  0.75000000  1.0
  Mo  Mo23  1  0.11038596  0.22077192  0.75000000  1.0
  Mo  Mo24  1  0.22077192  0.11038596  0.25000000  1.0
  Mo  Mo25  1  0.77922808  0.88961404  0.75000000  1.0
  S  S26  1  0.33333333  0.66666667  0.25000000  1.0
  S  S27  1  0.66666667  0.33333333  0.75000000  1.0
