# generated using pymatgen
data_MnCu2GeS4
_symmetry_space_group_name_H-M   'P 1'
_cell_length_a   7.61037494
_cell_length_b   6.51894795
_cell_length_c   6.25496764
_cell_angle_alpha   90.00000000
_cell_angle_beta   90.00000000
_cell_angle_gamma   90.00000000
_symmetry_Int_Tables_number   1
_chemical_formula_structural   MnCu2GeS4
_chemical_formula_sum   'Mn2 Cu4 Ge2 S8'
_cell_volume   310.31919147
_cell_formula_units_Z   2
loop_
 _symmetry_equiv_pos_site_id
 _symmetry_equiv_pos_as_xyz
  1  'x, y, z'
loop_
 _atom_site_type_symbol
 _atom_site_label
 _atom_site_symmetry_multiplicity
 _atom_site_fract_x
 _atom_site_fract_y
 _atom_site_fract_z
 _atom_site_occupancy
  Mn  Mn0  1  0.50000000  0.66011641  0.00611277  1.0
  Mn  Mn1  1  0.00000000  0.33988359  0.50611277  1.0
  Cu  Cu2  1  0.24986928  0.17310261  0.01150505  1.0
  Cu  Cu3  1  0.74986928  0.82689739  0.51150505  1.0
  Cu  Cu4  1  0.75013072  0.17310261  0.01150505  1.0
  Cu  Cu5  1  0.25013072  0.82689739  0.51150505  1.0
  Ge  Ge6  1  0.50000000  0.32860118  0.50484275  1.0
  Ge  Ge7  1  0.00000000  0.67139882  0.00484275  1.0
  S  S8  1  0.25826649  0.16038577  0.37939494  1.0
  S  S9  1  0.75826649  0.83961423  0.87939494  1.0
  S  S10  1  0.74173351  0.16038577  0.37939494  1.0
  S  S11  1  0.24173351  0.83961423  0.87939494  1.0
  S  S12  1  0.50000000  0.31758116  0.86996511  1.0
  S  S13  1  0.00000000  0.68241884  0.36996511  1.0
  S  S14  1  0.50000000  0.65976111  0.38977940  1.0
  S  S15  1  0.00000000  0.34023889  0.88977940  1.0
