# generated using pymatgen
data_La6OsI10
_symmetry_space_group_name_H-M   'P 1'
_cell_length_a   8.21250573
_cell_length_b   10.34445217
_cell_length_c   10.04209116
_cell_angle_alpha   107.47373155
_cell_angle_beta   104.79654771
_cell_angle_gamma   96.86701369
_symmetry_Int_Tables_number   1
_chemical_formula_structural   La6OsI10
_chemical_formula_sum   'La6 Os1 I10'
_cell_volume   768.74212035
_cell_formula_units_Z   1
loop_
 _symmetry_equiv_pos_site_id
 _symmetry_equiv_pos_as_xyz
  1  'x, y, z'
loop_
 _atom_site_type_symbol
 _atom_site_label
 _atom_site_symmetry_multiplicity
 _atom_site_fract_x
 _atom_site_fract_y
 _atom_site_fract_z
 _atom_site_occupancy
  La  La0  1  -0.85816365  -0.67525061  -0.63400154  1.0
  La  La1  1  -0.14183635  -0.32474939  -0.36599846  1.0
  La  La2  1  -0.46349208  -0.57777186  -0.76944099  1.0
  La  La3  1  -0.53650792  -0.42222814  -0.23055901  1.0
  La  La4  1  -0.37430398  -0.74465676  -0.45099213  1.0
  La  La5  1  -0.62569602  -0.25534324  -0.54900787  1.0
  Os  Os6  1  -0.50000000  -0.50000000  -0.50000000  1.0
  I  I7  1  -0.95244657  -0.58635695  -0.31663350  1.0
  I  I8  1  -0.04755343  -0.41364305  -0.68336650  1.0
  I  I9  1  -0.84059921  -0.77248484  -0.95519177  1.0
  I  I10  1  -0.15940079  -0.22751516  -0.04480823  1.0
  I  I11  1  -0.75146477  -0.95508115  -0.58273816  1.0
  I  I12  1  -0.24853523  -0.04491885  -0.41726184  1.0
  I  I13  1  -0.58850616  -0.32396889  -0.87301817  1.0
  I  I14  1  -0.41149384  -0.67603111  -0.12698183  1.0
  I  I15  1  -0.28251463  -0.84385925  -0.75603684  1.0
  I  I16  1  -0.71748537  -0.15614075  -0.24396316  1.0
