# generated using pymatgen
data_Na2InO2
_symmetry_space_group_name_H-M   'P 1'
_cell_length_a   12.71694477
_cell_length_b   12.44214706
_cell_length_c   7.06236110
_cell_angle_alpha   90.00000000
_cell_angle_beta   90.00000000
_cell_angle_gamma   90.00000000
_symmetry_Int_Tables_number   1
_chemical_formula_structural   Na2InO2
_chemical_formula_sum   'Na16 In8 O16'
_cell_volume   1117.44983313
_cell_formula_units_Z   8
loop_
 _symmetry_equiv_pos_site_id
 _symmetry_equiv_pos_as_xyz
  1  'x, y, z'
loop_
 _atom_site_type_symbol
 _atom_site_label
 _atom_site_symmetry_multiplicity
 _atom_site_fract_x
 _atom_site_fract_y
 _atom_site_fract_z
 _atom_site_occupancy
  Na  Na0  1  0.25113874  0.36787906  0.35070141  1.0
  Na  Na1  1  0.25113874  0.63212094  0.35070141  1.0
  Na  Na2  1  0.75113874  0.86787906  0.64929859  1.0
  Na  Na3  1  0.75113874  0.13212094  0.64929859  1.0
  Na  Na4  1  0.74886126  0.36787906  0.35070141  1.0
  Na  Na5  1  0.74886126  0.63212094  0.35070141  1.0
  Na  Na6  1  0.24886126  0.86787906  0.64929859  1.0
  Na  Na7  1  0.24886126  0.13212094  0.64929859  1.0
  Na  Na8  1  0.35800836  0.87617574  0.10857195  1.0
  Na  Na9  1  0.35800836  0.12382426  0.10857195  1.0
  Na  Na10  1  0.85800836  0.37617574  0.89142805  1.0
  Na  Na11  1  0.85800836  0.62382426  0.89142805  1.0
  Na  Na12  1  0.64199164  0.87617574  0.10857195  1.0
  Na  Na13  1  0.64199164  0.12382426  0.10857195  1.0
  Na  Na14  1  0.14199164  0.37617574  0.89142805  1.0
  Na  Na15  1  0.14199164  0.62382426  0.89142805  1.0
  In  In16  1  0.38013668  0.36039921  0.82903906  1.0
  In  In17  1  0.38013668  0.63960079  0.82903906  1.0
  In  In18  1  0.88013668  0.86039921  0.17096094  1.0
  In  In19  1  0.88013668  0.13960079  0.17096094  1.0
  In  In20  1  0.61986332  0.36039921  0.82903906  1.0
  In  In21  1  0.61986332  0.63960079  0.82903906  1.0
  In  In22  1  0.11986332  0.86039921  0.17096094  1.0
  In  In23  1  0.11986332  0.13960079  0.17096094  1.0
  O  O24  1  0.24665679  0.06267934  0.35630062  1.0
  O  O25  1  0.24665679  0.93732066  0.35630062  1.0
  O  O26  1  0.74665679  0.56267934  0.64369938  1.0
  O  O27  1  0.74665679  0.43732066  0.64369938  1.0
  O  O28  1  0.75334321  0.06267934  0.35630062  1.0
  O  O29  1  0.75334321  0.93732066  0.35630062  1.0
  O  O30  1  0.25334321  0.56267934  0.64369938  1.0
  O  O31  1  0.25334321  0.43732066  0.64369938  1.0
  O  O32  1  0.28773399  0.43888313  1.06833748  1.0
  O  O33  1  0.28773399  0.56111687  1.06833748  1.0
  O  O34  1  0.78773399  0.93888313  -0.06833748  1.0
  O  O35  1  0.78773399  0.06111687  -0.06833748  1.0
  O  O36  1  0.71226601  0.43888313  1.06833748  1.0
  O  O37  1  0.71226601  0.56111687  1.06833748  1.0
  O  O38  1  0.21226601  0.93888313  -0.06833748  1.0
  O  O39  1  0.21226601  0.06111687  -0.06833748  1.0
