# generated using pymatgen
data_NiP4H16(NO8)2
_symmetry_space_group_name_H-M   'P 1'
_cell_length_a   7.37369102
_cell_length_b   7.19048358
_cell_length_c   7.77210578
_cell_angle_alpha   108.49555850
_cell_angle_beta   98.39855589
_cell_angle_gamma   91.13372454
_symmetry_Int_Tables_number   1
_chemical_formula_structural   NiP4H16(NO8)2
_chemical_formula_sum   'Ni1 P4 H16 N2 O16'
_cell_volume   385.64330858
_cell_formula_units_Z   1
loop_
 _symmetry_equiv_pos_site_id
 _symmetry_equiv_pos_as_xyz
  1  'x, y, z'
loop_
 _atom_site_type_symbol
 _atom_site_label
 _atom_site_symmetry_multiplicity
 _atom_site_fract_x
 _atom_site_fract_y
 _atom_site_fract_z
 _atom_site_occupancy
  Ni  Ni0  1  0.00000000  0.00000000  0.00000000  1.0
  P  P1  1  0.75202390  0.83501109  -0.74340197  1.0
  P  P2  1  0.24797610  0.16498891  -0.25659803  1.0
  P  P3  1  0.72111181  0.24277787  -0.74127417  1.0
  P  P4  1  0.27888819  0.75722213  -0.25872583  1.0
  H  H5  1  0.66903782  0.88226331  -0.20193947  1.0
  H  H6  1  0.33096218  0.11773669  -0.79806053  1.0
  H  H7  1  0.80510637  0.88131779  -0.34300553  1.0
  H  H8  1  0.19489363  0.11868221  -0.65699447  1.0
  H  H9  1  0.51732719  0.76020476  -0.97690532  1.0
  H  H10  1  0.48267281  0.23979524  -0.02309468  1.0
  H  H11  1  0.09842482  0.67756964  -0.83088131  1.0
  H  H12  1  0.90157518  0.32243036  -0.16911869  1.0
  H  H13  1  0.32690813  0.64954311  -0.81251775  1.0
  H  H14  1  0.67309187  0.35045689  -0.18748225  1.0
  H  H15  1  0.77404068  0.56118240  -0.57770940  1.0
  H  H16  1  0.22595932  0.43881760  -0.42229060  1.0
  H  H17  1  0.17529283  0.44916317  -0.90120993  1.0
  H  H18  1  0.82470717  0.55083683  -0.09879007  1.0
  H  H19  1  0.79550868  0.42056111  -0.32640323  1.0
  H  H20  1  0.20449132  0.57943889  -0.67359677  1.0
  N  N21  1  0.20099771  0.58835126  -0.80503951  1.0
  N  N22  1  0.79900229  0.41164874  -0.19496049  1.0
  O  O23  1  0.78348515  0.94756316  -0.21589692  1.0
  O  O24  1  0.21651485  0.05243684  -0.78410308  1.0
  O  O25  1  0.26087189  0.93046186  -0.35232549  1.0
  O  O26  1  0.73912811  0.06953814  -0.64767451  1.0
  O  O27  1  0.88236153  0.80163009  -0.88575755  1.0
  O  O28  1  0.11763847  0.19836991  -0.11424245  1.0
  O  O29  1  0.80755183  0.75955862  -0.58347945  1.0
  O  O30  1  0.19244817  0.24044138  -0.41652055  1.0
  O  O31  1  0.55228107  0.74637885  -0.84447493  1.0
  O  O32  1  0.44771893  0.25362115  -0.15552507  1.0
  O  O33  1  0.75349647  0.42532060  -0.55849939  1.0
  O  O34  1  0.24650353  0.57467940  -0.44150061  1.0
  O  O35  1  0.52389907  0.22699466  -0.84135781  1.0
  O  O36  1  0.47610093  0.77300534  -0.15864219  1.0
  O  O37  1  0.87117121  0.23852176  -0.85636220  1.0
  O  O38  1  0.12882879  0.76147824  -0.14363780  1.0
