# generated using pymatgen
data_Sr5NbN5
_symmetry_space_group_name_H-M   'P 1'
_cell_length_a   6.49061891
_cell_length_b   17.97197900
_cell_length_c   7.31134610
_cell_angle_alpha   90.00000000
_cell_angle_beta   90.00000000
_cell_angle_gamma   90.00000000
_symmetry_Int_Tables_number   1
_chemical_formula_structural   Sr5NbN5
_chemical_formula_sum   'Sr20 Nb4 N20'
_cell_volume   852.86316159
_cell_formula_units_Z   4
loop_
 _symmetry_equiv_pos_site_id
 _symmetry_equiv_pos_as_xyz
  1  'x, y, z'
loop_
 _atom_site_type_symbol
 _atom_site_label
 _atom_site_symmetry_multiplicity
 _atom_site_fract_x
 _atom_site_fract_y
 _atom_site_fract_z
 _atom_site_occupancy
  Sr  Sr0  1  0.79964106  0.42328320  0.49540579  1.0
  Sr  Sr1  1  0.79964106  0.42328320  0.00459421  1.0
  Sr  Sr2  1  0.79964106  0.07671680  0.99540579  1.0
  Sr  Sr3  1  0.79964106  0.07671680  0.50459421  1.0
  Sr  Sr4  1  0.20035894  0.92328320  0.49540579  1.0
  Sr  Sr5  1  0.20035894  0.92328320  0.00459421  1.0
  Sr  Sr6  1  0.20035894  0.57671680  0.99540579  1.0
  Sr  Sr7  1  0.20035894  0.57671680  0.50459421  1.0
  Sr  Sr8  1  1.00106892  0.26457559  0.25000000  1.0
  Sr  Sr9  1  1.00106892  0.23542441  0.75000000  1.0
  Sr  Sr10  1  -0.00106892  0.76457559  0.25000000  1.0
  Sr  Sr11  1  -0.00106892  0.73542441  0.75000000  1.0
  Sr  Sr12  1  0.32138191  0.41997517  0.25000000  1.0
  Sr  Sr13  1  0.32138191  0.08002483  0.75000000  1.0
  Sr  Sr14  1  0.67861809  0.91997517  0.25000000  1.0
  Sr  Sr15  1  0.67861809  0.58002483  0.75000000  1.0
  Sr  Sr16  1  0.46582275  0.25000000  0.50000000  1.0
  Sr  Sr17  1  0.46582275  0.25000000  0.00000000  1.0
  Sr  Sr18  1  0.53417725  0.75000000  0.50000000  1.0
  Sr  Sr19  1  0.53417725  0.75000000  0.00000000  1.0
  Nb  Nb20  1  0.22966429  0.09335270  0.25000000  1.0
  Nb  Nb21  1  0.22966429  0.40664730  0.75000000  1.0
  Nb  Nb22  1  0.77033571  0.59335270  0.25000000  1.0
  Nb  Nb23  1  0.77033571  0.90664730  0.75000000  1.0
  N  N24  1  0.84577521  0.84587986  0.96858347  1.0
  N  N25  1  0.84577521  0.84587986  0.53141653  1.0
  N  N26  1  0.84577521  0.65412014  0.46858347  1.0
  N  N27  1  0.84577521  0.65412014  0.03141653  1.0
  N  N28  1  0.15422479  0.34587986  0.96858347  1.0
  N  N29  1  0.15422479  0.34587986  0.53141653  1.0
  N  N30  1  0.15422479  0.15412014  0.46858347  1.0
  N  N31  1  0.15422479  0.15412014  0.03141653  1.0
  N  N32  1  0.96741781  0.51125234  0.25000000  1.0
  N  N33  1  0.96741781  0.98874766  0.75000000  1.0
  N  N34  1  0.03258219  0.01125234  0.25000000  1.0
  N  N35  1  0.03258219  0.48874766  0.75000000  1.0
  N  N36  1  0.64858454  0.32374226  0.25000000  1.0
  N  N37  1  0.64858454  0.17625774  0.75000000  1.0
  N  N38  1  0.35141546  0.82374226  0.25000000  1.0
  N  N39  1  0.35141546  0.67625774  0.75000000  1.0
  N  N40  1  0.51317512  0.05432324  0.25000000  1.0
  N  N41  1  0.51317512  0.44567676  0.75000000  1.0
  N  N42  1  0.48682488  0.55432324  0.25000000  1.0
  N  N43  1  0.48682488  0.94567676  0.75000000  1.0
