# generated using pymatgen
data_Ga2Os
_symmetry_space_group_name_H-M   'P 1'
_cell_length_a   6.05582423
_cell_length_b   4.99255591
_cell_length_c   4.80430699
_cell_angle_alpha   76.33382682
_cell_angle_beta   53.23353083
_cell_angle_gamma   50.43264235
_symmetry_Int_Tables_number   1
_chemical_formula_structural   Ga2Os
_chemical_formula_sum   'Ga4 Os2'
_cell_volume   87.19122039
_cell_formula_units_Z   2
loop_
 _symmetry_equiv_pos_site_id
 _symmetry_equiv_pos_as_xyz
  1  'x, y, z'
loop_
 _atom_site_type_symbol
 _atom_site_label
 _atom_site_symmetry_multiplicity
 _atom_site_fract_x
 _atom_site_fract_y
 _atom_site_fract_z
 _atom_site_occupancy
  Ga  Ga0  1  0.83262417  -0.83262417  0.83262417  1.0
  Ga  Ga1  1  0.16737583  -0.16737583  0.16737583  1.0
  Ga  Ga2  1  1.41737583  0.08262417  0.41737583  1.0
  Ga  Ga3  1  0.08262417  1.41737583  0.08262417  1.0
  Os  Os4  1  -0.50000000  0.50000000  0.50000000  1.0
  Os  Os5  1  0.75000000  0.75000000  0.75000000  1.0
