# generated using pymatgen
data_LaAsO2
_symmetry_space_group_name_H-M   'P 1'
_cell_length_a   7.71905070
_cell_length_b   7.71905070
_cell_length_c   7.71905070
_cell_angle_alpha   128.64830072
_cell_angle_beta   128.64830072
_cell_angle_gamma   75.57713474
_symmetry_Int_Tables_number   1
_chemical_formula_structural   LaAsO2
_chemical_formula_sum   'La4 As4 O8'
_cell_volume   272.93984232
_cell_formula_units_Z   4
loop_
 _symmetry_equiv_pos_site_id
 _symmetry_equiv_pos_as_xyz
  1  'x, y, z'
loop_
 _atom_site_type_symbol
 _atom_site_label
 _atom_site_symmetry_multiplicity
 _atom_site_fract_x
 _atom_site_fract_y
 _atom_site_fract_z
 _atom_site_occupancy
  La  La0  1  0.37500000  0.62500000  0.75000000  1.0
  La  La1  1  0.87500000  0.62500000  1.25000000  1.0
  La  La2  1  0.37500000  1.12500000  0.75000000  1.0
  La  La3  1  0.37500000  0.62500000  0.25000000  1.0
  As  As4  1  0.87500000  0.12500000  0.75000000  1.0
  As  As5  1  0.37500000  0.12500000  0.25000000  1.0
  As  As6  1  0.87500000  0.62500000  0.75000000  1.0
  As  As7  1  0.87500000  1.12500000  1.25000000  1.0
  O  O8  1  1.17195103  0.93080051  1.75882263  1.0
  O  O9  1  0.57802212  0.83687160  1.25882263  1.0
  O  O10  1  1.06919949  0.82802212  1.24115052  1.0
  O  O11  1  1.16312840  1.42195103  1.74115052  1.0
  O  O12  1  0.17197788  0.41312840  0.24117737  1.0
  O  O13  1  0.57804897  0.31919949  0.74117737  1.0
  O  O14  1  0.58687160  0.82804897  0.75884948  1.0
  O  O15  1  0.68080051  0.42197788  0.25884948  1.0
