# generated using pymatgen
data_CaAsO5
_symmetry_space_group_name_H-M   'P 1'
_cell_length_a   6.72140662
_cell_length_b   8.37587341
_cell_length_c   14.73274811
_cell_angle_alpha   90.00000000
_cell_angle_beta   90.00000000
_cell_angle_gamma   90.00000000
_symmetry_Int_Tables_number   1
_chemical_formula_structural   CaAsO5
_chemical_formula_sum   'Ca8 As8 O40'
_cell_volume   829.41911123
_cell_formula_units_Z   8
loop_
 _symmetry_equiv_pos_site_id
 _symmetry_equiv_pos_as_xyz
  1  'x, y, z'
loop_
 _atom_site_type_symbol
 _atom_site_label
 _atom_site_symmetry_multiplicity
 _atom_site_fract_x
 _atom_site_fract_y
 _atom_site_fract_z
 _atom_site_occupancy
  As  As0  1  0.35537061  0.43735761  0.61624539  1.0
  As  As1  1  0.35537061  0.56264239  0.11624539  1.0
  As  As2  1  0.85537061  0.93735761  0.88375461  1.0
  As  As3  1  0.85537061  0.06264239  0.38375461  1.0
  As  As4  1  0.64462939  0.43735761  0.88375461  1.0
  As  As5  1  0.64462939  0.56264239  0.38375461  1.0
  As  As6  1  0.14462939  0.93735761  0.61624539  1.0
  As  As7  1  0.14462939  0.06264239  0.11624539  1.0
  O  O8  1  0.19364722  0.43958991  0.52398929  1.0
  O  O9  1  0.19364722  0.56041009  0.02398929  1.0
  O  O10  1  0.69364722  0.93958991  0.97601071  1.0
  O  O11  1  0.69364722  0.06041009  0.47601071  1.0
  O  O12  1  0.80635278  0.43958991  0.97601071  1.0
  O  O13  1  0.80635278  0.56041009  0.47601071  1.0
  O  O14  1  0.30635278  0.93958991  0.52398929  1.0
  O  O15  1  0.30635278  0.06041009  0.02398929  1.0
  O  O16  1  0.44791172  0.03038262  0.81370655  1.0
  O  O17  1  0.44791172  0.96961738  0.31370655  1.0
  O  O18  1  0.94791172  0.53038262  0.68629345  1.0
  O  O19  1  0.94791172  0.46961738  0.18629345  1.0
  O  O20  1  0.55208828  0.03038262  0.68629345  1.0
  O  O21  1  0.55208828  0.96961738  0.18629345  1.0
  O  O22  1  0.05208828  0.53038262  0.81370655  1.0
  O  O23  1  0.05208828  0.46961738  0.31370655  1.0
  O  O24  1  0.21288082  0.37382384  0.71124855  1.0
  O  O25  1  0.21288082  0.62617616  0.21124855  1.0
  O  O26  1  0.71288082  0.87382384  0.78875145  1.0
  O  O27  1  0.71288082  0.12617616  0.28875145  1.0
  O  O28  1  0.78711918  0.37382384  0.78875145  1.0
  O  O29  1  0.78711918  0.62617616  0.28875145  1.0
  O  O30  1  0.28711918  0.87382384  0.71124855  1.0
  O  O31  1  0.28711918  0.12617616  0.21124855  1.0
  O  O32  1  0.02881827  0.11720845  0.63361296  1.0
  O  O33  1  0.02881827  0.88279155  0.13361296  1.0
  O  O34  1  0.52881827  0.61720845  0.86638704  1.0
  O  O35  1  0.52881827  0.38279155  0.36638704  1.0
  O  O36  1  0.97118173  0.11720845  0.86638704  1.0
  O  O37  1  0.97118173  0.88279155  0.36638704  1.0
  O  O38  1  0.47118173  0.61720845  0.63361296  1.0
  O  O39  1  0.47118173  0.38279155  0.13361296  1.0
  O  O40  1  0.47329541  0.29140256  0.91272041  1.0
  O  O41  1  0.47329541  0.70859744  0.41272041  1.0
  O  O42  1  0.97329541  0.79140256  0.58727959  1.0
  O  O43  1  0.97329541  0.20859744  0.08727959  1.0
  O  O44  1  0.52670459  0.29140256  0.58727959  1.0
  O  O45  1  0.52670459  0.70859744  0.08727959  1.0
  O  O46  1  0.02670459  0.79140256  0.91272041  1.0
  O  O47  1  0.02670459  0.20859744  0.41272041  1.0
  Ca  Ca48  1  0.12867960  0.31864533  0.94295587  1.0
  Ca  Ca49  1  0.12867960  0.68135467  0.44295587  1.0
  Ca  Ca50  1  0.62867960  0.81864533  0.55704413  1.0
  Ca  Ca51  1  0.62867960  0.18135467  0.05704413  1.0
  Ca  Ca52  1  0.87132040  0.31864533  0.55704413  1.0
  Ca  Ca53  1  0.87132040  0.68135467  0.05704413  1.0
  Ca  Ca54  1  0.37132040  0.81864533  0.94295587  1.0
  Ca  Ca55  1  0.37132040  0.18135467  0.44295587  1.0
