# generated using pymatgen
data_Na6Ge2S7
_symmetry_space_group_name_H-M   'P 1'
_cell_length_a   7.01282848
_cell_length_b   7.01282848
_cell_length_c   15.24689261
_cell_angle_alpha   80.35328568
_cell_angle_beta   99.64671432
_cell_angle_gamma   82.26112129
_symmetry_Int_Tables_number   1
_chemical_formula_structural   Na6Ge2S7
_chemical_formula_sum   'Na12 Ge4 S14'
_cell_volume   718.49378844
_cell_formula_units_Z   2
loop_
 _symmetry_equiv_pos_site_id
 _symmetry_equiv_pos_as_xyz
  1  'x, y, z'
loop_
 _atom_site_type_symbol
 _atom_site_label
 _atom_site_symmetry_multiplicity
 _atom_site_fract_x
 _atom_site_fract_y
 _atom_site_fract_z
 _atom_site_occupancy
  Na  Na0  1  0.45832376  -0.01216745  0.36103713  1.0
  Na  Na1  1  1.01216745  0.54167624  0.86103713  1.0
  Na  Na2  1  0.98783255  -0.54167624  0.13896287  1.0
  Na  Na3  1  1.54167624  0.01216745  0.63896287  1.0
  Na  Na4  1  1.46646840  0.24018185  0.07286608  1.0
  Na  Na5  1  0.75981815  -0.46646840  0.57286608  1.0
  Na  Na6  1  1.24018185  0.46646840  0.42713392  1.0
  Na  Na7  1  0.53353160  -0.24018185  0.92713392  1.0
  Na  Na8  1  0.92235489  -0.07764511  0.25000000  1.0
  Na  Na9  1  1.07764511  0.07764511  0.75000000  1.0
  Na  Na10  1  0.00000000  -0.00000000  0.50000000  1.0
  Na  Na11  1  0.00000000  -0.00000000  0.00000000  1.0
  Ge  Ge12  1  0.42470803  -0.26114087  0.14012458  1.0
  Ge  Ge13  1  1.26114087  0.57529197  0.64012458  1.0
  Ge  Ge14  1  0.73885913  -0.57529197  0.35987542  1.0
  Ge  Ge15  1  1.57529197  0.26114087  0.85987542  1.0
  S  S16  1  0.70430826  -0.18858914  0.10561451  1.0
  S  S17  1  1.18858914  0.29569174  0.60561451  1.0
  S  S18  1  0.81141086  -0.29569174  0.39438549  1.0
  S  S19  1  1.29569174  0.18858914  0.89438549  1.0
  S  S20  1  1.63483093  0.23951349  0.47109843  1.0
  S  S21  1  0.76048651  -0.63483093  0.97109843  1.0
  S  S22  1  1.23951349  0.63483093  0.02890157  1.0
  S  S23  1  0.36516907  -0.23951349  0.52890157  1.0
  S  S24  1  0.25843686  -0.00711084  0.18022484  1.0
  S  S25  1  1.00711084  0.74156314  0.68022484  1.0
  S  S26  1  0.99288916  -0.74156314  0.31977516  1.0
  S  S27  1  1.74156314  0.00711084  0.81977516  1.0
  S  S28  1  1.46227090  0.46227090  0.25000000  1.0
  S  S29  1  0.53772910  -0.46227090  0.75000000  1.0
