# generated using pymatgen
data_SiC(ClF)3
_symmetry_space_group_name_H-M   'P 1'
_cell_length_a   7.96101794
_cell_length_b   7.96101794
_cell_length_c   7.10336223
_cell_angle_alpha   89.73348243
_cell_angle_beta   90.26651757
_cell_angle_gamma   99.86378791
_symmetry_Int_Tables_number   1
_chemical_formula_structural   SiC(ClF)3
_chemical_formula_sum   'Si2 C2 Cl6 F6'
_cell_volume   443.53244062
_cell_formula_units_Z   2
loop_
 _symmetry_equiv_pos_site_id
 _symmetry_equiv_pos_as_xyz
  1  'x, y, z'
loop_
 _atom_site_type_symbol
 _atom_site_label
 _atom_site_symmetry_multiplicity
 _atom_site_fract_x
 _atom_site_fract_y
 _atom_site_fract_z
 _atom_site_occupancy
  Si  Si0  1  0.69799496  -0.69799496  0.68826637  1.0
  Si  Si1  1  0.30200504  -0.30200504  0.31173363  1.0
  C  C2  1  0.84962347  -0.84962347  0.77544952  1.0
  C  C3  1  0.15037653  -0.15037653  0.22455048  1.0
  Cl  Cl4  1  1.46125702  0.21152093  0.78948506  1.0
  Cl  Cl5  1  0.78847907  -0.46125702  0.78948506  1.0
  Cl  Cl6  1  1.21152093  0.46125702  0.21051494  1.0
  Cl  Cl7  1  0.53874298  -0.21152093  0.21051494  1.0
  Cl  Cl8  1  0.69930308  -0.69930308  0.40209500  1.0
  Cl  Cl9  1  0.30069692  -0.30069692  0.59790500  1.0
  F  F10  1  0.79781072  -0.01259235  0.71372245  1.0
  F  F11  1  1.01259235  0.20218928  0.71372245  1.0
  F  F12  1  0.98740765  -0.20218928  0.28627755  1.0
  F  F13  1  1.20218928  0.01259235  0.28627755  1.0
  F  F14  1  0.85584546  -0.85584546  0.96796664  1.0
  F  F15  1  0.14415454  -0.14415454  0.03203336  1.0
