# generated using pymatgen
data_CaZn2(PO5)2
_symmetry_space_group_name_H-M   'P 1'
_cell_length_a   9.60503917
_cell_length_b   9.60503917
_cell_length_c   6.77850681
_cell_angle_alpha   72.29024471
_cell_angle_beta   107.70975529
_cell_angle_gamma   133.51465550
_symmetry_Int_Tables_number   1
_chemical_formula_structural   CaZn2(PO5)2
_chemical_formula_sum   'Ca2 Zn4 P4 O20'
_cell_volume   427.93800623
_cell_formula_units_Z   2
loop_
 _symmetry_equiv_pos_site_id
 _symmetry_equiv_pos_as_xyz
  1  'x, y, z'
loop_
 _atom_site_type_symbol
 _atom_site_label
 _atom_site_symmetry_multiplicity
 _atom_site_fract_x
 _atom_site_fract_y
 _atom_site_fract_z
 _atom_site_occupancy
  Zn  Zn0  1  0.70444479  0.27677160  0.46806949  1.0
  Zn  Zn1  1  0.72322840  0.29555521  0.96806949  1.0
  Zn  Zn2  1  0.27677160  -0.29555521  0.03193051  1.0
  Zn  Zn3  1  0.29555521  -0.27677160  0.53193051  1.0
  O  O4  1  0.86320915  0.00995111  0.39206484  1.0
  O  O5  1  0.99004889  0.13679085  0.89206484  1.0
  O  O6  1  1.00995111  0.86320915  0.10793516  1.0
  O  O7  1  0.13679085  -0.00995111  0.60793516  1.0
  O  O8  1  0.71422633  0.16867383  0.26630298  1.0
  O  O9  1  0.83132617  0.28577367  0.76630298  1.0
  O  O10  1  1.16867383  0.71422633  0.23369702  1.0
  O  O11  1  0.28577367  -0.16867383  0.73369702  1.0
  O  O12  1  0.42951822  0.13713903  0.46684141  1.0
  O  O13  1  0.86286097  0.57048178  0.96684141  1.0
  O  O14  1  1.13713903  0.42951822  0.03315859  1.0
  O  O15  1  0.57048178  -0.13713903  0.53315859  1.0
  O  O16  1  1.41733564  0.46186500  0.45760200  1.0
  O  O17  1  0.53813500  -0.41733564  0.95760200  1.0
  O  O18  1  0.46186500  0.41733564  0.04239800  1.0
  O  O19  1  0.58266436  0.53813500  0.54239800  1.0
  O  O20  1  0.54790678  -0.14827990  0.14522064  1.0
  O  O21  1  1.14827990  0.45209322  0.64522064  1.0
  O  O22  1  0.85172010  0.54790678  0.35477936  1.0
  O  O23  1  0.45209322  0.14827990  0.85477936  1.0
  Ca  Ca24  1  0.10986177  0.10986177  0.25000000  1.0
  Ca  Ca25  1  0.89013823  0.89013823  0.75000000  1.0
  P  P26  1  0.67010419  -0.03124802  0.33011274  1.0
  P  P27  1  1.03124802  0.32989581  0.83011274  1.0
  P  P28  1  0.96875198  0.67010419  0.16988726  1.0
  P  P29  1  0.32989581  0.03124802  0.66988726  1.0
