# generated using pymatgen
data_BiClF8
_symmetry_space_group_name_H-M   'P 1'
_cell_length_a   10.97536938
_cell_length_b   5.99895804
_cell_length_c   5.81113677
_cell_angle_alpha   93.12258141
_cell_angle_beta   90.87214943
_cell_angle_gamma   89.68527570
_symmetry_Int_Tables_number   1
_chemical_formula_structural   BiClF8
_chemical_formula_sum   'Bi2 Cl2 F16'
_cell_volume   381.99328389
_cell_formula_units_Z   2
loop_
 _symmetry_equiv_pos_site_id
 _symmetry_equiv_pos_as_xyz
  1  'x, y, z'
loop_
 _atom_site_type_symbol
 _atom_site_label
 _atom_site_symmetry_multiplicity
 _atom_site_fract_x
 _atom_site_fract_y
 _atom_site_fract_z
 _atom_site_occupancy
  Bi  Bi0  1  -0.50000000  -0.00000000  -0.00000000  1.0
  Bi  Bi1  1  0.00000000  0.00000000  0.00000000  1.0
  Cl  Cl2  1  -0.24130140  -0.35742155  -0.36366726  1.0
  Cl  Cl3  1  -0.75869860  -0.64257845  -0.63633274  1.0
  F  F4  1  -0.42726346  -0.73745165  -0.14788127  1.0
  F  F5  1  -0.57273654  -0.26254835  -0.85211873  1.0
  F  F6  1  -0.13042107  -0.81514570  -0.14573368  1.0
  F  F7  1  -0.86957893  -0.18485430  -0.85426632  1.0
  F  F8  1  -0.34704750  -0.20085637  -0.09329925  1.0
  F  F9  1  -0.65295250  -0.79914363  -0.90670075  1.0
  F  F10  1  -0.07887210  -0.29417299  -0.15293169  1.0
  F  F11  1  -0.92112790  -0.70582701  -0.84706831  1.0
  F  F12  1  -0.89513916  -0.97438465  -0.27808430  1.0
  F  F13  1  -0.10486084  -0.02561535  -0.72191570  1.0
  F  F14  1  -0.36620310  -0.40619807  -0.51496645  1.0
  F  F15  1  -0.63379690  -0.59380193  -0.48503355  1.0
  F  F16  1  -0.15203270  -0.48300593  -0.55363542  1.0
  F  F17  1  -0.84796730  -0.51699407  -0.44636458  1.0
  F  F18  1  -0.41376308  -0.90971268  -0.70255639  1.0
  F  F19  1  -0.58623692  -0.09028732  -0.29744361  1.0
