# generated using pymatgen
data_Ba2YCl7
_symmetry_space_group_name_H-M   'P 1'
_cell_length_a   6.96048331
_cell_length_b   15.66424735
_cell_length_c   10.64840490
_cell_angle_alpha   90.00000000
_cell_angle_beta   90.57780913
_cell_angle_gamma   90.00000000
_symmetry_Int_Tables_number   1
_chemical_formula_structural   Ba2YCl7
_chemical_formula_sum   'Ba8 Y4 Cl28'
_cell_volume   1160.94434632
_cell_formula_units_Z   4
loop_
 _symmetry_equiv_pos_site_id
 _symmetry_equiv_pos_as_xyz
  1  'x, y, z'
loop_
 _atom_site_type_symbol
 _atom_site_label
 _atom_site_symmetry_multiplicity
 _atom_site_fract_x
 _atom_site_fract_y
 _atom_site_fract_z
 _atom_site_occupancy
  Ba  Ba0  1  0.76736520  0.44049981  0.17718690  1.0
  Ba  Ba1  1  0.76736520  0.05950019  0.67718690  1.0
  Ba  Ba2  1  0.23263480  0.94049981  0.32281310  1.0
  Ba  Ba3  1  0.23263480  0.55950019  0.82281310  1.0
  Ba  Ba4  1  0.23210409  0.28004682  0.45356163  1.0
  Ba  Ba5  1  0.23210409  0.21995318  0.95356163  1.0
  Ba  Ba6  1  0.76789591  0.78004682  0.04643837  1.0
  Ba  Ba7  1  0.76789591  0.71995318  0.54643837  1.0
  Y  Y8  1  0.71985941  0.12831389  0.22057760  1.0
  Y  Y9  1  0.71985941  0.37168611  0.72057760  1.0
  Y  Y10  1  0.28014059  0.62831389  0.27942240  1.0
  Y  Y11  1  0.28014059  0.87168611  0.77942240  1.0
  Cl  Cl12  1  0.98977104  0.25875708  0.20116053  1.0
  Cl  Cl13  1  0.98977104  0.24124292  0.70116053  1.0
  Cl  Cl14  1  0.01022896  0.75875708  0.29883947  1.0
  Cl  Cl15  1  0.01022896  0.74124292  0.79883947  1.0
  Cl  Cl16  1  0.98746157  0.10571872  0.41667483  1.0
  Cl  Cl17  1  0.98746157  0.39428128  0.91667483  1.0
  Cl  Cl18  1  0.01253843  0.60571872  0.08332517  1.0
  Cl  Cl19  1  0.01253843  0.89428128  0.58332517  1.0
  Cl  Cl20  1  0.80355747  0.96172943  0.21141672  1.0
  Cl  Cl21  1  0.80355747  0.53827057  0.71141672  1.0
  Cl  Cl22  1  0.19644253  0.46172943  0.28858328  1.0
  Cl  Cl23  1  0.19644253  0.03827057  0.78858328  1.0
  Cl  Cl24  1  0.80149172  0.36178149  0.47581256  1.0
  Cl  Cl25  1  0.80149172  0.13821851  0.97581256  1.0
  Cl  Cl26  1  0.19850828  0.86178149  0.02418744  1.0
  Cl  Cl27  1  0.19850828  0.63821851  0.52418744  1.0
  Cl  Cl28  1  0.50333202  0.27421620  0.20984881  1.0
  Cl  Cl29  1  0.50333202  0.22578380  0.70984881  1.0
  Cl  Cl30  1  0.49666798  0.77421620  0.29015119  1.0
  Cl  Cl31  1  0.49666798  0.72578380  0.79015119  1.0
  Cl  Cl32  1  0.50189899  0.10449906  0.43007936  1.0
  Cl  Cl33  1  0.50189899  0.39550094  0.93007936  1.0
  Cl  Cl34  1  0.49810101  0.60449906  0.06992064  1.0
  Cl  Cl35  1  0.49810101  0.89550094  0.56992064  1.0
  Cl  Cl36  1  0.37878931  0.07154364  0.12443678  1.0
  Cl  Cl37  1  0.37878931  0.42845636  0.62443678  1.0
  Cl  Cl38  1  0.62121069  0.57154364  0.37556322  1.0
  Cl  Cl39  1  0.62121069  0.92845636  0.87556322  1.0
