# generated using pymatgen
data_Cu5(PO6)2
_symmetry_space_group_name_H-M   'P 1'
_cell_length_a   4.64238277
_cell_length_b   10.40446495
_cell_length_c   8.92217005
_cell_angle_alpha   90.00000000
_cell_angle_beta   93.67322984
_cell_angle_gamma   90.00000000
_symmetry_Int_Tables_number   1
_chemical_formula_structural   Cu5(PO6)2
_chemical_formula_sum   'Cu10 P4 O24'
_cell_volume   430.06894865
_cell_formula_units_Z   2
loop_
 _symmetry_equiv_pos_site_id
 _symmetry_equiv_pos_as_xyz
  1  'x, y, z'
loop_
 _atom_site_type_symbol
 _atom_site_label
 _atom_site_symmetry_multiplicity
 _atom_site_fract_x
 _atom_site_fract_y
 _atom_site_fract_z
 _atom_site_occupancy
  P  P0  1  0.52172392  0.19346577  0.10992425  1.0
  P  P1  1  0.52172392  0.30653423  0.60992425  1.0
  P  P2  1  0.47827608  0.69346577  0.39007575  1.0
  P  P3  1  0.47827608  0.80653423  0.89007575  1.0
  Cu  Cu4  1  0.95462331  0.42954739  0.13552476  1.0
  Cu  Cu5  1  0.95462331  0.07045261  0.63552476  1.0
  Cu  Cu6  1  0.04537669  0.92954739  0.36447524  1.0
  Cu  Cu7  1  0.04537669  0.57045261  0.86447524  1.0
  Cu  Cu8  1  1.03576617  0.23743640  0.36712057  1.0
  Cu  Cu9  1  1.03576617  0.26256360  0.86712057  1.0
  Cu  Cu10  1  -0.03576617  0.73743640  0.13287943  1.0
  Cu  Cu11  1  -0.03576617  0.76256360  0.63287943  1.0
  Cu  Cu12  1  0.00000000  0.50000000  0.50000000  1.0
  Cu  Cu13  1  0.00000000  0.00000000  0.00000000  1.0
  O  O14  1  0.86895753  0.08015695  0.42547389  1.0
  O  O15  1  0.86895753  0.41984305  0.92547389  1.0
  O  O16  1  0.13104247  0.58015695  0.07452611  1.0
  O  O17  1  0.13104247  0.91984305  0.57452611  1.0
  O  O18  1  0.74474801  0.28383031  0.20721462  1.0
  O  O19  1  0.74474801  0.21616969  0.70721462  1.0
  O  O20  1  0.25525199  0.78383031  0.29278538  1.0
  O  O21  1  0.25525199  0.71616969  0.79278538  1.0
  O  O22  1  0.70196046  0.11995217  -0.00355077  1.0
  O  O23  1  0.70196046  0.38004783  0.49644923  1.0
  O  O24  1  0.29803954  0.61995217  0.50355077  1.0
  O  O25  1  0.29803954  0.88004783  1.00355077  1.0
  O  O26  1  0.66093705  0.79525178  0.48399195  1.0
  O  O27  1  0.66093705  0.70474822  0.98399195  1.0
  O  O28  1  0.33906295  0.29525178  0.01600805  1.0
  O  O29  1  0.33906295  0.20474822  0.51600805  1.0
  O  O30  1  0.33741278  0.11436808  0.20886118  1.0
  O  O31  1  0.33741278  0.38563192  0.70886118  1.0
  O  O32  1  0.66258722  0.61436808  0.29113882  1.0
  O  O33  1  0.66258722  0.88563192  0.79113882  1.0
  O  O34  1  0.86647037  0.91276658  0.16786909  1.0
  O  O35  1  0.86647037  0.58723342  0.66786909  1.0
  O  O36  1  0.13352963  0.41276658  0.33213091  1.0
  O  O37  1  0.13352963  0.08723342  0.83213091  1.0
