# generated using pymatgen
data_Al2Ru
_symmetry_space_group_name_H-M   'P 1'
_cell_length_a   6.48467351
_cell_length_b   6.48377419
_cell_length_c   6.48379759
_cell_angle_alpha   60.00905734
_cell_angle_beta   59.99529229
_cell_angle_gamma   59.99565037
_symmetry_Int_Tables_number   1
_chemical_formula_structural   Al2Ru
_chemical_formula_sum   'Al8 Ru4'
_cell_volume   192.76599757
_cell_formula_units_Z   4
loop_
 _symmetry_equiv_pos_site_id
 _symmetry_equiv_pos_as_xyz
  1  'x, y, z'
loop_
 _atom_site_type_symbol
 _atom_site_label
 _atom_site_symmetry_multiplicity
 _atom_site_fract_x
 _atom_site_fract_y
 _atom_site_fract_z
 _atom_site_occupancy
  Al  Al0  1  -0.18102152  0.39368829  0.39369159  1.0
  Al  Al1  1  0.39364164  0.39369159  1.39368829  1.0
  Al  Al2  1  -0.14368829  0.43102152  0.85635836  1.0
  Al  Al3  1  -0.14369159  0.85635836  0.43102152  1.0
  Al  Al4  1  0.39369159  0.39364164  -0.18102152  1.0
  Al  Al5  1  0.39368829  -0.18102152  1.39364164  1.0
  Al  Al6  1  -0.14364164  0.85630841  0.85631171  1.0
  Al  Al7  1  -0.56897848  0.85631171  0.85630841  1.0
  Ru  Ru8  1  0.12500000  0.12500000  1.62500000  1.0
  Ru  Ru9  1  0.12500000  0.62500000  1.12500000  1.0
  Ru  Ru10  1  0.12500000  0.12500000  1.12500000  1.0
  Ru  Ru11  1  0.62500000  0.12500000  1.12500000  1.0
