# generated using pymatgen
data_CoH8(BrO2)2
_symmetry_space_group_name_H-M   'P 1'
_cell_length_a   6.10259748
_cell_length_b   7.66564558
_cell_length_c   8.61047654
_cell_angle_alpha   90.00000000
_cell_angle_beta   110.31998642
_cell_angle_gamma   90.00000000
_symmetry_Int_Tables_number   1
_chemical_formula_structural   CoH8(BrO2)2
_chemical_formula_sum   'Co2 H16 Br4 O8'
_cell_volume   377.73392519
_cell_formula_units_Z   2
loop_
 _symmetry_equiv_pos_site_id
 _symmetry_equiv_pos_as_xyz
  1  'x, y, z'
loop_
 _atom_site_type_symbol
 _atom_site_label
 _atom_site_symmetry_multiplicity
 _atom_site_fract_x
 _atom_site_fract_y
 _atom_site_fract_z
 _atom_site_occupancy
  Co  Co0  1  0.00000000  0.00000000  0.00000000  1.0
  Co  Co1  1  0.00000000  0.50000000  0.50000000  1.0
  H  H2  1  0.90423570  0.42772887  0.78391870  1.0
  H  H3  1  0.90423570  0.07227113  0.28391870  1.0
  H  H4  1  0.09576430  0.92772887  0.71608130  1.0
  H  H5  1  0.09576430  0.57227113  0.21608130  1.0
  H  H6  1  0.89677882  0.42837230  0.16779916  1.0
  H  H7  1  0.89677882  0.07162770  0.66779916  1.0
  H  H8  1  0.10322118  0.92837230  0.33220084  1.0
  H  H9  1  0.10322118  0.57162770  0.83220084  1.0
  H  H10  1  0.63463122  0.79882086  0.00492134  1.0
  H  H11  1  0.63463122  0.70117914  0.50492134  1.0
  H  H12  1  0.36536878  0.29882086  0.49507866  1.0
  H  H13  1  0.36536878  0.20117914  0.99507866  1.0
  H  H14  1  0.61436359  0.82048932  0.82076571  1.0
  H  H15  1  0.61436359  0.67951068  0.32076571  1.0
  H  H16  1  0.38563641  0.32048932  0.67923429  1.0
  H  H17  1  0.38563641  0.17951068  0.17923429  1.0
  Br  Br18  1  0.70194961  0.26685104  0.92481440  1.0
  Br  Br19  1  0.70194961  0.23314896  0.42481440  1.0
  Br  Br20  1  0.29805039  0.76685104  0.57518560  1.0
  Br  Br21  1  0.29805039  0.73314896  0.07518560  1.0
  O  O22  1  0.99352071  0.99710946  0.75944232  1.0
  O  O23  1  0.99352071  0.50289054  0.25944232  1.0
  O  O24  1  0.00647929  0.49710946  0.74055768  1.0
  O  O25  1  0.00647929  0.00289054  0.24055768  1.0
  O  O26  1  0.72949469  0.81728451  0.93424495  1.0
  O  O27  1  0.72949469  0.68271549  0.43424495  1.0
  O  O28  1  0.27050531  0.31728451  0.56575505  1.0
  O  O29  1  0.27050531  0.18271549  0.06575505  1.0
