# generated using pymatgen
data_Sc6Al16Os7
_symmetry_space_group_name_H-M   'P 1'
_cell_length_a   8.77168188
_cell_length_b   8.77168188
_cell_length_c   8.77168188
_cell_angle_alpha   60.00000000
_cell_angle_beta   60.00000000
_cell_angle_gamma   60.00000000
_symmetry_Int_Tables_number   1
_chemical_formula_structural   Sc6Al16Os7
_chemical_formula_sum   'Sc6 Al16 Os7'
_cell_volume   477.23646551
_cell_formula_units_Z   1
loop_
 _symmetry_equiv_pos_site_id
 _symmetry_equiv_pos_as_xyz
  1  'x, y, z'
loop_
 _atom_site_type_symbol
 _atom_site_label
 _atom_site_symmetry_multiplicity
 _atom_site_fract_x
 _atom_site_fract_y
 _atom_site_fract_z
 _atom_site_occupancy
  Sc  Sc0  1  -0.71468717  0.71468717  0.71468717  1.0
  Sc  Sc1  1  -0.28531283  0.28531283  0.71468717  1.0
  Sc  Sc2  1  0.71468717  0.71468717  -0.71468717  1.0
  Sc  Sc3  1  0.28531283  1.28531283  -0.28531283  1.0
  Sc  Sc4  1  0.28531283  -0.28531283  1.28531283  1.0
  Sc  Sc5  1  -0.28531283  0.28531283  0.28531283  1.0
  Al  Al6  1  0.87889155  0.87889155  -0.12110845  1.0
  Al  Al7  1  1.12110845  0.12110845  0.63667464  1.0
  Al  Al8  1  1.12110845  0.63667464  0.12110845  1.0
  Al  Al9  1  0.36332536  0.87889155  -0.12110845  1.0
  Al  Al10  1  1.63667464  0.12110845  0.12110845  1.0
  Al  Al11  1  0.87889155  0.36332536  -0.12110845  1.0
  Al  Al12  1  0.87889155  0.87889155  -0.63667464  1.0
  Al  Al13  1  1.12110845  0.12110845  0.12110845  1.0
  Al  Al14  1  0.66223746  0.66223746  -0.33776254  1.0
  Al  Al15  1  1.33776254  0.33776254  -0.01328762  1.0
  Al  Al16  1  1.33776254  -0.01328762  0.33776254  1.0
  Al  Al17  1  1.01328762  0.66223746  -0.33776254  1.0
  Al  Al18  1  0.98671238  0.33776254  0.33776254  1.0
  Al  Al19  1  0.66223746  1.01328762  -0.33776254  1.0
  Al  Al20  1  0.66223746  0.66223746  0.01328762  1.0
  Al  Al21  1  1.33776254  0.33776254  0.33776254  1.0
  Os  Os22  1  1.50000000  0.00000000  -0.00000000  1.0
  Os  Os23  1  1.00000000  0.50000000  -0.50000000  1.0
  Os  Os24  1  0.00000000  1.50000000  -0.00000000  1.0
  Os  Os25  1  0.50000000  1.00000000  -0.50000000  1.0
  Os  Os26  1  -0.00000000  0.00000000  0.50000000  1.0
  Os  Os27  1  0.50000000  -0.50000000  1.00000000  1.0
  Os  Os28  1  0.00000000  0.00000000  0.00000000  1.0
