# generated using pymatgen
data_Cs2PtC4(IN2)2
_symmetry_space_group_name_H-M   'P 1'
_cell_length_a   7.80219213
_cell_length_b   10.22057837
_cell_length_c   9.59926468
_cell_angle_alpha   90.00000000
_cell_angle_beta   107.44551698
_cell_angle_gamma   90.00000000
_symmetry_Int_Tables_number   1
_chemical_formula_structural   Cs2PtC4(IN2)2
_chemical_formula_sum   'Cs4 Pt2 C8 I4 N8'
_cell_volume   730.26346952
_cell_formula_units_Z   2
loop_
 _symmetry_equiv_pos_site_id
 _symmetry_equiv_pos_as_xyz
  1  'x, y, z'
loop_
 _atom_site_type_symbol
 _atom_site_label
 _atom_site_symmetry_multiplicity
 _atom_site_fract_x
 _atom_site_fract_y
 _atom_site_fract_z
 _atom_site_occupancy
  Cs  Cs0  1  0.96317686  0.29102968  0.11473839  1.0
  Cs  Cs1  1  0.96317686  0.20897032  0.61473839  1.0
  Cs  Cs2  1  0.03682314  0.79102968  0.38526161  1.0
  Cs  Cs3  1  0.03682314  0.70897032  0.88526161  1.0
  Pt  Pt4  1  0.50000000  0.50000000  0.50000000  1.0
  Pt  Pt5  1  0.50000000  0.00000000  0.00000000  1.0
  C  C6  1  0.68702622  0.46881277  0.39746786  1.0
  C  C7  1  0.68702622  0.03118723  0.89746786  1.0
  C  C8  1  0.31297378  0.96881277  0.10253214  1.0
  C  C9  1  0.31297378  0.53118723  0.60253214  1.0
  C  C10  1  0.68555999  0.03746489  0.19199563  1.0
  C  C11  1  0.68555999  0.46253511  0.69199563  1.0
  C  C12  1  0.31444001  0.53746489  0.30800437  1.0
  C  C13  1  0.31444001  0.96253511  0.80800437  1.0
  I  I14  1  0.40837606  0.24135661  0.46867994  1.0
  I  I15  1  0.40837606  0.25864339  0.96867994  1.0
  I  I16  1  0.59162394  0.74135661  0.03132006  1.0
  I  I17  1  0.59162394  0.75864339  0.53132006  1.0
  N  N18  1  0.79816608  0.44812588  0.34137247  1.0
  N  N19  1  0.79816608  0.05187412  0.84137247  1.0
  N  N20  1  0.20183392  0.94812588  0.15862753  1.0
  N  N21  1  0.20183392  0.55187412  0.65862753  1.0
  N  N22  1  0.79806496  0.05950176  0.30113940  1.0
  N  N23  1  0.79806496  0.44049824  0.80113940  1.0
  N  N24  1  0.20193504  0.55950176  0.19886060  1.0
  N  N25  1  0.20193504  0.94049824  0.69886060  1.0
