# generated using pymatgen
data_Nb4(Si2Ni)3
_symmetry_space_group_name_H-M   'P 1'
_cell_length_a   8.85794991
_cell_length_b   8.85794991
_cell_length_c   8.85794991
_cell_angle_alpha   32.53248718
_cell_angle_beta   32.53248718
_cell_angle_gamma   32.53248718
_symmetry_Int_Tables_number   1
_chemical_formula_structural   Nb4(Si2Ni)3
_chemical_formula_sum   'Nb4 Si6 Ni3'
_cell_volume   178.74197410
_cell_formula_units_Z   1
loop_
 _symmetry_equiv_pos_site_id
 _symmetry_equiv_pos_as_xyz
  1  'x, y, z'
loop_
 _atom_site_type_symbol
 _atom_site_label
 _atom_site_symmetry_multiplicity
 _atom_site_fract_x
 _atom_site_fract_y
 _atom_site_fract_z
 _atom_site_occupancy
  Nb  Nb0  1  0.65267025  0.65267025  -0.34732975  1.0
  Nb  Nb1  1  0.34732975  0.34732975  -0.65267025  1.0
  Nb  Nb2  1  0.83538197  -0.16461803  -0.16461803  1.0
  Nb  Nb3  1  0.16461803  0.16461803  0.16461803  1.0
  Si  Si4  1  0.41587931  -0.09206938  -0.09206938  1.0
  Si  Si5  1  0.90793062  -0.09206938  -0.58412069  1.0
  Si  Si6  1  0.90793062  -0.58412069  -0.09206938  1.0
  Si  Si7  1  0.58412069  0.09206938  0.09206938  1.0
  Si  Si8  1  1.09206938  0.09206938  -0.41587931  1.0
  Si  Si9  1  1.09206938  -0.41587931  0.09206938  1.0
  Ni  Ni10  1  0.00000000  0.00000000  0.00000000  1.0
  Ni  Ni11  1  0.54975385  0.54975385  -0.45024615  1.0
  Ni  Ni12  1  0.45024615  0.45024615  -0.54975385  1.0
