# generated using pymatgen
data_RbBiF6
_symmetry_space_group_name_H-M   'P 1'
_cell_length_a   5.42598938
_cell_length_b   5.42598938
_cell_length_c   5.42598938
_cell_angle_alpha   96.95368888
_cell_angle_beta   96.95368888
_cell_angle_gamma   96.95368888
_symmetry_Int_Tables_number   1
_chemical_formula_structural   RbBiF6
_chemical_formula_sum   'Rb1 Bi1 F6'
_cell_volume   155.90663194
_cell_formula_units_Z   1
loop_
 _symmetry_equiv_pos_site_id
 _symmetry_equiv_pos_as_xyz
  1  'x, y, z'
loop_
 _atom_site_type_symbol
 _atom_site_label
 _atom_site_symmetry_multiplicity
 _atom_site_fract_x
 _atom_site_fract_y
 _atom_site_fract_z
 _atom_site_occupancy
  Rb  Rb0  1  0.50000000  0.50000000  0.50000000  1.0
  Bi  Bi1  1  0.00000000  0.00000000  0.00000000  1.0
  F  F2  1  0.73553717  0.73484616  0.08300283  1.0
  F  F3  1  1.26515384  -0.08300283  0.26446283  1.0
  F  F4  1  0.91699717  0.26446283  0.26515384  1.0
  F  F5  1  1.26446283  0.26515384  -0.08300283  1.0
  F  F6  1  0.73484616  1.08300283  -0.26446283  1.0
  F  F7  1  1.08300283  0.73553717  -0.26515384  1.0
