# generated using pymatgen
data_NaMn2(SiO3)3
_symmetry_space_group_name_H-M   'P 1'
_cell_length_a   6.54440721
_cell_length_b   7.30282018
_cell_length_c   7.43334700
_cell_angle_alpha   97.97319270
_cell_angle_beta   91.90369201
_cell_angle_gamma   87.43836827
_symmetry_Int_Tables_number   1
_chemical_formula_structural   NaMn2(SiO3)3
_chemical_formula_sum   'Na2 Mn4 Si6 O18'
_cell_volume   351.34225541
_cell_formula_units_Z   2
loop_
 _symmetry_equiv_pos_site_id
 _symmetry_equiv_pos_as_xyz
  1  'x, y, z'
loop_
 _atom_site_type_symbol
 _atom_site_label
 _atom_site_symmetry_multiplicity
 _atom_site_fract_x
 _atom_site_fract_y
 _atom_site_fract_z
 _atom_site_occupancy
  Mn  Mn0  1  0.65288414  0.60069383  0.37173309  1.0
  Mn  Mn1  1  0.34711586  0.39930617  0.62826691  1.0
  Mn  Mn2  1  0.36713265  0.94113869  0.66338431  1.0
  Mn  Mn3  1  0.63286735  0.05886131  0.33661569  1.0
  O  O4  1  0.84922061  0.19860079  0.77779940  1.0
  O  O5  1  0.15077939  0.80139921  0.22220060  1.0
  O  O6  1  0.80879309  0.89321308  0.90572872  1.0
  O  O7  1  0.19120691  0.10678692  0.09427128  1.0
  O  O8  1  0.76465882  0.53696409  0.91059375  1.0
  O  O9  1  0.23534118  0.46303591  0.08940625  1.0
  O  O10  1  0.66490193  0.91924674  0.56480804  1.0
  O  O11  1  0.33509807  0.08075326  0.43519196  1.0
  O  O12  1  0.65237435  0.42543842  0.56771178  1.0
  O  O13  1  0.34762565  0.57456158  0.43228822  1.0
  O  O14  1  0.61490490  0.77807340  0.18148089  1.0
  O  O15  1  0.38509510  0.22192660  0.81851911  1.0
  O  O16  1  0.44095169  0.76252865  0.83451663  1.0
  O  O17  1  0.55904831  0.23747135  0.16548337  1.0
  O  O18  1  0.07988410  0.89424161  0.65264360  1.0
  O  O19  1  0.92011590  0.10575839  0.34735640  1.0
  O  O20  1  0.93403844  0.53442834  0.32109535  1.0
  O  O21  1  0.06596156  0.46557166  0.67890465  1.0
  Na  Na22  1  0.12332237  0.71330253  0.90754837  1.0
  Na  Na23  1  0.87667763  0.28669747  0.09245163  1.0
  Si  Si24  1  0.85683649  0.97515694  0.71379035  1.0
  Si  Si25  1  0.14316351  0.02484306  0.28620965  1.0
  Si  Si26  1  0.84030830  0.40640908  0.71837148  1.0
  Si  Si27  1  0.15969170  0.59359092  0.28162852  1.0
  Si  Si28  1  0.64580065  0.74347413  0.96111042  1.0
  Si  Si29  1  0.35419935  0.25652587  0.03888958  1.0
