# generated using pymatgen
data_RbPO3
_symmetry_space_group_name_H-M   'P 1'
_cell_length_a   12.08761733
_cell_length_b   4.68824664
_cell_length_c   14.80490577
_cell_angle_alpha   90.00000000
_cell_angle_beta   115.49245572
_cell_angle_gamma   90.00000000
_symmetry_Int_Tables_number   1
_chemical_formula_structural   RbPO3
_chemical_formula_sum   'Rb8 P8 O24'
_cell_volume   757.30761034
_cell_formula_units_Z   8
loop_
 _symmetry_equiv_pos_site_id
 _symmetry_equiv_pos_as_xyz
  1  'x, y, z'
loop_
 _atom_site_type_symbol
 _atom_site_label
 _atom_site_symmetry_multiplicity
 _atom_site_fract_x
 _atom_site_fract_y
 _atom_site_fract_z
 _atom_site_occupancy
  Rb  Rb0  1  0.90136449  0.24376828  0.07345444  1.0
  Rb  Rb1  1  0.90136449  0.25623172  0.57345444  1.0
  Rb  Rb2  1  0.09863551  0.74376828  0.42654556  1.0
  Rb  Rb3  1  0.09863551  0.75623172  0.92654556  1.0
  Rb  Rb4  1  0.43091384  0.21832099  0.13099570  1.0
  Rb  Rb5  1  0.43091384  0.28167901  0.63099570  1.0
  Rb  Rb6  1  0.56908616  0.71832099  0.36900430  1.0
  Rb  Rb7  1  0.56908616  0.78167901  0.86900430  1.0
  P  P8  1  0.80622646  0.19793290  0.30940139  1.0
  P  P9  1  0.80622646  0.30206710  0.80940139  1.0
  P  P10  1  0.19377354  0.69793290  0.19059861  1.0
  P  P11  1  0.19377354  0.80206710  0.69059861  1.0
  P  P12  1  0.28262947  0.19967620  0.33000108  1.0
  P  P13  1  0.28262947  0.30032380  0.83000108  1.0
  P  P14  1  0.71737053  0.69967620  0.16999892  1.0
  P  P15  1  0.71737053  0.80032380  0.66999892  1.0
  O  O16  1  0.93445373  0.26313423  0.38595651  1.0
  O  O17  1  0.93445373  0.23686577  0.88595651  1.0
  O  O18  1  0.06554627  0.76313423  0.11404349  1.0
  O  O19  1  0.06554627  0.73686577  0.61404349  1.0
  O  O20  1  0.81541087  0.88084215  0.26677458  1.0
  O  O21  1  0.81541087  0.61915785  0.76677458  1.0
  O  O22  1  0.18458913  0.38084215  0.23322542  1.0
  O  O23  1  0.18458913  0.11915785  0.73322542  1.0
  O  O24  1  0.77510639  0.38030581  0.20640543  1.0
  O  O25  1  0.77510639  0.11969419  0.70640543  1.0
  O  O26  1  0.22489361  0.88030581  0.29359457  1.0
  O  O27  1  0.22489361  0.61969419  0.79359457  1.0
  O  O28  1  0.70205330  0.21668305  0.33929266  1.0
  O  O29  1  0.70205330  0.28331695  0.83929266  1.0
  O  O30  1  0.29794670  0.71668305  0.16070734  1.0
  O  O31  1  0.29794670  0.78331695  0.66070734  1.0
  O  O32  1  0.40944313  0.22070214  0.33532442  1.0
  O  O33  1  0.40944313  0.27929786  0.83532442  1.0
  O  O34  1  0.59055687  0.72070214  0.16467558  1.0
  O  O35  1  0.59055687  0.77929786  0.66467558  1.0
  O  O36  1  0.25992657  0.26328458  0.42026687  1.0
  O  O37  1  0.25992657  0.23671542  0.92026687  1.0
  O  O38  1  0.74007343  0.76328458  0.07973313  1.0
  O  O39  1  0.74007343  0.73671542  0.57973313  1.0
