# generated using pymatgen
data_Cu2AgPS4
_symmetry_space_group_name_H-M   'P 1'
_cell_length_a   7.67177371
_cell_length_b   6.33706196
_cell_length_c   6.22706323
_cell_angle_alpha   90.00000000
_cell_angle_beta   90.00000000
_cell_angle_gamma   90.00000000
_symmetry_Int_Tables_number   1
_chemical_formula_structural   Cu2AgPS4
_chemical_formula_sum   'Cu4 Ag2 P2 S8'
_cell_volume   302.73805288
_cell_formula_units_Z   2
loop_
 _symmetry_equiv_pos_site_id
 _symmetry_equiv_pos_as_xyz
  1  'x, y, z'
loop_
 _atom_site_type_symbol
 _atom_site_label
 _atom_site_symmetry_multiplicity
 _atom_site_fract_x
 _atom_site_fract_y
 _atom_site_fract_z
 _atom_site_occupancy
  Cu  Cu0  1  0.75181431  0.18027082  0.00888318  1.0
  Cu  Cu1  1  0.24818569  0.18027082  0.00888318  1.0
  Cu  Cu2  1  0.74818569  0.81972918  0.50888318  1.0
  Cu  Cu3  1  0.25181431  0.81972918  0.50888318  1.0
  Ag  Ag4  1  0.50000000  0.64589148  0.00879559  1.0
  Ag  Ag5  1  0.00000000  0.35410852  0.50879559  1.0
  P  P6  1  0.50000000  0.31350470  0.50039816  1.0
  P  P7  1  0.00000000  0.68649530  0.00039816  1.0
  S  S8  1  0.72166240  0.16190927  0.37616044  1.0
  S  S9  1  0.27833760  0.16190927  0.37616044  1.0
  S  S10  1  0.77833760  0.83809073  0.87616044  1.0
  S  S11  1  0.22166240  0.83809073  0.87616044  1.0
  S  S12  1  0.50000000  0.28048112  0.83598732  1.0
  S  S13  1  0.00000000  0.71951888  0.33598732  1.0
  S  S14  1  0.50000000  0.63480919  0.41330169  1.0
  S  S15  1  0.00000000  0.36519081  0.91330169  1.0
