# generated using pymatgen
data_K6NaAu2IO8
_symmetry_space_group_name_H-M   'P 1'
_cell_length_a   7.18555077
_cell_length_b   9.98575423
_cell_length_c   12.19390666
_cell_angle_alpha   90.00000000
_cell_angle_beta   123.04234789
_cell_angle_gamma   90.00000000
_symmetry_Int_Tables_number   1
_chemical_formula_structural   K6NaAu2IO8
_chemical_formula_sum   'K12 Na2 Au4 I2 O16'
_cell_volume   733.44335943
_cell_formula_units_Z   2
loop_
 _symmetry_equiv_pos_site_id
 _symmetry_equiv_pos_as_xyz
  1  'x, y, z'
loop_
 _atom_site_type_symbol
 _atom_site_label
 _atom_site_symmetry_multiplicity
 _atom_site_fract_x
 _atom_site_fract_y
 _atom_site_fract_z
 _atom_site_occupancy
  K  K0  1  0.98581552  0.66268377  0.08799861  1.0
  K  K1  1  0.98581552  0.33731623  0.58799861  1.0
  K  K2  1  0.01418448  0.66268377  0.41200139  1.0
  K  K3  1  0.01418448  0.33731623  0.91200139  1.0
  K  K4  1  0.52495566  0.81638482  0.41094042  1.0
  K  K5  1  0.52495566  0.18361518  0.91094042  1.0
  K  K6  1  0.47504434  0.81638482  0.08905958  1.0
  K  K7  1  0.47504434  0.18361518  0.58905958  1.0
  K  K8  1  0.50000000  0.15516248  0.25000000  1.0
  K  K9  1  0.50000000  0.84483752  0.75000000  1.0
  K  K10  1  -0.00000000  0.35723526  0.25000000  1.0
  K  K11  1  -0.00000000  0.64276474  0.75000000  1.0
  Na  Na12  1  0.50000000  0.49302899  0.25000000  1.0
  Na  Na13  1  0.50000000  0.50697101  0.75000000  1.0
  Au  Au14  1  -0.00000000  0.95753869  0.25000000  1.0
  Au  Au15  1  -0.00000000  0.04246131  0.75000000  1.0
  Au  Au16  1  0.00000000  0.00000000  0.50000000  1.0
  Au  Au17  1  0.00000000  0.00000000  0.00000000  1.0
  I  I18  1  0.50000000  0.50000000  0.50000000  1.0
  I  I19  1  0.50000000  0.50000000  -0.00000000  1.0
  O  O20  1  0.78758187  0.94857970  0.31075257  1.0
  O  O21  1  0.78758187  0.05142030  0.81075257  1.0
  O  O22  1  0.21241813  0.94857970  0.18924743  1.0
  O  O23  1  0.21241813  0.05142030  0.68924743  1.0
  O  O24  1  0.74281650  0.57381802  0.48691257  1.0
  O  O25  1  0.74281650  0.42618198  0.98691257  1.0
  O  O26  1  0.25718350  0.57381802  0.01308743  1.0
  O  O27  1  0.25718350  0.42618198  0.51308743  1.0
  O  O28  1  0.71496736  0.58212139  0.17016336  1.0
  O  O29  1  0.71496736  0.41787861  0.67016336  1.0
  O  O30  1  0.28503264  0.58212139  0.32983664  1.0
  O  O31  1  0.28503264  0.41787861  0.82983664  1.0
  O  O32  1  0.49872841  0.33618380  0.40711957  1.0
  O  O33  1  0.49872841  0.66381620  0.90711957  1.0
  O  O34  1  0.50127159  0.33618380  0.09288043  1.0
  O  O35  1  0.50127159  0.66381620  0.59288043  1.0
