# generated using pymatgen
data_AlInS3
_symmetry_space_group_name_H-M   'P 1'
_cell_length_a   6.85712490
_cell_length_b   6.85712490
_cell_length_c   18.13237588
_cell_angle_alpha   90.00000000
_cell_angle_beta   90.00000000
_cell_angle_gamma   120.00000000
_symmetry_Int_Tables_number   1
_chemical_formula_structural   AlInS3
_chemical_formula_sum   'Al6 In6 S18'
_cell_volume   738.36221610
_cell_formula_units_Z   6
loop_
 _symmetry_equiv_pos_site_id
 _symmetry_equiv_pos_as_xyz
  1  'x, y, z'
loop_
 _atom_site_type_symbol
 _atom_site_label
 _atom_site_symmetry_multiplicity
 _atom_site_fract_x
 _atom_site_fract_y
 _atom_site_fract_z
 _atom_site_occupancy
  Al  Al0  1  0.97751376  0.66386740  0.13779644  1.0
  Al  Al1  1  0.66386740  0.68635364  0.97112977  1.0
  Al  Al2  1  0.68635364  0.02248624  0.80446311  1.0
  Al  Al3  1  0.33613260  0.31364636  0.47112977  1.0
  Al  Al4  1  0.02248624  0.33613260  0.63779644  1.0
  Al  Al5  1  0.31364636  0.97751376  0.30446311  1.0
  In  In6  1  0.33622629  1.00264717  0.66622074  1.0
  In  In7  1  1.00264717  0.66642088  0.49955407  1.0
  In  In8  1  0.66642088  0.66377371  0.33288740  1.0
  In  In9  1  -0.00264717  0.33357912  -0.00044593  1.0
  In  In10  1  0.66377371  -0.00264717  0.16622074  1.0
  In  In11  1  0.33357912  0.33622629  0.83288740  1.0
  S  S12  1  0.33541803  0.97160824  0.81523597  1.0
  S  S13  1  0.97160824  0.63619021  0.64856930  1.0
  S  S14  1  0.63619021  0.66458197  0.48190263  1.0
  S  S15  1  0.02839176  0.36380979  0.14856930  1.0
  S  S16  1  0.66458197  0.02839176  0.31523597  1.0
  S  S17  1  0.36380979  0.33541803  0.98190263  1.0
  S  S18  1  0.70499403  0.71524267  0.84484362  1.0
  S  S19  1  0.71524267  1.01024864  0.67817695  1.0
  S  S20  1  1.01024864  0.29500597  0.51151028  1.0
  S  S21  1  0.28475733  -0.01024864  0.17817695  1.0
  S  S22  1  0.29500597  0.28475733  0.34484362  1.0
  S  S23  1  -0.01024864  0.70499403  0.01151028  1.0
  S  S24  1  0.65735229  0.62757608  0.18493658  1.0
  S  S25  1  0.62757608  0.97022379  0.01826991  1.0
  S  S26  1  0.97022379  0.34264771  0.85160324  1.0
  S  S27  1  0.37242392  0.02977621  0.51826991  1.0
  S  S28  1  0.34264771  0.37242392  0.68493658  1.0
  S  S29  1  0.02977621  0.65735229  0.35160324  1.0
