# generated using pymatgen
data_Pr2Pd2Pb
_symmetry_space_group_name_H-M   'P 1'
_cell_length_a   7.97529069
_cell_length_b   7.97529069
_cell_length_c   3.84677674
_cell_angle_alpha   90.00000000
_cell_angle_beta   90.00000000
_cell_angle_gamma   90.00000000
_symmetry_Int_Tables_number   1
_chemical_formula_structural   Pr2Pd2Pb
_chemical_formula_sum   'Pr4 Pd4 Pb2'
_cell_volume   244.67524078
_cell_formula_units_Z   2
loop_
 _symmetry_equiv_pos_site_id
 _symmetry_equiv_pos_as_xyz
  1  'x, y, z'
loop_
 _atom_site_type_symbol
 _atom_site_label
 _atom_site_symmetry_multiplicity
 _atom_site_fract_x
 _atom_site_fract_y
 _atom_site_fract_z
 _atom_site_occupancy
  Pr  Pr0  1  0.32295322  0.17704678  0.50000000  1.0
  Pr  Pr1  1  0.82295322  0.32295322  0.50000000  1.0
  Pr  Pr2  1  0.67704678  0.82295322  0.50000000  1.0
  Pr  Pr3  1  0.17704678  0.67704678  0.50000000  1.0
  Pd  Pd4  1  0.87561344  0.62438656  0.00000000  1.0
  Pd  Pd5  1  0.37561344  0.87561344  0.00000000  1.0
  Pd  Pd6  1  0.12438656  0.37561344  0.00000000  1.0
  Pd  Pd7  1  0.62438656  0.12438656  0.00000000  1.0
  Pb  Pb8  1  0.50000000  0.50000000  0.00000000  1.0
  Pb  Pb9  1  0.00000000  0.00000000  0.00000000  1.0
