# generated using pymatgen
data_P2WO8
_symmetry_space_group_name_H-M   'P 1'
_cell_length_a   17.64349837
_cell_length_b   5.22799824
_cell_length_c   6.69966954
_cell_angle_alpha   90.00000000
_cell_angle_beta   90.00000000
_cell_angle_gamma   90.00000000
_symmetry_Int_Tables_number   1
_chemical_formula_structural   P2WO8
_chemical_formula_sum   'P8 W4 O32'
_cell_volume   617.97871347
_cell_formula_units_Z   4
loop_
 _symmetry_equiv_pos_site_id
 _symmetry_equiv_pos_as_xyz
  1  'x, y, z'
loop_
 _atom_site_type_symbol
 _atom_site_label
 _atom_site_symmetry_multiplicity
 _atom_site_fract_x
 _atom_site_fract_y
 _atom_site_fract_z
 _atom_site_occupancy
  P  P0  1  0.17093440  0.75000000  0.79698898  1.0
  P  P1  1  0.67093440  0.75000000  0.70301102  1.0
  P  P2  1  0.82906560  0.25000000  0.20301102  1.0
  P  P3  1  0.32906560  0.25000000  0.29698898  1.0
  P  P4  1  0.08427525  0.75000000  0.41045862  1.0
  P  P5  1  0.58427525  0.75000000  0.08954138  1.0
  P  P6  1  0.91572475  0.25000000  0.58954138  1.0
  P  P7  1  0.41572475  0.25000000  0.91045862  1.0
  W  W8  1  0.36688598  0.75000000  0.62947138  1.0
  W  W9  1  0.86688598  0.75000000  0.87052862  1.0
  W  W10  1  0.63311402  0.25000000  0.37052862  1.0
  W  W11  1  0.13311402  0.25000000  0.12947138  1.0
  O  O12  1  0.36749583  0.48620137  0.83147337  1.0
  O  O13  1  0.36749583  0.01379863  0.83147337  1.0
  O  O14  1  0.86749583  0.48620137  0.66852663  1.0
  O  O15  1  0.86749583  0.01379863  0.66852663  1.0
  O  O16  1  0.63250417  0.98620137  0.16852663  1.0
  O  O17  1  0.63250417  0.51379863  0.16852663  1.0
  O  O18  1  0.13250417  0.98620137  0.33147337  1.0
  O  O19  1  0.13250417  0.51379863  0.33147337  1.0
  O  O20  1  0.16049972  0.98951633  0.92914292  1.0
  O  O21  1  0.16049972  0.51048367  0.92914292  1.0
  O  O22  1  0.66049972  0.98951633  0.57085708  1.0
  O  O23  1  0.66049972  0.51048367  0.57085708  1.0
  O  O24  1  0.83950028  0.48951633  0.07085708  1.0
  O  O25  1  0.83950028  0.01048367  0.07085708  1.0
  O  O26  1  0.33950028  0.48951633  0.42914292  1.0
  O  O27  1  0.33950028  0.01048367  0.42914292  1.0
  O  O28  1  0.50276188  0.75000000  0.13405737  1.0
  O  O29  1  1.00276188  0.75000000  0.36594263  1.0
  O  O30  1  0.49723812  0.25000000  0.86594263  1.0
  O  O31  1  -0.00276188  0.25000000  0.63405737  1.0
  O  O32  1  0.46154721  0.75000000  0.58288508  1.0
  O  O33  1  0.96154721  0.75000000  0.91711492  1.0
  O  O34  1  0.53845279  0.25000000  0.41711492  1.0
  O  O35  1  0.03845279  0.25000000  0.08288508  1.0
  O  O36  1  0.24469421  0.75000000  0.68450117  1.0
  O  O37  1  0.74469421  0.75000000  0.81549883  1.0
  O  O38  1  0.75530579  0.25000000  0.31549883  1.0
  O  O39  1  0.25530579  0.25000000  0.18450117  1.0
  O  O40  1  0.10089414  0.75000000  0.64721443  1.0
  O  O41  1  0.60089414  0.75000000  0.85278557  1.0
  O  O42  1  0.89910586  0.25000000  0.35278557  1.0
  O  O43  1  0.39910586  0.25000000  0.14721443  1.0
