# generated using pymatgen
data_Y(BH4)3
_symmetry_space_group_name_H-M   'P 1'
_cell_length_a   7.78903551
_cell_length_b   7.78903551
_cell_length_c   7.78903551
_cell_angle_alpha   60.00000000
_cell_angle_beta   60.00000000
_cell_angle_gamma   60.00000000
_symmetry_Int_Tables_number   1
_chemical_formula_structural   Y(BH4)3
_chemical_formula_sum   'Y2 B6 H24'
_cell_volume   334.14583554
_cell_formula_units_Z   2
loop_
 _symmetry_equiv_pos_site_id
 _symmetry_equiv_pos_as_xyz
  1  'x, y, z'
loop_
 _atom_site_type_symbol
 _atom_site_label
 _atom_site_symmetry_multiplicity
 _atom_site_fract_x
 _atom_site_fract_y
 _atom_site_fract_z
 _atom_site_occupancy
  Y  Y0  1  0.50000000  0.50000000  -0.50000000  1.0
  Y  Y1  1  0.00000000  1.00000000  -0.00000000  1.0
  B  B2  1  -0.25000000  1.25000000  0.25000000  1.0
  B  B3  1  0.25000000  0.75000000  -0.25000000  1.0
  B  B4  1  0.75000000  0.25000000  0.75000000  1.0
  B  B5  1  0.25000000  0.25000000  -0.25000000  1.0
  B  B6  1  -0.25000000  0.75000000  0.25000000  1.0
  B  B7  1  0.25000000  0.75000000  0.25000000  1.0
  H  H8  1  1.21833549  -0.59538228  0.59538228  1.0
  H  H9  1  0.59538228  -0.21833549  1.21833549  1.0
  H  H10  1  0.71833549  0.09538228  0.90461772  1.0
  H  H11  1  0.90461772  -0.71833549  0.71833549  1.0
  H  H12  1  0.40461772  0.21833549  -0.21833549  1.0
  H  H13  1  -0.21833549  0.59538228  0.40461772  1.0
  H  H14  1  0.09538228  0.71833549  0.28166451  1.0
  H  H15  1  0.28166451  -0.09538228  0.09538228  1.0
  H  H16  1  -0.09538228  0.71833549  0.09538228  1.0
  H  H17  1  -0.71833549  1.09538228  0.71833549  1.0
  H  H18  1  0.40461772  0.59538228  0.21833549  1.0
  H  H19  1  0.78166451  0.21833549  0.59538228  1.0
  H  H20  1  -0.40461772  1.21833549  0.40461772  1.0
  H  H21  1  -0.21833549  0.40461772  0.21833549  1.0
  H  H22  1  1.09538228  -0.09538228  0.71833549  1.0
  H  H23  1  0.28166451  0.71833549  -0.09538228  1.0
  H  H24  1  -0.28166451  0.90461772  0.28166451  1.0
  H  H25  1  0.09538228  0.28166451  -0.09538228  1.0
  H  H26  1  0.21833549  0.78166451  0.40461772  1.0
  H  H27  1  0.59538228  0.40461772  0.78166451  1.0
  H  H28  1  0.21833549  0.59538228  -0.21833549  1.0
  H  H29  1  -0.59538228  0.78166451  0.59538228  1.0
  H  H30  1  0.71833549  0.28166451  1.09538228  1.0
  H  H31  1  -0.09538228  1.09538228  0.28166451  1.0
