# generated using pymatgen
data_Al3FeSi2
_symmetry_space_group_name_H-M   'P 1'
_cell_length_a   6.05995418
_cell_length_b   6.06366550
_cell_length_c   9.48352383
_cell_angle_alpha   90.00000000
_cell_angle_beta   90.00000000
_cell_angle_gamma   90.00000000
_symmetry_Int_Tables_number   1
_chemical_formula_structural   Al3FeSi2
_chemical_formula_sum   'Al12 Fe4 Si8'
_cell_volume   348.47715793
_cell_formula_units_Z   4
loop_
 _symmetry_equiv_pos_site_id
 _symmetry_equiv_pos_as_xyz
  1  'x, y, z'
loop_
 _atom_site_type_symbol
 _atom_site_label
 _atom_site_symmetry_multiplicity
 _atom_site_fract_x
 _atom_site_fract_y
 _atom_site_fract_z
 _atom_site_occupancy
  Al  Al0  1  0.36165371  0.13072726  0.63500961  1.0
  Al  Al1  1  0.36165371  0.86927274  0.13500961  1.0
  Al  Al2  1  0.86165371  0.63072726  0.86499039  1.0
  Al  Al3  1  0.86165371  0.36927274  0.36499039  1.0
  Al  Al4  1  0.63834629  0.13072726  0.86499039  1.0
  Al  Al5  1  0.63834629  0.86927274  0.36499039  1.0
  Al  Al6  1  0.13834629  0.63072726  0.63500961  1.0
  Al  Al7  1  0.13834629  0.36927274  0.13500961  1.0
  Al  Al8  1  0.50000000  0.50000000  0.50000000  1.0
  Al  Al9  1  0.50000000  0.50000000  0.00000000  1.0
  Al  Al10  1  0.00000000  0.00000000  0.00000000  1.0
  Al  Al11  1  0.00000000  0.00000000  0.50000000  1.0
  Fe  Fe12  1  0.50000000  0.48665267  0.75000000  1.0
  Fe  Fe13  1  0.50000000  0.51334733  0.25000000  1.0
  Fe  Fe14  1  0.00000000  0.98665267  0.75000000  1.0
  Fe  Fe15  1  0.00000000  0.01334733  0.25000000  1.0
  Si  Si16  1  0.16396082  0.32620685  0.84455338  1.0
  Si  Si17  1  0.16396082  0.67379315  0.34455338  1.0
  Si  Si18  1  0.66396082  0.82620685  0.65544662  1.0
  Si  Si19  1  0.66396082  0.17379315  0.15544662  1.0
  Si  Si20  1  0.83603918  0.32620685  0.65544662  1.0
  Si  Si21  1  0.83603918  0.67379315  0.15544662  1.0
  Si  Si22  1  0.33603918  0.82620685  0.84455338  1.0
  Si  Si23  1  0.33603918  0.17379315  0.34455338  1.0
