# generated using pymatgen
data_NbSeBr
_symmetry_space_group_name_H-M   'P 1'
_cell_length_a   7.43595133
_cell_length_b   7.43595133
_cell_length_c   7.43595133
_cell_angle_alpha   60.00000000
_cell_angle_beta   60.00000000
_cell_angle_gamma   60.00000000
_symmetry_Int_Tables_number   1
_chemical_formula_structural   NbSeBr
_chemical_formula_sum   'Nb4 Se4 Br4'
_cell_volume   290.73319256
_cell_formula_units_Z   4
loop_
 _symmetry_equiv_pos_site_id
 _symmetry_equiv_pos_as_xyz
  1  'x, y, z'
loop_
 _atom_site_type_symbol
 _atom_site_label
 _atom_site_symmetry_multiplicity
 _atom_site_fract_x
 _atom_site_fract_y
 _atom_site_fract_z
 _atom_site_occupancy
  Nb  Nb0  1  -0.35169501  0.64830499  0.64830499  1.0
  Nb  Nb1  1  1.05508504  0.64830499  -0.35169501  1.0
  Nb  Nb2  1  -0.35169501  0.64830499  1.05508504  1.0
  Nb  Nb3  1  0.64830499  1.05508504  -0.35169501  1.0
  Se  Se4  1  0.88492744  0.88492744  -0.11507256  1.0
  Se  Se5  1  0.34521767  0.88492744  -0.11507256  1.0
  Se  Se6  1  0.88492744  0.88492744  -0.65478233  1.0
  Se  Se7  1  0.88492744  0.34521767  -0.11507256  1.0
  Br  Br8  1  0.38063622  1.38063622  0.38063622  1.0
  Br  Br9  1  -0.14190865  0.38063622  0.38063622  1.0
  Br  Br10  1  0.38063622  1.38063622  -0.14190865  1.0
  Br  Br11  1  0.38063622  -0.14190865  0.38063622  1.0
