# generated using pymatgen
data_La5Zn2Sn
_symmetry_space_group_name_H-M   'P 1'
_cell_length_a   9.01625219
_cell_length_b   9.01625219
_cell_length_c   9.01625219
_cell_angle_alpha   122.93930733
_cell_angle_beta   122.93930733
_cell_angle_gamma   84.98016112
_symmetry_Int_Tables_number   1
_chemical_formula_structural   La5Zn2Sn
_chemical_formula_sum   'La10 Zn4 Sn2'
_cell_volume   493.18569853
_cell_formula_units_Z   2
loop_
 _symmetry_equiv_pos_site_id
 _symmetry_equiv_pos_as_xyz
  1  'x, y, z'
loop_
 _atom_site_type_symbol
 _atom_site_label
 _atom_site_symmetry_multiplicity
 _atom_site_fract_x
 _atom_site_fract_y
 _atom_site_fract_z
 _atom_site_occupancy
  La  La0  1  1.19641751  0.69641751  1.18613160  1.0
  La  La1  1  0.48971408  0.98971408  1.18613160  1.0
  La  La2  1  1.01028592  1.19641751  1.50000000  1.0
  La  La3  1  0.30358249  0.48971408  0.50000000  1.0
  La  La4  1  0.69641751  0.51028592  0.50000000  1.0
  La  La5  1  0.98971408  0.80358249  1.50000000  1.0
  La  La6  1  0.51028592  1.01028592  0.81386840  1.0
  La  La7  1  0.80358249  0.30358249  0.81386840  1.0
  La  La8  1  0.00000000  0.00000000  0.00000000  1.0
  La  La9  1  0.50000000  0.50000000  1.00000000  1.0
  Zn  Zn10  1  0.86238887  0.36238887  1.22477774  1.0
  Zn  Zn11  1  0.63761113  0.86238887  1.50000000  1.0
  Zn  Zn12  1  0.36238887  0.13761113  0.50000000  1.0
  Zn  Zn13  1  0.13761113  0.63761113  0.77522226  1.0
  Sn  Sn14  1  0.75000000  0.75000000  1.00000000  1.0
  Sn  Sn15  1  0.25000000  0.25000000  0.00000000  1.0
