# generated using pymatgen
data_VSn2
_symmetry_space_group_name_H-M   'P 1'
_cell_length_a   10.52374619
_cell_length_b   9.79132476
_cell_length_c   5.49121458
_cell_angle_alpha   81.83391629
_cell_angle_beta   67.06817758
_cell_angle_gamma   31.09790613
_symmetry_Int_Tables_number   1
_chemical_formula_structural   VSn2
_chemical_formula_sum   'V4 Sn8'
_cell_volume   246.35356320
_cell_formula_units_Z   4
loop_
 _symmetry_equiv_pos_site_id
 _symmetry_equiv_pos_as_xyz
  1  'x, y, z'
loop_
 _atom_site_type_symbol
 _atom_site_label
 _atom_site_symmetry_multiplicity
 _atom_site_fract_x
 _atom_site_fract_y
 _atom_site_fract_z
 _atom_site_occupancy
  V  V0  1  1.37244226  0.37244226  -0.37244226  1.0
  V  V1  1  0.62755774  -0.37244226  0.37244226  1.0
  V  V2  1  0.87755774  0.87755774  -0.37755774  1.0
  V  V3  1  -0.37755774  0.62244226  0.87755774  1.0
  Sn  Sn4  1  0.33384042  -0.33384042  0.33384042  1.0
  Sn  Sn5  1  0.66615958  -0.66615958  0.66615958  1.0
  Sn  Sn6  1  0.91615958  -0.41615958  0.91615958  1.0
  Sn  Sn7  1  0.58384042  -0.08384042  0.58384042  1.0
  Sn  Sn8  1  0.08392893  0.08392893  -0.08392893  1.0
  Sn  Sn9  1  0.91607107  0.91607107  -0.91607107  1.0
  Sn  Sn10  1  0.16607107  0.16607107  0.33392893  1.0
  Sn  Sn11  1  0.33392893  1.33392893  0.16607107  1.0
