# generated using pymatgen
data_La10Os2I15
_symmetry_space_group_name_H-M   'P 1'
_cell_length_a   12.20102914
_cell_length_b   11.22186554
_cell_length_c   10.17917497
_cell_angle_alpha   69.67393377
_cell_angle_beta   64.08632865
_cell_angle_gamma   71.38550845
_symmetry_Int_Tables_number   1
_chemical_formula_structural   La10Os2I15
_chemical_formula_sum   'La10 Os2 I15'
_cell_volume   1152.13896115
_cell_formula_units_Z   1
loop_
 _symmetry_equiv_pos_site_id
 _symmetry_equiv_pos_as_xyz
  1  'x, y, z'
loop_
 _atom_site_type_symbol
 _atom_site_label
 _atom_site_symmetry_multiplicity
 _atom_site_fract_x
 _atom_site_fract_y
 _atom_site_fract_z
 _atom_site_occupancy
  La  La0  1  0.90536137  -0.29307668  0.07028235  1.0
  La  La1  1  0.09463863  -0.70692332  -0.07028235  1.0
  La  La2  1  0.67111863  -0.95273581  0.23832677  1.0
  La  La3  1  0.32888137  -0.04726419  -0.23832677  1.0
  La  La4  1  0.94679175  -0.91640245  -0.17338406  1.0
  La  La5  1  0.05320825  -0.08359755  0.17338406  1.0
  La  La6  1  0.72526796  -0.59331045  -0.02808416  1.0
  La  La7  1  0.27473204  -0.40668955  0.02808416  1.0
  La  La8  1  0.82415549  -0.75240034  -0.66110489  1.0
  La  La9  1  0.17584451  -0.24759966  0.66110489  1.0
  Os  Os10  1  0.88017560  -0.82575064  0.08612618  1.0
  Os  Os11  1  0.11982440  -0.17424936  -0.08612618  1.0
  I  I12  1  0.66598181  -0.46220853  0.24291648  1.0
  I  I13  1  0.33401819  -0.53779147  -0.24291648  1.0
  I  I14  1  0.18555817  -0.76329867  0.60432619  1.0
  I  I15  1  0.81444183  -0.23670133  -0.60432619  1.0
  I  I16  1  0.94699028  -0.41250327  -0.21005731  1.0
  I  I17  1  0.05300972  -0.58749673  0.21005731  1.0
  I  I18  1  0.46876963  -0.69859416  0.14175054  1.0
  I  I19  1  0.53123037  -0.30140584  -0.14175054  1.0
  I  I20  1  0.77368487  -0.65612025  -0.34061317  1.0
  I  I21  1  0.22631513  -0.34387975  0.34061317  1.0
  I  I22  1  0.29965372  -0.94251556  0.04005905  1.0
  I  I23  1  0.70034628  -0.05748444  -0.04005905  1.0
  I  I24  1  0.58286488  -0.88752472  -0.44049448  1.0
  I  I25  1  0.41713512  -0.11247528  0.44049448  1.0
  I  I26  1  -0.00000000  0.00000000  0.50000000  1.0
