# generated using pymatgen
data_Cs2CoCl4
_symmetry_space_group_name_H-M   'P 1'
_cell_length_a   9.92893280
_cell_length_b   7.48925752
_cell_length_c   13.27241271
_cell_angle_alpha   90.00000000
_cell_angle_beta   90.00000000
_cell_angle_gamma   90.00000000
_symmetry_Int_Tables_number   1
_chemical_formula_structural   Cs2CoCl4
_chemical_formula_sum   'Cs8 Co4 Cl16'
_cell_volume   986.94105114
_cell_formula_units_Z   4
loop_
 _symmetry_equiv_pos_site_id
 _symmetry_equiv_pos_as_xyz
  1  'x, y, z'
loop_
 _atom_site_type_symbol
 _atom_site_label
 _atom_site_symmetry_multiplicity
 _atom_site_fract_x
 _atom_site_fract_y
 _atom_site_fract_z
 _atom_site_occupancy
  Cs  Cs0  1  0.85950874  0.75000000  0.40756065  1.0
  Cs  Cs1  1  0.35950874  0.75000000  0.09243935  1.0
  Cs  Cs2  1  0.14049126  0.25000000  0.59243935  1.0
  Cs  Cs3  1  0.64049126  0.25000000  0.90756065  1.0
  Cs  Cs4  1  0.52063013  0.75000000  0.67516085  1.0
  Cs  Cs5  1  0.02063013  0.75000000  0.82483915  1.0
  Cs  Cs6  1  0.47936987  0.25000000  0.32483915  1.0
  Cs  Cs7  1  0.97936987  0.25000000  0.17516085  1.0
  Co  Co8  1  0.76458742  0.75000000  0.07585970  1.0
  Co  Co9  1  0.26458742  0.75000000  0.42414030  1.0
  Co  Co10  1  0.23541258  0.25000000  0.92414030  1.0
  Co  Co11  1  0.73541258  0.25000000  0.57585970  1.0
  Cl  Cl12  1  0.67584731  -0.00382258  0.14785457  1.0
  Cl  Cl13  1  0.67584731  0.50382258  0.14785457  1.0
  Cl  Cl14  1  0.17584731  -0.00382258  0.35214543  1.0
  Cl  Cl15  1  0.17584731  0.50382258  0.35214543  1.0
  Cl  Cl16  1  0.32415269  0.49617742  0.85214543  1.0
  Cl  Cl17  1  0.32415269  1.00382258  0.85214543  1.0
  Cl  Cl18  1  0.82415269  0.49617742  0.64785457  1.0
  Cl  Cl19  1  0.82415269  1.00382258  0.64785457  1.0
  Cl  Cl20  1  0.99042535  0.75000000  0.09528938  1.0
  Cl  Cl21  1  0.49042535  0.75000000  0.40471062  1.0
  Cl  Cl22  1  0.00957465  0.25000000  0.90471062  1.0
  Cl  Cl23  1  0.50957465  0.25000000  0.59528938  1.0
  Cl  Cl24  1  0.19134615  0.75000000  0.58589984  1.0
  Cl  Cl25  1  0.69134615  0.75000000  0.91410016  1.0
  Cl  Cl26  1  0.80865385  0.25000000  0.41410016  1.0
  Cl  Cl27  1  0.30865385  0.25000000  0.08589984  1.0
