# generated using pymatgen
data_Cs2P2H2O7
_symmetry_space_group_name_H-M   'P 1'
_cell_length_a   6.13393631
_cell_length_b   6.13393631
_cell_length_c   11.65875259
_cell_angle_alpha   89.62974531
_cell_angle_beta   90.37025469
_cell_angle_gamma   84.01367667
_symmetry_Int_Tables_number   1
_chemical_formula_structural   Cs2P2H2O7
_chemical_formula_sum   'Cs4 P4 H4 O14'
_cell_volume   436.25015514
_cell_formula_units_Z   2
loop_
 _symmetry_equiv_pos_site_id
 _symmetry_equiv_pos_as_xyz
  1  'x, y, z'
loop_
 _atom_site_type_symbol
 _atom_site_label
 _atom_site_symmetry_multiplicity
 _atom_site_fract_x
 _atom_site_fract_y
 _atom_site_fract_z
 _atom_site_occupancy
  Cs  Cs0  1  0.76611556  -0.22859394  0.47922840  1.0
  Cs  Cs1  1  1.22859394  0.23388444  0.97922840  1.0
  Cs  Cs2  1  0.77140606  -0.23388444  0.02077160  1.0
  Cs  Cs3  1  1.23388444  0.22859394  0.52077160  1.0
  P  P4  1  1.66443915  0.29838013  0.23825150  1.0
  P  P5  1  0.70161987  -0.66443915  0.73825150  1.0
  P  P6  1  1.29838013  0.66443915  0.26174850  1.0
  P  P7  1  0.33556085  -0.29838013  0.76174850  1.0
  H  H8  1  1.39453087  -0.00077180  0.24157277  1.0
  H  H9  1  1.00077180  -0.39453087  0.74157277  1.0
  H  H10  1  0.99922820  0.39453087  0.25842723  1.0
  H  H11  1  0.60546913  0.00077180  0.75842723  1.0
  O  O12  1  1.69491578  0.25215758  0.11184411  1.0
  O  O13  1  0.74784242  -0.69491578  0.61184411  1.0
  O  O14  1  1.25215758  0.69491578  0.38815589  1.0
  O  O15  1  0.30508422  -0.25215758  0.88815589  1.0
  O  O16  1  0.31087127  -0.10935835  0.19507894  1.0
  O  O17  1  1.10935835  0.68912873  0.69507894  1.0
  O  O18  1  0.89064165  -0.68912873  0.30492106  1.0
  O  O19  1  1.68912873  0.10935835  0.80492106  1.0
  O  O20  1  1.53023101  0.15002094  0.30820391  1.0
  O  O21  1  0.84997906  -0.53023101  0.80820391  1.0
  O  O22  1  1.15002094  0.53023101  0.19179609  1.0
  O  O23  1  0.46976899  -0.15002094  0.69179609  1.0
  O  O24  1  0.55507990  -0.44492010  0.25000000  1.0
  O  O25  1  1.44492010  0.44492010  0.75000000  1.0
