# generated using pymatgen
data_Zn(H3C)2
_symmetry_space_group_name_H-M   'P 1'
_cell_length_a   7.86232565
_cell_length_b   7.89776503
_cell_length_c   9.21485893
_cell_angle_alpha   90.00000000
_cell_angle_beta   122.33607282
_cell_angle_gamma   90.00000000
_symmetry_Int_Tables_number   1
_chemical_formula_structural   Zn(H3C)2
_chemical_formula_sum   'Zn4 H24 C8'
_cell_volume   483.46185390
_cell_formula_units_Z   4
loop_
 _symmetry_equiv_pos_site_id
 _symmetry_equiv_pos_as_xyz
  1  'x, y, z'
loop_
 _atom_site_type_symbol
 _atom_site_label
 _atom_site_symmetry_multiplicity
 _atom_site_fract_x
 _atom_site_fract_y
 _atom_site_fract_z
 _atom_site_occupancy
  Zn  Zn0  1  0.24236551  0.10423804  0.24038697  1.0
  Zn  Zn1  1  0.24236551  0.39576196  0.74038697  1.0
  Zn  Zn2  1  0.75763449  0.89576196  0.75961303  1.0
  Zn  Zn3  1  0.75763449  0.60423804  0.25961303  1.0
  H  H4  1  0.11278149  0.90175463  0.37387045  1.0
  H  H5  1  0.11278149  0.59824537  0.87387045  1.0
  H  H6  1  0.88721851  0.09824537  0.62612955  1.0
  H  H7  1  0.88721851  0.40175463  0.12612955  1.0
  H  H8  1  0.07600276  0.81410339  0.18126375  1.0
  H  H9  1  0.07600276  0.68589661  0.68126375  1.0
  H  H10  1  0.92399724  0.18589661  0.81873625  1.0
  H  H11  1  0.92399724  0.31410339  0.31873625  1.0
  H  H12  1  0.91021786  0.97451734  0.17182830  1.0
  H  H13  1  0.91021786  0.52548266  0.67182830  1.0
  H  H14  1  0.08978214  0.02548266  0.82817170  1.0
  H  H15  1  0.08978214  0.47451734  0.32817170  1.0
  H  H16  1  0.33484296  0.39233914  0.17889356  1.0
  H  H17  1  0.33484296  0.10766086  0.67889356  1.0
  H  H18  1  0.66515704  0.60766086  0.82110644  1.0
  H  H19  1  0.66515704  0.89233914  0.32110644  1.0
  H  H20  1  0.49042588  0.23082297  0.17361801  1.0
  H  H21  1  0.49042588  0.26917703  0.67361801  1.0
  H  H22  1  0.50957412  0.76917703  0.82638199  1.0
  H  H23  1  0.50957412  0.73082297  0.32638199  1.0
  H  H24  1  0.53900454  0.30759578  0.37406120  1.0
  H  H25  1  0.53900454  0.19240422  0.87406120  1.0
  H  H26  1  0.46099546  0.69240422  0.62593880  1.0
  H  H27  1  0.46099546  0.80759578  0.12593880  1.0
  C  C28  1  0.06764792  0.93156220  0.24125483  1.0
  C  C29  1  0.06764792  0.56843780  0.74125483  1.0
  C  C30  1  0.93235208  0.06843780  0.75874517  1.0
  C  C31  1  0.93235208  0.43156220  0.25874517  1.0
  C  C32  1  0.41912808  0.27592954  0.24157458  1.0
  C  C33  1  0.41912808  0.22407046  0.74157458  1.0
  C  C34  1  0.58087192  0.72407046  0.75842542  1.0
  C  C35  1  0.58087192  0.77592954  0.25842542  1.0
