# generated using pymatgen
data_Ba3Na(SiO4)2
_symmetry_space_group_name_H-M   'P 1'
_cell_length_a   5.85134985
_cell_length_b   5.85134985
_cell_length_c   14.73383986
_cell_angle_alpha   90.00000000
_cell_angle_beta   90.00000000
_cell_angle_gamma   120.00000000
_symmetry_Int_Tables_number   1
_chemical_formula_structural   Ba3Na(SiO4)2
_chemical_formula_sum   'Ba6 Na2 Si4 O16'
_cell_volume   436.87652330
_cell_formula_units_Z   2
loop_
 _symmetry_equiv_pos_site_id
 _symmetry_equiv_pos_as_xyz
  1  'x, y, z'
loop_
 _atom_site_type_symbol
 _atom_site_label
 _atom_site_symmetry_multiplicity
 _atom_site_fract_x
 _atom_site_fract_y
 _atom_site_fract_z
 _atom_site_occupancy
  Ba  Ba0  1  0.33333333  0.66666667  0.91812005  1.0
  Ba  Ba1  1  0.33333333  0.66666667  0.58187995  1.0
  Ba  Ba2  1  0.66666667  0.33333333  0.41812005  1.0
  Ba  Ba3  1  0.66666667  0.33333333  0.08187995  1.0
  Ba  Ba4  1  0.00000000  0.00000000  0.25000000  1.0
  Ba  Ba5  1  0.00000000  0.00000000  0.75000000  1.0
  Si  Si6  1  0.33333333  0.66666667  0.36209456  1.0
  Si  Si7  1  0.33333333  0.66666667  0.13790544  1.0
  Si  Si8  1  0.66666667  0.33333333  0.86209456  1.0
  Si  Si9  1  0.66666667  0.33333333  0.63790544  1.0
  O  O10  1  0.18078692  0.81921308  0.39904532  1.0
  O  O11  1  0.18078692  0.81921308  0.10095468  1.0
  O  O12  1  0.18078692  0.36157385  0.39904532  1.0
  O  O13  1  0.18078692  0.36157385  0.10095468  1.0
  O  O14  1  0.81921308  0.18078692  0.89904532  1.0
  O  O15  1  0.81921308  0.18078692  0.60095468  1.0
  O  O16  1  0.81921308  0.63842615  0.89904532  1.0
  O  O17  1  0.81921308  0.63842615  0.60095468  1.0
  O  O18  1  0.63842615  0.81921308  0.39904532  1.0
  O  O19  1  0.63842615  0.81921308  0.10095468  1.0
  O  O20  1  0.36157385  0.18078692  0.89904532  1.0
  O  O21  1  0.36157385  0.18078692  0.60095468  1.0
  O  O22  1  0.33333333  0.66666667  0.25000000  1.0
  O  O23  1  0.66666667  0.33333333  0.75000000  1.0
  O  O24  1  0.33333333  0.66666667  0.75000000  1.0
  O  O25  1  0.66666667  0.33333333  0.25000000  1.0
  Na  Na26  1  0.00000000  0.00000000  0.50000000  1.0
  Na  Na27  1  0.00000000  0.00000000  0.00000000  1.0
