# generated using pymatgen
data_BH4NF4
_symmetry_space_group_name_H-M   'P 1'
_cell_length_a   8.66716476
_cell_length_b   6.25522669
_cell_length_c   7.21687686
_cell_angle_alpha   90.00000000
_cell_angle_beta   90.00000000
_cell_angle_gamma   90.00000000
_symmetry_Int_Tables_number   1
_chemical_formula_structural   BH4NF4
_chemical_formula_sum   'B4 H16 N4 F16'
_cell_volume   391.26355866
_cell_formula_units_Z   4
loop_
 _symmetry_equiv_pos_site_id
 _symmetry_equiv_pos_as_xyz
  1  'x, y, z'
loop_
 _atom_site_type_symbol
 _atom_site_label
 _atom_site_symmetry_multiplicity
 _atom_site_fract_x
 _atom_site_fract_y
 _atom_site_fract_z
 _atom_site_occupancy
  B  B0  1  0.43330294  0.75000000  0.68683290  1.0
  B  B1  1  0.93330294  0.75000000  0.81316710  1.0
  B  B2  1  0.56669706  0.25000000  0.31316710  1.0
  B  B3  1  0.06669706  0.25000000  0.18683290  1.0
  H  H4  1  0.39149688  0.88397628  0.15929343  1.0
  H  H5  1  0.39149688  0.61602372  0.15929343  1.0
  H  H6  1  0.89149688  0.88397628  0.34070657  1.0
  H  H7  1  0.89149688  0.61602372  0.34070657  1.0
  H  H8  1  0.60850312  0.38397628  0.84070657  1.0
  H  H9  1  0.60850312  0.11602372  0.84070657  1.0
  H  H10  1  0.10850312  0.38397628  0.65929343  1.0
  H  H11  1  0.10850312  0.11602372  0.65929343  1.0
  H  H12  1  0.29345935  0.75000000  0.32235797  1.0
  H  H13  1  0.79345935  0.75000000  0.17764203  1.0
  H  H14  1  0.70654065  0.25000000  0.67764203  1.0
  H  H15  1  0.20654065  0.25000000  0.82235797  1.0
  H  H16  1  0.22915524  0.75000000  0.09997395  1.0
  H  H17  1  0.72915524  0.75000000  0.40002605  1.0
  H  H18  1  0.77084476  0.25000000  0.90002605  1.0
  H  H19  1  0.27084476  0.25000000  0.59997395  1.0
  N  N20  1  0.32509453  0.75000000  0.18420126  1.0
  N  N21  1  0.82509453  0.75000000  0.31579874  1.0
  N  N22  1  0.67490547  0.25000000  0.81579874  1.0
  N  N23  1  0.17490547  0.25000000  0.68420126  1.0
  F  F24  1  0.43493034  0.93474543  0.80139887  1.0
  F  F25  1  0.43493034  0.56525457  0.80139887  1.0
  F  F26  1  0.93493034  0.93474543  0.69860113  1.0
  F  F27  1  0.93493034  0.56525457  0.69860113  1.0
  F  F28  1  0.56506966  0.43474543  0.19860113  1.0
  F  F29  1  0.56506966  0.06525457  0.19860113  1.0
  F  F30  1  0.06506966  0.43474543  0.30139887  1.0
  F  F31  1  0.06506966  0.06525457  0.30139887  1.0
  F  F32  1  0.29655432  0.75000000  0.57854026  1.0
  F  F33  1  0.79655432  0.75000000  0.92145974  1.0
  F  F34  1  0.70344568  0.25000000  0.42145974  1.0
  F  F35  1  0.20344568  0.25000000  0.07854026  1.0
  F  F36  1  0.06367503  0.75000000  0.93048020  1.0
  F  F37  1  0.56367503  0.75000000  0.56951980  1.0
  F  F38  1  0.93632497  0.25000000  0.06951980  1.0
  F  F39  1  0.43632497  0.25000000  0.43048020  1.0
