# generated using pymatgen
data_H5NF2
_symmetry_space_group_name_H-M   'P 1'
_cell_length_a   8.50963008
_cell_length_b   3.73326986
_cell_length_c   8.14511696
_cell_angle_alpha   90.00000000
_cell_angle_beta   90.00000000
_cell_angle_gamma   90.00000000
_symmetry_Int_Tables_number   1
_chemical_formula_structural   H5NF2
_chemical_formula_sum   'H20 N4 F8'
_cell_volume   258.76014773
_cell_formula_units_Z   4
loop_
 _symmetry_equiv_pos_site_id
 _symmetry_equiv_pos_as_xyz
  1  'x, y, z'
loop_
 _atom_site_type_symbol
 _atom_site_label
 _atom_site_symmetry_multiplicity
 _atom_site_fract_x
 _atom_site_fract_y
 _atom_site_fract_z
 _atom_site_occupancy
  H  H0  1  0.33919213  0.60488748  0.79748609  1.0
  H  H1  1  0.33919213  0.39511252  0.20251391  1.0
  H  H2  1  0.83919213  0.60488748  0.70251391  1.0
  H  H3  1  0.83919213  0.39511252  0.29748609  1.0
  H  H4  1  0.66080787  0.60488748  0.79748609  1.0
  H  H5  1  0.66080787  0.39511252  0.20251391  1.0
  H  H6  1  0.16080787  0.60488748  0.70251391  1.0
  H  H7  1  0.16080787  0.39511252  0.29748609  1.0
  H  H8  1  0.29479978  0.28313831  0.65702893  1.0
  H  H9  1  0.29479978  0.71686169  0.34297107  1.0
  H  H10  1  0.79479978  0.28313831  0.84297107  1.0
  H  H11  1  0.79479978  0.71686169  0.15702893  1.0
  H  H12  1  0.70520022  0.28313831  0.65702893  1.0
  H  H13  1  0.70520022  0.71686169  0.34297107  1.0
  H  H14  1  0.20520022  0.28313831  0.84297107  1.0
  H  H15  1  0.20520022  0.71686169  0.15702893  1.0
  H  H16  1  0.00000000  0.00000000  0.50000000  1.0
  H  H17  1  0.50000000  0.00000000  0.00000000  1.0
  H  H18  1  0.50000000  0.00000000  0.50000000  1.0
  H  H19  1  0.00000000  0.00000000  0.00000000  1.0
  N  N20  1  0.25000000  0.44474453  0.75000000  1.0
  N  N21  1  0.25000000  0.55525547  0.25000000  1.0
  N  N22  1  0.75000000  0.44474453  0.75000000  1.0
  N  N23  1  0.75000000  0.55525547  0.25000000  1.0
  F  F24  1  0.50000000  0.86019672  0.87382390  1.0
  F  F25  1  0.50000000  0.13980328  0.12617610  1.0
  F  F26  1  0.00000000  0.86019672  0.62617610  1.0
  F  F27  1  0.00000000  0.13980328  0.37382390  1.0
  F  F28  1  0.36495078  0.00000000  0.50000000  1.0
  F  F29  1  0.86495078  0.00000000  0.00000000  1.0
  F  F30  1  0.63504922  0.00000000  0.50000000  1.0
  F  F31  1  0.13504922  0.00000000  0.00000000  1.0
