# generated using pymatgen
data_BP4(SBr)3
_symmetry_space_group_name_H-M   'P 1'
_cell_length_a   7.29212005
_cell_length_b   11.77781099
_cell_length_c   9.03667561
_cell_angle_alpha   90.00000000
_cell_angle_beta   111.71838453
_cell_angle_gamma   90.00000000
_symmetry_Int_Tables_number   1
_chemical_formula_structural   BP4(SBr)3
_chemical_formula_sum   'B2 P8 S6 Br6'
_cell_volume   721.02327985
_cell_formula_units_Z   2
loop_
 _symmetry_equiv_pos_site_id
 _symmetry_equiv_pos_as_xyz
  1  'x, y, z'
loop_
 _atom_site_type_symbol
 _atom_site_label
 _atom_site_symmetry_multiplicity
 _atom_site_fract_x
 _atom_site_fract_y
 _atom_site_fract_z
 _atom_site_occupancy
  B  B0  1  0.69066698  0.25000000  0.27924864  1.0
  B  B1  1  0.30933302  0.75000000  0.72075136  1.0
  P  P2  1  0.94100639  0.34704521  0.87037486  1.0
  P  P3  1  0.94100639  0.15295479  0.87037486  1.0
  P  P4  1  0.05899361  0.84704521  0.12962514  1.0
  P  P5  1  0.05899361  0.65295479  0.12962514  1.0
  P  P6  1  0.75682544  0.25000000  0.51592549  1.0
  P  P7  1  0.24317456  0.75000000  0.48407451  1.0
  P  P8  1  0.65533100  0.25000000  0.82992245  1.0
  P  P9  1  0.34466900  0.75000000  0.17007755  1.0
  S  S10  1  0.92169496  0.39010422  0.63802835  1.0
  S  S11  1  0.92169496  0.10989578  0.63802835  1.0
  S  S12  1  0.07830504  0.89010422  0.36197165  1.0
  S  S13  1  0.07830504  0.60989578  0.36197165  1.0
  S  S14  1  0.50839007  0.25000000  0.58003045  1.0
  S  S15  1  0.49160993  0.75000000  0.41996955  1.0
  Br  Br16  1  0.46345439  0.89246244  0.80210369  1.0
  Br  Br17  1  0.46345439  0.60753756  0.80210369  1.0
  Br  Br18  1  0.53654561  0.39246244  0.19789631  1.0
  Br  Br19  1  0.53654561  0.10753756  0.19789631  1.0
  Br  Br20  1  0.95411945  0.25000000  0.25131217  1.0
  Br  Br21  1  0.04588055  0.75000000  0.74868783  1.0
