# generated using pymatgen
data_SrLiFeF6
_symmetry_space_group_name_H-M   'P 1'
_cell_length_a   5.27621087
_cell_length_b   9.13784019
_cell_length_c   10.52931974
_cell_angle_alpha   90.00000000
_cell_angle_beta   90.00810116
_cell_angle_gamma   90.00000000
_symmetry_Int_Tables_number   1
_chemical_formula_structural   SrLiFeF6
_chemical_formula_sum   'Sr4 Li4 Fe4 F24'
_cell_volume   507.65189635
_cell_formula_units_Z   4
loop_
 _symmetry_equiv_pos_site_id
 _symmetry_equiv_pos_as_xyz
  1  'x, y, z'
loop_
 _atom_site_type_symbol
 _atom_site_label
 _atom_site_symmetry_multiplicity
 _atom_site_fract_x
 _atom_site_fract_y
 _atom_site_fract_z
 _atom_site_occupancy
  Fe  Fe0  1  0.74916331  0.58329191  0.75009310  1.0
  Fe  Fe1  1  0.74916331  0.91670809  0.25009310  1.0
  Fe  Fe2  1  0.25083669  0.08329191  0.74990690  1.0
  Fe  Fe3  1  0.25083669  0.41670809  0.24990690  1.0
  Sr  Sr4  1  0.75003175  0.24926385  0.99996927  1.0
  Sr  Sr5  1  0.75003175  0.25073615  0.49996927  1.0
  Sr  Sr6  1  0.24996825  0.74926385  0.50003073  1.0
  Sr  Sr7  1  0.24996825  0.75073615  0.00003073  1.0
  F  F8  1  1.05555381  0.56951874  0.64436658  1.0
  F  F9  1  1.05555381  0.93048126  0.14436658  1.0
  F  F10  1  -0.05555381  0.06951874  0.85563342  1.0
  F  F11  1  -0.05555381  0.43048126  0.35563342  1.0
  F  F12  1  0.88333178  0.74298745  0.85560176  1.0
  F  F13  1  0.88333178  0.75701255  0.35560176  1.0
  F  F14  1  0.11666822  0.24298745  0.64439824  1.0
  F  F15  1  0.11666822  0.25701255  0.14439824  1.0
  F  F16  1  0.92196667  0.43618404  0.85533835  1.0
  F  F17  1  0.92196667  0.06381596  0.35533835  1.0
  F  F18  1  0.07803333  0.93618404  0.64466165  1.0
  F  F19  1  0.07803333  0.56381596  0.14466165  1.0
  F  F20  1  0.61669769  0.74351123  0.64450264  1.0
  F  F21  1  0.61669769  0.75648877  0.14450264  1.0
  F  F22  1  0.38330231  0.24351123  0.85549736  1.0
  F  F23  1  0.38330231  0.25648877  0.35549736  1.0
  F  F24  1  0.42463418  0.93707822  0.85572589  1.0
  F  F25  1  0.42463418  0.56292178  0.35572589  1.0
  F  F26  1  0.57536582  0.43707822  0.64427411  1.0
  F  F27  1  0.57536582  0.06292178  0.14427411  1.0
  F  F28  1  0.44232379  0.57044514  0.85543190  1.0
  F  F29  1  0.44232379  0.92955486  0.35543190  1.0
  F  F30  1  0.55767621  0.07044514  0.64456810  1.0
  F  F31  1  0.55767621  0.42955486  0.14456810  1.0
  Li  Li32  1  0.75095435  0.91666096  0.74986745  1.0
  Li  Li33  1  0.75095435  0.58333904  0.24986745  1.0
  Li  Li34  1  0.24904565  0.41666096  0.75013255  1.0
  Li  Li35  1  0.24904565  0.08333904  0.25013255  1.0
