# generated using pymatgen
data_Rb3ZnH5
_symmetry_space_group_name_H-M   'P 1'
_cell_length_a   8.12148116
_cell_length_b   8.12148116
_cell_length_c   8.12148116
_cell_angle_alpha   121.40760802
_cell_angle_beta   121.40760802
_cell_angle_gamma   87.57876582
_symmetry_Int_Tables_number   1
_chemical_formula_structural   Rb3ZnH5
_chemical_formula_sum   'Rb6 Zn2 H10'
_cell_volume   370.36491178
_cell_formula_units_Z   2
loop_
 _symmetry_equiv_pos_site_id
 _symmetry_equiv_pos_as_xyz
  1  'x, y, z'
loop_
 _atom_site_type_symbol
 _atom_site_label
 _atom_site_symmetry_multiplicity
 _atom_site_fract_x
 _atom_site_fract_y
 _atom_site_fract_z
 _atom_site_occupancy
  Rb  Rb0  1  0.82041748  0.32041748  1.14083497  1.0
  Rb  Rb1  1  0.67958252  0.82041748  1.50000000  1.0
  Rb  Rb2  1  0.32041748  0.17958252  0.50000000  1.0
  Rb  Rb3  1  0.17958252  0.67958252  0.85916504  1.0
  Rb  Rb4  1  0.75000000  0.75000000  1.00000000  1.0
  Rb  Rb5  1  0.25000000  0.25000000  -0.00000000  1.0
  Zn  Zn6  1  0.25000000  0.75000000  0.50000000  1.0
  Zn  Zn7  1  0.75000000  0.25000000  0.50000000  1.0
  H  H8  1  1.21507527  0.71507527  1.26112558  1.0
  H  H9  1  0.54605031  1.04605031  1.26112558  1.0
  H  H10  1  0.95394969  1.21507527  1.50000000  1.0
  H  H11  1  0.28492473  0.54605031  0.50000000  1.0
  H  H12  1  0.71507527  0.45394969  0.50000000  1.0
  H  H13  1  1.04605031  0.78492473  1.50000000  1.0
  H  H14  1  0.45394969  0.95394969  0.73887442  1.0
  H  H15  1  0.78492473  0.28492473  0.73887442  1.0
  H  H16  1  0.00000000  0.00000000  0.00000000  1.0
  H  H17  1  0.50000000  0.50000000  1.00000000  1.0
