# generated using pymatgen
data_Li4Ga3Si3IO12
_symmetry_space_group_name_H-M   'P 1'
_cell_length_a   8.71987393
_cell_length_b   8.71987393
_cell_length_c   8.71987393
_cell_angle_alpha   90.00000000
_cell_angle_beta   90.00000000
_cell_angle_gamma   90.00000000
_symmetry_Int_Tables_number   1
_chemical_formula_structural   Li4Ga3Si3IO12
_chemical_formula_sum   'Li8 Ga6 Si6 I2 O24'
_cell_volume   663.02608908
_cell_formula_units_Z   2
loop_
 _symmetry_equiv_pos_site_id
 _symmetry_equiv_pos_as_xyz
  1  'x, y, z'
loop_
 _atom_site_type_symbol
 _atom_site_label
 _atom_site_symmetry_multiplicity
 _atom_site_fract_x
 _atom_site_fract_y
 _atom_site_fract_z
 _atom_site_occupancy
  Li  Li0  1  0.31112491  0.31112491  0.68887509  1.0
  Li  Li1  1  0.31112491  0.68887509  0.31112491  1.0
  Li  Li2  1  0.81112491  0.81112491  0.18887509  1.0
  Li  Li3  1  0.81112491  0.18887509  0.81112491  1.0
  Li  Li4  1  0.68887509  0.31112491  0.31112491  1.0
  Li  Li5  1  0.68887509  0.68887509  0.68887509  1.0
  Li  Li6  1  0.18887509  0.81112491  0.81112491  1.0
  Li  Li7  1  0.18887509  0.18887509  0.18887509  1.0
  Ga  Ga8  1  0.25000000  0.50000000  -0.00000000  1.0
  Ga  Ga9  1  0.75000000  0.50000000  -0.00000000  1.0
  Ga  Ga10  1  0.00000000  0.25000000  0.50000000  1.0
  Ga  Ga11  1  0.00000000  0.75000000  0.50000000  1.0
  Ga  Ga12  1  0.50000000  -0.00000000  0.25000000  1.0
  Ga  Ga13  1  0.50000000  -0.00000000  0.75000000  1.0
  Si  Si14  1  0.25000000  0.00000000  0.50000000  1.0
  Si  Si15  1  0.75000000  0.00000000  0.50000000  1.0
  Si  Si16  1  0.50000000  0.25000000  -0.00000000  1.0
  Si  Si17  1  0.50000000  0.75000000  -0.00000000  1.0
  Si  Si18  1  0.00000000  0.50000000  0.25000000  1.0
  Si  Si19  1  0.00000000  0.50000000  0.75000000  1.0
  I  I20  1  0.50000000  0.50000000  0.50000000  1.0
  I  I21  1  0.00000000  0.00000000  0.00000000  1.0
  O  O22  1  0.35151666  0.09288804  0.62953266  1.0
  O  O23  1  0.35151666  0.90711196  0.37046734  1.0
  O  O24  1  0.85151666  0.87046734  0.40711196  1.0
  O  O25  1  0.85151666  0.12953266  0.59288804  1.0
  O  O26  1  0.37046734  0.35151666  0.90711196  1.0
  O  O27  1  0.37046734  0.64848334  0.09288804  1.0
  O  O28  1  0.87046734  0.59288804  0.14848334  1.0
  O  O29  1  0.87046734  0.40711196  0.85151666  1.0
  O  O30  1  0.09288804  0.37046734  0.64848334  1.0
  O  O31  1  0.09288804  0.62953266  0.35151666  1.0
  O  O32  1  0.59288804  0.85151666  0.12953266  1.0
  O  O33  1  0.59288804  0.14848334  0.87046734  1.0
  O  O34  1  0.64848334  0.09288804  0.37046734  1.0
  O  O35  1  0.64848334  0.90711196  0.62953266  1.0
  O  O36  1  0.14848334  0.87046734  0.59288804  1.0
  O  O37  1  0.14848334  0.12953266  0.40711196  1.0
  O  O38  1  0.62953266  0.35151666  0.09288804  1.0
  O  O39  1  0.62953266  0.64848334  0.90711196  1.0
  O  O40  1  0.12953266  0.59288804  0.85151666  1.0
  O  O41  1  0.12953266  0.40711196  0.14848334  1.0
  O  O42  1  0.90711196  0.37046734  0.35151666  1.0
  O  O43  1  0.90711196  0.62953266  0.64848334  1.0
  O  O44  1  0.40711196  0.85151666  0.87046734  1.0
  O  O45  1  0.40711196  0.14848334  0.12953266  1.0
