# generated using pymatgen
data_Ca5(CoN2)2
_symmetry_space_group_name_H-M   'P 1'
_cell_length_a   8.07373357
_cell_length_b   8.07373357
_cell_length_c   12.02902075
_cell_angle_alpha   90.00000000
_cell_angle_beta   90.00000000
_cell_angle_gamma   90.00000000
_symmetry_Int_Tables_number   1
_chemical_formula_structural   Ca5(CoN2)2
_chemical_formula_sum   'Ca20 Co8 N16'
_cell_volume   784.11380720
_cell_formula_units_Z   4
loop_
 _symmetry_equiv_pos_site_id
 _symmetry_equiv_pos_as_xyz
  1  'x, y, z'
loop_
 _atom_site_type_symbol
 _atom_site_label
 _atom_site_symmetry_multiplicity
 _atom_site_fract_x
 _atom_site_fract_y
 _atom_site_fract_z
 _atom_site_occupancy
  Ca  Ca0  1  0.00000000  0.50000000  0.34834484  1.0
  Ca  Ca1  1  0.00000000  0.50000000  0.84834484  1.0
  Ca  Ca2  1  0.50000000  0.00000000  0.65165516  1.0
  Ca  Ca3  1  0.50000000  0.00000000  0.15165516  1.0
  Ca  Ca4  1  0.38210431  0.32658231  0.40394078  1.0
  Ca  Ca5  1  0.61789569  0.32658231  0.90394078  1.0
  Ca  Ca6  1  0.38210431  0.67341769  0.90394078  1.0
  Ca  Ca7  1  0.61789569  0.67341769  0.40394078  1.0
  Ca  Ca8  1  0.82658231  0.88210431  0.90394078  1.0
  Ca  Ca9  1  0.17341769  0.88210431  0.40394078  1.0
  Ca  Ca10  1  0.82658231  0.11789569  0.40394078  1.0
  Ca  Ca11  1  0.17341769  0.11789569  0.90394078  1.0
  Ca  Ca12  1  0.11789569  0.17341769  0.59605922  1.0
  Ca  Ca13  1  0.88210431  0.17341769  0.09605922  1.0
  Ca  Ca14  1  0.11789569  0.82658231  0.09605922  1.0
  Ca  Ca15  1  0.88210431  0.82658231  0.59605922  1.0
  Ca  Ca16  1  0.67341769  0.61789569  0.09605922  1.0
  Ca  Ca17  1  0.32658231  0.61789569  0.59605922  1.0
  Ca  Ca18  1  0.67341769  0.38210431  0.59605922  1.0
  Ca  Ca19  1  0.32658231  0.38210431  0.09605922  1.0
  Co  Co20  1  0.34254257  0.65745743  0.25000000  1.0
  Co  Co21  1  0.65745743  0.65745743  0.75000000  1.0
  Co  Co22  1  0.34254257  0.34254257  0.75000000  1.0
  Co  Co23  1  0.65745743  0.34254257  0.25000000  1.0
  Co  Co24  1  0.15745743  0.84254257  0.75000000  1.0
  Co  Co25  1  0.84254257  0.84254257  0.25000000  1.0
  Co  Co26  1  0.15745743  0.15745743  0.25000000  1.0
  Co  Co27  1  0.84254257  0.15745743  0.75000000  1.0
  N  N28  1  0.89010657  0.79941025  0.39275088  1.0
  N  N29  1  0.10989343  0.79941025  0.89275088  1.0
  N  N30  1  0.89010657  0.20058975  0.89275088  1.0
  N  N31  1  0.10989343  0.20058975  0.39275088  1.0
  N  N32  1  0.29941025  0.39010657  0.89275088  1.0
  N  N33  1  0.70058975  0.39010657  0.39275088  1.0
  N  N34  1  0.29941025  0.60989343  0.39275088  1.0
  N  N35  1  0.70058975  0.60989343  0.89275088  1.0
  N  N36  1  0.60989343  0.70058975  0.60724912  1.0
  N  N37  1  0.39010657  0.70058975  0.10724912  1.0
  N  N38  1  0.60989343  0.29941025  0.10724912  1.0
  N  N39  1  0.39010657  0.29941025  0.60724912  1.0
  N  N40  1  0.20058975  0.10989343  0.10724912  1.0
  N  N41  1  0.79941025  0.10989343  0.60724912  1.0
  N  N42  1  0.20058975  0.89010657  0.60724912  1.0
  N  N43  1  0.79941025  0.89010657  0.10724912  1.0
