# generated using pymatgen
data_Zr(Zn10Ni)2
_symmetry_space_group_name_H-M   'P 1'
_cell_length_a   9.81390978
_cell_length_b   9.81390978
_cell_length_c   9.81390978
_cell_angle_alpha   60.00000000
_cell_angle_beta   60.00000000
_cell_angle_gamma   60.00000000
_symmetry_Int_Tables_number   1
_chemical_formula_structural   Zr(Zn10Ni)2
_chemical_formula_sum   'Zr2 Zn40 Ni4'
_cell_volume   668.36113227
_cell_formula_units_Z   2
loop_
 _symmetry_equiv_pos_site_id
 _symmetry_equiv_pos_as_xyz
  1  'x, y, z'
loop_
 _atom_site_type_symbol
 _atom_site_label
 _atom_site_symmetry_multiplicity
 _atom_site_fract_x
 _atom_site_fract_y
 _atom_site_fract_z
 _atom_site_occupancy
  Zr  Zr0  1  0.50000000  -0.50000000  0.50000000  1.0
  Zr  Zr1  1  0.75000000  0.75000000  0.75000000  1.0
  Zn  Zn2  1  0.56842918  1.30206769  0.30206769  1.0
  Zn  Zn3  1  0.30206769  1.56842918  -0.17256457  1.0
  Zn  Zn4  1  0.30206769  -0.17256457  0.56842918  1.0
  Zn  Zn5  1  -0.17256457  0.30206769  0.30206769  1.0
  Zn  Zn6  1  0.30206769  1.30206769  0.56842918  1.0
  Zn  Zn7  1  0.56842918  0.82743543  0.30206769  1.0
  Zn  Zn8  1  -0.17256457  1.56842918  0.30206769  1.0
  Zn  Zn9  1  0.30206769  1.30206769  -0.17256457  1.0
  Zn  Zn10  1  0.30206769  1.56842918  0.30206769  1.0
  Zn  Zn11  1  -0.17256457  0.30206769  0.56842918  1.0
  Zn  Zn12  1  0.56842918  1.30206769  -0.17256457  1.0
  Zn  Zn13  1  0.30206769  -0.17256457  0.30206769  1.0
  Zn  Zn14  1  0.68157082  0.94793231  0.94793231  1.0
  Zn  Zn15  1  0.94793231  0.68157082  -0.57743543  1.0
  Zn  Zn16  1  0.94793231  0.42256457  0.68157082  1.0
  Zn  Zn17  1  0.42256457  0.94793231  -0.05206769  1.0
  Zn  Zn18  1  0.94793231  0.94793231  0.68157082  1.0
  Zn  Zn19  1  0.68157082  -0.57743543  0.94793231  1.0
  Zn  Zn20  1  -0.57743543  0.68157082  0.94793231  1.0
  Zn  Zn21  1  0.94793231  0.94793231  -0.57743543  1.0
  Zn  Zn22  1  0.94793231  0.68157082  0.94793231  1.0
  Zn  Zn23  1  0.42256457  0.94793231  -0.31842918  1.0
  Zn  Zn24  1  0.68157082  0.94793231  -0.57743543  1.0
  Zn  Zn25  1  0.94793231  0.42256457  0.94793231  1.0
  Zn  Zn26  1  0.86278728  0.86278728  -0.86278728  1.0
  Zn  Zn27  1  0.13721272  1.13721272  -0.13721272  1.0
  Zn  Zn28  1  0.86278728  -0.86278728  0.86278728  1.0
  Zn  Zn29  1  0.13721272  -0.13721272  0.13721272  1.0
  Zn  Zn30  1  -0.86278728  0.86278728  0.86278728  1.0
  Zn  Zn31  1  -0.13721272  0.13721272  0.13721272  1.0
  Zn  Zn32  1  0.38721272  1.38721272  0.11278728  1.0
  Zn  Zn33  1  0.11278728  0.11278728  0.38721272  1.0
  Zn  Zn34  1  0.38721272  1.11278728  0.38721272  1.0
  Zn  Zn35  1  0.11278728  1.38721272  0.11278728  1.0
  Zn  Zn36  1  0.11278728  1.38721272  0.38721272  1.0
  Zn  Zn37  1  0.38721272  1.11278728  0.11278728  1.0
  Zn  Zn38  1  1.12500000  0.62500000  0.62500000  1.0
  Zn  Zn39  1  0.62500000  1.12500000  -0.37500000  1.0
  Zn  Zn40  1  -0.37500000  0.62500000  1.12500000  1.0
  Zn  Zn41  1  -0.37500000  0.62500000  0.62500000  1.0
  Ni  Ni42  1  0.62500000  1.12500000  0.12500000  1.0
  Ni  Ni43  1  0.12500000  1.62500000  0.12500000  1.0
  Ni  Ni44  1  0.12500000  0.12500000  1.62500000  1.0
  Ni  Ni45  1  0.12500000  0.12500000  0.12500000  1.0
