# generated using pymatgen
data_TiGe2
_symmetry_space_group_name_H-M   'P 1'
_cell_length_a   8.16492544
_cell_length_b   7.25205805
_cell_length_c   6.29083199
_cell_angle_alpha   73.77061627
_cell_angle_beta   58.51778154
_cell_angle_gamma   47.71160219
_symmetry_Int_Tables_number   1
_chemical_formula_structural   TiGe2
_chemical_formula_sum   'Ti4 Ge8'
_cell_volume   233.46698671
_cell_formula_units_Z   4
loop_
 _symmetry_equiv_pos_site_id
 _symmetry_equiv_pos_as_xyz
  1  'x, y, z'
loop_
 _atom_site_type_symbol
 _atom_site_label
 _atom_site_symmetry_multiplicity
 _atom_site_fract_x
 _atom_site_fract_y
 _atom_site_fract_z
 _atom_site_occupancy
  Ti  Ti0  1  0.12500000  0.12500000  1.62500000  1.0
  Ti  Ti1  1  0.12500000  0.62500000  1.12500000  1.0
  Ti  Ti2  1  0.12500000  0.12500000  1.12500000  1.0
  Ti  Ti3  1  0.62500000  0.12500000  1.12500000  1.0
  Ge  Ge4  1  -0.28266499  0.42072863  0.04759422  1.0
  Ge  Ge5  1  0.81434214  0.04759422  1.42072863  1.0
  Ge  Ge6  1  -0.17072863  0.53266499  0.43565786  1.0
  Ge  Ge7  1  0.20240578  0.43565786  0.53266499  1.0
  Ge  Ge8  1  0.04759422  0.81434214  -0.28266499  1.0
  Ge  Ge9  1  0.42072863  -0.28266499  1.81434214  1.0
  Ge  Ge10  1  -0.56434214  1.20240578  0.82927137  1.0
  Ge  Ge11  1  -0.46733501  0.82927137  1.20240578  1.0
