# generated using pymatgen
data_Cu(PtS2)2
_symmetry_space_group_name_H-M   'P 1'
_cell_length_a   6.81581773
_cell_length_b   6.98777205
_cell_length_c   12.54193881
_cell_angle_alpha   90.00000000
_cell_angle_beta   120.98015058
_cell_angle_gamma   90.00000000
_symmetry_Int_Tables_number   1
_chemical_formula_structural   Cu(PtS2)2
_chemical_formula_sum   'Cu4 Pt8 S16'
_cell_volume   512.12660436
_cell_formula_units_Z   4
loop_
 _symmetry_equiv_pos_site_id
 _symmetry_equiv_pos_as_xyz
  1  'x, y, z'
loop_
 _atom_site_type_symbol
 _atom_site_label
 _atom_site_symmetry_multiplicity
 _atom_site_fract_x
 _atom_site_fract_y
 _atom_site_fract_z
 _atom_site_occupancy
  Cu  Cu0  1  0.85805825  0.49999706  0.34809226  1.0
  Cu  Cu1  1  0.85805825  0.50000294  0.84809226  1.0
  Cu  Cu2  1  0.14194175  0.49999706  0.15190774  1.0
  Cu  Cu3  1  0.14194175  0.50000294  0.65190774  1.0
  Pt  Pt4  1  0.49998930  0.74843320  0.99999305  1.0
  Pt  Pt5  1  0.49998930  0.25156680  0.49999305  1.0
  Pt  Pt6  1  0.50001070  0.74843320  0.50000695  1.0
  Pt  Pt7  1  0.50001070  0.25156680  0.00000695  1.0
  Pt  Pt8  1  0.50000000  1.00001400  0.25000000  1.0
  Pt  Pt9  1  0.50000000  -0.00001400  0.75000000  1.0
  Pt  Pt10  1  -0.00000000  1.00001908  0.25000000  1.0
  Pt  Pt11  1  -0.00000000  -0.00001908  0.75000000  1.0
  S  S12  1  0.74447350  0.49999559  0.49583595  1.0
  S  S13  1  0.74447350  0.50000441  0.99583595  1.0
  S  S14  1  0.25552650  0.49999559  0.00416405  1.0
  S  S15  1  0.25552650  0.50000441  0.50416405  1.0
  S  S16  1  0.73043847  0.76885335  0.22305376  1.0
  S  S17  1  0.73043847  0.23114665  0.72305376  1.0
  S  S18  1  0.26956153  0.76885335  0.27694624  1.0
  S  S19  1  0.26956153  0.23114665  0.77694624  1.0
  S  S20  1  0.73044708  0.76882233  0.72305843  1.0
  S  S21  1  0.73044708  0.23117767  0.22305843  1.0
  S  S22  1  0.26955292  0.76882233  0.77694157  1.0
  S  S23  1  0.26955292  0.23117767  0.27694157  1.0
  S  S24  1  0.71485638  0.99998147  0.97671213  1.0
  S  S25  1  0.71485638  0.00001853  0.47671213  1.0
  S  S26  1  0.28514362  0.99998147  0.52328787  1.0
  S  S27  1  0.28514362  0.00001853  0.02328787  1.0
