# generated using pymatgen
data_Ba2As2Se5
_symmetry_space_group_name_H-M   'P 1'
_cell_length_a   9.52100201
_cell_length_b   12.60235576
_cell_length_c   10.25313709
_cell_angle_alpha   90.00000000
_cell_angle_beta   116.98724310
_cell_angle_gamma   90.00000000
_symmetry_Int_Tables_number   1
_chemical_formula_structural   Ba2As2Se5
_chemical_formula_sum   'Ba8 As8 Se20'
_cell_volume   1096.27950736
_cell_formula_units_Z   4
loop_
 _symmetry_equiv_pos_site_id
 _symmetry_equiv_pos_as_xyz
  1  'x, y, z'
loop_
 _atom_site_type_symbol
 _atom_site_label
 _atom_site_symmetry_multiplicity
 _atom_site_fract_x
 _atom_site_fract_y
 _atom_site_fract_z
 _atom_site_occupancy
  Ba  Ba0  1  0.92350631  0.75342417  0.85796593  1.0
  Ba  Ba1  1  0.07649369  0.25342417  0.14203407  1.0
  Ba  Ba2  1  0.82192443  0.41096475  0.65239783  1.0
  Ba  Ba3  1  0.17807557  0.91096475  0.34760217  1.0
  Ba  Ba4  1  0.41661791  0.76068610  0.84027168  1.0
  Ba  Ba5  1  0.58338209  0.26068610  0.15972832  1.0
  Ba  Ba6  1  0.33053751  0.41309432  0.64582232  1.0
  Ba  Ba7  1  0.66946249  0.91309432  0.35417768  1.0
  As  As8  1  0.96263263  0.17750005  0.48931634  1.0
  As  As9  1  0.03736737  0.67750005  0.51068366  1.0
  As  As10  1  0.78300428  0.49074799  0.99203746  1.0
  As  As11  1  0.21699572  0.99074799  0.00796254  1.0
  As  As12  1  0.60803743  0.06149742  0.73813705  1.0
  As  As13  1  0.39196257  0.56149742  0.26186295  1.0
  As  As14  1  0.23765053  0.10208220  0.75350160  1.0
  As  As15  1  0.76234947  0.60208220  0.24649840  1.0
  Se  Se16  1  0.95507894  -0.00056025  0.98830508  1.0
  Se  Se17  1  0.04492106  0.49943975  0.01169492  1.0
  Se  Se18  1  0.95131309  0.35927551  0.39559413  1.0
  Se  Se19  1  0.04868691  0.85927551  0.60440587  1.0
  Se  Se20  1  0.88591590  0.08349972  0.26246454  1.0
  Se  Se21  1  0.11408410  0.58349972  0.73753546  1.0
  Se  Se22  1  0.72813944  0.16482728  0.52047054  1.0
  Se  Se23  1  0.27186056  0.66482728  0.47952946  1.0
  Se  Se24  1  0.70226953  0.31123655  0.89987946  1.0
  Se  Se25  1  0.29773047  0.81123655  0.10012054  1.0
  Se  Se26  1  0.62839198  0.58423259  0.76317126  1.0
  Se  Se27  1  0.37160802  0.08423259  0.23682874  1.0
  Se  Se28  1  0.50975726  0.03275110  0.92728403  1.0
  Se  Se29  1  0.49024274  0.53275110  0.07271597  1.0
  Se  Se30  1  0.43256040  0.38590220  0.36689139  1.0
  Se  Se31  1  0.56743960  0.88590220  0.63310861  1.0
  Se  Se32  1  0.34106267  0.14484288  0.57246887  1.0
  Se  Se33  1  0.65893733  0.64484288  0.42753113  1.0
  Se  Se34  1  0.21555667  0.26969541  0.86045000  1.0
  Se  Se35  1  0.78444333  0.76969541  0.13955000  1.0
