# generated using pymatgen
data_Li(Co3P2)2
_symmetry_space_group_name_H-M   'P 1'
_cell_length_a   6.53361241
_cell_length_b   6.53361241
_cell_length_c   3.32755806
_cell_angle_alpha   90.00000000
_cell_angle_beta   90.00000000
_cell_angle_gamma   120.00000000
_symmetry_Int_Tables_number   1
_chemical_formula_structural   Li(Co3P2)2
_chemical_formula_sum   'Li1 Co6 P4'
_cell_volume   123.01639879
_cell_formula_units_Z   1
loop_
 _symmetry_equiv_pos_site_id
 _symmetry_equiv_pos_as_xyz
  1  'x, y, z'
loop_
 _atom_site_type_symbol
 _atom_site_label
 _atom_site_symmetry_multiplicity
 _atom_site_fract_x
 _atom_site_fract_y
 _atom_site_fract_z
 _atom_site_occupancy
  Li  Li0  1  0.00000000  0.00000000  0.00000000  1.0
  Co  Co1  1  0.59984823  0.79992411  0.50000000  1.0
  Co  Co2  1  0.20007589  0.79992411  0.50000000  1.0
  Co  Co3  1  0.20007589  0.40015177  0.50000000  1.0
  Co  Co4  1  0.92806182  0.46403091  0.00000000  1.0
  Co  Co5  1  0.53596909  0.46403091  0.00000000  1.0
  Co  Co6  1  0.53596909  0.07193818  0.00000000  1.0
  P  P7  1  0.36632124  0.18316062  0.50000000  1.0
  P  P8  1  0.81683938  0.18316062  0.50000000  1.0
  P  P9  1  0.81683938  0.63367876  0.50000000  1.0
  P  P10  1  0.33333333  0.66666667  0.00000000  1.0
