# generated using pymatgen
data_La2MoO6
_symmetry_space_group_name_H-M   'P 1'
_cell_length_a   10.42301097
_cell_length_b   10.42301097
_cell_length_c   5.68399654
_cell_angle_alpha   74.96474238
_cell_angle_beta   105.03525762
_cell_angle_gamma   111.38982408
_symmetry_Int_Tables_number   1
_chemical_formula_structural   La2MoO6
_chemical_formula_sum   'La8 Mo4 O24'
_cell_volume   545.88303870
_cell_formula_units_Z   4
loop_
 _symmetry_equiv_pos_site_id
 _symmetry_equiv_pos_as_xyz
  1  'x, y, z'
loop_
 _atom_site_type_symbol
 _atom_site_label
 _atom_site_symmetry_multiplicity
 _atom_site_fract_x
 _atom_site_fract_y
 _atom_site_fract_z
 _atom_site_occupancy
  La  La0  1  1.71270239  0.05371934  0.61665493  1.0
  La  La1  1  0.94628066  -0.71270239  0.11665493  1.0
  La  La2  1  1.05371934  0.71270239  0.88334507  1.0
  La  La3  1  0.28729761  -0.05371934  0.38334507  1.0
  La  La4  1  0.63356484  -0.36643516  0.75000000  1.0
  La  La5  1  1.36643516  0.36643516  0.25000000  1.0
  La  La6  1  1.11292265  0.11292265  0.75000000  1.0
  La  La7  1  0.88707735  -0.11292265  0.25000000  1.0
  Mo  Mo8  1  1.51093926  0.20369437  0.94356203  1.0
  Mo  Mo9  1  0.79630563  -0.51093926  0.44356203  1.0
  Mo  Mo10  1  1.20369437  0.51093926  0.55643797  1.0
  Mo  Mo11  1  0.48906074  -0.20369437  0.05643797  1.0
  O  O12  1  0.68865500  -0.16506984  0.90662736  1.0
  O  O13  1  1.16506984  0.31134500  0.40662736  1.0
  O  O14  1  0.83493016  -0.31134500  0.59337264  1.0
  O  O15  1  1.31134500  0.16506984  0.09337264  1.0
  O  O16  1  1.89197371  0.07834809  0.42123537  1.0
  O  O17  1  0.92165191  -0.89197371  0.92123537  1.0
  O  O18  1  1.07834809  0.89197371  0.07876463  1.0
  O  O19  1  0.10802629  -0.07834809  0.57876463  1.0
  O  O20  1  0.47614100  -0.07552729  0.77019275  1.0
  O  O21  1  1.07552729  0.52385900  0.27019275  1.0
  O  O22  1  0.92447271  -0.52385900  0.72980725  1.0
  O  O23  1  1.52385900  0.07552729  0.22980725  1.0
  O  O24  1  1.67061039  0.21274397  0.86416513  1.0
  O  O25  1  0.78725603  -0.67061039  0.36416513  1.0
  O  O26  1  1.21274397  0.67061039  0.63583487  1.0
  O  O27  1  0.32938961  -0.21274397  0.13583487  1.0
  O  O28  1  1.38556865  0.16955780  0.65865441  1.0
  O  O29  1  0.83044220  -0.38556865  0.15865441  1.0
  O  O30  1  1.16955780  0.38556865  0.84134559  1.0
  O  O31  1  0.61443135  -0.16955780  0.34134559  1.0
  O  O32  1  1.54387835  0.37950959  0.98189319  1.0
  O  O33  1  0.62049041  -0.54387835  0.48189319  1.0
  O  O34  1  1.37950959  0.54387835  0.51810681  1.0
  O  O35  1  0.45612165  -0.37950959  0.01810681  1.0
