# generated using pymatgen
data_Cs2VAgS2
_symmetry_space_group_name_H-M   'P 1'
_cell_length_a   20.28645902
_cell_length_b   19.43852895
_cell_length_c   7.22170895
_cell_angle_alpha   86.22820598
_cell_angle_beta   72.96513597
_cell_angle_gamma   20.80665805
_symmetry_Int_Tables_number   1
_chemical_formula_structural   Cs2VAgS2
_chemical_formula_sum   'Cs8 V4 Ag4 S8'
_cell_volume   764.45256546
_cell_formula_units_Z   4
loop_
 _symmetry_equiv_pos_site_id
 _symmetry_equiv_pos_as_xyz
  1  'x, y, z'
loop_
 _atom_site_type_symbol
 _atom_site_label
 _atom_site_symmetry_multiplicity
 _atom_site_fract_x
 _atom_site_fract_y
 _atom_site_fract_z
 _atom_site_occupancy
  Cs  Cs0  1  1.10183925  0.47898931  0.62114940  1.0
  Cs  Cs1  1  0.79802204  0.62114940  0.47898931  1.0
  Cs  Cs2  1  0.77101069  1.14816075  0.45197796  1.0
  Cs  Cs3  1  0.62885060  0.45197796  1.14816075  1.0
  Cs  Cs4  1  1.62114940  -0.20197796  0.10183925  1.0
  Cs  Cs5  1  1.47898931  0.10183925  -0.20197796  1.0
  Cs  Cs6  1  0.45197796  0.62885060  0.77101069  1.0
  Cs  Cs7  1  1.14816075  0.77101069  0.62885060  1.0
  V  V8  1  1.12500000  0.12500000  0.62500000  1.0
  V  V9  1  1.12500000  0.62500000  0.12500000  1.0
  V  V10  1  1.12500000  0.12500000  0.12500000  1.0
  V  V11  1  1.62500000  0.12500000  0.12500000  1.0
  Ag  Ag12  1  0.62500000  0.62500000  1.12500000  1.0
  Ag  Ag13  1  0.62500000  1.12500000  0.62500000  1.0
  Ag  Ag14  1  0.62500000  0.62500000  0.62500000  1.0
  Ag  Ag15  1  1.12500000  0.62500000  0.62500000  1.0
  S  S16  1  1.13449564  0.00310617  0.62209838  1.0
  S  S17  1  1.24029982  0.62209838  0.00310617  1.0
  S  S18  1  0.24689383  1.11550436  1.00970018  1.0
  S  S19  1  0.62790162  1.00970018  1.11550436  1.0
  S  S20  1  1.62209838  0.24029982  0.13449564  1.0
  S  S21  1  1.00310617  0.13449564  0.24029982  1.0
  S  S22  1  1.00970018  0.62790162  0.24689383  1.0
  S  S23  1  1.11550436  0.24689383  0.62790162  1.0
