# generated using pymatgen
data_Cd4OF6
_symmetry_space_group_name_H-M   'P 1'
_cell_length_a   7.63235339
_cell_length_b   7.63235339
_cell_length_c   5.51966791
_cell_angle_alpha   90.00000000
_cell_angle_beta   90.00000000
_cell_angle_gamma   90.00000000
_symmetry_Int_Tables_number   1
_chemical_formula_structural   Cd4OF6
_chemical_formula_sum   'Cd8 O2 F12'
_cell_volume   321.53621172
_cell_formula_units_Z   2
loop_
 _symmetry_equiv_pos_site_id
 _symmetry_equiv_pos_as_xyz
  1  'x, y, z'
loop_
 _atom_site_type_symbol
 _atom_site_label
 _atom_site_symmetry_multiplicity
 _atom_site_fract_x
 _atom_site_fract_y
 _atom_site_fract_z
 _atom_site_occupancy
  Cd  Cd0  1  0.75085590  0.50000000  0.19725223  1.0
  Cd  Cd1  1  0.24914410  0.50000000  0.19725223  1.0
  Cd  Cd2  1  -0.00000000  0.25085590  0.69725223  1.0
  Cd  Cd3  1  0.00000000  0.74914410  0.69725223  1.0
  Cd  Cd4  1  0.74914410  0.00000000  0.30274777  1.0
  Cd  Cd5  1  0.25085590  0.00000000  0.30274777  1.0
  Cd  Cd6  1  0.50000000  0.24914410  0.80274777  1.0
  Cd  Cd7  1  0.50000000  0.75085590  0.80274777  1.0
  O  O8  1  0.00000000  0.00000000  0.50000000  1.0
  O  O9  1  0.50000000  0.50000000  0.00000000  1.0
  F  F10  1  0.28684564  0.28684564  0.50000000  1.0
  F  F11  1  0.71315436  0.28684564  0.50000000  1.0
  F  F12  1  0.28684564  0.71315436  0.50000000  1.0
  F  F13  1  0.71315436  0.71315436  0.50000000  1.0
  F  F14  1  0.78684564  0.78684564  0.00000000  1.0
  F  F15  1  0.21315436  0.78684564  0.00000000  1.0
  F  F16  1  0.78684564  0.21315436  0.00000000  1.0
  F  F17  1  0.21315436  0.21315436  0.00000000  1.0
  F  F18  1  0.00000000  0.50000000  0.91991751  1.0
  F  F19  1  0.00000000  0.50000000  0.41991751  1.0
  F  F20  1  0.50000000  0.00000000  0.58008249  1.0
  F  F21  1  0.50000000  0.00000000  0.08008249  1.0
