# generated using pymatgen
data_V2Cu3O8
_symmetry_space_group_name_H-M   'P 1'
_cell_length_a   6.27899719
_cell_length_b   7.96364510
_cell_length_c   6.78170274
_cell_angle_alpha   90.00000000
_cell_angle_beta   108.28355256
_cell_angle_gamma   90.00000000
_symmetry_Int_Tables_number   1
_chemical_formula_structural   V2Cu3O8
_chemical_formula_sum   'V4 Cu6 O16'
_cell_volume   321.99047712
_cell_formula_units_Z   2
loop_
 _symmetry_equiv_pos_site_id
 _symmetry_equiv_pos_as_xyz
  1  'x, y, z'
loop_
 _atom_site_type_symbol
 _atom_site_label
 _atom_site_symmetry_multiplicity
 _atom_site_fract_x
 _atom_site_fract_y
 _atom_site_fract_z
 _atom_site_occupancy
  O  O0  1  0.99242098  0.21951913  0.26686187  1.0
  O  O1  1  0.99242098  0.28048087  0.76686187  1.0
  O  O2  1  0.00757902  0.71951913  0.23313813  1.0
  O  O3  1  0.00757902  0.78048087  0.73313813  1.0
  O  O4  1  0.75097320  0.00657364  0.44937570  1.0
  O  O5  1  0.75097320  0.49342636  0.94937570  1.0
  O  O6  1  0.24902680  0.50657364  0.05062430  1.0
  O  O7  1  0.24902680  0.99342636  0.55062430  1.0
  O  O8  1  0.46613940  0.26552062  0.43697913  1.0
  O  O9  1  0.46613940  0.23447938  0.93697913  1.0
  O  O10  1  0.53386060  0.76552062  0.06302087  1.0
  O  O11  1  0.53386060  0.73447938  0.56302087  1.0
  O  O12  1  0.72729444  0.48969713  0.35700687  1.0
  O  O13  1  0.72729444  0.01030287  0.85700687  1.0
  O  O14  1  0.27270556  0.98969713  0.14299313  1.0
  O  O15  1  0.27270556  0.51030287  0.64299313  1.0
  Cu  Cu16  1  0.50000000  0.50000000  0.50000000  1.0
  Cu  Cu17  1  0.50000000  0.00000000  0.00000000  1.0
  Cu  Cu18  1  0.76033773  0.24224025  0.39259973  1.0
  Cu  Cu19  1  0.76033773  0.25775975  0.89259973  1.0
  Cu  Cu20  1  0.23966227  0.74224025  0.10740027  1.0
  Cu  Cu21  1  0.23966227  0.75775975  0.60740027  1.0
  V  V22  1  0.24367502  0.11603407  0.34775963  1.0
  V  V23  1  0.24367502  0.38396593  0.84775963  1.0
  V  V24  1  0.75632498  0.61603407  0.15224037  1.0
  V  V25  1  0.75632498  0.88396593  0.65224037  1.0
