# generated using pymatgen
data_Y9C4I8O
_symmetry_space_group_name_H-M   'P 1'
_cell_length_a   3.85486992
_cell_length_b   28.96150127
_cell_length_c   11.94806939
_cell_angle_alpha   90.00000000
_cell_angle_beta   90.00000000
_cell_angle_gamma   90.00000000
_symmetry_Int_Tables_number   1
_chemical_formula_structural   Y9C4I8O
_chemical_formula_sum   'Y18 C8 I16 O2'
_cell_volume   1333.91616006
_cell_formula_units_Z   2
loop_
 _symmetry_equiv_pos_site_id
 _symmetry_equiv_pos_as_xyz
  1  'x, y, z'
loop_
 _atom_site_type_symbol
 _atom_site_label
 _atom_site_symmetry_multiplicity
 _atom_site_fract_x
 _atom_site_fract_y
 _atom_site_fract_z
 _atom_site_occupancy
  Y  Y0  1  0.50000000  0.61322259  0.52071663  1.0
  Y  Y1  1  0.50000000  0.38677741  0.52071663  1.0
  Y  Y2  1  0.00000000  0.11322259  0.47928337  1.0
  Y  Y3  1  0.00000000  0.88677741  0.47928337  1.0
  Y  Y4  1  0.50000000  0.56630801  0.26624403  1.0
  Y  Y5  1  0.50000000  0.43369199  0.26624403  1.0
  Y  Y6  1  0.00000000  0.06630801  0.73375597  1.0
  Y  Y7  1  0.00000000  0.93369199  0.73375597  1.0
  Y  Y8  1  0.50000000  0.21965416  0.40619573  1.0
  Y  Y9  1  0.50000000  0.78034584  0.40619573  1.0
  Y  Y10  1  0.00000000  0.71965416  0.59380427  1.0
  Y  Y11  1  0.00000000  0.28034584  0.59380427  1.0
  Y  Y12  1  0.50000000  0.17233649  0.66954783  1.0
  Y  Y13  1  0.50000000  0.82766351  0.66954783  1.0
  Y  Y14  1  0.00000000  0.67233649  0.33045217  1.0
  Y  Y15  1  0.00000000  0.32766351  0.33045217  1.0
  Y  Y16  1  0.50000000  0.00000000  0.55541147  1.0
  Y  Y17  1  0.00000000  0.50000000  0.44458853  1.0
  C  C18  1  0.50000000  0.69491859  0.46207196  1.0
  C  C19  1  0.50000000  0.30508141  0.46207196  1.0
  C  C20  1  0.00000000  0.19491859  0.53792804  1.0
  C  C21  1  0.00000000  0.80508141  0.53792804  1.0
  C  C22  1  0.50000000  0.08825472  0.61316781  1.0
  C  C23  1  0.50000000  0.91174528  0.61316781  1.0
  C  C24  1  0.00000000  0.58825472  0.38683219  1.0
  C  C25  1  0.00000000  0.41174528  0.38683219  1.0
  I  I26  1  0.50000000  0.73507966  0.79657694  1.0
  I  I27  1  0.50000000  0.26492034  0.79657694  1.0
  I  I28  1  0.00000000  0.23507966  0.20342306  1.0
  I  I29  1  0.00000000  0.76492034  0.20342306  1.0
  I  I30  1  0.50000000  0.64993757  0.11801709  1.0
  I  I31  1  0.50000000  0.35006243  0.11801709  1.0
  I  I32  1  0.00000000  0.14993757  0.88198291  1.0
  I  I33  1  0.00000000  0.85006243  0.88198291  1.0
  I  I34  1  0.50000000  0.12091619  0.27954218  1.0
  I  I35  1  0.50000000  0.87908381  0.27954218  1.0
  I  I36  1  0.00000000  0.62091619  0.72045782  1.0
  I  I37  1  0.00000000  0.37908381  0.72045782  1.0
  I  I38  1  0.50000000  0.00000000  0.89518658  1.0
  I  I39  1  0.00000000  0.50000000  0.10481342  1.0
  I  I40  1  0.50000000  0.50000000  0.64523064  1.0
  I  I41  1  0.00000000  0.00000000  0.35476936  1.0
  O  O42  1  0.50000000  0.50000000  0.35281037  1.0
  O  O43  1  0.00000000  0.00000000  0.64718963  1.0
