# generated using pymatgen
data_RbLu(SO4)2
_symmetry_space_group_name_H-M   'P 1'
_cell_length_a   8.97667918
_cell_length_b   5.14555095
_cell_length_c   7.83007814
_cell_angle_alpha   90.00000000
_cell_angle_beta   94.40119458
_cell_angle_gamma   90.00000000
_symmetry_Int_Tables_number   1
_chemical_formula_structural   RbLu(SO4)2
_chemical_formula_sum   'Rb2 Lu2 S4 O16'
_cell_volume   360.60448435
_cell_formula_units_Z   2
loop_
 _symmetry_equiv_pos_site_id
 _symmetry_equiv_pos_as_xyz
  1  'x, y, z'
loop_
 _atom_site_type_symbol
 _atom_site_label
 _atom_site_symmetry_multiplicity
 _atom_site_fract_x
 _atom_site_fract_y
 _atom_site_fract_z
 _atom_site_occupancy
  Rb  Rb0  1  0.50000000  0.30815512  0.75000000  1.0
  Rb  Rb1  1  0.50000000  0.69184488  0.25000000  1.0
  Lu  Lu2  1  0.00000000  0.39323844  0.75000000  1.0
  Lu  Lu3  1  0.00000000  0.60676156  0.25000000  1.0
  S  S4  1  0.78943991  0.81948807  0.85041785  1.0
  S  S5  1  0.78943991  0.18051193  0.35041785  1.0
  S  S6  1  0.21056009  0.81948807  0.64958215  1.0
  S  S7  1  0.21056009  0.18051193  0.14958215  1.0
  O  O8  1  0.91802399  0.70401448  0.96524184  1.0
  O  O9  1  0.91802399  0.29598552  0.46524184  1.0
  O  O10  1  0.08197601  0.70401448  0.53475816  1.0
  O  O11  1  0.08197601  0.29598552  0.03475816  1.0
  O  O12  1  0.82903241  0.90796229  0.30520113  1.0
  O  O13  1  0.82903241  0.09203771  0.80520113  1.0
  O  O14  1  0.17096759  0.90796229  0.19479887  1.0
  O  O15  1  0.17096759  0.09203771  0.69479887  1.0
  O  O16  1  0.78778777  0.64874380  0.69432021  1.0
  O  O17  1  0.78778777  0.35125620  0.19432021  1.0
  O  O18  1  0.21221223  0.64874380  0.80567979  1.0
  O  O19  1  0.21221223  0.35125620  0.30567979  1.0
  O  O20  1  0.64637060  0.81401730  0.92787559  1.0
  O  O21  1  0.64637060  0.18598270  0.42787559  1.0
  O  O22  1  0.35362940  0.81401730  0.57212441  1.0
  O  O23  1  0.35362940  0.18598270  0.07212441  1.0
