# generated using pymatgen
data_SrF2
_symmetry_space_group_name_H-M   'P 1'
_cell_length_a   6.37766494
_cell_length_b   3.85129471
_cell_length_c   7.49824577
_cell_angle_alpha   90.00000000
_cell_angle_beta   90.00000000
_cell_angle_gamma   90.00000000
_symmetry_Int_Tables_number   1
_chemical_formula_structural   SrF2
_chemical_formula_sum   'Sr4 F8'
_cell_volume   184.17391631
_cell_formula_units_Z   4
loop_
 _symmetry_equiv_pos_site_id
 _symmetry_equiv_pos_as_xyz
  1  'x, y, z'
loop_
 _atom_site_type_symbol
 _atom_site_label
 _atom_site_symmetry_multiplicity
 _atom_site_fract_x
 _atom_site_fract_y
 _atom_site_fract_z
 _atom_site_occupancy
  Sr  Sr0  1  0.74962242  0.75000000  0.39059729  1.0
  Sr  Sr1  1  0.24962242  0.75000000  0.10940271  1.0
  Sr  Sr2  1  0.25037758  0.25000000  0.60940271  1.0
  Sr  Sr3  1  0.75037758  0.25000000  0.89059729  1.0
  F  F4  1  0.97989206  0.75000000  0.66342645  1.0
  F  F5  1  0.47989206  0.75000000  0.83657355  1.0
  F  F6  1  0.02010794  0.25000000  0.33657355  1.0
  F  F7  1  0.52010794  0.25000000  0.16342645  1.0
  F  F8  1  0.85823635  0.75000000  0.07458318  1.0
  F  F9  1  0.35823635  0.75000000  0.42541682  1.0
  F  F10  1  0.14176365  0.25000000  0.92541682  1.0
  F  F11  1  0.64176365  0.25000000  0.57458318  1.0
