# generated using pymatgen
data_SrNbO3
_symmetry_space_group_name_H-M   'P 1'
_cell_length_a   5.72711409
_cell_length_b   8.12053983
_cell_length_c   5.73150200
_cell_angle_alpha   90.00000000
_cell_angle_beta   90.00000000
_cell_angle_gamma   90.00000000
_symmetry_Int_Tables_number   1
_chemical_formula_structural   SrNbO3
_chemical_formula_sum   'Sr4 Nb4 O12'
_cell_volume   266.55644243
_cell_formula_units_Z   4
loop_
 _symmetry_equiv_pos_site_id
 _symmetry_equiv_pos_as_xyz
  1  'x, y, z'
loop_
 _atom_site_type_symbol
 _atom_site_label
 _atom_site_symmetry_multiplicity
 _atom_site_fract_x
 _atom_site_fract_y
 _atom_site_fract_z
 _atom_site_occupancy
  Sr  Sr0  1  0.01265396  0.25000000  0.50046296  1.0
  Sr  Sr1  1  0.51265396  0.25000000  -0.00046296  1.0
  Sr  Sr2  1  0.98734604  0.75000000  0.49953704  1.0
  Sr  Sr3  1  0.48734604  0.75000000  1.00046296  1.0
  Nb  Nb4  1  0.50000000  0.50000000  0.50000000  1.0
  Nb  Nb5  1  0.50000000  0.00000000  0.50000000  1.0
  Nb  Nb6  1  0.00000000  0.50000000  0.00000000  1.0
  Nb  Nb7  1  0.00000000  0.00000000  0.00000000  1.0
  O  O8  1  0.27501955  0.48297940  0.77505752  1.0
  O  O9  1  0.27501955  0.01702060  0.77505752  1.0
  O  O10  1  0.77501955  0.48297940  0.72494248  1.0
  O  O11  1  0.77501955  0.01702060  0.72494248  1.0
  O  O12  1  0.72498045  0.98297940  0.22494248  1.0
  O  O13  1  0.72498045  0.51702060  0.22494248  1.0
  O  O14  1  0.22498045  0.98297940  0.27505752  1.0
  O  O15  1  0.22498045  0.51702060  0.27505752  1.0
  O  O16  1  0.99609180  0.25000000  0.03348472  1.0
  O  O17  1  0.49609180  0.25000000  0.46651528  1.0
  O  O18  1  0.00390820  0.75000000  0.96651528  1.0
  O  O19  1  0.50390820  0.75000000  0.53348472  1.0
