# generated using pymatgen
data_Cu5(PO6)2
_symmetry_space_group_name_H-M   'P 1'
_cell_length_a   4.67530727
_cell_length_b   5.57952631
_cell_length_c   16.56920719
_cell_angle_alpha   90.00000000
_cell_angle_beta   92.13655676
_cell_angle_gamma   90.00000000
_symmetry_Int_Tables_number   1
_chemical_formula_structural   Cu5(PO6)2
_chemical_formula_sum   'Cu10 P4 O24'
_cell_volume   431.92385981
_cell_formula_units_Z   2
loop_
 _symmetry_equiv_pos_site_id
 _symmetry_equiv_pos_as_xyz
  1  'x, y, z'
loop_
 _atom_site_type_symbol
 _atom_site_label
 _atom_site_symmetry_multiplicity
 _atom_site_fract_x
 _atom_site_fract_y
 _atom_site_fract_z
 _atom_site_occupancy
  P  P0  1  0.97083521  0.91301166  0.86967392  1.0
  P  P1  1  0.97083521  0.58698834  0.36967392  1.0
  P  P2  1  0.02916479  0.41301166  0.63032608  1.0
  P  P3  1  0.02916479  0.08698834  0.13032608  1.0
  Cu  Cu4  1  0.51321945  0.67677514  0.74539055  1.0
  Cu  Cu5  1  0.51321945  0.82322486  0.24539055  1.0
  Cu  Cu6  1  0.48678055  0.17677514  0.75460945  1.0
  Cu  Cu7  1  0.48678055  0.32322486  0.25460945  1.0
  Cu  Cu8  1  0.41732529  0.51329754  0.91673497  1.0
  Cu  Cu9  1  0.41732529  0.98670246  0.41673497  1.0
  Cu  Cu10  1  0.58267471  0.01329754  0.58326503  1.0
  Cu  Cu11  1  0.58267471  0.48670246  0.08326503  1.0
  Cu  Cu12  1  0.50000000  0.00000000  0.00000000  1.0
  Cu  Cu13  1  0.50000000  0.50000000  0.50000000  1.0
  O  O14  1  0.84264640  0.63463271  0.62876159  1.0
  O  O15  1  0.84264640  0.86536729  0.12876159  1.0
  O  O16  1  0.15735360  0.13463271  0.87123841  1.0
  O  O17  1  0.15735360  0.36536729  0.37123841  1.0
  O  O18  1  0.79469582  0.85582513  0.94485769  1.0
  O  O19  1  0.79469582  0.64417487  0.44485769  1.0
  O  O20  1  0.20530418  0.35582513  0.55514231  1.0
  O  O21  1  0.20530418  0.14417487  0.05514231  1.0
  O  O22  1  0.74957168  0.92684264  0.79266013  1.0
  O  O23  1  0.74957168  0.57315736  0.29266013  1.0
  O  O24  1  0.25042832  0.42684264  0.70733987  1.0
  O  O25  1  0.25042832  0.07315736  0.20733987  1.0
  O  O26  1  0.64612742  0.32153985  0.98564747  1.0
  O  O27  1  0.64612742  0.17846015  0.48564747  1.0
  O  O28  1  0.35387258  0.82153985  0.51435253  1.0
  O  O29  1  0.35387258  0.67846015  0.01435253  1.0
  O  O30  1  0.14797177  0.68275274  0.85198843  1.0
  O  O31  1  0.14797177  0.81724726  0.35198843  1.0
  O  O32  1  0.85202823  0.18275274  0.64801157  1.0
  O  O33  1  0.85202823  0.31724726  0.14801157  1.0
  O  O34  1  0.60679957  0.43095082  0.81997614  1.0
  O  O35  1  0.60679957  0.06904918  0.31997614  1.0
  O  O36  1  0.39320043  0.93095082  0.68002386  1.0
  O  O37  1  0.39320043  0.56904918  0.18002386  1.0
