# generated using pymatgen
data_Lu3Ge13Ru4
_symmetry_space_group_name_H-M   'P 1'
_cell_length_a   8.98792437
_cell_length_b   8.98792437
_cell_length_c   8.98792437
_cell_angle_alpha   90.00000000
_cell_angle_beta   90.00000000
_cell_angle_gamma   90.00000000
_symmetry_Int_Tables_number   1
_chemical_formula_structural   Lu3Ge13Ru4
_chemical_formula_sum   'Lu6 Ge26 Ru8'
_cell_volume   726.06955622
_cell_formula_units_Z   2
loop_
 _symmetry_equiv_pos_site_id
 _symmetry_equiv_pos_as_xyz
  1  'x, y, z'
loop_
 _atom_site_type_symbol
 _atom_site_label
 _atom_site_symmetry_multiplicity
 _atom_site_fract_x
 _atom_site_fract_y
 _atom_site_fract_z
 _atom_site_occupancy
  Lu  Lu0  1  0.25000000  0.00000000  0.50000000  1.0
  Lu  Lu1  1  0.75000000  0.00000000  0.50000000  1.0
  Lu  Lu2  1  0.50000000  0.25000000  0.00000000  1.0
  Lu  Lu3  1  0.50000000  0.75000000  0.00000000  1.0
  Lu  Lu4  1  0.00000000  0.50000000  0.75000000  1.0
  Lu  Lu5  1  0.00000000  0.50000000  0.25000000  1.0
  Ge  Ge6  1  0.50000000  0.19824254  0.35331108  1.0
  Ge  Ge7  1  0.50000000  0.19824254  0.64668892  1.0
  Ge  Ge8  1  0.50000000  0.80175746  0.35331108  1.0
  Ge  Ge9  1  0.50000000  0.80175746  0.64668892  1.0
  Ge  Ge10  1  0.00000000  0.85331108  0.69824254  1.0
  Ge  Ge11  1  0.00000000  0.85331108  0.30175746  1.0
  Ge  Ge12  1  0.00000000  0.14668892  0.69824254  1.0
  Ge  Ge13  1  0.00000000  0.14668892  0.30175746  1.0
  Ge  Ge14  1  0.35331108  0.50000000  0.19824254  1.0
  Ge  Ge15  1  0.35331108  0.50000000  0.80175746  1.0
  Ge  Ge16  1  0.85331108  0.69824254  0.00000000  1.0
  Ge  Ge17  1  0.85331108  0.30175746  0.00000000  1.0
  Ge  Ge18  1  0.19824254  0.35331108  0.50000000  1.0
  Ge  Ge19  1  0.19824254  0.64668892  0.50000000  1.0
  Ge  Ge20  1  0.69824254  0.00000000  0.85331108  1.0
  Ge  Ge21  1  0.69824254  0.00000000  0.14668892  1.0
  Ge  Ge22  1  0.64668892  0.50000000  0.19824254  1.0
  Ge  Ge23  1  0.64668892  0.50000000  0.80175746  1.0
  Ge  Ge24  1  0.14668892  0.69824254  0.00000000  1.0
  Ge  Ge25  1  0.14668892  0.30175746  0.00000000  1.0
  Ge  Ge26  1  0.80175746  0.35331108  0.50000000  1.0
  Ge  Ge27  1  0.80175746  0.64668892  0.50000000  1.0
  Ge  Ge28  1  0.30175746  0.00000000  0.85331108  1.0
  Ge  Ge29  1  0.30175746  0.00000000  0.14668892  1.0
  Ge  Ge30  1  0.50000000  0.50000000  0.50000000  1.0
  Ge  Ge31  1  0.00000000  0.00000000  0.00000000  1.0
  Ru  Ru32  1  0.25000000  0.25000000  0.25000000  1.0
  Ru  Ru33  1  0.25000000  0.25000000  0.75000000  1.0
  Ru  Ru34  1  0.25000000  0.75000000  0.25000000  1.0
  Ru  Ru35  1  0.25000000  0.75000000  0.75000000  1.0
  Ru  Ru36  1  0.75000000  0.75000000  0.75000000  1.0
  Ru  Ru37  1  0.75000000  0.75000000  0.25000000  1.0
  Ru  Ru38  1  0.75000000  0.25000000  0.75000000  1.0
  Ru  Ru39  1  0.75000000  0.25000000  0.25000000  1.0
