# generated using pymatgen
data_Ti2N
_symmetry_space_group_name_H-M   'P 1'
_cell_length_a   5.31595998
_cell_length_b   5.31595998
_cell_length_c   5.31595998
_cell_angle_alpha   134.11459135
_cell_angle_beta   134.11459135
_cell_angle_gamma   66.90908173
_symmetry_Int_Tables_number   1
_chemical_formula_structural   Ti2N
_chemical_formula_sum   'Ti4 N2'
_cell_volume   76.18096540
_cell_formula_units_Z   2
loop_
 _symmetry_equiv_pos_site_id
 _symmetry_equiv_pos_as_xyz
  1  'x, y, z'
loop_
 _atom_site_type_symbol
 _atom_site_label
 _atom_site_symmetry_multiplicity
 _atom_site_fract_x
 _atom_site_fract_y
 _atom_site_fract_z
 _atom_site_occupancy
  Ti  Ti0  1  1.23103762  1.23103762  1.00000000  1.0
  Ti  Ti1  1  0.98103762  1.48103762  0.50000000  1.0
  Ti  Ti2  1  0.51896238  0.01896238  0.50000000  1.0
  Ti  Ti3  1  0.76896238  0.76896238  -0.00000000  1.0
  N  N4  1  0.00000000  0.00000000  0.00000000  1.0
  N  N5  1  0.75000000  1.25000000  0.50000000  1.0
