# generated using pymatgen
data_SrMgP2O7
_symmetry_space_group_name_H-M   'P 1'
_cell_length_a   5.37426008
_cell_length_b   8.39161346
_cell_length_c   13.96150568
_cell_angle_alpha   90.00000000
_cell_angle_beta   111.81772211
_cell_angle_gamma   90.00000000
_symmetry_Int_Tables_number   1
_chemical_formula_structural   SrMgP2O7
_chemical_formula_sum   'Sr4 Mg4 P8 O28'
_cell_volume   584.54497899
_cell_formula_units_Z   4
loop_
 _symmetry_equiv_pos_site_id
 _symmetry_equiv_pos_as_xyz
  1  'x, y, z'
loop_
 _atom_site_type_symbol
 _atom_site_label
 _atom_site_symmetry_multiplicity
 _atom_site_fract_x
 _atom_site_fract_y
 _atom_site_fract_z
 _atom_site_occupancy
  Sr  Sr0  1  0.98946306  0.16506666  0.27765350  1.0
  Sr  Sr1  1  0.98946306  0.33493334  0.77765350  1.0
  Sr  Sr2  1  0.01053694  0.66506666  0.22234650  1.0
  Sr  Sr3  1  0.01053694  0.83493334  0.72234650  1.0
  Mg  Mg4  1  0.71519472  0.84968421  0.39282225  1.0
  Mg  Mg5  1  0.71519472  0.65031579  0.89282225  1.0
  Mg  Mg6  1  0.28480528  0.34968421  0.10717775  1.0
  Mg  Mg7  1  0.28480528  0.15031579  0.60717775  1.0
  P  P8  1  0.66764615  0.20166771  0.47901327  1.0
  P  P9  1  0.66764615  0.29833229  0.97901327  1.0
  P  P10  1  0.33235385  0.70166771  0.02098673  1.0
  P  P11  1  0.33235385  0.79833229  0.52098673  1.0
  P  P12  1  0.57552748  0.46597341  0.32993952  1.0
  P  P13  1  0.57552748  0.03402659  0.82993952  1.0
  P  P14  1  0.42447252  0.96597341  0.17006048  1.0
  P  P15  1  0.42447252  0.53402659  0.67006048  1.0
  O  O16  1  0.89499693  0.30458026  0.08589066  1.0
  O  O17  1  0.89499693  0.19541974  0.58589066  1.0
  O  O18  1  0.10500307  0.80458026  0.41410934  1.0
  O  O19  1  0.10500307  0.69541974  0.91410934  1.0
  O  O20  1  0.79390035  0.43958336  0.28550847  1.0
  O  O21  1  0.79390035  0.06041664  0.78550847  1.0
  O  O22  1  0.20609965  0.93958336  0.21449153  1.0
  O  O23  1  0.20609965  0.56041664  0.71449153  1.0
  O  O24  1  0.73104597  0.09542656  0.40031282  1.0
  O  O25  1  0.73104597  0.40457344  0.90031282  1.0
  O  O26  1  0.26895403  0.59542656  0.09968718  1.0
  O  O27  1  0.26895403  0.90457344  0.59968718  1.0
  O  O28  1  0.67614150  0.38650730  0.44379113  1.0
  O  O29  1  0.67614150  0.11349270  0.94379113  1.0
  O  O30  1  0.32385850  0.88650730  0.05620887  1.0
  O  O31  1  0.32385850  0.61349270  0.55620887  1.0
  O  O32  1  0.47705430  0.14158639  0.15510253  1.0
  O  O33  1  0.47705430  0.35841361  0.65510253  1.0
  O  O34  1  0.52294570  0.64158639  0.34489747  1.0
  O  O35  1  0.52294570  0.85841361  0.84489747  1.0
  O  O36  1  0.38398926  0.16992545  0.47750522  1.0
  O  O37  1  0.38398926  0.33007455  0.97750522  1.0
  O  O38  1  0.61601074  0.66992545  0.02249478  1.0
  O  O39  1  0.61601074  0.83007455  0.52249478  1.0
  O  O40  1  0.30978501  0.38464671  0.26200155  1.0
  O  O41  1  0.30978501  0.11535329  0.76200155  1.0
  O  O42  1  0.69021499  0.88464671  0.23799845  1.0
  O  O43  1  0.69021499  0.61535329  0.73799845  1.0
