# generated using pymatgen
data_AlPt3
_symmetry_space_group_name_H-M   'P 1'
_cell_length_a   5.56191108
_cell_length_b   5.56191108
_cell_length_c   5.56191108
_cell_angle_alpha   120.65454511
_cell_angle_beta   120.65454511
_cell_angle_gamma   88.86998473
_symmetry_Int_Tables_number   1
_chemical_formula_structural   AlPt3
_chemical_formula_sum   'Al2 Pt6'
_cell_volume   120.43354194
_cell_formula_units_Z   2
loop_
 _symmetry_equiv_pos_site_id
 _symmetry_equiv_pos_as_xyz
  1  'x, y, z'
loop_
 _atom_site_type_symbol
 _atom_site_label
 _atom_site_symmetry_multiplicity
 _atom_site_fract_x
 _atom_site_fract_y
 _atom_site_fract_z
 _atom_site_occupancy
  Al  Al0  1  0.25000000  0.75000000  0.50000000  1.0
  Al  Al1  1  0.75000000  0.25000000  0.50000000  1.0
  Pt  Pt2  1  0.29002858  0.79002858  1.08005716  1.0
  Pt  Pt3  1  0.20997142  0.29002858  0.50000000  1.0
  Pt  Pt4  1  0.79002858  0.70997142  1.50000000  1.0
  Pt  Pt5  1  0.70997142  0.20997142  0.91994284  1.0
  Pt  Pt6  1  0.75000000  0.75000000  1.00000000  1.0
  Pt  Pt7  1  0.25000000  0.25000000  -0.00000000  1.0
