# generated using pymatgen
data_CsLa2C6N6ClO6
_symmetry_space_group_name_H-M   'P 1'
_cell_length_a   6.83648158
_cell_length_b   6.83648158
_cell_length_c   15.24043465
_cell_angle_alpha   90.00000000
_cell_angle_beta   90.00000000
_cell_angle_gamma   120.00000000
_symmetry_Int_Tables_number   1
_chemical_formula_structural   CsLa2C6N6ClO6
_chemical_formula_sum   'Cs2 La4 C12 N12 Cl2 O12'
_cell_volume   616.86947640
_cell_formula_units_Z   2
loop_
 _symmetry_equiv_pos_site_id
 _symmetry_equiv_pos_as_xyz
  1  'x, y, z'
loop_
 _atom_site_type_symbol
 _atom_site_label
 _atom_site_symmetry_multiplicity
 _atom_site_fract_x
 _atom_site_fract_y
 _atom_site_fract_z
 _atom_site_occupancy
  Cs  Cs0  1  0.66666667  0.33333333  0.25000000  1.0
  Cs  Cs1  1  0.33333333  0.66666667  0.75000000  1.0
  La  La2  1  0.33333333  0.66666667  0.44672475  1.0
  La  La3  1  0.33333333  0.66666667  0.05327525  1.0
  La  La4  1  0.66666667  0.33333333  0.94672475  1.0
  La  La5  1  0.66666667  0.33333333  0.55327525  1.0
  C  C6  1  0.83271648  0.78752261  0.40723927  1.0
  C  C7  1  0.83271648  0.78752261  0.09276073  1.0
  C  C8  1  0.78752261  0.95480613  0.90723927  1.0
  C  C9  1  0.78752261  0.95480613  0.59276073  1.0
  C  C10  1  0.95480613  0.16728352  0.40723927  1.0
  C  C11  1  0.95480613  0.16728352  0.09276073  1.0
  C  C12  1  0.21247739  0.04519387  0.40723927  1.0
  C  C13  1  0.21247739  0.04519387  0.09276073  1.0
  C  C14  1  0.16728352  0.21247739  0.90723927  1.0
  C  C15  1  0.16728352  0.21247739  0.59276073  1.0
  C  C16  1  0.04519387  0.83271648  0.90723927  1.0
  C  C17  1  0.04519387  0.83271648  0.59276073  1.0
  N  N18  1  0.04599743  0.82526359  0.40343003  1.0
  N  N19  1  0.04599743  0.82526359  0.09656997  1.0
  N  N20  1  0.82526359  0.77926616  0.90343003  1.0
  N  N21  1  0.82526359  0.77926616  0.59656997  1.0
  N  N22  1  0.77926616  0.95400257  0.40343003  1.0
  N  N23  1  0.77926616  0.95400257  0.09656997  1.0
  N  N24  1  0.17473641  0.22073384  0.40343003  1.0
  N  N25  1  0.17473641  0.22073384  0.09656997  1.0
  N  N26  1  0.95400257  0.17473641  0.90343003  1.0
  N  N27  1  0.95400257  0.17473641  0.59656997  1.0
  N  N28  1  0.22073384  0.04599743  0.90343003  1.0
  N  N29  1  0.22073384  0.04599743  0.59656997  1.0
  Cl  Cl30  1  0.33333333  0.66666667  0.25000000  1.0
  Cl  Cl31  1  0.66666667  0.33333333  0.75000000  1.0
  O  O32  1  0.66455199  0.58565733  0.42090548  1.0
  O  O33  1  0.66455199  0.58565733  0.07909452  1.0
  O  O34  1  0.58565733  0.92110534  0.92090548  1.0
  O  O35  1  0.58565733  0.92110534  0.57909452  1.0
  O  O36  1  0.92110534  0.33544801  0.42090548  1.0
  O  O37  1  0.92110534  0.33544801  0.07909452  1.0
  O  O38  1  0.41434267  0.07889466  0.42090548  1.0
  O  O39  1  0.41434267  0.07889466  0.07909452  1.0
  O  O40  1  0.33544801  0.41434267  0.92090548  1.0
  O  O41  1  0.33544801  0.41434267  0.57909452  1.0
  O  O42  1  0.07889466  0.66455199  0.92090548  1.0
  O  O43  1  0.07889466  0.66455199  0.57909452  1.0
