# generated using pymatgen
data_Mn3(W5C2)2
_symmetry_space_group_name_H-M   'P 1'
_cell_length_a   7.99690611
_cell_length_b   7.99690611
_cell_length_c   8.04347253
_cell_angle_alpha   90.00000000
_cell_angle_beta   90.00000000
_cell_angle_gamma   120.00000000
_symmetry_Int_Tables_number   1
_chemical_formula_structural   Mn3(W5C2)2
_chemical_formula_sum   'Mn6 W20 C8'
_cell_volume   445.46974047
_cell_formula_units_Z   2
loop_
 _symmetry_equiv_pos_site_id
 _symmetry_equiv_pos_as_xyz
  1  'x, y, z'
loop_
 _atom_site_type_symbol
 _atom_site_label
 _atom_site_symmetry_multiplicity
 _atom_site_fract_x
 _atom_site_fract_y
 _atom_site_fract_z
 _atom_site_occupancy
  C  C0  1  0.50000000  0.50000000  0.50000000  1.0
  C  C1  1  0.50000000  0.00000000  0.50000000  1.0
  C  C2  1  -0.00000000  0.50000000  0.50000000  1.0
  C  C3  1  0.50000000  0.50000000  0.00000000  1.0
  C  C4  1  0.50000000  0.00000000  0.00000000  1.0
  C  C5  1  -0.00000000  0.50000000  0.00000000  1.0
  C  C6  1  0.33333333  0.66666667  0.25000000  1.0
  C  C7  1  0.66666667  0.33333333  0.75000000  1.0
  W  W8  1  0.11752720  0.88247280  0.25000000  1.0
  W  W9  1  0.11752720  0.23505440  0.25000000  1.0
  W  W10  1  0.76494560  0.88247280  0.25000000  1.0
  W  W11  1  0.88247280  0.11752720  0.75000000  1.0
  W  W12  1  0.88247280  0.76494560  0.75000000  1.0
  W  W13  1  0.23505440  0.11752720  0.75000000  1.0
  W  W14  1  0.20965166  0.79034834  0.94066236  1.0
  W  W15  1  0.20965166  0.41930331  0.94066236  1.0
  W  W16  1  0.58069669  0.79034834  0.94066236  1.0
  W  W17  1  0.79034834  0.20965166  0.05933764  1.0
  W  W18  1  0.79034834  0.58069669  0.05933764  1.0
  W  W19  1  0.41930331  0.20965166  0.05933764  1.0
  W  W20  1  0.79034834  0.20965166  0.44066236  1.0
  W  W21  1  0.79034834  0.58069669  0.44066236  1.0
  W  W22  1  0.41930331  0.20965166  0.44066236  1.0
  W  W23  1  0.20965166  0.79034834  0.55933764  1.0
  W  W24  1  0.20965166  0.41930331  0.55933764  1.0
  W  W25  1  0.58069669  0.79034834  0.55933764  1.0
  W  W26  1  0.00000000  0.00000000  0.50000000  1.0
  W  W27  1  0.00000000  0.00000000  0.00000000  1.0
  Mn  Mn28  1  0.46666849  0.53333151  0.25000000  1.0
  Mn  Mn29  1  0.46666849  0.93333698  0.25000000  1.0
  Mn  Mn30  1  0.06666302  0.53333151  0.25000000  1.0
  Mn  Mn31  1  0.53333151  0.46666849  0.75000000  1.0
  Mn  Mn32  1  0.53333151  0.06666302  0.75000000  1.0
  Mn  Mn33  1  0.93333698  0.46666849  0.75000000  1.0
