# generated using pymatgen
data_Mn4Be3Ge3SeO12
_symmetry_space_group_name_H-M   'P 1'
_cell_length_a   8.55934349
_cell_length_b   8.55934349
_cell_length_c   8.55934349
_cell_angle_alpha   90.00000000
_cell_angle_beta   90.00000000
_cell_angle_gamma   90.00000000
_symmetry_Int_Tables_number   1
_chemical_formula_structural   Mn4Be3Ge3SeO12
_chemical_formula_sum   'Mn8 Be6 Ge6 Se2 O24'
_cell_volume   627.07771251
_cell_formula_units_Z   2
loop_
 _symmetry_equiv_pos_site_id
 _symmetry_equiv_pos_as_xyz
  1  'x, y, z'
loop_
 _atom_site_type_symbol
 _atom_site_label
 _atom_site_symmetry_multiplicity
 _atom_site_fract_x
 _atom_site_fract_y
 _atom_site_fract_z
 _atom_site_occupancy
  Mn  Mn0  1  0.32742138  0.32742138  0.67257862  1.0
  Mn  Mn1  1  0.32742138  0.67257862  0.32742138  1.0
  Mn  Mn2  1  0.82742138  0.82742138  0.17257862  1.0
  Mn  Mn3  1  0.82742138  0.17257862  0.82742138  1.0
  Mn  Mn4  1  0.67257862  0.32742138  0.32742138  1.0
  Mn  Mn5  1  0.67257862  0.67257862  0.67257862  1.0
  Mn  Mn6  1  0.17257862  0.82742138  0.82742138  1.0
  Mn  Mn7  1  0.17257862  0.17257862  0.17257862  1.0
  Be  Be8  1  0.25000000  0.50000000  0.00000000  1.0
  Be  Be9  1  0.75000000  0.50000000  0.00000000  1.0
  Be  Be10  1  0.00000000  0.25000000  0.50000000  1.0
  Be  Be11  1  0.00000000  0.75000000  0.50000000  1.0
  Be  Be12  1  0.50000000  0.00000000  0.25000000  1.0
  Be  Be13  1  0.50000000  0.00000000  0.75000000  1.0
  Ge  Ge14  1  0.25000000  0.00000000  0.50000000  1.0
  Ge  Ge15  1  0.75000000  0.00000000  0.50000000  1.0
  Ge  Ge16  1  0.50000000  0.25000000  0.00000000  1.0
  Ge  Ge17  1  0.50000000  0.75000000  0.00000000  1.0
  Ge  Ge18  1  0.00000000  0.50000000  0.25000000  1.0
  Ge  Ge19  1  0.00000000  0.50000000  0.75000000  1.0
  Se  Se20  1  0.50000000  0.50000000  0.50000000  1.0
  Se  Se21  1  0.00000000  0.00000000  0.00000000  1.0
  O  O22  1  0.36535334  0.09127359  0.64619472  1.0
  O  O23  1  0.36535334  0.90872641  0.35380528  1.0
  O  O24  1  0.86535334  0.85380528  0.40872641  1.0
  O  O25  1  0.86535334  0.14619472  0.59127359  1.0
  O  O26  1  0.35380528  0.36535334  0.90872641  1.0
  O  O27  1  0.35380528  0.63464666  0.09127359  1.0
  O  O28  1  0.85380528  0.59127359  0.13464666  1.0
  O  O29  1  0.85380528  0.40872641  0.86535334  1.0
  O  O30  1  0.09127359  0.35380528  0.63464666  1.0
  O  O31  1  0.09127359  0.64619472  0.36535334  1.0
  O  O32  1  0.59127359  0.86535334  0.14619472  1.0
  O  O33  1  0.59127359  0.13464666  0.85380528  1.0
  O  O34  1  0.63464666  0.09127359  0.35380528  1.0
  O  O35  1  0.63464666  0.90872641  0.64619472  1.0
  O  O36  1  0.13464666  0.85380528  0.59127359  1.0
  O  O37  1  0.13464666  0.14619472  0.40872641  1.0
  O  O38  1  0.64619472  0.36535334  0.09127359  1.0
  O  O39  1  0.64619472  0.63464666  0.90872641  1.0
  O  O40  1  0.14619472  0.59127359  0.86535334  1.0
  O  O41  1  0.14619472  0.40872641  0.13464666  1.0
  O  O42  1  0.90872641  0.35380528  0.36535334  1.0
  O  O43  1  0.90872641  0.64619472  0.63464666  1.0
  O  O44  1  0.40872641  0.86535334  0.85380528  1.0
  O  O45  1  0.40872641  0.13464666  0.14619472  1.0
