# generated using pymatgen
data_Ag2SO3
_symmetry_space_group_name_H-M   'P 1'
_cell_length_a   4.70135031
_cell_length_b   8.10017595
_cell_length_c   10.49457808
_cell_angle_alpha   90.00000000
_cell_angle_beta   111.67388278
_cell_angle_gamma   90.00000000
_symmetry_Int_Tables_number   1
_chemical_formula_structural   Ag2SO3
_chemical_formula_sum   'Ag8 S4 O12'
_cell_volume   371.39705997
_cell_formula_units_Z   4
loop_
 _symmetry_equiv_pos_site_id
 _symmetry_equiv_pos_as_xyz
  1  'x, y, z'
loop_
 _atom_site_type_symbol
 _atom_site_label
 _atom_site_symmetry_multiplicity
 _atom_site_fract_x
 _atom_site_fract_y
 _atom_site_fract_z
 _atom_site_occupancy
  Ag  Ag0  1  0.92774016  0.97636115  0.29692282  1.0
  Ag  Ag1  1  0.92774016  0.52363885  0.79692282  1.0
  Ag  Ag2  1  0.07225984  0.47636115  0.20307718  1.0
  Ag  Ag3  1  0.07225984  0.02363885  0.70307718  1.0
  Ag  Ag4  1  0.37330183  0.11216958  0.06605482  1.0
  Ag  Ag5  1  0.37330183  0.38783042  0.56605482  1.0
  Ag  Ag6  1  0.62669817  0.61216958  0.43394518  1.0
  Ag  Ag7  1  0.62669817  0.88783042  0.93394518  1.0
  S  S8  1  0.69428997  0.20987914  0.37995599  1.0
  S  S9  1  0.69428997  0.29012086  0.87995599  1.0
  S  S10  1  0.30571003  0.70987914  0.12004401  1.0
  S  S11  1  0.30571003  0.79012086  0.62004401  1.0
  O  O12  1  0.36004839  0.22282413  0.28219633  1.0
  O  O13  1  0.36004839  0.27717587  0.78219633  1.0
  O  O14  1  0.63995161  0.72282413  0.21780367  1.0
  O  O15  1  0.63995161  0.77717587  0.71780367  1.0
  O  O16  1  0.69037200  0.30599491  0.02494305  1.0
  O  O17  1  0.69037200  0.19400509  0.52494305  1.0
  O  O18  1  0.30962800  0.80599491  0.47505695  1.0
  O  O19  1  0.30962800  0.69400509  0.97505695  1.0
  O  O20  1  0.84526461  0.37811248  0.37485138  1.0
  O  O21  1  0.84526461  0.12188752  0.87485138  1.0
  O  O22  1  0.15473539  0.87811248  0.12514862  1.0
  O  O23  1  0.15473539  0.62188752  0.62514862  1.0
