# generated using pymatgen
data_Na2ZnP2O7
_symmetry_space_group_name_H-M   'P 1'
_cell_length_a   7.84088135
_cell_length_b   7.84088135
_cell_length_c   10.44281704
_cell_angle_alpha   90.00000000
_cell_angle_beta   90.00000000
_cell_angle_gamma   90.00000000
_symmetry_Int_Tables_number   1
_chemical_formula_structural   Na2ZnP2O7
_chemical_formula_sum   'Na8 Zn4 P8 O28'
_cell_volume   642.01833870
_cell_formula_units_Z   4
loop_
 _symmetry_equiv_pos_site_id
 _symmetry_equiv_pos_as_xyz
  1  'x, y, z'
loop_
 _atom_site_type_symbol
 _atom_site_label
 _atom_site_symmetry_multiplicity
 _atom_site_fract_x
 _atom_site_fract_y
 _atom_site_fract_z
 _atom_site_occupancy
  Na  Na0  1  0.30661549  0.30661549  0.50000000  1.0
  Na  Na1  1  0.80661549  0.19338451  0.00000000  1.0
  Na  Na2  1  0.69338451  0.69338451  0.50000000  1.0
  Na  Na3  1  0.19338451  0.80661549  0.00000000  1.0
  Na  Na4  1  0.14574493  0.85425507  0.50000000  1.0
  Na  Na5  1  0.64574493  0.64574493  -0.00000000  1.0
  Na  Na6  1  0.85425507  0.14574493  0.50000000  1.0
  Na  Na7  1  0.35425507  0.35425507  -0.00000000  1.0
  Zn  Zn8  1  0.50000000  0.00000000  0.25000000  1.0
  Zn  Zn9  1  0.50000000  0.00000000  0.75000000  1.0
  Zn  Zn10  1  0.00000000  0.50000000  0.75000000  1.0
  Zn  Zn11  1  0.00000000  0.50000000  0.25000000  1.0
  P  P12  1  0.36171916  0.63828084  0.28846833  1.0
  P  P13  1  0.36171916  0.63828084  0.71153167  1.0
  P  P14  1  0.86171916  0.86171916  0.78846833  1.0
  P  P15  1  0.86171916  0.86171916  0.21153167  1.0
  P  P16  1  0.63828084  0.36171916  0.28846833  1.0
  P  P17  1  0.63828084  0.36171916  0.71153167  1.0
  P  P18  1  0.13828084  0.13828084  0.78846833  1.0
  P  P19  1  0.13828084  0.13828084  0.21153167  1.0
  O  O20  1  0.41932743  0.80675759  0.35298563  1.0
  O  O21  1  0.41932743  0.80675759  0.64701437  1.0
  O  O22  1  0.91932743  0.69324241  0.85298563  1.0
  O  O23  1  0.91932743  0.69324241  0.14701437  1.0
  O  O24  1  0.19324241  0.58067257  0.35298563  1.0
  O  O25  1  0.19324241  0.58067257  0.64701437  1.0
  O  O26  1  0.69324241  0.91932743  0.85298563  1.0
  O  O27  1  0.69324241  0.91932743  0.14701437  1.0
  O  O28  1  0.58067257  0.19324241  0.35298563  1.0
  O  O29  1  0.58067257  0.19324241  0.64701437  1.0
  O  O30  1  0.08067257  0.30675759  0.85298563  1.0
  O  O31  1  0.08067257  0.30675759  0.14701437  1.0
  O  O32  1  0.80675759  0.41932743  0.35298563  1.0
  O  O33  1  0.80675759  0.41932743  0.64701437  1.0
  O  O34  1  0.30675759  0.08067257  0.85298563  1.0
  O  O35  1  0.30675759  0.08067257  0.14701437  1.0
  O  O36  1  0.36360801  0.63639199  0.14311786  1.0
  O  O37  1  0.36360801  0.63639199  0.85688214  1.0
  O  O38  1  0.86360801  0.86360801  0.64311786  1.0
  O  O39  1  0.86360801  0.86360801  0.35688214  1.0
  O  O40  1  0.63639199  0.36360801  0.14311786  1.0
  O  O41  1  0.63639199  0.36360801  0.85688214  1.0
  O  O42  1  0.13639199  0.13639199  0.64311786  1.0
  O  O43  1  0.13639199  0.13639199  0.35688214  1.0
  O  O44  1  0.50000000  0.50000000  0.34588645  1.0
  O  O45  1  0.50000000  0.50000000  0.65411355  1.0
  O  O46  1  0.00000000  0.00000000  0.84588645  1.0
  O  O47  1  0.00000000  0.00000000  0.15411355  1.0
