# generated using pymatgen
data_C3N4
_symmetry_space_group_name_H-M   'P 1'
_cell_length_a   4.77936918
_cell_length_b   4.77936918
_cell_length_c   7.38952268
_cell_angle_alpha   90.00000000
_cell_angle_beta   90.00000000
_cell_angle_gamma   120.00000000
_symmetry_Int_Tables_number   1
_chemical_formula_structural   C3N4
_chemical_formula_sum   'C6 N8'
_cell_volume   146.18007326
_cell_formula_units_Z   2
loop_
 _symmetry_equiv_pos_site_id
 _symmetry_equiv_pos_as_xyz
  1  'x, y, z'
loop_
 _atom_site_type_symbol
 _atom_site_label
 _atom_site_symmetry_multiplicity
 _atom_site_fract_x
 _atom_site_fract_y
 _atom_site_fract_z
 _atom_site_occupancy
  C  C0  1  -0.01988502  0.49005749  0.50000000  1.0
  C  C1  1  0.50994251  0.49005749  0.50000000  1.0
  C  C2  1  0.50994251  1.01988502  0.50000000  1.0
  C  C3  1  0.64736516  0.82368258  -0.00000000  1.0
  C  C4  1  0.17631742  0.82368258  -0.00000000  1.0
  C  C5  1  0.17631742  0.35263484  -0.00000000  1.0
  N  N6  1  0.34050612  0.17025306  0.50000000  1.0
  N  N7  1  0.82974694  0.17025306  0.50000000  1.0
  N  N8  1  0.82974694  0.65949388  0.50000000  1.0
  N  N9  1  0.00706332  0.50353166  -0.00000000  1.0
  N  N10  1  0.49646834  0.50353166  0.00000000  1.0
  N  N11  1  0.49646834  0.99293668  -0.00000000  1.0
  N  N12  1  0.33333333  0.66666667  0.50000000  1.0
  N  N13  1  -0.00000000  -0.00000000  -0.00000000  1.0
