# generated using pymatgen
data_Tl2BiP2S7
_symmetry_space_group_name_H-M   'P 1'
_cell_length_a   12.33382646
_cell_length_b   12.33382646
_cell_length_c   19.31556102
_cell_angle_alpha   61.32465690
_cell_angle_beta   118.67534310
_cell_angle_gamma   147.96037539
_symmetry_Int_Tables_number   1
_chemical_formula_structural   Tl2BiP2S7
_chemical_formula_sum   'Tl8 Bi4 P8 S28'
_cell_volume   1350.65801292
_cell_formula_units_Z   4
loop_
 _symmetry_equiv_pos_site_id
 _symmetry_equiv_pos_as_xyz
  1  'x, y, z'
loop_
 _atom_site_type_symbol
 _atom_site_label
 _atom_site_symmetry_multiplicity
 _atom_site_fract_x
 _atom_site_fract_y
 _atom_site_fract_z
 _atom_site_occupancy
  Tl  Tl0  1  0.81615961  0.16659498  0.47160585  1.0
  Tl  Tl1  1  0.83340502  -0.81615961  0.97160585  1.0
  Tl  Tl2  1  1.16659498  0.81615961  0.02839415  1.0
  Tl  Tl3  1  1.18384039  -0.16659498  0.52839415  1.0
  Tl  Tl4  1  0.44120885  0.43622202  0.37372201  1.0
  Tl  Tl5  1  0.56377798  0.55879115  0.87372201  1.0
  Tl  Tl6  1  1.43622202  -0.55879115  0.12627799  1.0
  Tl  Tl7  1  1.55879115  -0.43622202  0.62627799  1.0
  Bi  Bi8  1  0.75610435  0.08461568  0.25377085  1.0
  Bi  Bi9  1  0.91538432  -0.75610435  0.75377085  1.0
  Bi  Bi10  1  1.08461568  0.75610435  0.24622915  1.0
  Bi  Bi11  1  1.24389565  -0.08461568  0.74622915  1.0
  P  P12  1  1.90143712  0.00084567  0.19355579  1.0
  P  P13  1  0.99915433  -0.90143712  0.69355579  1.0
  P  P14  1  1.00084567  0.90143712  0.30644421  1.0
  P  P15  1  0.09856288  -0.00084567  0.80644421  1.0
  P  P16  1  0.63642138  0.30647512  0.13880760  1.0
  P  P17  1  0.69352488  -0.63642138  0.63880760  1.0
  P  P18  1  1.30647512  0.63642138  0.36119240  1.0
  P  P19  1  1.36357862  -0.30647512  0.86119240  1.0
  S  S20  1  1.92084653  -0.01525702  0.10215747  1.0
  S  S21  1  1.01525702  -0.92084653  0.60215747  1.0
  S  S22  1  0.98474298  0.92084653  0.39784253  1.0
  S  S23  1  0.07915347  0.01525702  0.89784253  1.0
  S  S24  1  0.60310134  -0.19183648  0.41025788  1.0
  S  S25  1  1.19183648  -0.60310134  0.91025788  1.0
  S  S26  1  0.80816352  0.60310134  0.08974212  1.0
  S  S27  1  1.39689866  0.19183648  0.58974212  1.0
  S  S28  1  1.60382996  -0.20513640  0.19955661  1.0
  S  S29  1  1.20513640  -0.60382996  0.69955661  1.0
  S  S30  1  0.79486360  0.60382996  0.30044339  1.0
  S  S31  1  0.39617004  0.20513640  0.80044339  1.0
  S  S32  1  0.29731012  -0.26876490  0.23789563  1.0
  S  S33  1  1.26876490  -0.29731012  0.73789563  1.0
  S  S34  1  0.73123510  0.29731012  0.26210437  1.0
  S  S35  1  1.70268988  0.26876490  0.76210437  1.0
  S  S36  1  0.69059309  0.22826392  0.09860394  1.0
  S  S37  1  0.77173608  -0.69059309  0.59860394  1.0
  S  S38  1  1.22826392  0.69059309  0.40139606  1.0
  S  S39  1  1.30940691  -0.22826392  0.90139606  1.0
  S  S40  1  0.33053005  0.11162710  0.10824487  1.0
  S  S41  1  0.88837290  -0.33053005  0.60824487  1.0
  S  S42  1  1.11162710  0.33053005  0.39175513  1.0
  S  S43  1  1.66946995  -0.11162710  0.89175513  1.0
  S  S44  1  0.28816554  0.08851365  0.29981628  1.0
  S  S45  1  0.91148635  0.71183446  0.79981628  1.0
  S  S46  1  1.08851365  -0.71183446  0.20018372  1.0
  S  S47  1  1.71183446  -0.08851365  0.70018372  1.0
