# generated using pymatgen
data_CoP
_symmetry_space_group_name_H-M   'P 1'
_cell_length_a   5.06291458
_cell_length_b   3.26893174
_cell_length_c   5.53606317
_cell_angle_alpha   90.00000000
_cell_angle_beta   90.00000000
_cell_angle_gamma   90.00000000
_symmetry_Int_Tables_number   1
_chemical_formula_structural   CoP
_chemical_formula_sum   'Co4 P4'
_cell_volume   91.62362915
_cell_formula_units_Z   4
loop_
 _symmetry_equiv_pos_site_id
 _symmetry_equiv_pos_as_xyz
  1  'x, y, z'
loop_
 _atom_site_type_symbol
 _atom_site_label
 _atom_site_symmetry_multiplicity
 _atom_site_fract_x
 _atom_site_fract_y
 _atom_site_fract_z
 _atom_site_occupancy
  Co  Co0  1  0.99970395  0.75000000  0.19616080  1.0
  Co  Co1  1  0.49970395  0.75000000  0.30383920  1.0
  Co  Co2  1  0.00029605  0.25000000  0.80383920  1.0
  Co  Co3  1  0.50029605  0.25000000  0.69616080  1.0
  P  P4  1  0.80894014  0.75000000  0.58244196  1.0
  P  P5  1  0.30894014  0.75000000  0.91755804  1.0
  P  P6  1  0.19105986  0.25000000  0.41755804  1.0
  P  P7  1  0.69105986  0.25000000  0.08244196  1.0
