# generated using pymatgen
data_La16Al13
_symmetry_space_group_name_H-M   'P 1'
_cell_length_a   9.16233500
_cell_length_b   9.16233500
_cell_length_c   11.24324469
_cell_angle_alpha   90.00000000
_cell_angle_beta   90.00000000
_cell_angle_gamma   120.00000000
_symmetry_Int_Tables_number   1
_chemical_formula_structural   La16Al13
_chemical_formula_sum   'La16 Al13'
_cell_volume   817.39999014
_cell_formula_units_Z   1
loop_
 _symmetry_equiv_pos_site_id
 _symmetry_equiv_pos_as_xyz
  1  'x, y, z'
loop_
 _atom_site_type_symbol
 _atom_site_label
 _atom_site_symmetry_multiplicity
 _atom_site_fract_x
 _atom_site_fract_y
 _atom_site_fract_z
 _atom_site_occupancy
  La  La0  1  0.38725865  0.38725865  0.83705148  1.0
  La  La1  1  0.38725865  0.38725865  0.16294852  1.0
  La  La2  1  -0.00000000  0.61274135  0.83705148  1.0
  La  La3  1  -0.00000000  0.61274135  0.16294852  1.0
  La  La4  1  0.61274135  0.00000000  0.83705148  1.0
  La  La5  1  0.61274135  0.00000000  0.16294852  1.0
  La  La6  1  0.33333333  0.66666667  0.66210694  1.0
  La  La7  1  0.33333333  0.66666667  0.33789306  1.0
  La  La8  1  0.66666667  0.33333333  0.66210694  1.0
  La  La9  1  0.66666667  0.33333333  0.33789306  1.0
  La  La10  1  0.22877761  0.22877761  0.50000000  1.0
  La  La11  1  0.00000000  0.77122239  0.50000000  1.0
  La  La12  1  0.77122239  0.00000000  0.50000000  1.0
  La  La13  1  0.73949279  0.73949279  0.00000000  1.0
  La  La14  1  0.00000000  0.26050721  0.00000000  1.0
  La  La15  1  0.26050721  0.00000000  0.00000000  1.0
  Al  Al16  1  0.71404816  0.71404816  0.71044161  1.0
  Al  Al17  1  0.71404816  0.71404816  0.28955839  1.0
  Al  Al18  1  0.00000000  0.28595184  0.71044161  1.0
  Al  Al19  1  0.00000000  0.28595184  0.28955839  1.0
  Al  Al20  1  0.28595184  0.00000000  0.71044161  1.0
  Al  Al21  1  0.28595184  0.00000000  0.28955839  1.0
  Al  Al22  1  0.57907070  0.57907070  0.50000000  1.0
  Al  Al23  1  -0.00000000  0.42092930  0.50000000  1.0
  Al  Al24  1  0.42092930  0.00000000  0.50000000  1.0
  Al  Al25  1  0.00000000  0.00000000  0.76416510  1.0
  Al  Al26  1  0.00000000  0.00000000  0.23583490  1.0
  Al  Al27  1  0.33333333  0.66666667  0.00000000  1.0
  Al  Al28  1  0.66666667  0.33333333  0.00000000  1.0
