# generated using pymatgen
data_LiSn
_symmetry_space_group_name_H-M   'P 1'
_cell_length_a   13.40820131
_cell_length_b   13.40820131
_cell_length_c   13.40820131
_cell_angle_alpha   160.93293875
_cell_angle_beta   160.93293875
_cell_angle_gamma   27.09233486
_symmetry_Int_Tables_number   1
_chemical_formula_structural   LiSn
_chemical_formula_sum   'Li6 Sn6'
_cell_volume   257.13991353
_cell_formula_units_Z   6
loop_
 _symmetry_equiv_pos_site_id
 _symmetry_equiv_pos_as_xyz
  1  'x, y, z'
loop_
 _atom_site_type_symbol
 _atom_site_label
 _atom_site_symmetry_multiplicity
 _atom_site_fract_x
 _atom_site_fract_y
 _atom_site_fract_z
 _atom_site_occupancy
  Li  Li0  1  0.58676676  0.08676676  0.50000000  1.0
  Li  Li1  1  0.83676676  0.83676676  0.00000000  1.0
  Li  Li2  1  1.16323324  1.16323324  1.00000000  1.0
  Li  Li3  1  0.91323324  1.41323324  0.50000000  1.0
  Li  Li4  1  0.00000000  0.00000000  0.00000000  1.0
  Li  Li5  1  0.75000000  1.25000000  0.50000000  1.0
  Sn  Sn6  1  0.50000000  0.50000000  1.00000000  1.0
  Sn  Sn7  1  1.25000000  0.75000000  0.50000000  1.0
  Sn  Sn8  1  1.41992788  0.91992788  0.50000000  1.0
  Sn  Sn9  1  0.66992788  0.66992788  -0.00000000  1.0
  Sn  Sn10  1  1.33007212  1.33007212  1.00000000  1.0
  Sn  Sn11  1  0.08007212  0.58007212  0.50000000  1.0
