# generated using pymatgen
data_AlO3
_symmetry_space_group_name_H-M   'P 1'
_cell_length_a   9.50775839
_cell_length_b   5.48884554
_cell_length_c   12.15150530
_cell_angle_alpha   90.00000000
_cell_angle_beta   122.36573519
_cell_angle_gamma   90.00000000
_symmetry_Int_Tables_number   1
_chemical_formula_structural   AlO3
_chemical_formula_sum   'Al8 O24'
_cell_volume   535.63025129
_cell_formula_units_Z   8
loop_
 _symmetry_equiv_pos_site_id
 _symmetry_equiv_pos_as_xyz
  1  'x, y, z'
loop_
 _atom_site_type_symbol
 _atom_site_label
 _atom_site_symmetry_multiplicity
 _atom_site_fract_x
 _atom_site_fract_y
 _atom_site_fract_z
 _atom_site_occupancy
  Al  Al0  1  0.83337684  0.49927166  0.50003669  1.0
  Al  Al1  1  0.83337684  0.00072834  0.00003669  1.0
  Al  Al2  1  0.16662316  0.99927166  0.99996331  1.0
  Al  Al3  1  0.16662316  0.50072834  0.49996331  1.0
  Al  Al4  1  0.66664651  0.99946272  0.49999603  1.0
  Al  Al5  1  0.66664651  0.50053728  0.99999603  1.0
  Al  Al6  1  0.33335349  0.49946272  0.00000397  1.0
  Al  Al7  1  0.33335349  0.00053728  0.50000397  1.0
  O  O8  1  0.85120363  0.28962886  0.09086965  1.0
  O  O9  1  0.85120363  0.21037114  0.59086965  1.0
  O  O10  1  0.14879637  0.78962886  0.40913035  1.0
  O  O11  1  0.14879637  0.71037114  0.90913035  1.0
  O  O12  1  0.93780434  0.42262114  0.40899316  1.0
  O  O13  1  0.93780434  0.07737886  0.90899316  1.0
  O  O14  1  0.06219566  0.92262114  0.09100684  1.0
  O  O15  1  0.06219566  0.57737886  0.59100684  1.0
  O  O16  1  0.72630543  0.78789398  0.40902753  1.0
  O  O17  1  0.72630543  0.71210602  0.90902753  1.0
  O  O18  1  0.27369457  0.28789398  0.09097247  1.0
  O  O19  1  0.27369457  0.21210602  0.59097247  1.0
  O  O20  1  0.56237945  0.42262404  0.09100718  1.0
  O  O21  1  0.56237945  0.07737596  0.59100718  1.0
  O  O22  1  0.43762055  0.92262404  0.40899282  1.0
  O  O23  1  0.43762055  0.57737596  0.90899282  1.0
  O  O24  1  0.64904326  0.28806578  0.40900372  1.0
  O  O25  1  0.64904326  0.21193422  0.90900372  1.0
  O  O26  1  0.35095674  0.78806578  0.09099628  1.0
  O  O27  1  0.35095674  0.71193422  0.59099628  1.0
  O  O28  1  0.22672193  0.28944491  0.40916612  1.0
  O  O29  1  0.22672193  0.21055509  0.90916612  1.0
  O  O30  1  0.77327807  0.78944491  0.09083388  1.0
  O  O31  1  0.77327807  0.71055509  0.59083388  1.0
