# generated using pymatgen
data_Ba5Si(Cl3O2)2
_symmetry_space_group_name_H-M   'P 1'
_cell_length_a   8.90009520
_cell_length_b   8.90009520
_cell_length_c   11.80407250
_cell_angle_alpha   82.33234851
_cell_angle_beta   97.66765149
_cell_angle_gamma   65.70358881
_symmetry_Int_Tables_number   1
_chemical_formula_structural   Ba5Si(Cl3O2)2
_chemical_formula_sum   'Ba10 Si2 Cl12 O8'
_cell_volume   826.02466346
_cell_formula_units_Z   2
loop_
 _symmetry_equiv_pos_site_id
 _symmetry_equiv_pos_as_xyz
  1  'x, y, z'
loop_
 _atom_site_type_symbol
 _atom_site_label
 _atom_site_symmetry_multiplicity
 _atom_site_fract_x
 _atom_site_fract_y
 _atom_site_fract_z
 _atom_site_occupancy
  Ba  Ba0  1  1.57735547  0.26436249  0.13403473  1.0
  Ba  Ba1  1  0.73563751  -0.57735547  0.63403473  1.0
  Ba  Ba2  1  1.26436249  0.57735547  0.36596527  1.0
  Ba  Ba3  1  0.42264453  -0.26436249  0.86596527  1.0
  Ba  Ba4  1  1.18680049  0.06761343  0.48023015  1.0
  Ba  Ba5  1  0.93238657  -0.18680049  0.98023015  1.0
  Ba  Ba6  1  1.06761343  0.18680049  0.01976985  1.0
  Ba  Ba7  1  0.81319951  -0.06761343  0.51976985  1.0
  Ba  Ba8  1  0.70143347  -0.29856653  0.25000000  1.0
  Ba  Ba9  1  1.29856653  0.29856653  0.75000000  1.0
  Si  Si10  1  0.92239574  -0.07760426  0.25000000  1.0
  Si  Si11  1  1.07760426  0.07760426  0.75000000  1.0
  Cl  Cl12  1  0.52152318  -0.22030709  0.45221334  1.0
  Cl  Cl13  1  1.22030709  0.47847682  0.95221334  1.0
  Cl  Cl14  1  0.77969291  -0.47847682  0.04778666  1.0
  Cl  Cl15  1  1.47847682  0.22030709  0.54778666  1.0
  Cl  Cl16  1  0.35778045  -0.30135052  0.13401890  1.0
  Cl  Cl17  1  1.30135052  0.64221955  0.63401890  1.0
  Cl  Cl18  1  0.69864948  -0.64221955  0.36598110  1.0
  Cl  Cl19  1  1.64221955  0.30135052  0.86598110  1.0
  Cl  Cl20  1  1.25680310  0.25680310  0.25000000  1.0
  Cl  Cl21  1  0.74319690  -0.25680310  0.75000000  1.0
  Cl  Cl22  1  1.50000000  -0.00000000  0.00000000  1.0
  Cl  Cl23  1  1.00000000  -0.50000000  0.50000000  1.0
  O  O24  1  1.90175831  0.05750623  0.13199502  1.0
  O  O25  1  0.94249377  -0.90175831  0.63199502  1.0
  O  O26  1  1.05750623  0.90175831  0.36800498  1.0
  O  O27  1  0.09824169  -0.05750623  0.86800498  1.0
  O  O28  1  0.73558249  -0.02368934  0.28630413  1.0
  O  O29  1  1.02368934  0.26441751  0.78630413  1.0
  O  O30  1  0.97631066  -0.26441751  0.21369587  1.0
  O  O31  1  1.26441751  0.02368934  0.71369587  1.0
