# generated using pymatgen
data_Ba2Na(CuO2)3
_symmetry_space_group_name_H-M   'P 1'
_cell_length_a   9.30714381
_cell_length_b   8.46386606
_cell_length_c   7.14595414
_cell_angle_alpha   72.64697320
_cell_angle_beta   60.22747126
_cell_angle_gamma   47.12555554
_symmetry_Int_Tables_number   1
_chemical_formula_structural   Ba2Na(CuO2)3
_chemical_formula_sum   'Ba4 Na2 Cu6 O12'
_cell_volume   357.38550027
_cell_formula_units_Z   2
loop_
 _symmetry_equiv_pos_site_id
 _symmetry_equiv_pos_as_xyz
  1  'x, y, z'
loop_
 _atom_site_type_symbol
 _atom_site_label
 _atom_site_symmetry_multiplicity
 _atom_site_fract_x
 _atom_site_fract_y
 _atom_site_fract_z
 _atom_site_occupancy
  Ba  Ba0  1  -0.26771904  0.26771904  0.73228096  1.0
  Ba  Ba1  1  0.26771904  -0.26771904  1.26771904  1.0
  Ba  Ba2  1  -0.25000000  0.75000000  0.75000000  1.0
  Ba  Ba3  1  0.25000000  0.25000000  1.25000000  1.0
  Cu  Cu4  1  -0.80795618  0.80795618  0.80795618  1.0
  Cu  Cu5  1  -0.19204382  0.19204382  0.19204382  1.0
  Cu  Cu6  1  -0.50214308  0.79952028  0.50214308  1.0
  Cu  Cu7  1  -0.49785692  1.20047972  0.49785692  1.0
  Cu  Cu8  1  0.20047972  0.50214308  -0.20047972  1.0
  Cu  Cu9  1  -0.20047972  0.49785692  0.20047972  1.0
  O  O10  1  1.19327839  -0.57216340  0.57216340  1.0
  O  O11  1  -0.19327839  0.57216340  0.42783660  1.0
  O  O12  1  0.57216340  -0.19327839  1.19327839  1.0
  O  O13  1  0.42783660  0.19327839  -0.19327839  1.0
  O  O14  1  0.18386323  0.00075712  1.59165015  1.0
  O  O15  1  -0.18386323  0.99924288  0.40834985  1.0
  O  O16  1  -0.00075712  0.81613677  0.77627050  1.0
  O  O17  1  0.00075712  0.18386323  1.22372950  1.0
  O  O18  1  0.22372950  0.59165015  1.00075712  1.0
  O  O19  1  -0.59165015  0.77627050  0.81613677  1.0
  O  O20  1  0.59165015  0.22372950  1.18386323  1.0
  O  O21  1  -0.22372950  0.40834985  0.99924288  1.0
  Na  Na22  1  -0.16892430  0.83107570  0.16892430  1.0
  Na  Na23  1  0.16892430  0.16892430  -0.16892430  1.0
