# generated using pymatgen
data_CuP2PbO7
_symmetry_space_group_name_H-M   'P 1'
_cell_length_a   5.56123808
_cell_length_b   8.29723117
_cell_length_c   13.81029017
_cell_angle_alpha   90.00000000
_cell_angle_beta   112.69331689
_cell_angle_gamma   90.00000000
_symmetry_Int_Tables_number   1
_chemical_formula_structural   CuP2PbO7
_chemical_formula_sum   'Cu4 P8 Pb4 O28'
_cell_volume   587.91287964
_cell_formula_units_Z   4
loop_
 _symmetry_equiv_pos_site_id
 _symmetry_equiv_pos_as_xyz
  1  'x, y, z'
loop_
 _atom_site_type_symbol
 _atom_site_label
 _atom_site_symmetry_multiplicity
 _atom_site_fract_x
 _atom_site_fract_y
 _atom_site_fract_z
 _atom_site_occupancy
  Cu  Cu0  1  0.67062716  0.85730616  0.38767692  1.0
  Cu  Cu1  1  0.67062716  0.64269384  0.88767692  1.0
  Cu  Cu2  1  0.32937284  0.35730616  0.11232308  1.0
  Cu  Cu3  1  0.32937284  0.14269384  0.61232308  1.0
  P  P4  1  0.66799859  0.19638736  0.48719954  1.0
  P  P5  1  0.66799859  0.30361264  0.98719954  1.0
  P  P6  1  0.33200141  0.69638736  0.01280046  1.0
  P  P7  1  0.33200141  0.80361264  0.51280046  1.0
  P  P8  1  0.59091488  0.46535555  0.33721513  1.0
  P  P9  1  0.59091488  0.03464445  0.83721513  1.0
  P  P10  1  0.40908512  0.96535555  0.16278487  1.0
  P  P11  1  0.40908512  0.53464445  0.66278487  1.0
  Pb  Pb12  1  0.98457793  0.17359359  0.27504282  1.0
  Pb  Pb13  1  0.98457793  0.32640641  0.77504282  1.0
  Pb  Pb14  1  0.01542207  0.67359359  0.22495718  1.0
  Pb  Pb15  1  0.01542207  0.82640641  0.72495718  1.0
  O  O16  1  0.88322903  0.31382000  0.09646817  1.0
  O  O17  1  0.88322903  0.18618000  0.59646817  1.0
  O  O18  1  0.11677097  0.81382000  0.40353183  1.0
  O  O19  1  0.11677097  0.68618000  0.90353183  1.0
  O  O20  1  0.82093965  0.44622692  0.30305328  1.0
  O  O21  1  0.82093965  0.05377308  0.80305328  1.0
  O  O22  1  0.17906035  0.94622692  0.19694672  1.0
  O  O23  1  0.17906035  0.55377308  0.69694672  1.0
  O  O24  1  0.72282349  0.09457729  0.40330716  1.0
  O  O25  1  0.72282349  0.40542271  0.90330716  1.0
  O  O26  1  0.27717651  0.59457729  0.09669284  1.0
  O  O27  1  0.27717651  0.90542271  0.59669284  1.0
  O  O28  1  0.67178772  0.38466900  0.45162773  1.0
  O  O29  1  0.67178772  0.11533100  0.95162773  1.0
  O  O30  1  0.32821228  0.88466900  0.04837227  1.0
  O  O31  1  0.32821228  0.61533100  0.54837227  1.0
  O  O32  1  0.48215411  0.14142564  0.15205905  1.0
  O  O33  1  0.48215411  0.35857436  0.65205905  1.0
  O  O34  1  0.51784589  0.64142564  0.34794095  1.0
  O  O35  1  0.51784589  0.85857436  0.84794095  1.0
  O  O36  1  0.38633922  0.16461792  0.48046015  1.0
  O  O37  1  0.38633922  0.33538208  0.98046015  1.0
  O  O38  1  0.61366078  0.66461792  0.01953985  1.0
  O  O39  1  0.61366078  0.83538208  0.51953985  1.0
  O  O40  1  0.33956761  0.37922898  0.26139278  1.0
  O  O41  1  0.33956761  0.12077102  0.76139278  1.0
  O  O42  1  0.66043239  0.87922898  0.23860722  1.0
  O  O43  1  0.66043239  0.62077102  0.73860722  1.0
