# generated using pymatgen
data_LiTi4(GeO6)2
_symmetry_space_group_name_H-M   'P 1'
_cell_length_a   12.17521751
_cell_length_b   12.17521751
_cell_length_c   4.90326338
_cell_angle_alpha   90.00000000
_cell_angle_beta   90.00000000
_cell_angle_gamma   90.00000000
_symmetry_Int_Tables_number   1
_chemical_formula_structural   LiTi4(GeO6)2
_chemical_formula_sum   'Li2 Ti8 Ge4 O24'
_cell_volume   726.83976555
_cell_formula_units_Z   2
loop_
 _symmetry_equiv_pos_site_id
 _symmetry_equiv_pos_as_xyz
  1  'x, y, z'
loop_
 _atom_site_type_symbol
 _atom_site_label
 _atom_site_symmetry_multiplicity
 _atom_site_fract_x
 _atom_site_fract_y
 _atom_site_fract_z
 _atom_site_occupancy
  Li  Li0  1  0.50000000  0.50000000  0.00000000  1.0
  Li  Li1  1  0.00000000  0.00000000  0.00000000  1.0
  Ti  Ti2  1  0.14835045  0.35164955  0.08972575  1.0
  Ti  Ti3  1  0.14835045  0.64835045  0.08972575  1.0
  Ti  Ti4  1  0.64835045  0.85164955  0.91027425  1.0
  Ti  Ti5  1  0.64835045  0.14835045  0.91027425  1.0
  Ti  Ti6  1  0.35164955  0.14835045  0.91027425  1.0
  Ti  Ti7  1  0.35164955  0.85164955  0.91027425  1.0
  Ti  Ti8  1  0.85164955  0.64835045  0.08972575  1.0
  Ti  Ti9  1  0.85164955  0.35164955  0.08972575  1.0
  Ge  Ge10  1  0.75000000  0.25000000  0.50000000  1.0
  Ge  Ge11  1  0.75000000  0.75000000  0.50000000  1.0
  Ge  Ge12  1  0.25000000  0.75000000  0.50000000  1.0
  Ge  Ge13  1  0.25000000  0.25000000  0.50000000  1.0
  O  O14  1  0.22636186  0.87679068  -0.25911016  1.0
  O  O15  1  0.22636186  0.12320932  -0.25911016  1.0
  O  O16  1  0.72636186  0.37679068  1.25911016  1.0
  O  O17  1  0.72636186  0.62320932  1.25911016  1.0
  O  O18  1  0.87679068  0.22636186  1.25911016  1.0
  O  O19  1  0.87679068  0.77363814  1.25911016  1.0
  O  O20  1  0.37679068  0.72636186  -0.25911016  1.0
  O  O21  1  0.37679068  0.27363814  -0.25911016  1.0
  O  O22  1  0.77363814  0.87679068  -0.25911016  1.0
  O  O23  1  0.77363814  0.12320932  -0.25911016  1.0
  O  O24  1  0.27363814  0.37679068  1.25911016  1.0
  O  O25  1  0.27363814  0.62320932  1.25911016  1.0
  O  O26  1  0.12320932  0.22636186  1.25911016  1.0
  O  O27  1  0.12320932  0.77363814  1.25911016  1.0
  O  O28  1  0.62320932  0.72636186  -0.25911016  1.0
  O  O29  1  0.62320932  0.27363814  -0.25911016  1.0
  O  O30  1  0.16222145  0.33777855  0.72903075  1.0
  O  O31  1  0.16222145  0.66222145  0.72903075  1.0
  O  O32  1  0.66222145  0.83777855  0.27096925  1.0
  O  O33  1  0.66222145  0.16222145  0.27096925  1.0
  O  O34  1  0.33777855  0.16222145  0.27096925  1.0
  O  O35  1  0.33777855  0.83777855  0.27096925  1.0
  O  O36  1  0.83777855  0.66222145  0.72903075  1.0
  O  O37  1  0.83777855  0.33777855  0.72903075  1.0
