# generated using pymatgen
data_BaLa2WO7
_symmetry_space_group_name_H-M   'P 1'
_cell_length_a   9.02950923
_cell_length_b   5.88914364
_cell_length_c   12.94180133
_cell_angle_alpha   90.00000000
_cell_angle_beta   104.97876828
_cell_angle_gamma   90.00000000
_symmetry_Int_Tables_number   1
_chemical_formula_structural   BaLa2WO7
_chemical_formula_sum   'Ba4 La8 W4 O28'
_cell_volume   664.81053054
_cell_formula_units_Z   4
loop_
 _symmetry_equiv_pos_site_id
 _symmetry_equiv_pos_as_xyz
  1  'x, y, z'
loop_
 _atom_site_type_symbol
 _atom_site_label
 _atom_site_symmetry_multiplicity
 _atom_site_fract_x
 _atom_site_fract_y
 _atom_site_fract_z
 _atom_site_occupancy
  Ba  Ba0  1  0.98583345  0.47740178  0.13575387  1.0
  Ba  Ba1  1  0.98583345  0.02259822  0.63575387  1.0
  Ba  Ba2  1  0.01416655  0.97740178  0.36424613  1.0
  Ba  Ba3  1  0.01416655  0.52259822  0.86424613  1.0
  La  La4  1  0.56763139  0.01967721  0.36953676  1.0
  La  La5  1  0.56763139  0.48032279  0.86953676  1.0
  La  La6  1  0.43236861  0.51967721  0.13046324  1.0
  La  La7  1  0.43236861  0.98032279  0.63046324  1.0
  La  La8  1  0.30392047  0.48566845  0.41801656  1.0
  La  La9  1  0.30392047  0.01433155  0.91801656  1.0
  La  La10  1  0.69607953  0.98566845  0.08198344  1.0
  La  La11  1  0.69607953  0.51433155  0.58198344  1.0
  W  W12  1  0.77982617  0.46832811  0.33525753  1.0
  W  W13  1  0.77982617  0.03167189  0.83525753  1.0
  W  W14  1  0.22017383  0.96832811  0.16474247  1.0
  W  W15  1  0.22017383  0.53167189  0.66474247  1.0
  O  O16  1  0.99382523  0.46743709  0.34233751  1.0
  O  O17  1  0.99382523  0.03256291  0.84233751  1.0
  O  O18  1  0.00617477  0.96743709  0.15766249  1.0
  O  O19  1  0.00617477  0.53256291  0.65766249  1.0
  O  O20  1  0.80446432  0.26062830  0.45862390  1.0
  O  O21  1  0.80446432  0.23937170  0.95862390  1.0
  O  O22  1  0.19553568  0.76062830  0.04137610  1.0
  O  O23  1  0.19553568  0.73937170  0.54137610  1.0
  O  O24  1  0.79045755  0.72716739  0.42692008  1.0
  O  O25  1  0.79045755  0.77283261  0.92692008  1.0
  O  O26  1  0.20954245  0.22716739  0.07307992  1.0
  O  O27  1  0.20954245  0.27283261  0.57307992  1.0
  O  O28  1  0.75871453  0.17955726  0.25178519  1.0
  O  O29  1  0.75871453  0.32044274  0.75178519  1.0
  O  O30  1  0.24128547  0.67955726  0.24821481  1.0
  O  O31  1  0.24128547  0.82044274  0.74821481  1.0
  O  O32  1  0.55697071  0.44325411  0.31765360  1.0
  O  O33  1  0.55697071  0.05674589  0.81765360  1.0
  O  O34  1  0.44302929  0.94325411  0.18234640  1.0
  O  O35  1  0.44302929  0.55674589  0.68234640  1.0
  O  O36  1  0.50504162  0.25882820  0.01087485  1.0
  O  O37  1  0.50504162  0.24117180  0.51087485  1.0
  O  O38  1  0.49495838  0.75882820  0.48912515  1.0
  O  O39  1  0.49495838  0.74117180  0.98912515  1.0
  O  O40  1  0.26426360  0.13735353  0.29669664  1.0
  O  O41  1  0.26426360  0.36264647  0.79669664  1.0
  O  O42  1  0.73573640  0.63735353  0.20330336  1.0
  O  O43  1  0.73573640  0.86264647  0.70330336  1.0
