# generated using pymatgen
data_Lu(Ni2P)2
_symmetry_space_group_name_H-M   'P 1'
_cell_length_a   7.04592710
_cell_length_b   7.04592710
_cell_length_c   3.58812712
_cell_angle_alpha   90.00000000
_cell_angle_beta   90.00000000
_cell_angle_gamma   90.00000000
_symmetry_Int_Tables_number   1
_chemical_formula_structural   Lu(Ni2P)2
_chemical_formula_sum   'Lu2 Ni8 P4'
_cell_volume   178.13288913
_cell_formula_units_Z   2
loop_
 _symmetry_equiv_pos_site_id
 _symmetry_equiv_pos_as_xyz
  1  'x, y, z'
loop_
 _atom_site_type_symbol
 _atom_site_label
 _atom_site_symmetry_multiplicity
 _atom_site_fract_x
 _atom_site_fract_y
 _atom_site_fract_z
 _atom_site_occupancy
  Lu  Lu0  1  0.50000000  0.50000000  0.50000000  1.0
  Lu  Lu1  1  0.00000000  0.00000000  0.00000000  1.0
  Ni  Ni2  1  0.33467718  0.08356469  0.50000000  1.0
  Ni  Ni3  1  0.83467718  0.41643531  0.00000000  1.0
  Ni  Ni4  1  0.91643531  0.66532282  0.50000000  1.0
  Ni  Ni5  1  0.41643531  0.83467718  0.00000000  1.0
  Ni  Ni6  1  0.66532282  0.91643531  0.50000000  1.0
  Ni  Ni7  1  0.16532282  0.58356469  0.00000000  1.0
  Ni  Ni8  1  0.08356469  0.33467718  0.50000000  1.0
  Ni  Ni9  1  0.58356469  0.16532282  0.00000000  1.0
  P  P10  1  0.22028033  0.77971967  0.50000000  1.0
  P  P11  1  0.72028033  0.72028033  0.00000000  1.0
  P  P12  1  0.77971967  0.22028033  0.50000000  1.0
  P  P13  1  0.27971967  0.27971967  0.00000000  1.0
