# generated using pymatgen
data_CuPO5
_symmetry_space_group_name_H-M   'P 1'
_cell_length_a   6.18972900
_cell_length_b   7.65209474
_cell_length_c   8.13833707
_cell_angle_alpha   90.00000000
_cell_angle_beta   95.52403766
_cell_angle_gamma   90.00000000
_symmetry_Int_Tables_number   1
_chemical_formula_structural   CuPO5
_chemical_formula_sum   'Cu4 P4 O20'
_cell_volume   383.67724403
_cell_formula_units_Z   4
loop_
 _symmetry_equiv_pos_site_id
 _symmetry_equiv_pos_as_xyz
  1  'x, y, z'
loop_
 _atom_site_type_symbol
 _atom_site_label
 _atom_site_symmetry_multiplicity
 _atom_site_fract_x
 _atom_site_fract_y
 _atom_site_fract_z
 _atom_site_occupancy
  P  P0  1  0.77260144  0.22739059  0.21620326  1.0
  P  P1  1  0.77260144  0.27260941  0.71620326  1.0
  P  P2  1  0.22739856  0.72739059  0.28379674  1.0
  P  P3  1  0.22739856  0.77260941  0.78379674  1.0
  O  O4  1  0.77444100  0.40621377  0.30300602  1.0
  O  O5  1  0.77444100  0.09378623  0.80300602  1.0
  O  O6  1  0.22555900  0.90621377  0.19699398  1.0
  O  O7  1  0.22555900  0.59378623  0.69699398  1.0
  O  O8  1  0.24125455  0.41788402  0.39962061  1.0
  O  O9  1  0.24125455  0.08211598  0.89962061  1.0
  O  O10  1  0.75874545  0.91788402  0.10037939  1.0
  O  O11  1  0.75874545  0.58211598  0.60037939  1.0
  O  O12  1  0.77697698  0.06919655  0.33830168  1.0
  O  O13  1  0.77697698  0.43080345  0.83830168  1.0
  O  O14  1  0.22302302  0.56919655  0.16169832  1.0
  O  O15  1  0.22302302  0.93080345  0.66169832  1.0
  O  O16  1  0.97509207  0.21474742  0.11364870  1.0
  O  O17  1  0.97509207  0.28525258  0.61364870  1.0
  O  O18  1  0.02490793  0.71474742  0.38635130  1.0
  O  O19  1  0.02490793  0.78525258  0.88635130  1.0
  O  O20  1  0.55331707  0.21650691  0.10082714  1.0
  O  O21  1  0.55331707  0.28349309  0.60082714  1.0
  O  O22  1  0.44668293  0.71650691  0.39917286  1.0
  O  O23  1  0.44668293  0.78349309  0.89917286  1.0
  Cu  Cu24  1  0.50000000  0.50000000  0.50000000  1.0
  Cu  Cu25  1  0.50000000  0.00000000  -0.00000000  1.0
  Cu  Cu26  1  -0.00000000  0.50000000  0.50000000  1.0
  Cu  Cu27  1  0.00000000  0.00000000  0.00000000  1.0
