# generated using pymatgen
data_SnH12Pt(N2Cl3)2
_symmetry_space_group_name_H-M   'P 1'
_cell_length_a   8.09214424
_cell_length_b   8.09214424
_cell_length_c   11.70410919
_cell_angle_alpha   90.00000000
_cell_angle_beta   90.00000000
_cell_angle_gamma   84.23019723
_symmetry_Int_Tables_number   1
_chemical_formula_structural   SnH12Pt(N2Cl3)2
_chemical_formula_sum   'Sn2 H24 Pt2 N8 Cl12'
_cell_volume   762.53502168
_cell_formula_units_Z   2
loop_
 _symmetry_equiv_pos_site_id
 _symmetry_equiv_pos_as_xyz
  1  'x, y, z'
loop_
 _atom_site_type_symbol
 _atom_site_label
 _atom_site_symmetry_multiplicity
 _atom_site_fract_x
 _atom_site_fract_y
 _atom_site_fract_z
 _atom_site_occupancy
  Sn  Sn0  1  -0.50000000  0.50000000  0.00000000  1.0
  Sn  Sn1  1  -0.00000000  1.00000000  0.50000000  1.0
  H  H2  1  -0.02070766  0.82704406  0.81101042  1.0
  H  H3  1  -0.17295594  0.97929234  0.18898958  1.0
  H  H4  1  0.32704406  1.47929234  0.31101042  1.0
  H  H5  1  0.47929234  1.32704406  0.68898958  1.0
  H  H6  1  0.02070766  1.17295594  0.18898958  1.0
  H  H7  1  0.17295594  1.02070766  0.81101042  1.0
  H  H8  1  -0.32704406  0.52070766  0.68898958  1.0
  H  H9  1  -0.47929234  0.67295594  0.31101042  1.0
  H  H10  1  -0.16953338  0.78039220  0.89834462  1.0
  H  H11  1  -0.21960780  0.83046662  0.10165538  1.0
  H  H12  1  0.28039220  1.33046662  0.39834462  1.0
  H  H13  1  0.33046662  1.28039220  0.60165538  1.0
  H  H14  1  0.16953338  1.21960780  0.10165538  1.0
  H  H15  1  0.21960780  1.16953338  0.89834462  1.0
  H  H16  1  -0.28039220  0.66953338  0.60165538  1.0
  H  H17  1  -0.33046662  0.71960780  0.39834462  1.0
  H  H18  1  0.02558367  0.69810580  0.91771523  1.0
  H  H19  1  -0.30189420  1.02558367  0.08228477  1.0
  H  H20  1  0.19810580  0.52558367  0.41771523  1.0
  H  H21  1  -0.47441633  1.19810580  0.58228477  1.0
  H  H22  1  -0.02558367  1.30189420  0.08228477  1.0
  H  H23  1  0.30189420  0.97441633  0.91771523  1.0
  H  H24  1  -0.19810580  1.47441633  0.58228477  1.0
  H  H25  1  0.47441633  0.80189420  0.41771523  1.0
  Pt  Pt26  1  -0.00000000  1.00000000  0.00000000  1.0
  Pt  Pt27  1  -0.50000000  0.50000000  0.50000000  1.0
  N  N28  1  -0.04709980  0.80502805  0.89537004  1.0
  N  N29  1  -0.19497195  0.95290020  0.10462996  1.0
  N  N30  1  0.30502805  1.45290020  0.39537004  1.0
  N  N31  1  0.45290020  1.30502805  0.60462996  1.0
  N  N32  1  0.04709980  1.19497195  0.10462996  1.0
  N  N33  1  0.19497195  1.04709980  0.89537004  1.0
  N  N34  1  -0.30502805  0.54709980  0.60462996  1.0
  N  N35  1  -0.45290020  0.69497195  0.39537004  1.0
  Cl  Cl36  1  -0.24370127  0.53845072  0.11095728  1.0
  Cl  Cl37  1  -0.46154928  0.75629873  0.88904272  1.0
  Cl  Cl38  1  0.03845072  1.25629873  0.61095728  1.0
  Cl  Cl39  1  0.25629873  1.03845072  0.38904272  1.0
  Cl  Cl40  1  0.24370127  1.46154928  0.88904272  1.0
  Cl  Cl41  1  0.46154928  1.24370127  0.11095728  1.0
  Cl  Cl42  1  -0.03845072  0.74370127  0.38904272  1.0
  Cl  Cl43  1  -0.25629873  0.96154928  0.61095728  1.0
  Cl  Cl44  1  -0.33301634  1.33301634  0.85775034  1.0
  Cl  Cl45  1  0.33301634  0.66698366  0.14224966  1.0
  Cl  Cl46  1  -0.16698366  1.16698366  0.35775034  1.0
  Cl  Cl47  1  0.16698366  0.83301634  0.64224966  1.0
