# generated using pymatgen
data_ZrH6O3F4
_symmetry_space_group_name_H-M   'P 1'
_cell_length_a   7.58348755
_cell_length_b   6.71639600
_cell_length_c   5.98461907
_cell_angle_alpha   67.49957619
_cell_angle_beta   74.79659900
_cell_angle_gamma   77.12093846
_symmetry_Int_Tables_number   1
_chemical_formula_structural   ZrH6O3F4
_chemical_formula_sum   'Zr2 H12 O6 F8'
_cell_volume   269.17973121
_cell_formula_units_Z   2
loop_
 _symmetry_equiv_pos_site_id
 _symmetry_equiv_pos_as_xyz
  1  'x, y, z'
loop_
 _atom_site_type_symbol
 _atom_site_label
 _atom_site_symmetry_multiplicity
 _atom_site_fract_x
 _atom_site_fract_y
 _atom_site_fract_z
 _atom_site_occupancy
  Zr  Zr0  1  -0.78369884  -0.65037566  -0.11730988  1.0
  Zr  Zr1  1  -0.21630116  -0.34962434  -0.88269012  1.0
  H  H2  1  -0.52201775  -0.71600264  -0.80624998  1.0
  H  H3  1  -0.47798225  -0.28399736  -0.19375002  1.0
  H  H4  1  -0.56410657  -0.94939505  -0.77132805  1.0
  H  H5  1  -0.43589343  -0.05060495  -0.22867195  1.0
  H  H6  1  -0.82141940  -0.43881769  -0.63876228  1.0
  H  H7  1  -0.17858060  -0.56118231  -0.36123772  1.0
  H  H8  1  -0.65474288  -0.34423497  -0.60803678  1.0
  H  H9  1  -0.34525712  -0.65576503  -0.39196322  1.0
  H  H10  1  -0.77593841  -0.82845784  -0.49352950  1.0
  H  H11  1  -0.22406159  -0.17154216  -0.50647050  1.0
  H  H12  1  -0.93510967  -0.93855212  -0.26017566  1.0
  H  H13  1  -0.06489033  -0.06144788  -0.73982434  1.0
  O  O14  1  -0.62374645  -0.79870192  -0.78401709  1.0
  O  O15  1  -0.37625355  -0.20129808  -0.21598291  1.0
  O  O16  1  -0.75828573  -0.43017239  -0.51955862  1.0
  O  O17  1  -0.24171427  -0.56982761  -0.48044138  1.0
  O  O18  1  -0.84498183  -0.83304982  -0.32671980  1.0
  O  O19  1  -0.15501817  -0.16695018  -0.67328020  1.0
  F  F20  1  -0.90309925  -0.90304694  -0.85944723  1.0
  F  F21  1  -0.09690075  -0.09695306  -0.14055277  1.0
  F  F22  1  -0.35836612  -0.58763709  -0.83697377  1.0
  F  F23  1  -0.64163388  -0.41236291  -0.16302623  1.0
  F  F24  1  -0.93906142  -0.49560061  -0.83542217  1.0
  F  F25  1  -0.06093858  -0.50439939  -0.16457783  1.0
  F  F26  1  -0.52713968  -0.79541212  -0.24911974  1.0
  F  F27  1  -0.47286032  -0.20458788  -0.75088026  1.0
