# generated using pymatgen
data_La2MgCu2
_symmetry_space_group_name_H-M   'P 1'
_cell_length_a   7.92977150
_cell_length_b   7.92977150
_cell_length_c   3.94812069
_cell_angle_alpha   90.00000000
_cell_angle_beta   90.00000000
_cell_angle_gamma   90.00000000
_symmetry_Int_Tables_number   1
_chemical_formula_structural   La2MgCu2
_chemical_formula_sum   'La4 Mg2 Cu4'
_cell_volume   248.26286704
_cell_formula_units_Z   2
loop_
 _symmetry_equiv_pos_site_id
 _symmetry_equiv_pos_as_xyz
  1  'x, y, z'
loop_
 _atom_site_type_symbol
 _atom_site_label
 _atom_site_symmetry_multiplicity
 _atom_site_fract_x
 _atom_site_fract_y
 _atom_site_fract_z
 _atom_site_occupancy
  La  La0  1  0.32697726  0.17302274  0.50000000  1.0
  La  La1  1  0.82697726  0.32697726  0.50000000  1.0
  La  La2  1  0.67302274  0.82697726  0.50000000  1.0
  La  La3  1  0.17302274  0.67302274  0.50000000  1.0
  Mg  Mg4  1  0.50000000  0.50000000  0.00000000  1.0
  Mg  Mg5  1  0.00000000  0.00000000  0.00000000  1.0
  Cu  Cu6  1  0.88028514  0.61971486  0.00000000  1.0
  Cu  Cu7  1  0.38028514  0.88028514  0.00000000  1.0
  Cu  Cu8  1  0.11971486  0.38028514  0.00000000  1.0
  Cu  Cu9  1  0.61971486  0.11971486  0.00000000  1.0
