# generated using pymatgen
data_Fe3OF9
_symmetry_space_group_name_H-M   'P 1'
_cell_length_a   7.51854849
_cell_length_b   7.51854849
_cell_length_c   7.66667591
_cell_angle_alpha   90.00000000
_cell_angle_beta   90.00000000
_cell_angle_gamma   119.66664134
_symmetry_Int_Tables_number   1
_chemical_formula_structural   Fe3OF9
_chemical_formula_sum   'Fe6 O2 F18'
_cell_volume   376.57789632
_cell_formula_units_Z   2
loop_
 _symmetry_equiv_pos_site_id
 _symmetry_equiv_pos_as_xyz
  1  'x, y, z'
loop_
 _atom_site_type_symbol
 _atom_site_label
 _atom_site_symmetry_multiplicity
 _atom_site_fract_x
 _atom_site_fract_y
 _atom_site_fract_z
 _atom_site_occupancy
  Fe  Fe0  1  -0.00000000  1.50000000  0.50000000  1.0
  Fe  Fe1  1  -0.00000000  1.50000000  -0.00000000  1.0
  Fe  Fe2  1  0.50000000  1.00000000  0.00000000  1.0
  Fe  Fe3  1  0.50000000  1.00000000  0.50000000  1.0
  Fe  Fe4  1  0.00000000  0.00000000  0.50000000  1.0
  Fe  Fe5  1  -0.00000000  -0.00000000  0.00000000  1.0
  O  O6  1  0.50605248  0.49394752  0.25000000  1.0
  O  O7  1  -0.50605248  1.50605248  0.75000000  1.0
  F  F8  1  0.07762231  0.28856567  0.46256825  1.0
  F  F9  1  0.07762231  0.28856567  0.03743175  1.0
  F  F10  1  -0.71143433  1.07762231  0.96256825  1.0
  F  F11  1  -0.71143433  1.07762231  0.53743175  1.0
  F  F12  1  0.71143433  0.92237769  0.46256825  1.0
  F  F13  1  0.71143433  0.92237769  0.03743175  1.0
  F  F14  1  -0.07762231  1.71143433  0.96256825  1.0
  F  F15  1  -0.07762231  1.71143433  0.53743175  1.0
  F  F16  1  -0.06108835  1.49420327  0.25000000  1.0
  F  F17  1  0.49420327  0.93891165  0.75000000  1.0
  F  F18  1  -0.49420327  1.06108835  0.25000000  1.0
  F  F19  1  0.06108835  0.50579673  0.75000000  1.0
  F  F20  1  0.28493647  0.71506353  0.45754094  1.0
  F  F21  1  0.28493647  0.71506353  0.04245906  1.0
  F  F22  1  -0.28493647  1.28493647  0.95754094  1.0
  F  F23  1  -0.28493647  1.28493647  0.54245906  1.0
  F  F24  1  0.03261944  0.96738056  0.25000000  1.0
  F  F25  1  -0.03261944  1.03261944  0.75000000  1.0
