# generated using pymatgen
data_Li2CoSnS4
_symmetry_space_group_name_H-M   'P 1'
_cell_length_a   6.39781852
_cell_length_b   6.75250324
_cell_length_c   10.21843194
_cell_angle_alpha   90.00000000
_cell_angle_beta   128.78078151
_cell_angle_gamma   90.00000000
_symmetry_Int_Tables_number   1
_chemical_formula_structural   Li2CoSnS4
_chemical_formula_sum   'Li4 Co2 Sn2 S8'
_cell_volume   344.13107587
_cell_formula_units_Z   2
loop_
 _symmetry_equiv_pos_site_id
 _symmetry_equiv_pos_as_xyz
  1  'x, y, z'
loop_
 _atom_site_type_symbol
 _atom_site_label
 _atom_site_symmetry_multiplicity
 _atom_site_fract_x
 _atom_site_fract_y
 _atom_site_fract_z
 _atom_site_occupancy
  Sn  Sn0  1  0.11653871  0.67203921  0.24324183  1.0
  Sn  Sn1  1  0.11653871  0.32796079  0.74324183  1.0
  Li  Li2  1  0.62523502  0.33611863  0.24628722  1.0
  Li  Li3  1  0.62523502  0.66388137  0.74628722  1.0
  Li  Li4  1  0.37220835  0.15991156  0.49386006  1.0
  Li  Li5  1  0.37220835  0.84008844  0.99386006  1.0
  S  S6  1  -0.01203887  0.14497202  0.49534128  1.0
  S  S7  1  -0.01203887  0.85502798  -0.00465872  1.0
  S  S8  1  0.74746357  0.68439912  0.25716597  1.0
  S  S9  1  0.74746357  0.31560088  0.75716597  1.0
  S  S10  1  0.51440344  0.17496144  0.99443894  1.0
  S  S11  1  0.51440344  0.82503856  0.49443894  1.0
  S  S12  1  0.22565267  0.32757910  0.23168980  1.0
  S  S13  1  0.22565267  0.67242090  0.73168980  1.0
  Co  Co14  1  0.87493711  0.17203625  0.99837490  1.0
  Co  Co15  1  0.87493711  0.82796375  0.49837490  1.0
