# generated using pymatgen
data_BaNb2Xe5F22
_symmetry_space_group_name_H-M   'P 1'
_cell_length_a   10.11841973
_cell_length_b   9.47688013
_cell_length_c   9.52634048
_cell_angle_alpha   64.34276937
_cell_angle_beta   57.59154651
_cell_angle_gamma   58.06568412
_symmetry_Int_Tables_number   1
_chemical_formula_structural   BaNb2Xe5F22
_chemical_formula_sum   'Ba1 Nb2 Xe5 F22'
_cell_volume   640.08834712
_cell_formula_units_Z   1
loop_
 _symmetry_equiv_pos_site_id
 _symmetry_equiv_pos_as_xyz
  1  'x, y, z'
loop_
 _atom_site_type_symbol
 _atom_site_label
 _atom_site_symmetry_multiplicity
 _atom_site_fract_x
 _atom_site_fract_y
 _atom_site_fract_z
 _atom_site_occupancy
  Ba  Ba0  1  -0.50000000  0.50000000  0.50000000  1.0
  Nb  Nb1  1  -0.00000000  0.50000000  0.00000000  1.0
  Nb  Nb2  1  -0.50000000  1.00000000  0.50000000  1.0
  Xe  Xe3  1  0.00000000  0.00000000  0.00000000  1.0
  Xe  Xe4  1  -0.00000000  0.00000000  1.50000000  1.0
  Xe  Xe5  1  -0.50000000  0.50000000  1.00000000  1.0
  Xe  Xe6  1  1.00000000  -0.50000000  0.50000000  1.0
  Xe  Xe7  1  0.50000000  -0.00000000  0.00000000  1.0
  F  F8  1  0.14236228  -0.14236228  1.14236228  1.0
  F  F9  1  -0.14236228  0.14236228  0.85763772  1.0
  F  F10  1  0.19849375  -0.19849375  1.56068265  1.0
  F  F11  1  -0.56068265  0.56068265  0.80150625  1.0
  F  F12  1  0.56068265  -0.56068265  1.19849375  1.0
  F  F13  1  -0.19849375  0.19849375  0.43931735  1.0
  F  F14  1  -0.19650081  0.44784267  0.55215733  1.0
  F  F15  1  1.19650081  -0.44784267  0.44784267  1.0
  F  F16  1  0.55215733  0.19650081  -0.19650081  1.0
  F  F17  1  0.44784267  -0.19650081  1.19650081  1.0
  F  F18  1  0.20597136  0.46706027  -0.20597136  1.0
  F  F19  1  -0.46706027  0.79402864  0.46706027  1.0
  F  F20  1  -0.20597136  0.53293973  0.20597136  1.0
  F  F21  1  -0.53293973  1.20597136  0.53293973  1.0
  F  F22  1  -0.09122823  0.73664373  0.90246697  1.0
  F  F23  1  -0.54788248  0.90246697  0.73664373  1.0
  F  F24  1  -0.09753303  0.45211752  0.90877177  1.0
  F  F25  1  -0.26335627  0.90877177  0.45211752  1.0
  F  F26  1  0.09122823  0.26335627  1.09753303  1.0
  F  F27  1  0.54788248  0.09753303  1.26335627  1.0
  F  F28  1  0.09753303  0.54788248  1.09122823  1.0
  F  F29  1  0.26335627  0.09122823  1.54788248  1.0
