# generated using pymatgen
data_Cs2AgBr3
_symmetry_space_group_name_H-M   'P 1'
_cell_length_a   14.07391347
_cell_length_b   4.83235921
_cell_length_c   14.57231562
_cell_angle_alpha   90.00000000
_cell_angle_beta   90.00000000
_cell_angle_gamma   90.00000000
_symmetry_Int_Tables_number   1
_chemical_formula_structural   Cs2AgBr3
_chemical_formula_sum   'Cs8 Ag4 Br12'
_cell_volume   991.06617834
_cell_formula_units_Z   4
loop_
 _symmetry_equiv_pos_site_id
 _symmetry_equiv_pos_as_xyz
  1  'x, y, z'
loop_
 _atom_site_type_symbol
 _atom_site_label
 _atom_site_symmetry_multiplicity
 _atom_site_fract_x
 _atom_site_fract_y
 _atom_site_fract_z
 _atom_site_occupancy
  Cs  Cs0  1  0.98989159  0.75000000  0.67525385  1.0
  Cs  Cs1  1  0.48989159  0.75000000  0.82474615  1.0
  Cs  Cs2  1  0.01010841  0.25000000  0.32474615  1.0
  Cs  Cs3  1  0.51010841  0.25000000  0.17525385  1.0
  Cs  Cs4  1  0.82567178  0.75000000  0.01808730  1.0
  Cs  Cs5  1  0.32567178  0.75000000  0.48191270  1.0
  Cs  Cs6  1  0.17432822  0.25000000  0.98191270  1.0
  Cs  Cs7  1  0.67432822  0.25000000  0.51808730  1.0
  Ag  Ag8  1  0.74426060  0.75000000  0.30321767  1.0
  Ag  Ag9  1  0.24426060  0.75000000  0.19678233  1.0
  Ag  Ag10  1  0.25573940  0.25000000  0.69678233  1.0
  Ag  Ag11  1  0.75573940  0.25000000  0.80321767  1.0
  Br  Br12  1  0.86373350  0.75000000  0.44892049  1.0
  Br  Br13  1  0.36373350  0.75000000  0.05107951  1.0
  Br  Br14  1  0.13626650  0.25000000  0.55107951  1.0
  Br  Br15  1  0.63626650  0.25000000  0.94892049  1.0
  Br  Br16  1  0.72672285  0.75000000  0.71206852  1.0
  Br  Br17  1  0.22672285  0.75000000  0.78793148  1.0
  Br  Br18  1  0.27327715  0.25000000  0.28793148  1.0
  Br  Br19  1  0.77327715  0.25000000  0.21206852  1.0
  Br  Br20  1  0.56008126  0.75000000  0.36016765  1.0
  Br  Br21  1  0.06008126  0.75000000  0.13983235  1.0
  Br  Br22  1  0.43991874  0.25000000  0.63983235  1.0
  Br  Br23  1  0.93991874  0.25000000  0.86016765  1.0
