# generated using pymatgen
data_Ag2GeS3
_symmetry_space_group_name_H-M   'P 1'
_cell_length_a   6.93387873
_cell_length_b   6.93387873
_cell_length_c   6.54512718
_cell_angle_alpha   90.00000000
_cell_angle_beta   90.00000000
_cell_angle_gamma   61.16563964
_symmetry_Int_Tables_number   1
_chemical_formula_structural   Ag2GeS3
_chemical_formula_sum   'Ag4 Ge2 S6'
_cell_volume   275.66613153
_cell_formula_units_Z   2
loop_
 _symmetry_equiv_pos_site_id
 _symmetry_equiv_pos_as_xyz
  1  'x, y, z'
loop_
 _atom_site_type_symbol
 _atom_site_label
 _atom_site_symmetry_multiplicity
 _atom_site_fract_x
 _atom_site_fract_y
 _atom_site_fract_z
 _atom_site_occupancy
  Ag  Ag0  1  -0.18969258  1.50353949  0.02693517  1.0
  Ag  Ag1  1  0.50353949  0.81030742  0.52693517  1.0
  Ag  Ag2  1  -0.50353949  1.18969258  0.02693517  1.0
  Ag  Ag3  1  0.18969258  0.49646051  0.52693517  1.0
  Ge  Ge4  1  0.16129830  0.83870170  -0.00413451  1.0
  Ge  Ge5  1  -0.16129830  1.16129830  0.49586549  1.0
  S  S6  1  -0.15247041  1.46549410  0.41267355  1.0
  S  S7  1  0.46549410  0.84752959  0.91267355  1.0
  S  S8  1  -0.46549410  1.15247041  0.41267355  1.0
  S  S9  1  0.15247041  0.53450590  0.91267355  1.0
  S  S10  1  0.14249842  0.85750158  0.35991706  1.0
  S  S11  1  -0.14249842  1.14249842  0.85991706  1.0
