# generated using pymatgen
data_Y2Cr2C3
_symmetry_space_group_name_H-M   'P 1'
_cell_length_a   5.47583036
_cell_length_b   5.47583036
_cell_length_c   5.55770576
_cell_angle_alpha   74.95248635
_cell_angle_beta   105.04751365
_cell_angle_gamma   143.97496225
_symmetry_Int_Tables_number   1
_chemical_formula_structural   Y2Cr2C3
_chemical_formula_sum   'Y2 Cr2 C3'
_cell_volume   94.28806230
_cell_formula_units_Z   1
loop_
 _symmetry_equiv_pos_site_id
 _symmetry_equiv_pos_as_xyz
  1  'x, y, z'
loop_
 _atom_site_type_symbol
 _atom_site_label
 _atom_site_symmetry_multiplicity
 _atom_site_fract_x
 _atom_site_fract_y
 _atom_site_fract_z
 _atom_site_occupancy
  Y  Y0  1  0.39432952  -0.39432952  0.68306245  1.0
  Y  Y1  1  0.60567048  0.39432952  0.31693755  1.0
  Cr  Cr2  1  0.15694651  -0.15694651  0.89088188  1.0
  Cr  Cr3  1  0.84305349  0.15694651  0.10911812  1.0
  C  C4  1  0.00000000  0.00000000  0.00000000  1.0
  C  C5  1  0.71340412  0.28659588  0.77223654  1.0
  C  C6  1  0.28659588  -0.28659588  0.22776346  1.0
