# generated using pymatgen
data_LuTl(MoO4)2
_symmetry_space_group_name_H-M   'P 1'
_cell_length_a   15.94804002
_cell_length_b   6.01606503
_cell_length_c   9.43291006
_cell_angle_alpha   90.00000000
_cell_angle_beta   90.00000000
_cell_angle_gamma   90.00000000
_symmetry_Int_Tables_number   1
_chemical_formula_structural   LuTl(MoO4)2
_chemical_formula_sum   'Lu4 Tl4 Mo8 O32'
_cell_volume   905.03532939
_cell_formula_units_Z   4
loop_
 _symmetry_equiv_pos_site_id
 _symmetry_equiv_pos_as_xyz
  1  'x, y, z'
loop_
 _atom_site_type_symbol
 _atom_site_label
 _atom_site_symmetry_multiplicity
 _atom_site_fract_x
 _atom_site_fract_y
 _atom_site_fract_z
 _atom_site_occupancy
  Lu  Lu0  1  0.38035948  0.75000000  0.82141611  1.0
  Lu  Lu1  1  0.88035948  0.75000000  0.67858389  1.0
  Lu  Lu2  1  0.61964052  0.25000000  0.17858389  1.0
  Lu  Lu3  1  0.11964052  0.25000000  0.32141611  1.0
  Tl  Tl4  1  0.12544090  0.75000000  0.90748833  1.0
  Tl  Tl5  1  0.62544090  0.75000000  0.59251167  1.0
  Tl  Tl6  1  0.87455910  0.25000000  0.09251167  1.0
  Tl  Tl7  1  0.37455910  0.25000000  0.40748833  1.0
  Mo  Mo8  1  0.47129064  0.75000000  0.21223416  1.0
  Mo  Mo9  1  0.97129064  0.75000000  0.28776584  1.0
  Mo  Mo10  1  0.52870936  0.25000000  0.78776584  1.0
  Mo  Mo11  1  0.02870936  0.25000000  0.71223416  1.0
  Mo  Mo12  1  0.22035206  0.75000000  0.51077482  1.0
  Mo  Mo13  1  0.72035206  0.75000000  0.98922518  1.0
  Mo  Mo14  1  0.77964794  0.25000000  0.48922518  1.0
  Mo  Mo15  1  0.27964794  0.25000000  0.01077482  1.0
  O  O16  1  0.46764135  0.49162518  0.74513678  1.0
  O  O17  1  0.46764135  0.00837482  0.74513678  1.0
  O  O18  1  0.96764135  0.49162518  0.75486322  1.0
  O  O19  1  0.96764135  0.00837482  0.75486322  1.0
  O  O20  1  0.53235865  0.99162518  0.25486322  1.0
  O  O21  1  0.53235865  0.50837482  0.25486322  1.0
  O  O22  1  0.03235865  0.99162518  0.24513678  1.0
  O  O23  1  0.03235865  0.50837482  0.24513678  1.0
  O  O24  1  0.28876104  1.00205688  0.90513302  1.0
  O  O25  1  0.28876104  0.49794312  0.90513302  1.0
  O  O26  1  0.78876104  1.00205688  0.59486698  1.0
  O  O27  1  0.78876104  0.49794312  0.59486698  1.0
  O  O28  1  0.71123896  0.50205688  0.09486698  1.0
  O  O29  1  0.71123896  -0.00205688  0.09486698  1.0
  O  O30  1  0.21123896  0.50205688  0.40513302  1.0
  O  O31  1  0.21123896  -0.00205688  0.40513302  1.0
  O  O32  1  0.44175306  0.75000000  0.03010720  1.0
  O  O33  1  0.94175306  0.75000000  0.46989280  1.0
  O  O34  1  0.55824694  0.25000000  0.96989280  1.0
  O  O35  1  0.05824694  0.25000000  0.53010720  1.0
  O  O36  1  0.38200078  0.75000000  0.31876305  1.0
  O  O37  1  0.88200078  0.75000000  0.18123695  1.0
  O  O38  1  0.61799922  0.25000000  0.68123695  1.0
  O  O39  1  0.11799922  0.25000000  0.81876305  1.0
  O  O40  1  0.31432300  0.75000000  0.61373144  1.0
  O  O41  1  0.81432300  0.75000000  0.88626856  1.0
  O  O42  1  0.68567700  0.25000000  0.38626856  1.0
  O  O43  1  0.18567700  0.25000000  0.11373144  1.0
  O  O44  1  0.13728171  0.75000000  0.63049165  1.0
  O  O45  1  0.63728171  0.75000000  0.86950835  1.0
  O  O46  1  0.86271829  0.25000000  0.36950835  1.0
  O  O47  1  0.36271829  0.25000000  0.13049165  1.0
