# generated using pymatgen
data_Ba5Tm2ZrAl2O13
_symmetry_space_group_name_H-M   'P 1'
_cell_length_a   5.99367168
_cell_length_b   5.99367168
_cell_length_c   25.23148719
_cell_angle_alpha   90.00000000
_cell_angle_beta   90.00000000
_cell_angle_gamma   120.00000000
_symmetry_Int_Tables_number   1
_chemical_formula_structural   Ba5Tm2ZrAl2O13
_chemical_formula_sum   'Ba10 Tm4 Zr2 Al4 O26'
_cell_volume   784.98142393
_cell_formula_units_Z   2
loop_
 _symmetry_equiv_pos_site_id
 _symmetry_equiv_pos_as_xyz
  1  'x, y, z'
loop_
 _atom_site_type_symbol
 _atom_site_label
 _atom_site_symmetry_multiplicity
 _atom_site_fract_x
 _atom_site_fract_y
 _atom_site_fract_z
 _atom_site_occupancy
  Ba  Ba0  1  0.33333333  0.66666667  0.95917839  1.0
  Ba  Ba1  1  0.33333333  0.66666667  0.54082161  1.0
  Ba  Ba2  1  0.66666667  0.33333333  0.45917839  1.0
  Ba  Ba3  1  0.66666667  0.33333333  0.04082161  1.0
  Ba  Ba4  1  0.00000000  0.00000000  0.36326441  1.0
  Ba  Ba5  1  0.00000000  0.00000000  0.13673559  1.0
  Ba  Ba6  1  0.00000000  0.00000000  0.86326441  1.0
  Ba  Ba7  1  0.00000000  0.00000000  0.63673559  1.0
  Ba  Ba8  1  0.33333333  0.66666667  0.25000000  1.0
  Ba  Ba9  1  0.66666667  0.33333333  0.75000000  1.0
  Tm  Tm10  1  0.33333333  0.66666667  0.39620895  1.0
  Tm  Tm11  1  0.33333333  0.66666667  0.10379105  1.0
  Tm  Tm12  1  0.66666667  0.33333333  0.89620895  1.0
  Tm  Tm13  1  0.66666667  0.33333333  0.60379105  1.0
  Zr  Zr14  1  0.00000000  0.00000000  0.50000000  1.0
  Zr  Zr15  1  0.00000000  0.00000000  0.00000000  1.0
  Al  Al16  1  0.33333333  0.66666667  0.81897191  1.0
  Al  Al17  1  0.33333333  0.66666667  0.68102809  1.0
  Al  Al18  1  0.66666667  0.33333333  0.31897191  1.0
  Al  Al19  1  0.66666667  0.33333333  0.18102809  1.0
  O  O20  1  0.16274720  0.83725280  0.45026063  1.0
  O  O21  1  0.16274720  0.83725280  0.04973937  1.0
  O  O22  1  0.16274720  0.32549440  0.45026063  1.0
  O  O23  1  0.16274720  0.32549440  0.04973937  1.0
  O  O24  1  0.83725280  0.16274720  0.95026063  1.0
  O  O25  1  0.83725280  0.16274720  0.54973937  1.0
  O  O26  1  0.83725280  0.67450560  0.95026063  1.0
  O  O27  1  0.83725280  0.67450560  0.54973937  1.0
  O  O28  1  0.67450560  0.83725280  0.45026063  1.0
  O  O29  1  0.67450560  0.83725280  0.04973937  1.0
  O  O30  1  0.32549440  0.16274720  0.95026063  1.0
  O  O31  1  0.32549440  0.16274720  0.54973937  1.0
  O  O32  1  0.50438483  0.49561517  0.34160360  1.0
  O  O33  1  0.50438483  0.49561517  0.15839640  1.0
  O  O34  1  0.50438483  0.00876967  0.34160360  1.0
  O  O35  1  0.50438483  0.00876967  0.15839640  1.0
  O  O36  1  0.49561517  0.50438483  0.84160360  1.0
  O  O37  1  0.49561517  0.50438483  0.65839640  1.0
  O  O38  1  0.49561517  0.99123033  0.84160360  1.0
  O  O39  1  0.49561517  0.99123033  0.65839640  1.0
  O  O40  1  0.99123033  0.49561517  0.34160360  1.0
  O  O41  1  0.99123033  0.49561517  0.15839640  1.0
  O  O42  1  0.00876967  0.50438483  0.84160360  1.0
  O  O43  1  0.00876967  0.50438483  0.65839640  1.0
  O  O44  1  0.33333333  0.66666667  0.75000000  1.0
  O  O45  1  0.66666667  0.33333333  0.25000000  1.0
