# generated using pymatgen
data_Ti5CuSn3
_symmetry_space_group_name_H-M   'P 1'
_cell_length_a   8.21675254
_cell_length_b   8.21675254
_cell_length_c   5.55252850
_cell_angle_alpha   90.00000000
_cell_angle_beta   90.00000000
_cell_angle_gamma   120.00000000
_symmetry_Int_Tables_number   1
_chemical_formula_structural   Ti5CuSn3
_chemical_formula_sum   'Ti10 Cu2 Sn6'
_cell_volume   324.65481123
_cell_formula_units_Z   2
loop_
 _symmetry_equiv_pos_site_id
 _symmetry_equiv_pos_as_xyz
  1  'x, y, z'
loop_
 _atom_site_type_symbol
 _atom_site_label
 _atom_site_symmetry_multiplicity
 _atom_site_fract_x
 _atom_site_fract_y
 _atom_site_fract_z
 _atom_site_occupancy
  Ti  Ti0  1  0.73248369  0.73248369  0.25000000  1.0
  Ti  Ti1  1  0.73248369  0.00000000  0.75000000  1.0
  Ti  Ti2  1  0.00000000  0.73248369  0.75000000  1.0
  Ti  Ti3  1  -0.00000000  0.26751631  0.25000000  1.0
  Ti  Ti4  1  0.26751631  0.26751631  0.75000000  1.0
  Ti  Ti5  1  0.26751631  0.00000000  0.25000000  1.0
  Ti  Ti6  1  0.33333333  0.66666667  0.50000000  1.0
  Ti  Ti7  1  0.33333333  0.66666667  0.00000000  1.0
  Ti  Ti8  1  0.66666667  0.33333333  0.50000000  1.0
  Ti  Ti9  1  0.66666667  0.33333333  0.00000000  1.0
  Cu  Cu10  1  0.00000000  0.00000000  0.50000000  1.0
  Cu  Cu11  1  0.00000000  0.00000000  0.00000000  1.0
  Sn  Sn12  1  0.38385187  0.38385187  0.25000000  1.0
  Sn  Sn13  1  0.38385187  0.00000000  0.75000000  1.0
  Sn  Sn14  1  0.00000000  0.38385187  0.75000000  1.0
  Sn  Sn15  1  -0.00000000  0.61614813  0.25000000  1.0
  Sn  Sn16  1  0.61614813  0.61614813  0.75000000  1.0
  Sn  Sn17  1  0.61614813  0.00000000  0.25000000  1.0
