# generated using pymatgen
data_Ag(CO)2
_symmetry_space_group_name_H-M   'P 1'
_cell_length_a   11.37523477
_cell_length_b   11.37523477
_cell_length_c   7.52783776
_cell_angle_alpha   71.72538864
_cell_angle_beta   108.27461136
_cell_angle_gamma   141.53017771
_symmetry_Int_Tables_number   1
_chemical_formula_structural   Ag(CO)2
_chemical_formula_sum   'Ag8 C16 O16'
_cell_volume   571.57745330
_cell_formula_units_Z   8
loop_
 _symmetry_equiv_pos_site_id
 _symmetry_equiv_pos_as_xyz
  1  'x, y, z'
loop_
 _atom_site_type_symbol
 _atom_site_label
 _atom_site_symmetry_multiplicity
 _atom_site_fract_x
 _atom_site_fract_y
 _atom_site_fract_z
 _atom_site_occupancy
  Ag  Ag0  1  1.43189631  -0.39356047  0.82377014  1.0
  Ag  Ag1  1  1.39356047  -0.43189631  0.32377014  1.0
  Ag  Ag2  1  0.60643953  -0.56810369  0.67622986  1.0
  Ag  Ag3  1  1.56810369  0.39356047  0.17622986  1.0
  Ag  Ag4  1  1.63975014  -0.04290241  0.58083814  1.0
  Ag  Ag5  1  1.04290241  -0.63975014  0.08083814  1.0
  Ag  Ag6  1  0.95709759  -0.36024986  0.91916186  1.0
  Ag  Ag7  1  1.36024986  0.04290241  0.41916186  1.0
  C  C8  1  1.86091911  -0.13808306  0.50673769  1.0
  C  C9  1  1.13808306  -0.86091911  0.00673769  1.0
  C  C10  1  0.86191694  -0.13908089  0.99326231  1.0
  C  C11  1  1.13908089  0.13808306  0.49326231  1.0
  C  C12  1  1.95436222  0.04912722  0.90086275  1.0
  C  C13  1  0.95087278  -0.95436222  0.40086275  1.0
  C  C14  1  1.04912722  -0.04563778  0.59913725  1.0
  C  C15  1  1.04563778  -0.04912722  0.09913725  1.0
  C  C16  1  1.50198989  0.01211078  0.85771840  1.0
  C  C17  1  0.98788922  -0.50198989  0.35771840  1.0
  C  C18  1  1.01211078  -0.49801011  0.64228160  1.0
  C  C19  1  1.49801011  -0.01211078  0.14228160  1.0
  C  C20  1  1.51596487  0.10744773  0.97213785  1.0
  C  C21  1  0.89255227  -0.51596487  0.47213785  1.0
  C  C22  1  1.10744773  -0.48403513  0.52786215  1.0
  C  C23  1  1.48403513  -0.10744773  0.02786215  1.0
  O  O24  1  1.69287815  -0.30593483  0.51544750  1.0
  O  O25  1  1.30593483  -0.69287815  0.01544750  1.0
  O  O26  1  0.69406517  -0.30712185  0.98455250  1.0
  O  O27  1  1.30712185  0.30593483  0.48455250  1.0
  O  O28  1  1.90130517  0.11026968  0.78182007  1.0
  O  O29  1  0.88973032  -0.90130517  0.28182007  1.0
  O  O30  1  1.11026968  -0.09869483  0.71817993  1.0
  O  O31  1  1.09869483  -0.11026968  0.21817993  1.0
  O  O32  1  1.50595326  0.02542132  0.68677106  1.0
  O  O33  1  0.97457868  -0.50595326  0.18677106  1.0
  O  O34  1  1.02542132  -0.49404674  0.81322894  1.0
  O  O35  1  1.49404674  -0.02542132  0.31322894  1.0
  O  O36  1  1.53691822  0.23819400  0.94251428  1.0
  O  O37  1  0.76180600  -0.53691822  0.44251428  1.0
  O  O38  1  1.23819400  -0.46308178  0.55748572  1.0
  O  O39  1  1.46308178  -0.23819400  0.05748572  1.0
