# generated using pymatgen
data_Nb4Si7Ni4
_symmetry_space_group_name_H-M   'P 1'
_cell_length_a   9.28164531
_cell_length_b   9.28164531
_cell_length_c   9.28164531
_cell_angle_alpha   94.18779703
_cell_angle_beta   94.18779703
_cell_angle_gamma   148.64375523
_symmetry_Int_Tables_number   1
_chemical_formula_structural   Nb4Si7Ni4
_chemical_formula_sum   'Nb8 Si14 Ni8'
_cell_volume   400.59974891
_cell_formula_units_Z   2
loop_
 _symmetry_equiv_pos_site_id
 _symmetry_equiv_pos_as_xyz
  1  'x, y, z'
loop_
 _atom_site_type_symbol
 _atom_site_label
 _atom_site_symmetry_multiplicity
 _atom_site_fract_x
 _atom_site_fract_y
 _atom_site_fract_z
 _atom_site_occupancy
  Nb  Nb0  1  -0.00000000  0.80876660  0.80876660  1.0
  Nb  Nb1  1  0.80876660  1.00000000  0.80876660  1.0
  Nb  Nb2  1  1.19123340  1.00000000  1.19123340  1.0
  Nb  Nb3  1  0.00000000  0.19123340  0.19123340  1.0
  Nb  Nb4  1  0.63472468  0.63472468  0.26944936  1.0
  Nb  Nb5  1  1.36527532  0.63472468  1.00000000  1.0
  Nb  Nb6  1  0.63472468  0.36527532  1.00000000  1.0
  Nb  Nb7  1  0.36527532  0.36527532  0.73055064  1.0
  Si  Si8  1  0.50000000  0.79060814  0.29060814  1.0
  Si  Si9  1  0.79060814  0.50000000  1.29060814  1.0
  Si  Si10  1  0.20939186  0.50000000  0.70939186  1.0
  Si  Si11  1  0.50000000  1.20939186  0.70939186  1.0
  Si  Si12  1  0.00000000  0.59304402  0.59304402  1.0
  Si  Si13  1  0.59304402  1.00000000  0.59304402  1.0
  Si  Si14  1  1.40695598  1.00000000  1.40695598  1.0
  Si  Si15  1  0.00000000  0.40695598  0.40695598  1.0
  Si  Si16  1  0.79260199  0.79260199  0.58520397  1.0
  Si  Si17  1  1.20739801  0.79260199  1.00000000  1.0
  Si  Si18  1  0.79260199  0.20739801  1.00000000  1.0
  Si  Si19  1  0.20739801  0.20739801  0.41479603  1.0
  Si  Si20  1  0.74946806  0.74946806  -0.00000000  1.0
  Si  Si21  1  0.25053194  0.25053194  -0.00000000  1.0
  Ni  Ni22  1  1.10190869  0.60190869  1.20381737  1.0
  Ni  Ni23  1  1.60190869  1.10190869  1.20381737  1.0
  Ni  Ni24  1  0.39809131  0.60190869  0.50000000  1.0
  Ni  Ni25  1  0.89809131  1.10190869  0.50000000  1.0
  Ni  Ni26  1  1.10190869  0.89809131  1.50000000  1.0
  Ni  Ni27  1  1.60190869  1.39809131  1.50000000  1.0
  Ni  Ni28  1  0.39809131  0.89809131  0.79618263  1.0
  Ni  Ni29  1  0.89809131  1.39809131  0.79618263  1.0
