# generated using pymatgen
data_ZnNiF6
_symmetry_space_group_name_H-M   'P 1'
_cell_length_a   5.26715014
_cell_length_b   5.26715014
_cell_length_c   5.26715014
_cell_angle_alpha   56.74551519
_cell_angle_beta   56.74551519
_cell_angle_gamma   56.74551519
_symmetry_Int_Tables_number   1
_chemical_formula_structural   ZnNiF6
_chemical_formula_sum   'Zn1 Ni1 F6'
_cell_volume   95.56320379
_cell_formula_units_Z   1
loop_
 _symmetry_equiv_pos_site_id
 _symmetry_equiv_pos_as_xyz
  1  'x, y, z'
loop_
 _atom_site_type_symbol
 _atom_site_label
 _atom_site_symmetry_multiplicity
 _atom_site_fract_x
 _atom_site_fract_y
 _atom_site_fract_z
 _atom_site_occupancy
  Zn  Zn0  1  0.50000000  0.50000000  -0.50000000  1.0
  Ni  Ni1  1  -0.00000000  0.00000000  -0.00000000  1.0
  F  F2  1  0.10618614  0.77027162  -0.63883522  1.0
  F  F3  1  0.63883522  -0.10618614  0.22972838  1.0
  F  F4  1  1.22972838  -0.36116478  -0.10618614  1.0
  F  F5  1  0.89381386  0.22972838  -0.36116478  1.0
  F  F6  1  0.36116478  0.10618614  -0.22972838  1.0
  F  F7  1  0.77027162  0.36116478  -0.89381386  1.0
