# generated using pymatgen
data_KInBr3
_symmetry_space_group_name_H-M   'P 1'
_cell_length_a   8.74155357
_cell_length_b   8.74155357
_cell_length_c   11.07059079
_cell_angle_alpha   90.00000000
_cell_angle_beta   90.00000000
_cell_angle_gamma   120.00000000
_symmetry_Int_Tables_number   1
_chemical_formula_structural   KInBr3
_chemical_formula_sum   'K4 In4 Br12'
_cell_volume   732.61984163
_cell_formula_units_Z   4
loop_
 _symmetry_equiv_pos_site_id
 _symmetry_equiv_pos_as_xyz
  1  'x, y, z'
loop_
 _atom_site_type_symbol
 _atom_site_label
 _atom_site_symmetry_multiplicity
 _atom_site_fract_x
 _atom_site_fract_y
 _atom_site_fract_z
 _atom_site_occupancy
  K  K0  1  0.33333333  0.66666667  0.62779223  1.0
  K  K1  1  0.66666667  0.33333333  0.37220777  1.0
  K  K2  1  0.00000000  0.00000000  0.23260197  1.0
  K  K3  1  0.00000000  0.00000000  0.76739803  1.0
  In  In4  1  0.33333333  0.66666667  0.00083289  1.0
  In  In5  1  0.66666667  0.33333333  0.99916711  1.0
  In  In6  1  0.33333333  0.66666667  0.25261981  1.0
  In  In7  1  0.66666667  0.33333333  0.74738019  1.0
  Br  Br8  1  0.10281720  0.71824372  0.37384023  1.0
  Br  Br9  1  0.71824372  0.61542652  0.62615977  1.0
  Br  Br10  1  0.61542652  0.89718280  0.37384023  1.0
  Br  Br11  1  0.28175628  0.38457348  0.37384023  1.0
  Br  Br12  1  0.89718280  0.28175628  0.62615977  1.0
  Br  Br13  1  0.38457348  0.10281720  0.62615977  1.0
  Br  Br14  1  0.69616024  0.60600902  0.12240787  1.0
  Br  Br15  1  0.60600902  0.90984878  0.87759213  1.0
  Br  Br16  1  0.90984878  0.30383976  0.12240787  1.0
  Br  Br17  1  0.39399098  0.09015122  0.12240787  1.0
  Br  Br18  1  0.30383976  0.39399098  0.87759213  1.0
  Br  Br19  1  0.09015122  0.69616024  0.87759213  1.0
