# generated using pymatgen
data_GaPS4
_symmetry_space_group_name_H-M   'P 1'
_cell_length_a   8.72581226
_cell_length_b   8.26067738
_cell_length_c   12.12142342
_cell_angle_alpha   90.00000000
_cell_angle_beta   130.52144463
_cell_angle_gamma   90.00000000
_symmetry_Int_Tables_number   1
_chemical_formula_structural   GaPS4
_chemical_formula_sum   'Ga4 P4 S16'
_cell_volume   664.17386378
_cell_formula_units_Z   4
loop_
 _symmetry_equiv_pos_site_id
 _symmetry_equiv_pos_as_xyz
  1  'x, y, z'
loop_
 _atom_site_type_symbol
 _atom_site_label
 _atom_site_symmetry_multiplicity
 _atom_site_fract_x
 _atom_site_fract_y
 _atom_site_fract_z
 _atom_site_occupancy
  Ga  Ga0  1  0.88939298  0.45376097  0.11686533  1.0
  Ga  Ga1  1  0.88939298  0.04623903  0.61686533  1.0
  Ga  Ga2  1  0.11060702  0.95376097  0.38313467  1.0
  Ga  Ga3  1  0.11060702  0.54623903  0.88313467  1.0
  P  P4  1  0.87053968  0.22577321  0.34757742  1.0
  P  P5  1  0.87053968  0.27422679  0.84757742  1.0
  P  P6  1  0.12946032  0.72577321  0.15242258  1.0
  P  P7  1  0.12946032  0.77422679  0.65242258  1.0
  S  S8  1  0.77100205  0.26218531  0.46166063  1.0
  S  S9  1  0.77100205  0.23781469  0.96166063  1.0
  S  S10  1  0.22899795  0.76218531  0.03833937  1.0
  S  S11  1  0.22899795  0.73781469  0.53833937  1.0
  S  S12  1  0.18105380  0.21551736  0.47565940  1.0
  S  S13  1  0.18105380  0.28448264  0.97565940  1.0
  S  S14  1  0.81894620  0.71551736  0.02434060  1.0
  S  S15  1  0.81894620  0.78448264  0.52434060  1.0
  S  S16  1  0.74337893  0.43260375  0.22046425  1.0
  S  S17  1  0.74337893  0.06739625  0.72046425  1.0
  S  S18  1  0.25662107  0.93260375  0.27953575  1.0
  S  S19  1  0.25662107  0.56739625  0.77953575  1.0
  S  S20  1  0.76975775  0.01211383  0.22999142  1.0
  S  S21  1  0.76975775  0.48788617  0.72999142  1.0
  S  S22  1  0.23024225  0.51211383  0.27000858  1.0
  S  S23  1  0.23024225  0.98788617  0.77000858  1.0
