# generated using pymatgen
data_NaMg4(AsO4)3
_symmetry_space_group_name_H-M   'P 1'
_cell_length_a   10.93157066
_cell_length_b   10.93157066
_cell_length_c   10.93157066
_cell_angle_alpha   143.09118185
_cell_angle_beta   143.09118185
_cell_angle_gamma   53.18848725
_symmetry_Int_Tables_number   1
_chemical_formula_structural   NaMg4(AsO4)3
_chemical_formula_sum   'Na2 Mg8 As6 O24'
_cell_volume   468.19472085
_cell_formula_units_Z   2
loop_
 _symmetry_equiv_pos_site_id
 _symmetry_equiv_pos_as_xyz
  1  'x, y, z'
loop_
 _atom_site_type_symbol
 _atom_site_label
 _atom_site_symmetry_multiplicity
 _atom_site_fract_x
 _atom_site_fract_y
 _atom_site_fract_z
 _atom_site_occupancy
  Na  Na0  1  0.25000000  0.75000000  0.50000000  1.0
  Na  Na1  1  0.50000000  0.50000000  0.00000000  1.0
  Mg  Mg2  1  1.11843407  1.12500000  1.49343407  1.0
  Mg  Mg3  1  1.37500000  0.88156593  1.00656593  1.0
  Mg  Mg4  1  0.87500000  1.36843407  0.99343407  1.0
  Mg  Mg5  1  0.63156593  0.62500000  0.50656593  1.0
  Mg  Mg6  1  0.98009850  0.48009850  0.50000000  1.0
  Mg  Mg7  1  0.76990150  0.76990150  1.00000000  1.0
  Mg  Mg8  1  1.23009850  1.23009850  1.00000000  1.0
  Mg  Mg9  1  0.51990150  1.01990150  0.50000000  1.0
  As  As10  1  0.53083942  1.12500000  0.90583942  1.0
  As  As11  1  1.37500000  1.46916058  1.59416058  1.0
  As  As12  1  0.87500000  0.78083942  0.40583942  1.0
  As  As13  1  1.21916058  0.62500000  1.09416058  1.0
  As  As14  1  0.75000000  0.25000000  0.50000000  1.0
  As  As15  1  1.00000000  1.00000000  1.00000000  1.0
  O  O16  1  1.19596242  1.37385085  1.26621255  1.0
  O  O17  1  0.64236171  0.87614915  0.32211157  1.0
  O  O18  1  0.67974987  1.35763829  1.23378745  1.0
  O  O19  1  0.62614915  0.89236171  0.82211157  1.0
  O  O20  1  1.55403758  1.32025013  1.67788843  1.0
  O  O21  1  1.10763829  0.92974987  0.73378745  1.0
  O  O22  1  1.07025013  0.80403758  1.17788843  1.0
  O  O23  1  1.12385085  0.44596242  0.76621255  1.0
  O  O24  1  0.85410380  1.08507092  1.35057862  1.0
  O  O25  1  1.01550770  1.16492908  1.26903288  1.0
  O  O26  1  1.25352518  0.98449230  1.14942138  1.0
  O  O27  1  0.91492908  1.26550770  0.76903288  1.0
  O  O28  1  0.89589620  0.74647482  0.73096712  1.0
  O  O29  1  0.73449230  0.50352518  0.64942138  1.0
  O  O30  1  1.49647482  1.14589620  1.23096712  1.0
  O  O31  1  0.83507092  1.10410380  0.85057862  1.0
  O  O32  1  1.29914317  1.10652229  1.78696857  1.0
  O  O33  1  1.43044627  1.14347771  1.69262088  1.0
  O  O34  1  1.26217460  0.56955373  0.71303143  1.0
  O  O35  1  0.89347771  1.68044627  1.19262088  1.0
  O  O36  1  0.45085683  0.73782540  0.30737912  1.0
  O  O37  1  0.31955373  0.51217460  0.21303143  1.0
  O  O38  1  1.48782540  0.70085683  0.80737912  1.0
  O  O39  1  0.85652229  1.54914317  1.28696857  1.0
