# generated using pymatgen
data_K2Ge
_symmetry_space_group_name_H-M   'P 1'
_cell_length_a   15.52612189
_cell_length_b   15.52612189
_cell_length_c   15.52612189
_cell_angle_alpha   130.12594635
_cell_angle_beta   130.12594635
_cell_angle_gamma   73.20549904
_symmetry_Int_Tables_number   1
_chemical_formula_structural   K2Ge
_chemical_formula_sum   'K32 Ge16'
_cell_volume   2136.46908459
_cell_formula_units_Z   16
loop_
 _symmetry_equiv_pos_site_id
 _symmetry_equiv_pos_as_xyz
  1  'x, y, z'
loop_
 _atom_site_type_symbol
 _atom_site_label
 _atom_site_symmetry_multiplicity
 _atom_site_fract_x
 _atom_site_fract_y
 _atom_site_fract_z
 _atom_site_occupancy
  K  K0  1  0.78720473  1.01877909  1.40417973  1.0
  K  K1  1  0.13540064  0.86697501  0.90417973  1.0
  K  K2  1  1.11459936  0.51877909  1.23157437  1.0
  K  K3  1  0.46279527  0.36697501  0.73157437  1.0
  K  K4  1  1.11697501  0.88540064  1.40417973  1.0
  K  K5  1  1.26877909  0.53720473  0.90417973  1.0
  K  K6  1  0.98122090  0.38540064  0.76842563  1.0
  K  K7  1  1.13302499  1.03720473  1.26842563  1.0
  K  K8  1  0.28720473  0.88302499  0.76842563  1.0
  K  K9  1  0.63540064  0.73122090  1.26842563  1.0
  K  K10  1  0.61459936  0.38302499  0.59582027  1.0
  K  K11  1  0.96279527  0.23122091  1.09582027  1.0
  K  K12  1  0.61697501  1.21279527  1.23157437  1.0
  K  K13  1  0.76877909  0.86459936  0.73157437  1.0
  K  K14  1  0.48122091  0.71279527  0.59582027  1.0
  K  K15  1  0.63302499  1.36459936  1.09582027  1.0
  K  K16  1  0.29009078  1.16406009  0.82054318  1.0
  K  K17  1  0.40648309  0.78045240  1.32054318  1.0
  K  K18  1  0.84351691  0.66406009  0.87396931  1.0
  K  K19  1  -0.04009078  0.28045240  0.37396931  1.0
  K  K20  1  1.03045240  0.15648309  0.82054318  1.0
  K  K21  1  0.41406009  0.04009078  0.32054318  1.0
  K  K22  1  0.83593991  0.65648309  1.12603069  1.0
  K  K23  1  0.21954760  0.54009078  0.62603069  1.0
  K  K24  1  0.79009078  0.96954760  1.12603069  1.0
  K  K25  1  -0.09351691  0.58593991  0.62603069  1.0
  K  K26  1  0.34351691  0.46954760  0.17945682  1.0
  K  K27  1  0.45990922  0.08593991  0.67945682  1.0
  K  K28  1  0.53045240  0.70990922  0.87396931  1.0
  K  K29  1  0.91406009  0.59351691  1.37396931  1.0
  K  K30  1  0.33593991  0.20990922  0.17945682  1.0
  K  K31  1  0.71954760  0.09351691  0.67945682  1.0
  Ge  Ge32  1  0.98475058  0.87213215  1.52351368  1.0
  Ge  Ge33  1  0.40138153  0.78876311  1.02351368  1.0
  Ge  Ge34  1  0.84861847  0.37213215  0.88738158  1.0
  Ge  Ge35  1  0.26524942  0.28876311  0.38738158  1.0
  Ge  Ge36  1  1.03876311  1.15138153  1.52351368  1.0
  Ge  Ge37  1  1.12213215  0.73475058  1.02351368  1.0
  Ge  Ge38  1  1.12786785  0.65138153  1.11261842  1.0
  Ge  Ge39  1  1.21123689  1.23475058  1.61261842  1.0
  Ge  Ge40  1  0.48475058  0.96123689  1.11261842  1.0
  Ge  Ge41  1  0.90138153  0.87786785  1.61261842  1.0
  Ge  Ge42  1  0.34861847  0.46123689  0.47648632  1.0
  Ge  Ge43  1  0.76524942  0.37786785  0.97648632  1.0
  Ge  Ge44  1  0.53876311  1.01524942  0.88738158  1.0
  Ge  Ge45  1  0.62213215  0.59861847  0.38738158  1.0
  Ge  Ge46  1  0.62786785  0.51524942  0.47648632  1.0
  Ge  Ge47  1  0.71123689  1.09861847  0.97648632  1.0
