# generated using pymatgen
data_Sr2EuMoO6
_symmetry_space_group_name_H-M   'P 1'
_cell_length_a   5.85234055
_cell_length_b   6.00514001
_cell_length_c   10.16115599
_cell_angle_alpha   90.00000000
_cell_angle_beta   124.75694139
_cell_angle_gamma   90.00000000
_symmetry_Int_Tables_number   1
_chemical_formula_structural   Sr2EuMoO6
_chemical_formula_sum   'Sr4 Eu2 Mo2 O12'
_cell_volume   293.38950995
_cell_formula_units_Z   2
loop_
 _symmetry_equiv_pos_site_id
 _symmetry_equiv_pos_as_xyz
  1  'x, y, z'
loop_
 _atom_site_type_symbol
 _atom_site_label
 _atom_site_symmetry_multiplicity
 _atom_site_fract_x
 _atom_site_fract_y
 _atom_site_fract_z
 _atom_site_occupancy
  Sr  Sr0  1  0.23919422  0.45369045  0.25119505  1.0
  Sr  Sr1  1  0.23919422  0.04630955  0.75119505  1.0
  Sr  Sr2  1  0.76080578  0.95369045  0.24880495  1.0
  Sr  Sr3  1  0.76080578  0.54630955  0.74880495  1.0
  Eu  Eu4  1  0.50000000  0.00000000  0.50000000  1.0
  Eu  Eu5  1  0.50000000  0.50000000  -0.00000000  1.0
  Mo  Mo6  1  0.00000000  0.00000000  0.00000000  1.0
  Mo  Mo7  1  0.00000000  0.50000000  0.50000000  1.0
  O  O8  1  0.31661776  0.03269003  0.22507445  1.0
  O  O9  1  0.31661776  0.46730997  0.72507445  1.0
  O  O10  1  0.68338224  0.53269003  0.27492555  1.0
  O  O11  1  0.68338224  0.96730997  0.77492555  1.0
  O  O12  1  0.87378213  0.73069803  0.05332738  1.0
  O  O13  1  0.87378213  0.76930197  0.55332738  1.0
  O  O14  1  0.12621787  0.23069803  0.44667262  1.0
  O  O15  1  0.12621787  0.26930197  0.94667262  1.0
  O  O16  1  0.77493241  0.18486531  0.04473005  1.0
  O  O17  1  0.77493241  0.31513469  0.54473005  1.0
  O  O18  1  0.22506759  0.68486531  0.45526995  1.0
  O  O19  1  0.22506759  0.81513469  0.95526995  1.0
