# generated using pymatgen
data_EuScO3
_symmetry_space_group_name_H-M   'P 1'
_cell_length_a   5.80694277
_cell_length_b   8.00558024
_cell_length_c   5.59288192
_cell_angle_alpha   90.00000000
_cell_angle_beta   90.00000000
_cell_angle_gamma   90.00000000
_symmetry_Int_Tables_number   1
_chemical_formula_structural   EuScO3
_chemical_formula_sum   'Eu4 Sc4 O12'
_cell_volume   260.00159422
_cell_formula_units_Z   4
loop_
 _symmetry_equiv_pos_site_id
 _symmetry_equiv_pos_as_xyz
  1  'x, y, z'
loop_
 _atom_site_type_symbol
 _atom_site_label
 _atom_site_symmetry_multiplicity
 _atom_site_fract_x
 _atom_site_fract_y
 _atom_site_fract_z
 _atom_site_occupancy
  Eu  Eu0  1  0.05389660  0.75000000  0.51055251  1.0
  Eu  Eu1  1  0.55389660  0.75000000  -0.01055251  1.0
  Eu  Eu2  1  0.94610340  0.25000000  0.48944749  1.0
  Eu  Eu3  1  0.44610340  0.25000000  1.01055251  1.0
  Sc  Sc4  1  0.50000000  0.00000000  0.50000000  1.0
  Sc  Sc5  1  0.50000000  0.50000000  0.50000000  1.0
  Sc  Sc6  1  0.00000000  0.00000000  -0.00000000  1.0
  Sc  Sc7  1  0.00000000  0.50000000  0.00000000  1.0
  O  O8  1  0.30742218  0.94287300  0.80868146  1.0
  O  O9  1  0.30742218  0.55712700  0.80868146  1.0
  O  O10  1  0.80742218  0.94287300  0.69131854  1.0
  O  O11  1  0.80742218  0.55712700  0.69131854  1.0
  O  O12  1  0.69257782  0.44287300  0.19131854  1.0
  O  O13  1  0.69257782  0.05712700  0.19131854  1.0
  O  O14  1  0.19257782  0.44287300  0.30868146  1.0
  O  O15  1  0.19257782  0.05712700  0.30868146  1.0
  O  O16  1  0.95403747  0.75000000  0.11170445  1.0
  O  O17  1  0.45403747  0.75000000  0.38829555  1.0
  O  O18  1  0.04596253  0.25000000  0.88829555  1.0
  O  O19  1  0.54596253  0.25000000  0.61170445  1.0
