# generated using pymatgen
data_Ca(BIr)2
_symmetry_space_group_name_H-M   'P 1'
_cell_length_a   7.08183975
_cell_length_b   6.12877106
_cell_length_c   5.51768618
_cell_angle_alpha   74.69328646
_cell_angle_beta   56.58682299
_cell_angle_gamma   48.71989055
_symmetry_Int_Tables_number   1
_chemical_formula_structural   Ca(BIr)2
_chemical_formula_sum   'Ca2 B4 Ir4'
_cell_volume   148.33049706
_cell_formula_units_Z   2
loop_
 _symmetry_equiv_pos_site_id
 _symmetry_equiv_pos_as_xyz
  1  'x, y, z'
loop_
 _atom_site_type_symbol
 _atom_site_label
 _atom_site_symmetry_multiplicity
 _atom_site_fract_x
 _atom_site_fract_y
 _atom_site_fract_z
 _atom_site_occupancy
  Ca  Ca0  1  0.50000000  -0.50000000  0.50000000  1.0
  Ca  Ca1  1  0.75000000  0.75000000  0.75000000  1.0
  B  B2  1  0.82209131  -0.82209131  0.82209131  1.0
  B  B3  1  1.42790869  0.07209131  0.42790869  1.0
  B  B4  1  0.17790869  -0.17790869  0.17790869  1.0
  B  B5  1  1.07209131  0.42790869  0.07209131  1.0
  Ir  Ir6  1  0.86971394  0.86971394  -0.86971394  1.0
  Ir  Ir7  1  0.13028606  0.13028606  -0.13028606  1.0
  Ir  Ir8  1  1.38028606  0.38028606  0.11971394  1.0
  Ir  Ir9  1  0.11971394  0.11971394  1.38028606  1.0
