# generated using pymatgen
data_Zr9Re4B
_symmetry_space_group_name_H-M   'P 1'
_cell_length_a   8.49228658
_cell_length_b   8.49228658
_cell_length_c   8.67066250
_cell_angle_alpha   90.00000000
_cell_angle_beta   90.00000000
_cell_angle_gamma   120.00000000
_symmetry_Int_Tables_number   1
_chemical_formula_structural   Zr9Re4B
_chemical_formula_sum   'Zr18 Re8 B2'
_cell_volume   541.54206513
_cell_formula_units_Z   2
loop_
 _symmetry_equiv_pos_site_id
 _symmetry_equiv_pos_as_xyz
  1  'x, y, z'
loop_
 _atom_site_type_symbol
 _atom_site_label
 _atom_site_symmetry_multiplicity
 _atom_site_fract_x
 _atom_site_fract_y
 _atom_site_fract_z
 _atom_site_occupancy
  Zr  Zr0  1  0.20127049  0.79872951  0.44465674  1.0
  Zr  Zr1  1  0.20127049  0.79872951  0.05534326  1.0
  Zr  Zr2  1  0.20127049  0.40254099  0.44465674  1.0
  Zr  Zr3  1  0.20127049  0.40254099  0.05534326  1.0
  Zr  Zr4  1  0.79872951  0.20127049  0.94465674  1.0
  Zr  Zr5  1  0.79872951  0.20127049  0.55534326  1.0
  Zr  Zr6  1  0.79872951  0.59745901  0.94465674  1.0
  Zr  Zr7  1  0.79872951  0.59745901  0.55534326  1.0
  Zr  Zr8  1  0.59745901  0.79872951  0.44465674  1.0
  Zr  Zr9  1  0.59745901  0.79872951  0.05534326  1.0
  Zr  Zr10  1  0.40254099  0.20127049  0.94465674  1.0
  Zr  Zr11  1  0.40254099  0.20127049  0.55534326  1.0
  Zr  Zr12  1  0.53938037  0.46061963  0.25000000  1.0
  Zr  Zr13  1  0.53938037  0.07876074  0.25000000  1.0
  Zr  Zr14  1  0.46061963  0.53938037  0.75000000  1.0
  Zr  Zr15  1  0.46061963  0.92123926  0.75000000  1.0
  Zr  Zr16  1  0.92123926  0.46061963  0.25000000  1.0
  Zr  Zr17  1  0.07876074  0.53938037  0.75000000  1.0
  Re  Re18  1  0.89197372  0.10802628  0.25000000  1.0
  Re  Re19  1  0.89197372  0.78394743  0.25000000  1.0
  Re  Re20  1  0.10802628  0.89197372  0.75000000  1.0
  Re  Re21  1  0.10802628  0.21605257  0.75000000  1.0
  Re  Re22  1  0.21605257  0.10802628  0.25000000  1.0
  Re  Re23  1  0.78394743  0.89197372  0.75000000  1.0
  Re  Re24  1  0.00000000  0.00000000  0.50000000  1.0
  Re  Re25  1  0.00000000  0.00000000  0.00000000  1.0
  B  B26  1  0.33333333  0.66666667  0.25000000  1.0
  B  B27  1  0.66666667  0.33333333  0.75000000  1.0
