# generated using pymatgen
data_LaSb5O12
_symmetry_space_group_name_H-M   'P 1'
_cell_length_a   7.05429140
_cell_length_b   7.05429140
_cell_length_c   7.05429140
_cell_angle_alpha   63.33985256
_cell_angle_beta   63.33985256
_cell_angle_gamma   63.33985256
_symmetry_Int_Tables_number   1
_chemical_formula_structural   LaSb5O12
_chemical_formula_sum   'La1 Sb5 O12'
_cell_volume   266.58089711
_cell_formula_units_Z   1
loop_
 _symmetry_equiv_pos_site_id
 _symmetry_equiv_pos_as_xyz
  1  'x, y, z'
loop_
 _atom_site_type_symbol
 _atom_site_label
 _atom_site_symmetry_multiplicity
 _atom_site_fract_x
 _atom_site_fract_y
 _atom_site_fract_z
 _atom_site_occupancy
  La  La0  1  -0.00000000  -0.00000000  0.00000000  1.0
  Sb  Sb1  1  1.00000000  1.50000000  0.00000000  1.0
  Sb  Sb2  1  1.00000000  -0.00000000  -0.50000000  1.0
  Sb  Sb3  1  0.50000000  -0.00000000  0.00000000  1.0
  Sb  Sb4  1  0.65401891  0.65401891  -0.34598109  1.0
  Sb  Sb5  1  0.34598109  0.34598109  -0.65401891  1.0
  O  O6  1  1.15056712  1.15056712  0.54845185  1.0
  O  O7  1  1.15056712  1.54845185  0.15056712  1.0
  O  O8  1  0.45154815  0.84943288  -0.15056712  1.0
  O  O9  1  0.84943288  0.45154815  -0.15056712  1.0
  O  O10  1  0.84943288  0.84943288  -0.54845185  1.0
  O  O11  1  1.54845185  1.15056712  0.15056712  1.0
  O  O12  1  0.25749836  0.25749836  -0.11804974  1.0
  O  O13  1  0.25749836  0.88195026  -0.74250164  1.0
  O  O14  1  1.11804974  -0.25749836  -0.25749836  1.0
  O  O15  1  0.74250164  0.11804974  -0.25749836  1.0
  O  O16  1  0.74250164  -0.25749836  0.11804974  1.0
  O  O17  1  0.88195026  0.25749836  -0.74250164  1.0
