# generated using pymatgen
data_RbAuBr3
_symmetry_space_group_name_H-M   'P 1'
_cell_length_a   7.45336607
_cell_length_b   7.45336607
_cell_length_c   8.47940873
_cell_angle_alpha   66.21643843
_cell_angle_beta   113.78356157
_cell_angle_gamma   119.92138534
_symmetry_Int_Tables_number   1
_chemical_formula_structural   RbAuBr3
_chemical_formula_sum   'Rb2 Au2 Br6'
_cell_volume   361.25974176
_cell_formula_units_Z   2
loop_
 _symmetry_equiv_pos_site_id
 _symmetry_equiv_pos_as_xyz
  1  'x, y, z'
loop_
 _atom_site_type_symbol
 _atom_site_label
 _atom_site_symmetry_multiplicity
 _atom_site_fract_x
 _atom_site_fract_y
 _atom_site_fract_z
 _atom_site_occupancy
  Rb  Rb0  1  0.22666912  -0.22666912  0.72830998  1.0
  Rb  Rb1  1  0.77333088  -0.77333088  0.27169002  1.0
  Au  Au2  1  0.50000000  0.50000000  0.50000000  1.0
  Au  Au3  1  0.00000000  0.00000000  0.00000000  1.0
  Br  Br4  1  1.69752219  -0.22616436  0.67597321  1.0
  Br  Br5  1  1.22616436  -0.69752219  0.67597321  1.0
  Br  Br6  1  0.77383564  0.69752219  0.32402679  1.0
  Br  Br7  1  0.30247781  0.22616436  0.32402679  1.0
  Br  Br8  1  0.78652994  0.21347006  0.86615235  1.0
  Br  Br9  1  1.21347006  -0.21347006  0.13384765  1.0
