# generated using pymatgen
data_RbV(PO4)2
_symmetry_space_group_name_H-M   'P 1'
_cell_length_a   5.11428468
_cell_length_b   8.73549502
_cell_length_c   14.87003291
_cell_angle_alpha   90.00000000
_cell_angle_beta   92.42939089
_cell_angle_gamma   90.00000000
_symmetry_Int_Tables_number   1
_chemical_formula_structural   RbV(PO4)2
_chemical_formula_sum   'Rb4 V4 P8 O32'
_cell_volume   663.73365170
_cell_formula_units_Z   4
loop_
 _symmetry_equiv_pos_site_id
 _symmetry_equiv_pos_as_xyz
  1  'x, y, z'
loop_
 _atom_site_type_symbol
 _atom_site_label
 _atom_site_symmetry_multiplicity
 _atom_site_fract_x
 _atom_site_fract_y
 _atom_site_fract_z
 _atom_site_occupancy
  Rb  Rb0  1  0.72925044  1.01768294  0.89743431  1.0
  Rb  Rb1  1  0.72925044  0.48231706  0.39743431  1.0
  Rb  Rb2  1  0.27074956  0.51768294  0.60256569  1.0
  Rb  Rb3  1  0.27074956  -0.01768294  0.10256569  1.0
  V  V4  1  0.74436974  0.51266117  0.84915252  1.0
  V  V5  1  0.74436974  0.98733883  0.34915252  1.0
  V  V6  1  0.25563026  0.01266117  0.65084748  1.0
  V  V7  1  0.25563026  0.48733883  0.15084748  1.0
  P  P8  1  0.76918828  0.23953611  0.68231977  1.0
  P  P9  1  0.76918828  0.26046389  0.18231977  1.0
  P  P10  1  0.23081172  0.73953611  0.81768023  1.0
  P  P11  1  0.23081172  0.76046389  0.31768023  1.0
  P  P12  1  0.73923036  0.82194127  0.55185218  1.0
  P  P13  1  0.73923036  0.67805873  0.05185218  1.0
  P  P14  1  0.26076964  0.32194127  0.94814782  1.0
  P  P15  1  0.26076964  0.17805873  0.44814782  1.0
  O  O16  1  0.96452382  0.65628690  0.79135210  1.0
  O  O17  1  0.96452382  0.84371310  0.29135210  1.0
  O  O18  1  0.03547618  0.15628690  0.70864790  1.0
  O  O19  1  0.03547618  0.34371310  0.20864790  1.0
  O  O20  1  0.96214326  0.92008311  0.59887674  1.0
  O  O21  1  0.96214326  0.57991689  0.09887674  1.0
  O  O22  1  0.03785674  0.42008311  0.90112326  1.0
  O  O23  1  0.03785674  0.07991689  0.40112326  1.0
  O  O24  1  0.77943559  0.65298579  0.56349045  1.0
  O  O25  1  0.77943559  0.84701421  0.06349045  1.0
  O  O26  1  0.22056441  0.15298579  0.93650955  1.0
  O  O27  1  0.22056441  0.34701421  0.43650955  1.0
  O  O28  1  0.73001977  0.63684703  0.94863893  1.0
  O  O29  1  0.73001977  0.86315297  0.44863893  1.0
  O  O30  1  0.26998023  0.13684703  0.55136107  1.0
  O  O31  1  0.26998023  0.36315297  0.05136107  1.0
  O  O32  1  0.74413756  0.37324762  0.75336541  1.0
  O  O33  1  0.74413756  0.12675238  0.25336541  1.0
  O  O34  1  0.25586244  0.87324762  0.74663459  1.0
  O  O35  1  0.25586244  0.62675238  0.24663459  1.0
  O  O36  1  0.47832539  0.87469510  0.59226410  1.0
  O  O37  1  0.47832539  0.62530490  0.09226410  1.0
  O  O38  1  0.52167461  0.37469510  0.90773590  1.0
  O  O39  1  0.52167461  0.12530490  0.40773590  1.0
  O  O40  1  0.45240200  0.61923183  0.79655003  1.0
  O  O41  1  0.45240200  0.88076817  0.29655003  1.0
  O  O42  1  0.54759800  0.11923183  0.70344997  1.0
  O  O43  1  0.54759800  0.38076817  0.20344997  1.0
  O  O44  1  0.24729981  0.80348875  0.91107909  1.0
  O  O45  1  0.24729981  0.69651125  0.41107909  1.0
  O  O46  1  0.75270019  0.30348875  0.58892091  1.0
  O  O47  1  0.75270019  0.19651125  0.08892091  1.0
