# generated using pymatgen
data_K2LiVO4
_symmetry_space_group_name_H-M   'P 1'
_cell_length_a   5.77281354
_cell_length_b   5.77281354
_cell_length_c   7.59548604
_cell_angle_alpha   89.99972828
_cell_angle_beta   90.00027172
_cell_angle_gamma   95.31138715
_symmetry_Int_Tables_number   1
_chemical_formula_structural   K2LiVO4
_chemical_formula_sum   'K4 Li2 V2 O8'
_cell_volume   252.03560317
_cell_formula_units_Z   2
loop_
 _symmetry_equiv_pos_site_id
 _symmetry_equiv_pos_as_xyz
  1  'x, y, z'
loop_
 _atom_site_type_symbol
 _atom_site_label
 _atom_site_symmetry_multiplicity
 _atom_site_fract_x
 _atom_site_fract_y
 _atom_site_fract_z
 _atom_site_occupancy
  K  K0  1  0.29846238  -0.29846238  0.82050285  1.0
  K  K1  1  0.70153762  -0.70153762  0.17949715  1.0
  K  K2  1  0.78158118  -0.21841882  0.50000000  1.0
  K  K3  1  1.21841882  0.21841882  0.50000000  1.0
  Li  Li4  1  0.82426584  -0.17573416  -0.00000000  1.0
  Li  Li5  1  1.17573416  0.17573416  -0.00000000  1.0
  V  V6  1  0.70855325  -0.70855325  0.75815684  1.0
  V  V7  1  0.29144675  -0.29144675  0.24184316  1.0
  O  O8  1  1.42519943  0.21574690  0.82411879  1.0
  O  O9  1  0.78425310  -0.42519943  0.82411879  1.0
  O  O10  1  1.21574690  0.42519943  0.17588121  1.0
  O  O11  1  0.57480057  -0.21574690  0.17588121  1.0
  O  O12  1  0.88992516  -0.88992516  0.85772715  1.0
  O  O13  1  0.11007484  -0.11007484  0.14227285  1.0
  O  O14  1  0.72763542  -0.72763542  0.53197349  1.0
  O  O15  1  0.27236458  -0.27236458  0.46802651  1.0
