# generated using pymatgen
data_TbCl3
_symmetry_space_group_name_H-M   'P 1'
_cell_length_a   7.03153072
_cell_length_b   7.03153072
_cell_length_c   8.64532853
_cell_angle_alpha   90.00000000
_cell_angle_beta   90.00000000
_cell_angle_gamma   148.43809676
_symmetry_Int_Tables_number   1
_chemical_formula_structural   TbCl3
_chemical_formula_sum   'Tb2 Cl6'
_cell_volume   223.73355714
_cell_formula_units_Z   2
loop_
 _symmetry_equiv_pos_site_id
 _symmetry_equiv_pos_as_xyz
  1  'x, y, z'
loop_
 _atom_site_type_symbol
 _atom_site_label
 _atom_site_symmetry_multiplicity
 _atom_site_fract_x
 _atom_site_fract_y
 _atom_site_fract_z
 _atom_site_occupancy
  Tb  Tb0  1  -0.25745529  0.25745529  0.75000000  1.0
  Tb  Tb1  1  0.25745529  0.74254471  0.25000000  1.0
  Cl  Cl2  1  0.34040007  0.65959993  0.93123912  1.0
  Cl  Cl3  1  0.34040007  0.65959993  0.56876088  1.0
  Cl  Cl4  1  -0.34040007  0.34040007  0.43123912  1.0
  Cl  Cl5  1  -0.34040007  0.34040007  0.06876088  1.0
  Cl  Cl6  1  0.10441357  0.89558643  0.75000000  1.0
  Cl  Cl7  1  -0.10441357  0.10441357  0.25000000  1.0
