# generated using pymatgen
data_Mg6AlSi2O15
_symmetry_space_group_name_H-M   'P 1'
_cell_length_a   5.32594554
_cell_length_b   5.32594554
_cell_length_c   22.44193062
_cell_angle_alpha   82.43881601
_cell_angle_beta   97.56118399
_cell_angle_gamma   119.39686692
_symmetry_Int_Tables_number   1
_chemical_formula_structural   Mg6AlSi2O15
_chemical_formula_sum   'Mg12 Al2 Si4 O30'
_cell_volume   548.13616921
_cell_formula_units_Z   2
loop_
 _symmetry_equiv_pos_site_id
 _symmetry_equiv_pos_as_xyz
  1  'x, y, z'
loop_
 _atom_site_type_symbol
 _atom_site_label
 _atom_site_symmetry_multiplicity
 _atom_site_fract_x
 _atom_site_fract_y
 _atom_site_fract_z
 _atom_site_occupancy
  Si  Si0  1  1.86451137  -0.04441801  0.12479142  1.0
  Si  Si1  1  0.95558199  0.86451137  0.37520858  1.0
  Si  Si2  1  0.13548863  0.04441801  0.87520858  1.0
  Si  Si3  1  1.04441801  -0.86451137  0.62479142  1.0
  Mg  Mg4  1  0.83897644  0.67648043  0.99994255  1.0
  Mg  Mg5  1  1.67648043  -0.16102356  0.50005745  1.0
  Mg  Mg6  1  1.16102356  -0.67648043  0.00005745  1.0
  Mg  Mg7  1  0.32351957  0.16102356  0.49994255  1.0
  Mg  Mg8  1  1.22047011  0.60135155  0.18270206  1.0
  Mg  Mg9  1  0.60135155  0.22047011  0.31729794  1.0
  Mg  Mg10  1  0.77952989  -0.60135155  0.81729794  1.0
  Mg  Mg11  1  1.39864845  -0.22047011  0.68270206  1.0
  Mg  Mg12  1  1.26715779  0.55346212  0.31725337  1.0
  Mg  Mg13  1  0.55346212  0.26715779  0.18274663  1.0
  Mg  Mg14  1  0.73284221  -0.55346212  0.68274663  1.0
  Mg  Mg15  1  1.44653788  -0.26715779  0.81725337  1.0
  O  O16  1  1.84317679  -0.01794786  0.04953116  1.0
  O  O17  1  0.98205214  0.84317679  0.45046884  1.0
  O  O18  1  0.15682321  0.01794786  0.95046884  1.0
  O  O19  1  1.01794786  -0.84317679  0.54953116  1.0
  O  O20  1  0.47150036  0.47150036  0.25000000  1.0
  O  O21  1  0.52849964  0.52849964  0.75000000  1.0
  O  O22  1  0.91067665  0.34921064  0.24987996  1.0
  O  O23  1  0.34921064  -0.08932335  0.25012004  1.0
  O  O24  1  1.08932335  -0.34921064  0.75012004  1.0
  O  O25  1  1.65078936  0.08932335  0.74987996  1.0
  O  O26  1  1.47037445  -0.29908306  0.96091822  1.0
  O  O27  1  0.70091694  -0.52962555  0.53908178  1.0
  O  O28  1  0.52962555  0.29908306  0.03908178  1.0
  O  O29  1  1.29908306  0.52962555  0.46091822  1.0
  O  O30  1  0.78160731  0.32405048  0.96082161  1.0
  O  O31  1  1.32405048  -0.21839269  0.53917839  1.0
  O  O32  1  1.21839269  -0.32405048  0.03917839  1.0
  O  O33  1  0.67594952  0.21839269  0.46082161  1.0
  O  O34  1  0.57741202  -0.05286902  0.14676203  1.0
  O  O35  1  0.94713098  0.57741202  0.35323797  1.0
  O  O36  1  1.42258798  0.05286902  0.85323797  1.0
  O  O37  1  1.05286902  -0.57741202  0.64676203  1.0
  O  O38  1  1.16494525  -0.76113287  0.14732840  1.0
  O  O39  1  0.23886713  0.16494525  0.35267160  1.0
  O  O40  1  0.83505475  0.76113287  0.85267160  1.0
  O  O41  1  1.76113287  -0.16494525  0.64732840  1.0
  O  O42  1  0.87277344  0.65266057  0.14738625  1.0
  O  O43  1  0.65266057  -0.12722656  0.35261375  1.0
  O  O44  1  1.12722656  -0.65266057  0.85261375  1.0
  O  O45  1  1.34733943  0.12722656  0.64738625  1.0
  Al  Al46  1  1.50000000  -0.00000000  -0.00000000  1.0
  Al  Al47  1  1.00000000  0.50000000  0.50000000  1.0
