# generated using pymatgen
data_Sc(IO3)3
_symmetry_space_group_name_H-M   'P 1'
_cell_length_a   7.58392680
_cell_length_b   7.58392680
_cell_length_c   7.58392680
_cell_angle_alpha   81.18231598
_cell_angle_beta   81.18231598
_cell_angle_gamma   81.18231598
_symmetry_Int_Tables_number   1
_chemical_formula_structural   Sc(IO3)3
_chemical_formula_sum   'Sc2 I6 O18'
_cell_volume   422.16763678
_cell_formula_units_Z   2
loop_
 _symmetry_equiv_pos_site_id
 _symmetry_equiv_pos_as_xyz
  1  'x, y, z'
loop_
 _atom_site_type_symbol
 _atom_site_label
 _atom_site_symmetry_multiplicity
 _atom_site_fract_x
 _atom_site_fract_y
 _atom_site_fract_z
 _atom_site_occupancy
  Sc  Sc0  1  0.82077708  0.82077708  -0.17922292  1.0
  Sc  Sc1  1  1.17922292  1.17922292  0.17922292  1.0
  I  I2  1  0.86146327  0.58043671  -0.71607566  1.0
  I  I3  1  0.41956329  0.71607566  -0.86146327  1.0
  I  I4  1  0.71607566  0.13853673  -0.58043671  1.0
  I  I5  1  0.13853673  0.41956329  -0.28392434  1.0
  I  I6  1  0.58043671  0.28392434  -0.13853673  1.0
  I  I7  1  0.28392434  0.86146327  -0.41956329  1.0
  O  O8  1  0.71338135  0.42221951  -0.77716118  1.0
  O  O9  1  0.57778049  0.77716118  -0.71338135  1.0
  O  O10  1  0.77716118  0.28661865  -0.42221951  1.0
  O  O11  1  0.28661865  0.57778049  -0.22283882  1.0
  O  O12  1  0.42221951  0.22283882  -0.28661865  1.0
  O  O13  1  0.22283882  0.71338135  -0.57778049  1.0
  O  O14  1  0.58188269  0.70617888  -0.07872779  1.0
  O  O15  1  1.29382112  1.07872779  0.41811731  1.0
  O  O16  1  1.07872779  1.41811731  0.29382112  1.0
  O  O17  1  1.41811731  1.29382112  0.07872779  1.0
  O  O18  1  0.70617888  0.92127221  -0.41811731  1.0
  O  O19  1  0.92127221  0.58188269  -0.29382112  1.0
  O  O20  1  0.71187734  0.06061987  -0.06689290  1.0
  O  O21  1  0.93938013  0.06689290  -0.71187734  1.0
  O  O22  1  1.06689290  -0.71187734  -0.06061987  1.0
  O  O23  1  0.28812266  -0.06061987  0.06689290  1.0
  O  O24  1  1.06061987  -0.06689290  -0.28812266  1.0
  O  O25  1  0.93310710  -0.28812266  0.06061987  1.0
