# generated using pymatgen
data_ScZnPd
_symmetry_space_group_name_H-M   'P 1'
_cell_length_a   5.04717017
_cell_length_b   5.04717017
_cell_length_c   5.29835483
_cell_angle_alpha   90.00000000
_cell_angle_beta   90.00000000
_cell_angle_gamma   129.34562373
_symmetry_Int_Tables_number   1
_chemical_formula_structural   ScZnPd
_chemical_formula_sum   'Sc2 Zn2 Pd2'
_cell_volume   104.37703260
_cell_formula_units_Z   2
loop_
 _symmetry_equiv_pos_site_id
 _symmetry_equiv_pos_as_xyz
  1  'x, y, z'
loop_
 _atom_site_type_symbol
 _atom_site_label
 _atom_site_symmetry_multiplicity
 _atom_site_fract_x
 _atom_site_fract_y
 _atom_site_fract_z
 _atom_site_occupancy
  Sc  Sc0  1  0.29322369  0.70677631  0.75000000  1.0
  Sc  Sc1  1  -0.29322369  0.29322369  0.25000000  1.0
  Zn  Zn2  1  0.00000000  0.00000000  0.00000000  1.0
  Zn  Zn3  1  0.00000000  0.00000000  0.50000000  1.0
  Pd  Pd4  1  -0.40185004  0.40185004  0.75000000  1.0
  Pd  Pd5  1  0.40185004  0.59814996  0.25000000  1.0
