# generated using pymatgen
data_CsP2H5O8
_symmetry_space_group_name_H-M   'P 1'
_cell_length_a   6.98825898
_cell_length_b   7.90563871
_cell_length_c   8.66446439
_cell_angle_alpha   104.90174092
_cell_angle_beta   114.10365577
_cell_angle_gamma   88.26521180
_symmetry_Int_Tables_number   1
_chemical_formula_structural   CsP2H5O8
_chemical_formula_sum   'Cs2 P4 H10 O16'
_cell_volume   420.73141280
_cell_formula_units_Z   2
loop_
 _symmetry_equiv_pos_site_id
 _symmetry_equiv_pos_as_xyz
  1  'x, y, z'
loop_
 _atom_site_type_symbol
 _atom_site_label
 _atom_site_symmetry_multiplicity
 _atom_site_fract_x
 _atom_site_fract_y
 _atom_site_fract_z
 _atom_site_occupancy
  Cs  Cs0  1  -0.86409999  -0.68491153  0.35388554  1.0
  Cs  Cs1  1  -0.13590001  -0.31508847  0.64611446  1.0
  P  P2  1  -0.38757181  -0.83743001  0.79975491  1.0
  P  P3  1  -0.61242819  -0.16256999  0.20024509  1.0
  P  P4  1  -0.79200252  -0.75693370  0.83419291  1.0
  P  P5  1  -0.20799748  -0.24306630  0.16580709  1.0
  H  H6  1  -0.74536036  -0.95690926  0.98430294  1.0
  H  H7  1  -0.25463964  -0.04309074  0.01569706  1.0
  H  H8  1  -0.60148269  -0.23382554  0.68186396  1.0
  H  H9  1  -0.39851731  -0.76617446  0.31813604  1.0
  H  H10  1  -0.19073584  -0.77708523  0.66749456  1.0
  H  H11  1  -0.80926416  -0.22291477  0.33250544  1.0
  H  H12  1  -0.27260356  -0.56355319  0.97755299  1.0
  H  H13  1  -0.72739644  -0.43644681  0.02244701  1.0
  H  H14  1  -0.54144503  -0.36943096  0.78733880  1.0
  H  H15  1  -0.45855497  -0.63056904  0.21266120  1.0
  O  O16  1  -0.34651120  -0.82120150  0.64003570  1.0
  O  O17  1  -0.65348880  -0.17879850  0.35996430  1.0
  O  O18  1  -0.30953125  -0.38035884  0.98972883  1.0
  O  O19  1  -0.69046875  -0.61964116  0.01027117  1.0
  O  O20  1  -0.24499660  -0.69655598  0.97174114  1.0
  O  O21  1  -0.75500340  -0.30344402  0.02825886  1.0
  O  O22  1  -0.98846147  -0.71290600  0.69466429  1.0
  O  O23  1  -0.01153853  -0.28709400  0.30533571  1.0
  O  O24  1  -0.83043271  -0.94143745  0.86025320  1.0
  O  O25  1  -0.16956729  -0.05856255  0.13974680  1.0
  O  O26  1  -0.64004825  -0.35492422  0.67270743  1.0
  O  O27  1  -0.35995175  -0.64507578  0.32729257  1.0
  O  O28  1  -0.63187389  -0.98225485  0.16904241  1.0
  O  O29  1  -0.36812611  -0.01774515  0.83095759  1.0
  O  O30  1  -0.62752846  -0.78519268  0.73930525  1.0
  O  O31  1  -0.37247154  -0.21480732  0.26069475  1.0
