# generated using pymatgen
data_NaScS2
_symmetry_space_group_name_H-M   'P 1'
_cell_length_a   6.98429380
_cell_length_b   6.98429380
_cell_length_c   6.98429380
_cell_angle_alpha   31.33439970
_cell_angle_beta   31.33439970
_cell_angle_gamma   31.33439970
_symmetry_Int_Tables_number   1
_chemical_formula_structural   NaScS2
_chemical_formula_sum   'Na1 Sc1 S2'
_cell_volume   81.77704963
_cell_formula_units_Z   1
loop_
 _symmetry_equiv_pos_site_id
 _symmetry_equiv_pos_as_xyz
  1  'x, y, z'
loop_
 _atom_site_type_symbol
 _atom_site_label
 _atom_site_symmetry_multiplicity
 _atom_site_fract_x
 _atom_site_fract_y
 _atom_site_fract_z
 _atom_site_occupancy
  Na  Na0  1  0.00000000  0.00000000  0.00000000  1.0
  Sc  Sc1  1  1.50000000  0.50000000  0.50000000  1.0
  S  S2  1  0.76149429  0.76149429  0.76149429  1.0
  S  S3  1  1.23850571  1.23850571  0.23850571  1.0
