# generated using pymatgen
data_Li2Al
_symmetry_space_group_name_H-M   'P 1'
_cell_length_a   6.79471430
_cell_length_b   6.79471430
_cell_length_c   6.79471430
_cell_angle_alpha   60.00000000
_cell_angle_beta   60.00000000
_cell_angle_gamma   60.00000000
_symmetry_Int_Tables_number   1
_chemical_formula_structural   Li2Al
_chemical_formula_sum   'Li8 Al4'
_cell_volume   221.81892911
_cell_formula_units_Z   4
loop_
 _symmetry_equiv_pos_site_id
 _symmetry_equiv_pos_as_xyz
  1  'x, y, z'
loop_
 _atom_site_type_symbol
 _atom_site_label
 _atom_site_symmetry_multiplicity
 _atom_site_fract_x
 _atom_site_fract_y
 _atom_site_fract_z
 _atom_site_occupancy
  Li  Li0  1  -0.10129947  0.89870053  0.30389842  1.0
  Li  Li1  1  0.89870053  -0.69610158  0.89870053  1.0
  Li  Li2  1  0.35129947  0.35129947  0.35129947  1.0
  Li  Li3  1  -0.05389842  0.35129947  0.35129947  1.0
  Li  Li4  1  -0.69610158  0.89870053  0.89870053  1.0
  Li  Li5  1  0.89870053  -0.10129947  0.89870053  1.0
  Li  Li6  1  0.35129947  -0.05389842  0.35129947  1.0
  Li  Li7  1  0.35129947  0.35129947  -0.05389842  1.0
  Al  Al8  1  0.62500000  -0.37500000  1.12500000  1.0
  Al  Al9  1  0.62500000  0.12500000  0.62500000  1.0
  Al  Al10  1  0.62500000  -0.37500000  0.62500000  1.0
  Al  Al11  1  1.12500000  -0.37500000  0.62500000  1.0
