# generated using pymatgen
data_NaMnF4
_symmetry_space_group_name_H-M   'P 1'
_cell_length_a   5.84499716
_cell_length_b   5.00894913
_cell_length_c   5.91444569
_cell_angle_alpha   90.00000000
_cell_angle_beta   108.57529089
_cell_angle_gamma   90.00000000
_symmetry_Int_Tables_number   1
_chemical_formula_structural   NaMnF4
_chemical_formula_sum   'Na2 Mn2 F8'
_cell_volume   164.13839747
_cell_formula_units_Z   2
loop_
 _symmetry_equiv_pos_site_id
 _symmetry_equiv_pos_as_xyz
  1  'x, y, z'
loop_
 _atom_site_type_symbol
 _atom_site_label
 _atom_site_symmetry_multiplicity
 _atom_site_fract_x
 _atom_site_fract_y
 _atom_site_fract_z
 _atom_site_occupancy
  Na  Na0  1  0.00000000  0.50000000  0.50000000  1.0
  Na  Na1  1  0.00000000  0.00000000  0.00000000  1.0
  Mn  Mn2  1  0.50000000  0.50000000  0.00000000  1.0
  Mn  Mn3  1  0.50000000  0.00000000  0.50000000  1.0
  F  F4  1  0.80356711  0.35134301  0.11363846  1.0
  F  F5  1  0.80356711  0.14865699  0.61363846  1.0
  F  F6  1  0.19643289  0.85134301  0.38636154  1.0
  F  F7  1  0.19643289  0.64865699  0.88636154  1.0
  F  F8  1  0.38083160  0.23954375  0.16366418  1.0
  F  F9  1  0.38083160  0.26045625  0.66366418  1.0
  F  F10  1  0.61916840  0.73954375  0.33633582  1.0
  F  F11  1  0.61916840  0.76045625  0.83633582  1.0
