# generated using pymatgen
data_Sr3NiIrO6
_symmetry_space_group_name_H-M   'P 1'
_cell_length_a   6.71409314
_cell_length_b   6.71409314
_cell_length_c   6.71409314
_cell_angle_alpha   92.02822503
_cell_angle_beta   92.02822503
_cell_angle_gamma   92.02822503
_symmetry_Int_Tables_number   1
_chemical_formula_structural   Sr3NiIrO6
_chemical_formula_sum   'Sr6 Ni2 Ir2 O12'
_cell_volume   302.08227217
_cell_formula_units_Z   2
loop_
 _symmetry_equiv_pos_site_id
 _symmetry_equiv_pos_as_xyz
  1  'x, y, z'
loop_
 _atom_site_type_symbol
 _atom_site_label
 _atom_site_symmetry_multiplicity
 _atom_site_fract_x
 _atom_site_fract_y
 _atom_site_fract_z
 _atom_site_occupancy
  Sr  Sr0  1  0.88719653  1.25000000  -0.38719653  1.0
  Sr  Sr1  1  1.38719653  0.11280347  -0.25000000  1.0
  Sr  Sr2  1  0.75000000  0.38719653  0.11280347  1.0
  Sr  Sr3  1  1.25000000  0.61280347  -0.11280347  1.0
  Sr  Sr4  1  1.11280347  -0.25000000  0.38719653  1.0
  Sr  Sr5  1  0.61280347  0.88719653  0.25000000  1.0
  Ni  Ni6  1  0.25000000  0.25000000  0.25000000  1.0
  Ni  Ni7  1  0.75000000  0.75000000  0.75000000  1.0
  Ir  Ir8  1  0.50000000  0.50000000  0.50000000  1.0
  Ir  Ir9  1  0.00000000  0.00000000  0.00000000  1.0
  O  O10  1  1.21323385  0.40932537  -0.46202781  1.0
  O  O11  1  0.71323385  1.03797219  -0.09067463  1.0
  O  O12  1  0.96202781  0.09067463  0.28676615  1.0
  O  O13  1  1.46202781  -0.21323385  0.59067463  1.0
  O  O14  1  1.59067463  0.46202781  -0.21323385  1.0
  O  O15  1  1.09067463  0.28676615  -0.03797219  1.0
  O  O16  1  0.78676615  0.59067463  0.46202781  1.0
  O  O17  1  1.28676615  -0.03797219  0.09067463  1.0
  O  O18  1  0.53797219  1.21323385  -0.59067463  1.0
  O  O19  1  1.03797219  0.90932537  -0.28676615  1.0
  O  O20  1  0.90932537  0.71323385  0.03797219  1.0
  O  O21  1  0.40932537  0.53797219  0.21323385  1.0
