# generated using pymatgen
data_TiCuSi
_symmetry_space_group_name_H-M   'P 1'
_cell_length_a   6.20569887
_cell_length_b   3.74742804
_cell_length_c   7.15197869
_cell_angle_alpha   90.00000000
_cell_angle_beta   90.00000000
_cell_angle_gamma   90.00000000
_symmetry_Int_Tables_number   1
_chemical_formula_structural   TiCuSi
_chemical_formula_sum   'Ti4 Cu4 Si4'
_cell_volume   166.32219630
_cell_formula_units_Z   4
loop_
 _symmetry_equiv_pos_site_id
 _symmetry_equiv_pos_as_xyz
  1  'x, y, z'
loop_
 _atom_site_type_symbol
 _atom_site_label
 _atom_site_symmetry_multiplicity
 _atom_site_fract_x
 _atom_site_fract_y
 _atom_site_fract_z
 _atom_site_occupancy
  Ti  Ti0  1  0.98068630  0.75000000  0.68243610  1.0
  Ti  Ti1  1  0.48068630  0.75000000  0.81756390  1.0
  Ti  Ti2  1  0.01931370  0.25000000  0.31756390  1.0
  Ti  Ti3  1  0.51931370  0.25000000  0.18243610  1.0
  Cu  Cu4  1  0.84535651  0.75000000  0.06756387  1.0
  Cu  Cu5  1  0.34535651  0.75000000  0.43243613  1.0
  Cu  Cu6  1  0.15464349  0.25000000  0.93243613  1.0
  Cu  Cu7  1  0.65464349  0.25000000  0.56756387  1.0
  Si  Si8  1  0.73292307  0.75000000  0.38270357  1.0
  Si  Si9  1  0.23292307  0.75000000  0.11729643  1.0
  Si  Si10  1  0.26707693  0.25000000  0.61729643  1.0
  Si  Si11  1  0.76707693  0.25000000  0.88270357  1.0
