# generated using pymatgen
data_InTe2O5F
_symmetry_space_group_name_H-M   'P 1'
_cell_length_a   6.77289021
_cell_length_b   6.77289021
_cell_length_c   13.45223071
_cell_angle_alpha   90.00000000
_cell_angle_beta   90.00000000
_cell_angle_gamma   116.15728282
_symmetry_Int_Tables_number   1
_chemical_formula_structural   InTe2O5F
_chemical_formula_sum   'In4 Te8 O20 F4'
_cell_volume   553.88432015
_cell_formula_units_Z   4
loop_
 _symmetry_equiv_pos_site_id
 _symmetry_equiv_pos_as_xyz
  1  'x, y, z'
loop_
 _atom_site_type_symbol
 _atom_site_label
 _atom_site_symmetry_multiplicity
 _atom_site_fract_x
 _atom_site_fract_y
 _atom_site_fract_z
 _atom_site_occupancy
  In  In0  1  -0.05199629  1.75523833  0.12662946  1.0
  In  In1  1  0.75523833  0.94800371  0.87337054  1.0
  In  In2  1  -0.75523833  1.05199629  0.37337054  1.0
  In  In3  1  0.05199629  0.24476167  0.62662946  1.0
  Te  Te4  1  0.27686148  0.38772087  0.14673464  1.0
  Te  Te5  1  -0.61227913  1.27686148  0.85326536  1.0
  Te  Te6  1  0.61227913  0.72313852  0.35326536  1.0
  Te  Te7  1  -0.27686148  1.61227913  0.64673464  1.0
  Te  Te8  1  -0.14495053  1.30785734  0.39007303  1.0
  Te  Te9  1  0.30785734  0.85504947  0.60992697  1.0
  Te  Te10  1  -0.30785734  1.14495053  0.10992697  1.0
  Te  Te11  1  0.14495053  0.69214266  0.89007303  1.0
  O  O12  1  0.20349752  0.76917922  0.02956144  1.0
  O  O13  1  -0.23082078  1.20349752  0.97043856  1.0
  O  O14  1  0.23082078  0.79650248  0.47043856  1.0
  O  O15  1  -0.20349752  1.23082078  0.52956144  1.0
  O  O16  1  -0.00673397  1.90074413  0.62857317  1.0
  O  O17  1  0.90074413  0.99326603  0.37142683  1.0
  O  O18  1  -0.90074413  1.00673397  0.87142683  1.0
  O  O19  1  0.00673397  0.09925587  0.12857317  1.0
  O  O20  1  0.30026630  0.34788213  0.29032256  1.0
  O  O21  1  -0.65211787  1.30026630  0.70967744  1.0
  O  O22  1  0.65211787  0.69973370  0.20967744  1.0
  O  O23  1  -0.30026630  1.65211787  0.79032256  1.0
  O  O24  1  -0.10156358  1.42640726  0.16814165  1.0
  O  O25  1  0.42640726  0.89843642  0.83185835  1.0
  O  O26  1  -0.42640726  1.10156358  0.33185835  1.0
  O  O27  1  0.10156358  0.57359274  0.66814165  1.0
  O  O28  1  -0.26760149  1.53711813  0.41771599  1.0
  O  O29  1  0.53711813  0.73239851  0.58228401  1.0
  O  O30  1  -0.53711813  1.26760149  0.08228401  1.0
  O  O31  1  0.26760149  0.46288187  0.91771599  1.0
  F  F32  1  0.17246842  0.82753158  0.25000000  1.0
  F  F33  1  -0.17246842  1.17246842  0.75000000  1.0
  F  F34  1  0.73696927  0.73696927  0.00000000  1.0
  F  F35  1  0.26303073  0.26303073  0.50000000  1.0
