# generated using pymatgen
data_Y3Co13B2
_symmetry_space_group_name_H-M   'P 1'
_cell_length_a   4.97324084
_cell_length_b   4.97324084
_cell_length_c   10.76934806
_cell_angle_alpha   90.00000000
_cell_angle_beta   90.00000000
_cell_angle_gamma   120.00000000
_symmetry_Int_Tables_number   1
_chemical_formula_structural   Y3Co13B2
_chemical_formula_sum   'Y3 Co13 B2'
_cell_volume   230.67420276
_cell_formula_units_Z   1
loop_
 _symmetry_equiv_pos_site_id
 _symmetry_equiv_pos_as_xyz
  1  'x, y, z'
loop_
 _atom_site_type_symbol
 _atom_site_label
 _atom_site_symmetry_multiplicity
 _atom_site_fract_x
 _atom_site_fract_y
 _atom_site_fract_z
 _atom_site_occupancy
  Y  Y0  1  0.00000000  0.00000000  0.67858141  1.0
  Y  Y1  1  -0.00000000  -0.00000000  0.32141859  1.0
  Y  Y2  1  -0.00000000  0.00000000  0.00000000  1.0
  Co  Co3  1  0.50000000  0.50000000  0.86461820  1.0
  Co  Co4  1  0.50000000  0.50000000  0.13538180  1.0
  Co  Co5  1  0.50000000  -0.00000000  0.86461820  1.0
  Co  Co6  1  0.50000000  0.00000000  0.13538180  1.0
  Co  Co7  1  0.00000000  0.50000000  0.86461820  1.0
  Co  Co8  1  0.00000000  0.50000000  0.13538180  1.0
  Co  Co9  1  0.33333333  0.66666667  0.68191344  1.0
  Co  Co10  1  0.33333333  0.66666667  0.31808656  1.0
  Co  Co11  1  0.66666667  0.33333333  0.68191344  1.0
  Co  Co12  1  0.66666667  0.33333333  0.31808656  1.0
  Co  Co13  1  0.50000000  0.50000000  0.50000000  1.0
  Co  Co14  1  0.50000000  0.00000000  0.50000000  1.0
  Co  Co15  1  0.00000000  0.50000000  0.50000000  1.0
  B  B16  1  0.33333333  0.66666667  0.00000000  1.0
  B  B17  1  0.66666667  0.33333333  -0.00000000  1.0
