# generated using pymatgen
data_Rb2Te
_symmetry_space_group_name_H-M   'P 1'
_cell_length_a   9.15383804
_cell_length_b   5.59752545
_cell_length_c   11.14551068
_cell_angle_alpha   90.00000000
_cell_angle_beta   90.00000000
_cell_angle_gamma   90.00000000
_symmetry_Int_Tables_number   1
_chemical_formula_structural   Rb2Te
_chemical_formula_sum   'Rb8 Te4'
_cell_volume   571.08305378
_cell_formula_units_Z   4
loop_
 _symmetry_equiv_pos_site_id
 _symmetry_equiv_pos_as_xyz
  1  'x, y, z'
loop_
 _atom_site_type_symbol
 _atom_site_label
 _atom_site_symmetry_multiplicity
 _atom_site_fract_x
 _atom_site_fract_y
 _atom_site_fract_z
 _atom_site_occupancy
  Rb  Rb0  1  0.97060368  0.75000000  0.67237799  1.0
  Rb  Rb1  1  0.47060368  0.75000000  0.82762201  1.0
  Rb  Rb2  1  0.02939632  0.25000000  0.32762201  1.0
  Rb  Rb3  1  0.52939632  0.25000000  0.17237799  1.0
  Rb  Rb4  1  0.85282007  0.75000000  0.07063554  1.0
  Rb  Rb5  1  0.35282007  0.75000000  0.42936446  1.0
  Rb  Rb6  1  0.14717993  0.25000000  0.92936446  1.0
  Rb  Rb7  1  0.64717993  0.25000000  0.57063554  1.0
  Te  Te8  1  0.75191837  0.75000000  0.38290441  1.0
  Te  Te9  1  0.25191837  0.75000000  0.11709559  1.0
  Te  Te10  1  0.24808163  0.25000000  0.61709559  1.0
  Te  Te11  1  0.74808163  0.25000000  0.88290441  1.0
