# generated using pymatgen
data_K2Zr(BO3)2
_symmetry_space_group_name_H-M   'P 1'
_cell_length_a   6.71154821
_cell_length_b   6.71154821
_cell_length_c   6.71154821
_cell_angle_alpha   46.78955800
_cell_angle_beta   46.78955800
_cell_angle_gamma   46.78955800
_symmetry_Int_Tables_number   1
_chemical_formula_structural   K2Zr(BO3)2
_chemical_formula_sum   'K2 Zr1 B2 O6'
_cell_volume   146.73551800
_cell_formula_units_Z   1
loop_
 _symmetry_equiv_pos_site_id
 _symmetry_equiv_pos_as_xyz
  1  'x, y, z'
loop_
 _atom_site_type_symbol
 _atom_site_label
 _atom_site_symmetry_multiplicity
 _atom_site_fract_x
 _atom_site_fract_y
 _atom_site_fract_z
 _atom_site_occupancy
  K  K0  1  0.78906908  0.78906908  0.78906908  1.0
  K  K1  1  1.21093093  1.21093093  0.21093093  1.0
  Zr  Zr2  1  0.00000000  0.00000000  0.00000000  1.0
  B  B3  1  1.59762515  0.59762515  0.59762515  1.0
  B  B4  1  1.40237485  0.40237485  0.40237485  1.0
  O  O5  1  1.25296480  0.25296480  0.70304419  1.0
  O  O6  1  1.25296480  0.70304419  0.25296480  1.0
  O  O7  1  1.29695581  0.74703520  0.74703520  1.0
  O  O8  1  1.74703520  0.29695581  0.74703520  1.0
  O  O9  1  1.74703520  0.74703520  0.29695581  1.0
  O  O10  1  1.70304419  0.25296480  0.25296480  1.0
