# generated using pymatgen
data_Y(Mo3Se4)2
_symmetry_space_group_name_H-M   'P 1'
_cell_length_a   6.76104396
_cell_length_b   6.76104396
_cell_length_c   6.76104396
_cell_angle_alpha   89.26720501
_cell_angle_beta   89.26720501
_cell_angle_gamma   89.26720501
_symmetry_Int_Tables_number   1
_chemical_formula_structural   Y(Mo3Se4)2
_chemical_formula_sum   'Y1 Mo6 Se8'
_cell_volume   308.98372727
_cell_formula_units_Z   1
loop_
 _symmetry_equiv_pos_site_id
 _symmetry_equiv_pos_as_xyz
  1  'x, y, z'
loop_
 _atom_site_type_symbol
 _atom_site_label
 _atom_site_symmetry_multiplicity
 _atom_site_fract_x
 _atom_site_fract_y
 _atom_site_fract_z
 _atom_site_occupancy
  Y  Y0  1  0.00000000  0.00000000  0.00000000  1.0
  Mo  Mo1  1  0.44164566  0.57608232  -0.23372087  1.0
  Mo  Mo2  1  0.42391768  0.23372087  -0.44164566  1.0
  Mo  Mo3  1  0.23372087  0.55835434  -0.57608232  1.0
  Mo  Mo4  1  0.55835434  0.42391768  -0.76627913  1.0
  Mo  Mo5  1  0.57608232  0.76627913  -0.55835434  1.0
  Mo  Mo6  1  0.76627913  0.44164566  -0.42391768  1.0
  Se  Se7  1  0.87678070  0.63023659  -0.75603570  1.0
  Se  Se8  1  0.36976341  0.75603570  -0.87678070  1.0
  Se  Se9  1  0.75603570  0.12321930  -0.63023659  1.0
  Se  Se10  1  0.12321930  0.36976341  -0.24396430  1.0
  Se  Se11  1  0.63023659  0.24396430  -0.12321930  1.0
  Se  Se12  1  0.24396430  0.87678070  -0.36976341  1.0
  Se  Se13  1  0.76308625  0.76308625  -0.23691375  1.0
  Se  Se14  1  1.23691375  1.23691375  0.23691375  1.0
