# generated using pymatgen
data_SrCd11
_symmetry_space_group_name_H-M   'P 1'
_cell_length_a   9.43191458
_cell_length_b   9.43191458
_cell_length_c   9.43191458
_cell_angle_alpha   99.87322744
_cell_angle_beta   99.87322744
_cell_angle_gamma   131.07622221
_symmetry_Int_Tables_number   1
_chemical_formula_structural   SrCd11
_chemical_formula_sum   'Sr2 Cd22'
_cell_volume   575.74605566
_cell_formula_units_Z   2
loop_
 _symmetry_equiv_pos_site_id
 _symmetry_equiv_pos_as_xyz
  1  'x, y, z'
loop_
 _atom_site_type_symbol
 _atom_site_label
 _atom_site_symmetry_multiplicity
 _atom_site_fract_x
 _atom_site_fract_y
 _atom_site_fract_z
 _atom_site_occupancy
  Sr  Sr0  1  0.75000000  1.25000000  0.50000000  1.0
  Sr  Sr1  1  -0.00000000  -0.00000000  -0.00000000  1.0
  Cd  Cd2  1  0.25000000  0.75000000  0.50000000  1.0
  Cd  Cd3  1  0.50000000  0.50000000  -0.00000000  1.0
  Cd  Cd4  1  0.37500000  1.12500000  0.75000000  1.0
  Cd  Cd5  1  0.37500000  0.62500000  0.25000000  1.0
  Cd  Cd6  1  0.87500000  0.62500000  1.25000000  1.0
  Cd  Cd7  1  0.37500000  0.62500000  0.75000000  1.0
  Cd  Cd8  1  0.92782172  0.75144323  1.58248803  1.0
  Cd  Cd9  1  0.16895520  0.34533369  0.41751197  1.0
  Cd  Cd10  1  1.58104480  0.90466631  1.08248803  1.0
  Cd  Cd11  1  0.82217828  1.49855677  0.91751197  1.0
  Cd  Cd12  1  0.92782172  0.34533369  1.17637849  1.0
  Cd  Cd13  1  0.16895520  0.75144323  0.82362151  1.0
  Cd  Cd14  1  1.58104480  1.49855677  1.67637849  1.0
  Cd  Cd15  1  0.82217828  0.90466631  0.32362151  1.0
  Cd  Cd16  1  1.24855677  1.07217828  1.41751197  1.0
  Cd  Cd17  1  0.65466631  0.83104480  0.58248803  1.0
  Cd  Cd18  1  1.09533369  1.41895520  0.91751197  1.0
  Cd  Cd19  1  1.50144323  1.17782172  1.08248803  1.0
  Cd  Cd20  1  1.24855677  0.83104480  1.17637849  1.0
  Cd  Cd21  1  0.65466631  1.07217828  0.82362151  1.0
  Cd  Cd22  1  1.09533369  1.17782172  0.67637849  1.0
  Cd  Cd23  1  1.50144323  1.41895520  1.32362151  1.0
