# generated using pymatgen
data_PbSe2
_symmetry_space_group_name_H-M   'P 1'
_cell_length_a   6.05084737
_cell_length_b   6.05084737
_cell_length_c   6.05084737
_cell_angle_alpha   115.13068510
_cell_angle_beta   115.13068510
_cell_angle_gamma   98.66351368
_symmetry_Int_Tables_number   1
_chemical_formula_structural   PbSe2
_chemical_formula_sum   'Pb2 Se4'
_cell_volume   166.11846466
_cell_formula_units_Z   2
loop_
 _symmetry_equiv_pos_site_id
 _symmetry_equiv_pos_as_xyz
  1  'x, y, z'
loop_
 _atom_site_type_symbol
 _atom_site_label
 _atom_site_symmetry_multiplicity
 _atom_site_fract_x
 _atom_site_fract_y
 _atom_site_fract_z
 _atom_site_occupancy
  Pb  Pb0  1  0.25000000  0.25000000  0.00000000  1.0
  Pb  Pb1  1  0.75000000  0.75000000  0.00000000  1.0
  Se  Se2  1  0.86888197  0.36888197  1.23776394  1.0
  Se  Se3  1  0.63111803  0.86888197  0.50000000  1.0
  Se  Se4  1  0.36888197  0.13111803  0.50000000  1.0
  Se  Se5  1  1.13111803  0.63111803  0.76223606  1.0
