# generated using pymatgen
data_C
_symmetry_space_group_name_H-M   'P 1'
_cell_length_a   14.56696449
_cell_length_b   14.56696449
_cell_length_c   14.56696449
_cell_angle_alpha   9.93098389
_cell_angle_beta   9.93098389
_cell_angle_gamma   9.93098389
_symmetry_Int_Tables_number   1
_chemical_formula_structural   C
_chemical_formula_sum   C14
_cell_volume   79.81959481
_cell_formula_units_Z   14
loop_
 _symmetry_equiv_pos_site_id
 _symmetry_equiv_pos_as_xyz
  1  'x, y, z'
loop_
 _atom_site_type_symbol
 _atom_site_label
 _atom_site_symmetry_multiplicity
 _atom_site_fract_x
 _atom_site_fract_y
 _atom_site_fract_z
 _atom_site_occupancy
  C  C0  1  0.98221664  -0.01778336  -0.01778336  1.0
  C  C1  1  0.01778336  0.01778336  0.01778336  1.0
  C  C2  1  0.82739508  -0.17260492  -0.17260492  1.0
  C  C3  1  0.17260492  0.17260492  0.17260492  1.0
  C  C4  1  0.79185301  -0.20814699  -0.20814699  1.0
  C  C5  1  0.20814699  0.20814699  0.20814699  1.0
  C  C6  1  0.73186871  -0.26813129  -0.26813129  1.0
  C  C7  1  0.26813129  0.26813129  0.26813129  1.0
  C  C8  1  0.69632154  -0.30367846  -0.30367846  1.0
  C  C9  1  0.30367846  0.30367846  0.30367846  1.0
  C  C10  1  0.58952526  0.58952526  -0.41047474  1.0
  C  C11  1  0.41047474  0.41047474  -0.58952526  1.0
  C  C12  1  0.55341988  0.55341988  -0.44658012  1.0
  C  C13  1  0.44658012  0.44658012  -0.55341988  1.0
