# generated using pymatgen
data_K2Zr7Cl18
_symmetry_space_group_name_H-M   'P 1'
_cell_length_a   10.38483392
_cell_length_b   10.38483392
_cell_length_c   10.38483392
_cell_angle_alpha   55.77947206
_cell_angle_beta   55.77947206
_cell_angle_gamma   55.77947206
_symmetry_Int_Tables_number   1
_chemical_formula_structural   K2Zr7Cl18
_chemical_formula_sum   'K2 Zr7 Cl18'
_cell_volume   714.41576557
_cell_formula_units_Z   1
loop_
 _symmetry_equiv_pos_site_id
 _symmetry_equiv_pos_as_xyz
  1  'x, y, z'
loop_
 _atom_site_type_symbol
 _atom_site_label
 _atom_site_symmetry_multiplicity
 _atom_site_fract_x
 _atom_site_fract_y
 _atom_site_fract_z
 _atom_site_occupancy
  K  K0  1  0.27544974  0.27544974  0.27544974  1.0
  K  K1  1  0.72455026  -0.27544974  -0.27544974  1.0
  Zr  Zr2  1  0.00000000  0.00000000  0.00000000  1.0
  Zr  Zr3  1  0.29244363  0.66138569  -0.60097478  1.0
  Zr  Zr4  1  0.60097478  0.70755637  -0.66138569  1.0
  Zr  Zr5  1  0.33861431  0.60097478  -0.29244363  1.0
  Zr  Zr6  1  0.70755637  0.33861431  -0.39902522  1.0
  Zr  Zr7  1  0.39902522  0.29244363  -0.33861431  1.0
  Zr  Zr8  1  0.66138569  0.39902522  -0.70755637  1.0
  Cl  Cl9  1  0.56576230  0.15216829  -0.55448880  1.0
  Cl  Cl10  1  0.55448880  0.43423770  -0.15216829  1.0
  Cl  Cl11  1  0.84783171  0.55448880  -0.56576230  1.0
  Cl  Cl12  1  0.43423770  0.84783171  -0.44551120  1.0
  Cl  Cl13  1  0.44551120  0.56576230  -0.84783171  1.0
  Cl  Cl14  1  0.15216829  0.44551120  -0.43423770  1.0
  Cl  Cl15  1  0.37269917  0.91985539  -0.78545417  1.0
  Cl  Cl16  1  0.78545417  -0.37269917  0.08014461  1.0
  Cl  Cl17  1  1.08014461  -0.21454583  -0.37269917  1.0
  Cl  Cl18  1  0.62730083  0.08014461  -0.21454583  1.0
  Cl  Cl19  1  0.21454583  0.37269917  -0.08014461  1.0
  Cl  Cl20  1  0.91985539  0.21454583  -0.62730083  1.0
  Cl  Cl21  1  0.27685243  0.03084870  -0.14296137  1.0
  Cl  Cl22  1  1.14296137  -0.27685243  -0.03084870  1.0
  Cl  Cl23  1  0.96915130  0.14296137  -0.27685243  1.0
  Cl  Cl24  1  0.72314757  -0.03084870  0.14296137  1.0
  Cl  Cl25  1  0.85703863  -0.72314757  0.03084870  1.0
  Cl  Cl26  1  1.03084870  -0.14296137  -0.72314757  1.0
