# generated using pymatgen
data_InBiO3
_symmetry_space_group_name_H-M   'P 1'
_cell_length_a   6.09597625
_cell_length_b   8.21757825
_cell_length_c   5.67678680
_cell_angle_alpha   90.00000000
_cell_angle_beta   90.00000000
_cell_angle_gamma   90.00000000
_symmetry_Int_Tables_number   1
_chemical_formula_structural   InBiO3
_chemical_formula_sum   'In4 Bi4 O12'
_cell_volume   284.37387680
_cell_formula_units_Z   4
loop_
 _symmetry_equiv_pos_site_id
 _symmetry_equiv_pos_as_xyz
  1  'x, y, z'
loop_
 _atom_site_type_symbol
 _atom_site_label
 _atom_site_symmetry_multiplicity
 _atom_site_fract_x
 _atom_site_fract_y
 _atom_site_fract_z
 _atom_site_occupancy
  In  In0  1  0.50000000  0.00000000  0.50000000  1.0
  In  In1  1  0.50000000  0.50000000  0.50000000  1.0
  In  In2  1  0.00000000  0.00000000  0.00000000  1.0
  In  In3  1  -0.00000000  0.50000000  0.00000000  1.0
  Bi  Bi4  1  0.04296797  0.75000000  0.51135359  1.0
  Bi  Bi5  1  0.54296797  0.75000000  -0.01135359  1.0
  Bi  Bi6  1  0.95703203  0.25000000  0.48864641  1.0
  Bi  Bi7  1  0.45703203  0.25000000  1.01135359  1.0
  O  O8  1  0.31603291  0.94125356  0.82833159  1.0
  O  O9  1  0.31603291  0.55874644  0.82833159  1.0
  O  O10  1  0.81603291  0.94125356  0.67166841  1.0
  O  O11  1  0.81603291  0.55874644  0.67166841  1.0
  O  O12  1  0.68396709  0.44125356  0.17166841  1.0
  O  O13  1  0.68396709  0.05874644  0.17166841  1.0
  O  O14  1  0.18396709  0.44125356  0.32833159  1.0
  O  O15  1  0.18396709  0.05874644  0.32833159  1.0
  O  O16  1  0.95043806  0.75000000  0.13335009  1.0
  O  O17  1  0.45043806  0.75000000  0.36664991  1.0
  O  O18  1  0.04956194  0.25000000  0.86664991  1.0
  O  O19  1  0.54956194  0.25000000  0.63335009  1.0
