# generated using pymatgen
data_SnH4(ClO)2
_symmetry_space_group_name_H-M   'P 1'
_cell_length_a   9.64397988
_cell_length_b   7.20740750
_cell_length_c   9.04118647
_cell_angle_alpha   90.00000000
_cell_angle_beta   115.61392601
_cell_angle_gamma   90.00000000
_symmetry_Int_Tables_number   1
_chemical_formula_structural   SnH4(ClO)2
_chemical_formula_sum   'Sn4 H16 Cl8 O8'
_cell_volume   566.67767607
_cell_formula_units_Z   4
loop_
 _symmetry_equiv_pos_site_id
 _symmetry_equiv_pos_as_xyz
  1  'x, y, z'
loop_
 _atom_site_type_symbol
 _atom_site_label
 _atom_site_symmetry_multiplicity
 _atom_site_fract_x
 _atom_site_fract_y
 _atom_site_fract_z
 _atom_site_occupancy
  Sn  Sn0  1  0.87606710  0.75881058  0.53862467  1.0
  Sn  Sn1  1  0.87606710  0.74118942  0.03862467  1.0
  Sn  Sn2  1  0.12393290  0.25881058  0.96137533  1.0
  Sn  Sn3  1  0.12393290  0.24118942  0.46137533  1.0
  H  H4  1  0.64264363  0.29258514  0.97271734  1.0
  H  H5  1  0.64264363  0.20741486  0.47271734  1.0
  H  H6  1  0.35735637  0.79258514  0.52728266  1.0
  H  H7  1  0.35735637  0.70741486  0.02728266  1.0
  H  H8  1  0.59994507  0.97463644  0.90584157  1.0
  H  H9  1  0.59994507  0.52536356  0.40584157  1.0
  H  H10  1  0.40005493  0.47463644  0.59415843  1.0
  H  H11  1  0.40005493  0.02536356  0.09415843  1.0
  H  H12  1  0.55282455  0.80247161  0.98116073  1.0
  H  H13  1  0.55282455  0.69752839  0.48116073  1.0
  H  H14  1  0.44717545  0.30247161  0.51883927  1.0
  H  H15  1  0.44717545  0.19752839  0.01883927  1.0
  H  H16  1  0.49664928  0.75879107  0.70143050  1.0
  H  H17  1  0.49664928  0.74120893  0.20143050  1.0
  H  H18  1  0.50335072  0.25879107  0.79856950  1.0
  H  H19  1  0.50335072  0.24120893  0.29856950  1.0
  Cl  Cl20  1  0.81961267  0.49648766  0.80650643  1.0
  Cl  Cl21  1  0.81961267  0.00351234  0.30650643  1.0
  Cl  Cl22  1  0.18038733  0.99648766  0.69349357  1.0
  Cl  Cl23  1  0.18038733  0.50351234  0.19349357  1.0
  Cl  Cl24  1  0.78505237  0.99819183  0.68474722  1.0
  Cl  Cl25  1  0.78505237  0.50180817  0.18474722  1.0
  Cl  Cl26  1  0.21494763  0.49819183  0.81525278  1.0
  Cl  Cl27  1  0.21494763  0.00180817  0.31525278  1.0
  O  O28  1  0.60584827  0.83551612  0.91036609  1.0
  O  O29  1  0.60584827  0.66448388  0.41036609  1.0
  O  O30  1  0.39415173  0.33551612  0.58963391  1.0
  O  O31  1  0.39415173  0.16448388  0.08963391  1.0
  O  O32  1  0.44224048  0.70712400  0.58888964  1.0
  O  O33  1  0.44224048  0.79287600  0.08888964  1.0
  O  O34  1  0.55775952  0.20712400  0.91111036  1.0
  O  O35  1  0.55775952  0.29287600  0.41111036  1.0
