# generated using pymatgen
data_Ni3(BiS)2
_symmetry_space_group_name_H-M   'P 1'
_cell_length_a   5.52833465
_cell_length_b   5.52833465
_cell_length_c   5.52833465
_cell_angle_alpha   63.50965400
_cell_angle_beta   63.50965400
_cell_angle_gamma   63.50965400
_symmetry_Int_Tables_number   1
_chemical_formula_structural   Ni3(BiS)2
_chemical_formula_sum   'Ni3 Bi2 S2'
_cell_volume   128.74407111
_cell_formula_units_Z   1
loop_
 _symmetry_equiv_pos_site_id
 _symmetry_equiv_pos_as_xyz
  1  'x, y, z'
loop_
 _atom_site_type_symbol
 _atom_site_label
 _atom_site_symmetry_multiplicity
 _atom_site_fract_x
 _atom_site_fract_y
 _atom_site_fract_z
 _atom_site_occupancy
  Ni  Ni0  1  0.50000000  1.00000000  -0.50000000  1.0
  Ni  Ni1  1  0.50000000  -0.50000000  -0.00000000  1.0
  Ni  Ni2  1  -0.00000000  0.50000000  -0.50000000  1.0
  Bi  Bi3  1  0.50000000  0.50000000  -0.50000000  1.0
  Bi  Bi4  1  0.00000000  0.00000000  0.00000000  1.0
  S  S5  1  0.77228220  0.77228220  -0.22771780  1.0
  S  S6  1  1.22771780  1.22771780  0.22771780  1.0
