# generated using pymatgen
data_CdWO4
_symmetry_space_group_name_H-M   'P 1'
_cell_length_a   5.08478154
_cell_length_b   6.00412542
_cell_length_c   5.12464963
_cell_angle_alpha   90.00000000
_cell_angle_beta   91.22651542
_cell_angle_gamma   90.00000000
_symmetry_Int_Tables_number   1
_chemical_formula_structural   CdWO4
_chemical_formula_sum   'Cd2 W2 O8'
_cell_volume   156.41799592
_cell_formula_units_Z   2
loop_
 _symmetry_equiv_pos_site_id
 _symmetry_equiv_pos_as_xyz
  1  'x, y, z'
loop_
 _atom_site_type_symbol
 _atom_site_label
 _atom_site_symmetry_multiplicity
 _atom_site_fract_x
 _atom_site_fract_y
 _atom_site_fract_z
 _atom_site_occupancy
  Cd  Cd0  1  0.00000000  0.80828590  0.25000000  1.0
  Cd  Cd1  1  0.00000000  0.19171410  0.75000000  1.0
  W  W2  1  0.50000000  0.32503596  0.25000000  1.0
  W  W3  1  0.50000000  0.67496404  0.75000000  1.0
  O  O4  1  0.74215009  0.86549456  0.88417646  1.0
  O  O5  1  0.74215009  0.13450544  0.38417646  1.0
  O  O6  1  0.25784991  0.86549456  0.61582354  1.0
  O  O7  1  0.25784991  0.13450544  0.11582354  1.0
  O  O8  1  0.69993953  0.59642134  0.44774281  1.0
  O  O9  1  0.69993953  0.40357866  0.94774281  1.0
  O  O10  1  0.30006047  0.59642134  0.05225719  1.0
  O  O11  1  0.30006047  0.40357866  0.55225719  1.0
