# generated using pymatgen
data_SrCuTe2O7
_symmetry_space_group_name_H-M   'P 1'
_cell_length_a   7.30455478
_cell_length_b   15.61902640
_cell_length_c   5.59072667
_cell_angle_alpha   90.00000000
_cell_angle_beta   90.00000000
_cell_angle_gamma   90.00000000
_symmetry_Int_Tables_number   1
_chemical_formula_structural   SrCuTe2O7
_chemical_formula_sum   'Sr4 Cu4 Te8 O28'
_cell_volume   637.84619592
_cell_formula_units_Z   4
loop_
 _symmetry_equiv_pos_site_id
 _symmetry_equiv_pos_as_xyz
  1  'x, y, z'
loop_
 _atom_site_type_symbol
 _atom_site_label
 _atom_site_symmetry_multiplicity
 _atom_site_fract_x
 _atom_site_fract_y
 _atom_site_fract_z
 _atom_site_occupancy
  Sr  Sr0  1  0.19842314  0.55039934  0.75000000  1.0
  Sr  Sr1  1  0.19842314  0.94960066  0.25000000  1.0
  Sr  Sr2  1  0.80157686  0.05039934  0.75000000  1.0
  Sr  Sr3  1  0.80157686  0.44960066  0.25000000  1.0
  Cu  Cu4  1  0.70331272  0.60785255  0.75000000  1.0
  Cu  Cu5  1  0.70331272  0.89214745  0.25000000  1.0
  Cu  Cu6  1  0.29668728  0.10785255  0.75000000  1.0
  Cu  Cu7  1  0.29668728  0.39214745  0.25000000  1.0
  Te  Te8  1  0.95725271  0.83017907  0.75000000  1.0
  Te  Te9  1  0.95725271  0.66982093  0.25000000  1.0
  Te  Te10  1  0.04274729  0.33017907  0.75000000  1.0
  Te  Te11  1  0.04274729  0.16982093  0.25000000  1.0
  Te  Te12  1  0.45396488  0.82485987  0.75000000  1.0
  Te  Te13  1  0.45396488  0.67514013  0.25000000  1.0
  Te  Te14  1  0.54603512  0.32485987  0.75000000  1.0
  Te  Te15  1  0.54603512  0.17514013  0.25000000  1.0
  O  O16  1  0.88832796  0.91423928  1.00420025  1.0
  O  O17  1  0.88832796  0.91423928  0.49579975  1.0
  O  O18  1  0.88832796  0.58576072  0.50420025  1.0
  O  O19  1  0.88832796  0.58576072  -0.00420025  1.0
  O  O20  1  0.11167204  0.41423928  1.00420025  1.0
  O  O21  1  0.11167204  0.41423928  0.49579975  1.0
  O  O22  1  0.11167204  0.08576072  0.50420025  1.0
  O  O23  1  0.11167204  0.08576072  -0.00420025  1.0
  O  O24  1  0.50269549  0.60023004  0.97989494  1.0
  O  O25  1  0.50269549  0.60023004  0.52010506  1.0
  O  O26  1  0.50269549  0.89976996  0.47989494  1.0
  O  O27  1  0.50269549  0.89976996  0.02010506  1.0
  O  O28  1  0.49730451  0.10023004  0.97989494  1.0
  O  O29  1  0.49730451  0.10023004  0.52010506  1.0
  O  O30  1  0.49730451  0.39976996  0.47989494  1.0
  O  O31  1  0.49730451  0.39976996  0.02010506  1.0
  O  O32  1  0.79997967  0.39160761  0.75000000  1.0
  O  O33  1  0.79997967  0.10839239  0.25000000  1.0
  O  O34  1  0.20002033  0.89160761  0.75000000  1.0
  O  O35  1  0.20002033  0.60839239  0.25000000  1.0
  O  O36  1  0.72081642  0.76845757  0.75000000  1.0
  O  O37  1  0.72081642  0.73154243  0.25000000  1.0
  O  O38  1  0.27918358  0.26845757  0.75000000  1.0
  O  O39  1  0.27918358  0.23154243  0.25000000  1.0
  O  O40  1  0.07627179  0.75000000  0.00000000  1.0
  O  O41  1  0.07627179  0.75000000  0.50000000  1.0
  O  O42  1  0.92372821  0.25000000  0.00000000  1.0
  O  O43  1  0.92372821  0.25000000  0.50000000  1.0
