# generated using pymatgen
data_Eu4B4O11F2
_symmetry_space_group_name_H-M   'P 1'
_cell_length_a   7.37311317
_cell_length_b   7.37311317
_cell_length_c   13.86537046
_cell_angle_alpha   89.38049643
_cell_angle_beta   90.61950357
_cell_angle_gamma   142.48729101
_symmetry_Int_Tables_number   1
_chemical_formula_structural   Eu4B4O11F2
_chemical_formula_sum   'Eu8 B8 O22 F4'
_cell_volume   458.96292537
_cell_formula_units_Z   2
loop_
 _symmetry_equiv_pos_site_id
 _symmetry_equiv_pos_as_xyz
  1  'x, y, z'
loop_
 _atom_site_type_symbol
 _atom_site_label
 _atom_site_symmetry_multiplicity
 _atom_site_fract_x
 _atom_site_fract_y
 _atom_site_fract_z
 _atom_site_occupancy
  Eu  Eu0  1  0.76824719  0.20969294  0.87108955  1.0
  Eu  Eu1  1  0.79030706  0.23175281  0.37108955  1.0
  Eu  Eu2  1  1.20969294  0.76824719  0.62891045  1.0
  Eu  Eu3  1  0.23175281  -0.20969294  0.12891045  1.0
  Eu  Eu4  1  0.92554423  0.04884884  0.62897289  1.0
  Eu  Eu5  1  0.95115116  0.07445577  0.12897289  1.0
  Eu  Eu6  1  1.04884884  0.92554423  0.87102711  1.0
  Eu  Eu7  1  0.07445577  -0.04884884  0.37102711  1.0
  O  O8  1  0.74931400  -0.09705101  0.46394168  1.0
  O  O9  1  1.09705101  0.25068600  0.96394168  1.0
  O  O10  1  0.90294899  0.74931400  0.03605832  1.0
  O  O11  1  0.25068600  0.09705101  0.53605832  1.0
  O  O12  1  0.54416767  -0.27737247  0.89297184  1.0
  O  O13  1  1.27737247  0.45583233  0.39297184  1.0
  O  O14  1  0.72262753  0.54416767  0.60702816  1.0
  O  O15  1  0.45583233  0.27737247  0.10702816  1.0
  O  O16  1  0.55309479  0.32433510  0.93646187  1.0
  O  O17  1  0.67566490  0.44690521  0.43646187  1.0
  O  O18  1  1.32433510  0.55309479  0.56353813  1.0
  O  O19  1  0.44690521  -0.32433510  0.06353813  1.0
  O  O20  1  0.33552090  0.13483304  0.72625531  1.0
  O  O21  1  0.86516696  0.66447910  0.22625531  1.0
  O  O22  1  1.13483304  0.33552090  0.77374469  1.0
  O  O23  1  0.66447910  -0.13483304  0.27374469  1.0
  O  O24  1  0.65832027  0.65832027  0.75000000  1.0
  O  O25  1  0.34167973  0.34167973  0.25000000  1.0
  O  O26  1  0.52297225  -0.13578060  0.74240677  1.0
  O  O27  1  1.13578060  0.47702775  0.24240677  1.0
  O  O28  1  0.86421940  0.52297225  0.75759323  1.0
  O  O29  1  0.47702775  0.13578060  0.25759323  1.0
  F  F30  1  0.74620639  0.20577587  0.57387680  1.0
  F  F31  1  0.79422413  0.25379361  0.07387680  1.0
  F  F32  1  1.20577587  0.74620639  0.92612320  1.0
  F  F33  1  0.25379361  -0.20577587  0.42612320  1.0
  B  B34  1  0.44122708  -0.37478162  0.78663303  1.0
  B  B35  1  1.37478162  0.55877292  0.28663303  1.0
  B  B36  1  0.62521838  0.44122708  0.71336697  1.0
  B  B37  1  0.55877292  0.37478162  0.21336697  1.0
  B  B38  1  1.36310449  0.55262031  0.97385295  1.0
  B  B39  1  0.44737969  -0.36310449  0.47385295  1.0
  B  B40  1  0.55262031  0.36310449  0.52614705  1.0
  B  B41  1  0.63689551  0.44737969  0.02614705  1.0
