# generated using pymatgen
data_AsH6NO4
_symmetry_space_group_name_H-M   'P 1'
_cell_length_a   6.79868527
_cell_length_b   6.79868527
_cell_length_c   6.79868527
_cell_angle_alpha   112.06534439
_cell_angle_beta   112.06534439
_cell_angle_gamma   104.39896802
_symmetry_Int_Tables_number   1
_chemical_formula_structural   AsH6NO4
_chemical_formula_sum   'As2 H12 N2 O8'
_cell_volume   240.50438513
_cell_formula_units_Z   2
loop_
 _symmetry_equiv_pos_site_id
 _symmetry_equiv_pos_as_xyz
  1  'x, y, z'
loop_
 _atom_site_type_symbol
 _atom_site_label
 _atom_site_symmetry_multiplicity
 _atom_site_fract_x
 _atom_site_fract_y
 _atom_site_fract_z
 _atom_site_occupancy
  As  As0  1  0.00000000  0.00000000  0.00000000  1.0
  As  As1  1  0.75000000  1.25000000  0.50000000  1.0
  H  H2  1  1.15979073  0.79103844  0.59170399  1.0
  H  H3  1  0.59020927  0.68191327  0.13124772  1.0
  H  H4  1  0.54103844  1.40979073  1.09170399  1.0
  H  H5  1  1.20896156  1.80066555  1.36875228  1.0
  H  H6  1  0.55066555  0.45896156  0.86875228  1.0
  H  H7  1  1.19933445  1.56808673  1.40829601  1.0
  H  H8  1  1.43191327  0.84020927  0.63124772  1.0
  H  H9  1  1.31808673  1.44933445  0.90829601  1.0
  H  H10  1  0.87500000  0.96718101  0.59218101  1.0
  H  H11  1  0.71718101  1.12500000  1.09218101  1.0
  H  H12  1  1.03281899  1.62500000  0.90781899  1.0
  H  H13  1  0.37500000  0.28281899  0.40781899  1.0
  N  N14  1  0.50000000  0.50000000  0.00000000  1.0
  N  N15  1  1.25000000  0.75000000  0.50000000  1.0
  O  O16  1  1.02573057  0.95011990  0.74241958  1.0
  O  O17  1  0.72426943  0.96668900  0.42438933  1.0
  O  O18  1  0.70011990  1.27573057  1.24241958  1.0
  O  O19  1  1.04988010  1.79229968  1.07561067  1.0
  O  O20  1  0.54229968  0.29988010  0.57561067  1.0
  O  O21  1  1.20770032  1.28331100  1.25758042  1.0
  O  O22  1  1.71668900  0.97426943  0.92438933  1.0
  O  O23  1  1.03331100  1.45770032  0.75758042  1.0
