# generated using pymatgen
data_CsReO4
_symmetry_space_group_name_H-M   'P 1'
_cell_length_a   8.58385448
_cell_length_b   8.58385448
_cell_length_c   8.58385448
_cell_angle_alpha   138.26759664
_cell_angle_beta   138.26759664
_cell_angle_gamma   60.49340820
_symmetry_Int_Tables_number   1
_chemical_formula_structural   CsReO4
_chemical_formula_sum   'Cs2 Re2 O8'
_cell_volume   277.27354297
_cell_formula_units_Z   2
loop_
 _symmetry_equiv_pos_site_id
 _symmetry_equiv_pos_as_xyz
  1  'x, y, z'
loop_
 _atom_site_type_symbol
 _atom_site_label
 _atom_site_symmetry_multiplicity
 _atom_site_fract_x
 _atom_site_fract_y
 _atom_site_fract_z
 _atom_site_occupancy
  Cs  Cs0  1  1.25000000  0.75000000  0.50000000  1.0
  Cs  Cs1  1  0.50000000  0.50000000  1.00000000  1.0
  Re  Re2  1  0.00000000  0.00000000  0.00000000  1.0
  Re  Re3  1  0.75000000  1.25000000  0.50000000  1.0
  O  O4  1  0.68262193  0.94851384  0.26589191  1.0
  O  O5  1  1.69851384  0.93262193  0.76589191  1.0
  O  O6  1  1.16673002  0.93262193  0.23410809  1.0
  O  O7  1  0.68262193  1.41673002  0.73410809  1.0
  O  O8  1  0.06737807  0.30148616  0.23410809  1.0
  O  O9  1  1.05148616  1.31737807  0.73410809  1.0
  O  O10  1  1.58326998  1.31737807  1.26589191  1.0
  O  O11  1  0.06737807  0.83326998  0.76589191  1.0
