# generated using pymatgen
data_LiBH4
_symmetry_space_group_name_H-M   'P 1'
_cell_length_a   4.04242522
_cell_length_b   4.04242522
_cell_length_c   6.30716472
_cell_angle_alpha   90.00000000
_cell_angle_beta   90.00000000
_cell_angle_gamma   90.45224265
_symmetry_Int_Tables_number   1
_chemical_formula_structural   LiBH4
_chemical_formula_sum   'Li2 B2 H8'
_cell_volume   103.06343988
_cell_formula_units_Z   2
loop_
 _symmetry_equiv_pos_site_id
 _symmetry_equiv_pos_as_xyz
  1  'x, y, z'
loop_
 _atom_site_type_symbol
 _atom_site_label
 _atom_site_symmetry_multiplicity
 _atom_site_fract_x
 _atom_site_fract_y
 _atom_site_fract_z
 _atom_site_occupancy
  Li  Li0  1  -0.04543643  0.04543643  0.50000000  1.0
  Li  Li1  1  -0.04543643  0.04543643  0.00000000  1.0
  B  B2  1  -0.05370716  1.58062620  0.25000000  1.0
  B  B3  1  -0.58062620  1.05370716  0.75000000  1.0
  H  H4  1  -0.22891137  1.60015397  0.40768016  1.0
  H  H5  1  -0.60015397  1.22891137  0.90768016  1.0
  H  H6  1  -0.60015397  1.22891137  0.59231984  1.0
  H  H7  1  -0.22891137  1.60015397  0.09231984  1.0
  H  H8  1  0.16589787  0.79099913  0.25000000  1.0
  H  H9  1  0.20900087  0.83410213  0.75000000  1.0
  H  H10  1  0.09641795  0.31917978  0.25000000  1.0
  H  H11  1  0.68082022  0.90358205  0.75000000  1.0
