# generated using pymatgen
data_Li2B6O9F2
_symmetry_space_group_name_H-M   'P 1'
_cell_length_a   8.57154636
_cell_length_b   8.57154636
_cell_length_c   10.30001181
_cell_angle_alpha   88.91112793
_cell_angle_beta   91.08887207
_cell_angle_gamma   33.18692957
_symmetry_Int_Tables_number   1
_chemical_formula_structural   Li2B6O9F2
_chemical_formula_sum   'Li4 B12 O18 F4'
_cell_volume   413.30937936
_cell_formula_units_Z   2
loop_
 _symmetry_equiv_pos_site_id
 _symmetry_equiv_pos_as_xyz
  1  'x, y, z'
loop_
 _atom_site_type_symbol
 _atom_site_label
 _atom_site_symmetry_multiplicity
 _atom_site_fract_x
 _atom_site_fract_y
 _atom_site_fract_z
 _atom_site_occupancy
  Li  Li0  1  1.01921479  -0.50120915  0.20523354  1.0
  Li  Li1  1  0.50120915  -0.01921479  0.70523354  1.0
  Li  Li2  1  0.80678456  0.11767309  0.87490413  1.0
  Li  Li3  1  0.88232691  -0.80678456  0.37490413  1.0
  B  B4  1  0.66248169  -0.33945501  0.49997191  1.0
  B  B5  1  0.33945501  0.33751831  -0.00002809  1.0
  B  B6  1  1.05781450  -0.13513861  0.61209114  1.0
  B  B7  1  0.13513861  -0.05781450  0.11209114  1.0
  B  B8  1  0.87533227  -0.36470974  0.91824528  1.0
  B  B9  1  0.36470974  0.12466773  0.41824528  1.0
  B  B10  1  1.16206397  -0.43763761  0.77284558  1.0
  B  B11  1  0.43763761  -0.16206397  0.27284558  1.0
  B  B12  1  0.94444425  -0.76413697  0.66559578  1.0
  B  B13  1  0.76413697  0.05555575  0.16559578  1.0
  B  B14  1  1.21383302  -0.51336188  0.53863841  1.0
  B  B15  1  0.51336188  -0.21383302  0.03863841  1.0
  O  O16  1  0.89600301  -0.29862588  0.80587626  1.0
  O  O17  1  0.29862588  0.10399699  0.30587626  1.0
  O  O18  1  1.07596852  -0.20349596  0.73886783  1.0
  O  O19  1  0.20349596  -0.07596852  0.23886783  1.0
  O  O20  1  0.81136905  -0.51731598  0.60655637  1.0
  O  O21  1  0.51731598  0.18863095  0.10655637  1.0
  O  O22  1  1.11253053  -0.28007877  0.51174517  1.0
  O  O23  1  0.28007877  -0.11253053  0.01174517  1.0
  O  O24  1  1.09353044  -0.54931884  0.01480225  1.0
  O  O25  1  0.54931884  -0.09353044  0.51480225  1.0
  O  O26  1  0.62589055  -0.23508974  0.93294033  1.0
  O  O27  1  1.23508974  -0.62589055  0.43294033  1.0
  O  O28  1  0.97726203  -0.91873182  0.57375786  1.0
  O  O29  1  0.91873182  0.02273797  0.07375786  1.0
  O  O30  1  1.28402028  -0.62240785  0.66375393  1.0
  O  O31  1  0.62240785  -0.28402028  0.16375393  1.0
  O  O32  1  0.37963238  0.37951628  0.88419262  1.0
  O  O33  1  0.62048372  -0.37963238  0.38419262  1.0
  F  F34  1  0.77943025  -0.67888556  0.77141984  1.0
  F  F35  1  0.67888556  0.22056975  0.27141984  1.0
  F  F36  1  0.21954750  0.05176357  0.72076179  1.0
  F  F37  1  0.94823643  -0.21954750  0.22076179  1.0
