# generated using pymatgen
data_Y5Sb2Pt
_symmetry_space_group_name_H-M   'P 1'
_cell_length_a   12.25813526
_cell_length_b   8.93948067
_cell_length_c   7.99210937
_cell_angle_alpha   90.00000000
_cell_angle_beta   90.00000000
_cell_angle_gamma   90.00000000
_symmetry_Int_Tables_number   1
_chemical_formula_structural   Y5Sb2Pt
_chemical_formula_sum   'Y20 Sb8 Pt4'
_cell_volume   875.78623961
_cell_formula_units_Z   4
loop_
 _symmetry_equiv_pos_site_id
 _symmetry_equiv_pos_as_xyz
  1  'x, y, z'
loop_
 _atom_site_type_symbol
 _atom_site_label
 _atom_site_symmetry_multiplicity
 _atom_site_fract_x
 _atom_site_fract_y
 _atom_site_fract_z
 _atom_site_occupancy
  Y  Y0  1  0.93016790  0.95497589  0.18015045  1.0
  Y  Y1  1  0.93016790  0.54502411  0.18015045  1.0
  Y  Y2  1  0.43016790  0.95497589  0.31984955  1.0
  Y  Y3  1  0.43016790  0.54502411  0.31984955  1.0
  Y  Y4  1  0.06983210  0.45497589  0.81984955  1.0
  Y  Y5  1  0.06983210  0.04502411  0.81984955  1.0
  Y  Y6  1  0.56983210  0.45497589  0.68015045  1.0
  Y  Y7  1  0.56983210  0.04502411  0.68015045  1.0
  Y  Y8  1  1.00082534  0.25000000  0.45526583  1.0
  Y  Y9  1  0.50082534  0.25000000  0.04473417  1.0
  Y  Y10  1  -0.00082534  0.75000000  0.54473417  1.0
  Y  Y11  1  0.49917466  0.75000000  0.95526583  1.0
  Y  Y12  1  0.80067036  0.25000000  0.86624370  1.0
  Y  Y13  1  0.30067036  0.25000000  0.63375630  1.0
  Y  Y14  1  0.19932964  0.75000000  0.13375630  1.0
  Y  Y15  1  0.69932964  0.75000000  0.36624370  1.0
  Y  Y16  1  0.71328223  0.25000000  0.33305875  1.0
  Y  Y17  1  0.21328223  0.25000000  0.16694125  1.0
  Y  Y18  1  0.28671777  0.75000000  0.66694125  1.0
  Y  Y19  1  0.78671777  0.75000000  0.83305875  1.0
  Sb  Sb20  1  0.67234481  0.50895003  0.06475274  1.0
  Sb  Sb21  1  0.67234481  -0.00895003  0.06475274  1.0
  Sb  Sb22  1  0.17234481  0.50895003  0.43524726  1.0
  Sb  Sb23  1  0.17234481  -0.00895003  0.43524726  1.0
  Sb  Sb24  1  0.32765519  1.00895003  0.93524726  1.0
  Sb  Sb25  1  0.32765519  0.49104997  0.93524726  1.0
  Sb  Sb26  1  0.82765519  1.00895003  0.56475274  1.0
  Sb  Sb27  1  0.82765519  0.49104997  0.56475274  1.0
  Pt  Pt28  1  0.98740246  0.25000000  0.07818208  1.0
  Pt  Pt29  1  0.48740246  0.25000000  0.42181792  1.0
  Pt  Pt30  1  0.01259754  0.75000000  0.92181792  1.0
  Pt  Pt31  1  0.51259754  0.75000000  0.57818208  1.0
