# generated using pymatgen
data_Na2LuC2O6F
_symmetry_space_group_name_H-M   'P 1'
_cell_length_a   9.35647890
_cell_length_b   9.35647890
_cell_length_c   11.50594735
_cell_angle_alpha   86.72444652
_cell_angle_beta   93.27555348
_cell_angle_gamma   141.82227920
_symmetry_Int_Tables_number   1
_chemical_formula_structural   Na2LuC2O6F
_chemical_formula_sum   'Na8 Lu4 C8 O24 F4'
_cell_volume   621.45926778
_cell_formula_units_Z   4
loop_
 _symmetry_equiv_pos_site_id
 _symmetry_equiv_pos_as_xyz
  1  'x, y, z'
loop_
 _atom_site_type_symbol
 _atom_site_label
 _atom_site_symmetry_multiplicity
 _atom_site_fract_x
 _atom_site_fract_y
 _atom_site_fract_z
 _atom_site_occupancy
  Na  Na0  1  0.51893070  0.29525275  0.38040531  1.0
  Na  Na1  1  1.29525275  0.51893070  0.11959469  1.0
  Na  Na2  1  0.48106930  -0.29525275  0.61959469  1.0
  Na  Na3  1  0.70474725  0.48106930  0.88040531  1.0
  Na  Na4  1  1.13596812  0.66689452  0.36684064  1.0
  Na  Na5  1  0.66689452  0.13596812  0.13315936  1.0
  Na  Na6  1  0.86403188  0.33310548  0.63315936  1.0
  Na  Na7  1  0.33310548  -0.13596812  0.86684064  1.0
  Lu  Lu8  1  0.90175775  0.78453879  0.12811424  1.0
  Lu  Lu9  1  0.78453879  -0.09824225  0.37188576  1.0
  Lu  Lu10  1  1.09824225  0.21546121  0.87188576  1.0
  Lu  Lu11  1  0.21546121  0.09824225  0.62811424  1.0
  C  C12  1  0.35471205  0.23711049  0.11630382  1.0
  C  C13  1  1.23711049  0.35471205  0.38369618  1.0
  C  C14  1  0.64528795  -0.23711049  0.88369618  1.0
  C  C15  1  0.76288951  0.64528795  0.61630382  1.0
  C  C16  1  1.12408619  0.71323449  0.08416024  1.0
  C  C17  1  0.71323449  0.12408619  0.41583976  1.0
  C  C18  1  0.87591381  0.28676551  0.91583976  1.0
  C  C19  1  0.28676551  -0.12408619  0.58416024  1.0
  O  O20  1  0.56540287  0.41846964  0.08663125  1.0
  O  O21  1  1.41846964  0.56540287  0.41336875  1.0
  O  O22  1  0.43459713  -0.41846964  0.91336875  1.0
  O  O23  1  0.58153036  0.43459713  0.58663125  1.0
  O  O24  1  0.29230430  0.10277038  0.20226582  1.0
  O  O25  1  1.10277038  0.29230430  0.29773418  1.0
  O  O26  1  0.70769570  -0.10277038  0.79773418  1.0
  O  O27  1  0.89722962  0.70769570  0.70226582  1.0
  O  O28  1  0.81343323  -0.17433778  0.94068827  1.0
  O  O29  1  0.82566222  0.81343323  0.55931173  1.0
  O  O30  1  0.18656677  0.17433778  0.05931173  1.0
  O  O31  1  1.17433778  0.18656677  0.44068827  1.0
  O  O32  1  1.00483282  0.62311900  0.17899579  1.0
  O  O33  1  0.62311900  0.00483282  0.32100421  1.0
  O  O34  1  0.99516718  0.37688100  0.82100421  1.0
  O  O35  1  0.37688100  -0.00483282  0.67899579  1.0
  O  O36  1  1.06998292  0.76854664  1.00100697  1.0
  O  O37  1  0.76854664  0.06998292  0.49899303  1.0
  O  O38  1  0.93001708  0.23145336  -0.00100697  1.0
  O  O39  1  0.23145336  -0.06998292  0.50100697  1.0
  O  O40  1  0.28810276  -0.24610255  0.07117863  1.0
  O  O41  1  0.75389745  0.28810276  0.42882137  1.0
  O  O42  1  0.71189724  0.24610255  0.92882137  1.0
  O  O43  1  1.24610255  0.71189724  0.57117863  1.0
  F  F44  1  0.81563314  0.69817748  0.31735047  1.0
  F  F45  1  0.69817748  -0.18436686  0.18264953  1.0
  F  F46  1  1.18436686  0.30182252  0.68264953  1.0
  F  F47  1  0.30182252  0.18436686  0.81735047  1.0
