# generated using pymatgen
data_TiH6(OF3)2
_symmetry_space_group_name_H-M   'P 1'
_cell_length_a   5.53764978
_cell_length_b   5.53764978
_cell_length_c   6.53556125
_cell_angle_alpha   90.00000000
_cell_angle_beta   90.00000000
_cell_angle_gamma   120.00000000
_symmetry_Int_Tables_number   1
_chemical_formula_structural   TiH6(OF3)2
_chemical_formula_sum   'Ti1 H6 O2 F6'
_cell_volume   173.56593501
_cell_formula_units_Z   1
loop_
 _symmetry_equiv_pos_site_id
 _symmetry_equiv_pos_as_xyz
  1  'x, y, z'
loop_
 _atom_site_type_symbol
 _atom_site_label
 _atom_site_symmetry_multiplicity
 _atom_site_fract_x
 _atom_site_fract_y
 _atom_site_fract_z
 _atom_site_occupancy
  Ti  Ti0  1  0.00000000  0.00000000  0.00000000  1.0
  H  H1  1  0.32805794  0.83855995  0.26082041  1.0
  H  H2  1  0.83855995  0.32805794  0.73917959  1.0
  H  H3  1  0.51050202  0.67194206  0.26082041  1.0
  H  H4  1  0.16144005  0.48949798  0.26082041  1.0
  H  H5  1  0.67194206  0.51050202  0.73917959  1.0
  H  H6  1  0.48949798  0.16144005  0.73917959  1.0
  O  O7  1  0.33333333  0.66666667  0.31156830  1.0
  O  O8  1  0.66666667  0.33333333  0.68843170  1.0
  F  F9  1  0.78059106  0.69968963  0.17918961  1.0
  F  F10  1  0.69968963  0.78059106  0.82081039  1.0
  F  F11  1  0.91909857  0.21940894  0.17918961  1.0
  F  F12  1  0.30031037  0.08090143  0.17918961  1.0
  F  F13  1  0.21940894  0.91909857  0.82081039  1.0
  F  F14  1  0.08090143  0.30031037  0.82081039  1.0
