# generated using pymatgen
data_LiAs(XeF4)3
_symmetry_space_group_name_H-M   'P 1'
_cell_length_a   7.20029356
_cell_length_b   14.03636983
_cell_length_c   7.19701376
_cell_angle_alpha   90.00000000
_cell_angle_beta   91.15670612
_cell_angle_gamma   90.00000000
_symmetry_Int_Tables_number   1
_chemical_formula_structural   LiAs(XeF4)3
_chemical_formula_sum   'Li2 As2 Xe6 F24'
_cell_volume   727.22505002
_cell_formula_units_Z   2
loop_
 _symmetry_equiv_pos_site_id
 _symmetry_equiv_pos_as_xyz
  1  'x, y, z'
loop_
 _atom_site_type_symbol
 _atom_site_label
 _atom_site_symmetry_multiplicity
 _atom_site_fract_x
 _atom_site_fract_y
 _atom_site_fract_z
 _atom_site_occupancy
  Li  Li0  1  0.80436188  0.25787874  0.71905566  1.0
  Li  Li1  1  0.19563812  0.75787874  0.28094434  1.0
  As  As2  1  0.70063078  0.00297190  0.79215070  1.0
  As  As3  1  0.29936922  0.50297190  0.20784930  1.0
  Xe  Xe4  1  0.80110597  0.26728003  0.21921502  1.0
  Xe  Xe5  1  0.19889403  0.76728003  0.78078498  1.0
  Xe  Xe6  1  0.78438484  0.52227635  0.69049314  1.0
  Xe  Xe7  1  0.21561516  0.02227635  0.30950686  1.0
  Xe  Xe8  1  0.30376073  0.26923149  0.72631914  1.0
  Xe  Xe9  1  0.69623927  0.76923149  0.27368086  1.0
  F  F10  1  0.94838725  0.00503186  0.77423856  1.0
  F  F11  1  0.05161275  0.50503186  0.22576144  1.0
  F  F12  1  0.89515017  0.21247018  0.46940062  1.0
  F  F13  1  0.10484983  0.71247018  0.53059938  1.0
  F  F14  1  0.90010887  0.38954823  0.64036804  1.0
  F  F15  1  0.09989113  0.88954823  0.35963196  1.0
  F  F16  1  0.71242308  0.31865286  0.96593586  1.0
  F  F17  1  0.28757692  0.81865286  0.03406414  1.0
  F  F18  1  0.70002264  0.13395289  0.80125282  1.0
  F  F19  1  0.29997736  0.63395289  0.19874718  1.0
  F  F20  1  0.69913895  0.87539621  0.78643943  1.0
  F  F21  1  0.30086105  0.37539621  0.21356057  1.0
  F  F22  1  0.67678346  0.00896147  0.54414765  1.0
  F  F23  1  0.32321654  0.50896147  0.45585235  1.0
  F  F24  1  0.67603139  0.65349933  0.73501860  1.0
  F  F25  1  0.32396861  0.15349933  0.26498140  1.0
  F  F26  1  0.55353326  0.30196665  0.60893807  1.0
  F  F27  1  0.44646674  0.80196665  0.39106193  1.0
  F  F28  1  0.45242903  0.00620403  0.80998578  1.0
  F  F29  1  0.54757097  0.50620403  0.19001422  1.0
  F  F30  1  0.27628662  0.50205038  0.95905514  1.0
  F  F31  1  0.72371338  1.00205038  0.04094486  1.0
  F  F32  1  0.05529459  0.23402737  0.84364274  1.0
  F  F33  1  0.94470541  0.73402737  0.15635726  1.0
