# generated using pymatgen
data_K2Al2B2O7
_symmetry_space_group_name_H-M   'P 1'
_cell_length_a   8.64723116
_cell_length_b   8.64723116
_cell_length_c   8.60805791
_cell_angle_alpha   90.00000000
_cell_angle_beta   90.00000000
_cell_angle_gamma   120.00000000
_symmetry_Int_Tables_number   1
_chemical_formula_structural   K2Al2B2O7
_chemical_formula_sum   'K6 Al6 B6 O21'
_cell_volume   557.42950107
_cell_formula_units_Z   3
loop_
 _symmetry_equiv_pos_site_id
 _symmetry_equiv_pos_as_xyz
  1  'x, y, z'
loop_
 _atom_site_type_symbol
 _atom_site_label
 _atom_site_symmetry_multiplicity
 _atom_site_fract_x
 _atom_site_fract_y
 _atom_site_fract_z
 _atom_site_occupancy
  K  K0  1  0.68975870  0.68975870  0.50000000  1.0
  K  K1  1  0.00000000  0.31024130  0.50000000  1.0
  K  K2  1  0.31024130  -0.00000000  0.50000000  1.0
  K  K3  1  0.64212510  0.64212510  -0.00000000  1.0
  K  K4  1  -0.00000000  0.35787490  -0.00000000  1.0
  K  K5  1  0.35787490  -0.00000000  0.00000000  1.0
  Al  Al6  1  0.33333333  0.66666667  0.28047407  1.0
  Al  Al7  1  0.66666667  0.33333333  0.71952593  1.0
  Al  Al8  1  0.33333333  0.66666667  0.68414719  1.0
  Al  Al9  1  0.66666667  0.33333333  0.31585281  1.0
  Al  Al10  1  -0.00000000  -0.00000000  0.20076143  1.0
  Al  Al11  1  0.00000000  0.00000000  0.79923857  1.0
  B  B12  1  0.00106233  0.66620549  0.24362321  1.0
  B  B13  1  0.66620549  0.00106233  0.75637679  1.0
  B  B14  1  0.66514315  0.99893767  0.24362321  1.0
  B  B15  1  0.33379451  0.33485685  0.24362321  1.0
  B  B16  1  0.99893767  0.66514315  0.75637679  1.0
  B  B17  1  0.33485685  0.33379451  0.75637679  1.0
  O  O18  1  0.94188493  0.78503149  0.27360319  1.0
  O  O19  1  0.78503149  0.94188493  0.72639681  1.0
  O  O20  1  0.84314656  0.05811507  0.27360319  1.0
  O  O21  1  0.21496851  0.15685344  0.27360319  1.0
  O  O22  1  0.05811507  0.84314656  0.72639681  1.0
  O  O23  1  0.15685344  0.21496851  0.72639681  1.0
  O  O24  1  0.17897961  0.72856850  0.20946016  1.0
  O  O25  1  0.72856850  0.17897961  0.79053984  1.0
  O  O26  1  0.54958889  0.82102039  0.20946016  1.0
  O  O27  1  0.27143150  0.45041111  0.20946016  1.0
  O  O28  1  0.82102039  0.54958889  0.79053984  1.0
  O  O29  1  0.45041111  0.27143150  0.79053984  1.0
  O  O30  1  0.51538725  0.39927075  0.24636268  1.0
  O  O31  1  0.39927075  0.51538725  0.75363732  1.0
  O  O32  1  0.88388350  0.48461275  0.24636268  1.0
  O  O33  1  0.60072925  0.11611650  0.24636268  1.0
  O  O34  1  0.48461275  0.88388350  0.75363732  1.0
  O  O35  1  0.11611650  0.60072925  0.75363732  1.0
  O  O36  1  0.33333333  0.66666667  0.48230256  1.0
  O  O37  1  0.66666667  0.33333333  0.51769744  1.0
  O  O38  1  -0.00000000  0.00000000  -0.00000000  1.0
