# generated using pymatgen
data_NaLiV2O6
_symmetry_space_group_name_H-M   'P 1'
_cell_length_a   7.01538411
_cell_length_b   7.01538411
_cell_length_c   5.88908589
_cell_angle_alpha   74.23759531
_cell_angle_beta   105.76240469
_cell_angle_gamma   96.51663192
_symmetry_Int_Tables_number   1
_chemical_formula_structural   NaLiV2O6
_chemical_formula_sum   'Na2 Li2 V4 O12'
_cell_volume   268.20046781
_cell_formula_units_Z   2
loop_
 _symmetry_equiv_pos_site_id
 _symmetry_equiv_pos_as_xyz
  1  'x, y, z'
loop_
 _atom_site_type_symbol
 _atom_site_label
 _atom_site_symmetry_multiplicity
 _atom_site_fract_x
 _atom_site_fract_y
 _atom_site_fract_z
 _atom_site_occupancy
  Na  Na0  1  0.77815375  -0.22184625  0.25000000  1.0
  Na  Na1  1  1.22184625  0.22184625  0.75000000  1.0
  Li  Li2  1  1.39679926  0.39679926  0.25000000  1.0
  Li  Li3  1  0.60320074  -0.39679926  0.75000000  1.0
  V  V4  1  0.30059118  -0.12044298  0.25218980  1.0
  V  V5  1  1.12044298  0.69940882  0.75218980  1.0
  V  V6  1  0.87955702  -0.69940882  0.24781020  1.0
  V  V7  1  1.69940882  0.12044298  0.74781020  1.0
  O  O8  1  0.47605364  -0.28556519  0.36160850  1.0
  O  O9  1  1.28556519  0.52394636  0.86160850  1.0
  O  O10  1  0.71443481  -0.52394636  0.13839150  1.0
  O  O11  1  1.52394636  0.28556519  0.63839150  1.0
  O  O12  1  1.85993969  0.15471117  0.54488595  1.0
  O  O13  1  0.84528883  -0.85993969  0.04488595  1.0
  O  O14  1  1.15471117  0.85993969  0.95511405  1.0
  O  O15  1  0.14006031  -0.15471117  0.45511405  1.0
  O  O16  1  1.39750743  0.10847866  0.20528254  1.0
  O  O17  1  0.89152134  -0.39750743  0.70528254  1.0
  O  O18  1  1.10847866  0.39750743  0.29471746  1.0
  O  O19  1  0.60249257  -0.10847866  0.79471746  1.0
