# generated using pymatgen
data_Rb8Ta6O19
_symmetry_space_group_name_H-M   'P 1'
_cell_length_a   9.72548329
_cell_length_b   9.72548329
_cell_length_c   9.72548329
_cell_angle_alpha   118.52944217
_cell_angle_beta   118.52944217
_cell_angle_gamma   92.56653015
_symmetry_Int_Tables_number   1
_chemical_formula_structural   Rb8Ta6O19
_chemical_formula_sum   'Rb8 Ta6 O19'
_cell_volume   664.19411439
_cell_formula_units_Z   1
loop_
 _symmetry_equiv_pos_site_id
 _symmetry_equiv_pos_as_xyz
  1  'x, y, z'
loop_
 _atom_site_type_symbol
 _atom_site_label
 _atom_site_symmetry_multiplicity
 _atom_site_fract_x
 _atom_site_fract_y
 _atom_site_fract_z
 _atom_site_occupancy
  Rb  Rb0  1  0.37123347  0.55577116  0.64119229  1.0
  Rb  Rb1  1  1.08542113  1.26995882  1.64119229  1.0
  Rb  Rb2  1  0.73004118  0.37123347  0.81546231  1.0
  Rb  Rb3  1  0.44422884  1.08542113  0.81546231  1.0
  Rb  Rb4  1  0.91457887  0.73004118  1.35880771  1.0
  Rb  Rb5  1  0.62876653  0.44422884  0.35880771  1.0
  Rb  Rb6  1  0.55577116  0.91457887  1.18453769  1.0
  Rb  Rb7  1  1.26995882  0.62876653  1.18453769  1.0
  Ta  Ta8  1  0.78359712  0.89434577  1.67794289  1.0
  Ta  Ta9  1  0.10565423  0.78359712  0.88925135  1.0
  Ta  Ta10  1  0.21640288  0.10565423  0.32205711  1.0
  Ta  Ta11  1  0.89434577  0.21640288  1.11074865  1.0
  Ta  Ta12  1  0.82592430  0.82592430  1.00000000  1.0
  Ta  Ta13  1  0.17407570  0.17407570  0.00000000  1.0
  O  O14  1  0.67626232  0.76305613  0.73222632  1.0
  O  O15  1  0.96917018  1.05596400  1.73222632  1.0
  O  O16  1  0.94403600  0.67626232  0.91320618  1.0
  O  O17  1  0.23694387  0.96917018  0.91320618  1.0
  O  O18  1  1.03082982  0.94403600  1.26777368  1.0
  O  O19  1  0.32373768  0.23694387  0.26777368  1.0
  O  O20  1  0.76305613  1.03082982  1.08679382  1.0
  O  O21  1  1.05596400  0.32373768  1.08679382  1.0
  O  O22  1  0.62632159  0.79873701  1.42505860  1.0
  O  O23  1  0.20126299  0.62632159  0.82758458  1.0
  O  O24  1  0.37367841  0.20126299  0.57494140  1.0
  O  O25  1  0.79873701  0.37367841  1.17241542  1.0
  O  O26  1  0.91282700  0.73633306  1.64916006  1.0
  O  O27  1  0.26366694  0.91282700  1.17649394  1.0
  O  O28  1  0.08717300  0.26366694  0.35083994  1.0
  O  O29  1  0.73633306  0.08717300  0.82350606  1.0
  O  O30  1  0.68954438  0.68954438  1.00000000  1.0
  O  O31  1  0.31045562  0.31045562  0.00000000  1.0
  O  O32  1  -0.00000000  -0.00000000  -0.00000000  1.0
