# generated using pymatgen
data_K2SnO2
_symmetry_space_group_name_H-M   'P 1'
_cell_length_a   5.67814023
_cell_length_b   7.33765921
_cell_length_c   10.94010019
_cell_angle_alpha   90.00000000
_cell_angle_beta   90.00000000
_cell_angle_gamma   90.00000000
_symmetry_Int_Tables_number   1
_chemical_formula_structural   K2SnO2
_chemical_formula_sum   'K8 Sn4 O8'
_cell_volume   455.81115612
_cell_formula_units_Z   4
loop_
 _symmetry_equiv_pos_site_id
 _symmetry_equiv_pos_as_xyz
  1  'x, y, z'
loop_
 _atom_site_type_symbol
 _atom_site_label
 _atom_site_symmetry_multiplicity
 _atom_site_fract_x
 _atom_site_fract_y
 _atom_site_fract_z
 _atom_site_occupancy
  K  K0  1  -0.00332690  0.88616621  0.91834330  1.0
  K  K1  1  0.49667310  0.61383379  0.08165670  1.0
  K  K2  1  1.00332690  0.38616621  0.58165670  1.0
  K  K3  1  0.50332690  0.11383379  0.41834330  1.0
  K  K4  1  0.49811359  0.63934279  0.76060907  1.0
  K  K5  1  0.99811359  0.86065721  0.23939093  1.0
  K  K6  1  0.50188641  0.13934279  0.73939093  1.0
  K  K7  1  0.00188641  0.36065721  0.26060907  1.0
  Sn  Sn8  1  1.00874453  0.89217126  0.55871753  1.0
  Sn  Sn9  1  0.50874453  0.60782874  0.44128247  1.0
  Sn  Sn10  1  -0.00874453  0.39217126  0.94128247  1.0
  Sn  Sn11  1  0.49125547  0.10782874  0.05871753  1.0
  O  O12  1  0.51010581  0.40870565  0.57072331  1.0
  O  O13  1  1.01010581  0.09129435  0.42927669  1.0
  O  O14  1  0.48989419  0.90870565  0.92927669  1.0
  O  O15  1  -0.01010581  0.59129435  0.07072331  1.0
  O  O16  1  0.36895027  0.81818019  0.55147369  1.0
  O  O17  1  0.86895027  0.68181981  0.44852631  1.0
  O  O18  1  0.63104973  0.31818019  0.94852631  1.0
  O  O19  1  0.13104973  0.18181981  0.05147369  1.0
