# generated using pymatgen
data_LaCu3Se2ClO8
_symmetry_space_group_name_H-M   'P 1'
_cell_length_a   6.48115751
_cell_length_b   9.86101218
_cell_length_c   7.24092304
_cell_angle_alpha   90.00000000
_cell_angle_beta   90.00000000
_cell_angle_gamma   90.00000000
_symmetry_Int_Tables_number   1
_chemical_formula_structural   LaCu3Se2ClO8
_chemical_formula_sum   'La2 Cu6 Se4 Cl2 O16'
_cell_volume   462.77298967
_cell_formula_units_Z   2
loop_
 _symmetry_equiv_pos_site_id
 _symmetry_equiv_pos_as_xyz
  1  'x, y, z'
loop_
 _atom_site_type_symbol
 _atom_site_label
 _atom_site_symmetry_multiplicity
 _atom_site_fract_x
 _atom_site_fract_y
 _atom_site_fract_z
 _atom_site_occupancy
  O  O0  1  0.79126397  0.33163193  0.25567341  1.0
  O  O1  1  0.20873603  0.33163193  0.25567341  1.0
  O  O2  1  0.79126397  0.66836807  0.25567341  1.0
  O  O3  1  0.20873603  0.66836807  0.25567341  1.0
  O  O4  1  0.70873603  0.16836807  0.74432659  1.0
  O  O5  1  0.29126397  0.16836807  0.74432659  1.0
  O  O6  1  0.70873603  0.83163193  0.74432659  1.0
  O  O7  1  0.29126397  0.83163193  0.74432659  1.0
  O  O8  1  0.00000000  0.87217100  0.41491813  1.0
  O  O9  1  0.00000000  0.12782900  0.41491813  1.0
  O  O10  1  0.50000000  0.62782900  0.58508187  1.0
  O  O11  1  0.50000000  0.37217100  0.58508187  1.0
  O  O12  1  0.00000000  0.85895353  0.00814992  1.0
  O  O13  1  0.00000000  0.14104647  0.00814992  1.0
  O  O14  1  0.50000000  0.64104647  0.99185008  1.0
  O  O15  1  0.50000000  0.35895353  0.99185008  1.0
  Cu  Cu16  1  0.75000000  0.75000000  0.00000000  1.0
  Cu  Cu17  1  0.25000000  0.75000000  0.00000000  1.0
  Cu  Cu18  1  0.75000000  0.25000000  0.00000000  1.0
  Cu  Cu19  1  0.25000000  0.25000000  0.00000000  1.0
  Cu  Cu20  1  0.00000000  0.00000000  0.19971655  1.0
  Cu  Cu21  1  0.50000000  0.50000000  0.80028345  1.0
  Se  Se22  1  0.00000000  0.30225606  0.39882589  1.0
  Se  Se23  1  0.00000000  0.69774394  0.39882589  1.0
  Se  Se24  1  0.50000000  0.19774394  0.60117411  1.0
  Se  Se25  1  0.50000000  0.80225606  0.60117411  1.0
  Cl  Cl26  1  0.00000000  0.50000000  0.84982574  1.0
  Cl  Cl27  1  0.50000000  0.00000000  0.15017426  1.0
  La  La28  1  0.00000000  0.00000000  0.73395315  1.0
  La  La29  1  0.50000000  0.50000000  0.26604685  1.0
