# generated using pymatgen
data_ZnS
_symmetry_space_group_name_H-M   'P 1'
_cell_length_a   3.85014997
_cell_length_b   3.85014997
_cell_length_c   44.04278404
_cell_angle_alpha   90.00000000
_cell_angle_beta   90.00000000
_cell_angle_gamma   120.00000000
_symmetry_Int_Tables_number   1
_chemical_formula_structural   ZnS
_chemical_formula_sum   'Zn14 S14'
_cell_volume   565.40635969
_cell_formula_units_Z   14
loop_
 _symmetry_equiv_pos_site_id
 _symmetry_equiv_pos_as_xyz
  1  'x, y, z'
loop_
 _atom_site_type_symbol
 _atom_site_label
 _atom_site_symmetry_multiplicity
 _atom_site_fract_x
 _atom_site_fract_y
 _atom_site_fract_z
 _atom_site_occupancy
  Zn  Zn0  1  0.00000000  0.00000000  0.21434310  1.0
  Zn  Zn1  1  -0.00000000  -0.00000000  0.42856390  1.0
  Zn  Zn2  1  -0.00000000  -0.00000000  0.64285060  1.0
  Zn  Zn3  1  -0.00000000  -0.00000000  0.85707788  1.0
  Zn  Zn4  1  0.66666667  0.33333333  0.07149531  1.0
  Zn  Zn5  1  0.66666667  0.33333333  0.28572787  1.0
  Zn  Zn6  1  0.66666667  0.33333333  0.49999202  1.0
  Zn  Zn7  1  0.66666667  0.33333333  0.71427594  1.0
  Zn  Zn8  1  0.66666667  0.33333333  0.92843846  1.0
  Zn  Zn9  1  0.33333333  0.66666667  -0.00009157  1.0
  Zn  Zn10  1  0.33333333  0.66666667  0.14297346  1.0
  Zn  Zn11  1  0.33333333  0.66666667  0.35713769  1.0
  Zn  Zn12  1  0.33333333  0.66666667  0.57142041  1.0
  Zn  Zn13  1  0.33333333  0.66666667  0.78569227  1.0
  S  S14  1  0.00000000  0.00000000  0.16080936  1.0
  S  S15  1  0.00000000  0.00000000  0.37500699  1.0
  S  S16  1  -0.00000000  -0.00000000  0.58929241  1.0
  S  S17  1  -0.00000000  -0.00000000  0.80354023  1.0
  S  S18  1  0.66666667  0.33333333  0.01787000  1.0
  S  S19  1  0.66666667  0.33333333  0.23218634  1.0
  S  S20  1  0.66666667  0.33333333  0.44643475  1.0
  S  S21  1  0.66666667  0.33333333  0.66072036  1.0
  S  S22  1  0.66666667  0.33333333  0.87491668  1.0
  S  S23  1  0.33333333  0.66666667  0.08943919  1.0
  S  S24  1  0.33333333  0.66666667  0.30358628  1.0
  S  S25  1  0.33333333  0.66666667  0.51786297  1.0
  S  S26  1  0.33333333  0.66666667  0.73214158  1.0
  S  S27  1  0.33333333  0.66666667  0.94629552  1.0
