# generated using pymatgen
data_Ca2B5Os3
_symmetry_space_group_name_H-M   'P 1'
_cell_length_a   5.63225958
_cell_length_b   5.63225958
_cell_length_c   8.01035912
_cell_angle_alpha   58.29541737
_cell_angle_beta   121.70458263
_cell_angle_gamma   137.68738547
_symmetry_Int_Tables_number   1
_chemical_formula_structural   Ca2B5Os3
_chemical_formula_sum   'Ca2 B5 Os3'
_cell_volume   141.31194925
_cell_formula_units_Z   1
loop_
 _symmetry_equiv_pos_site_id
 _symmetry_equiv_pos_as_xyz
  1  'x, y, z'
loop_
 _atom_site_type_symbol
 _atom_site_label
 _atom_site_symmetry_multiplicity
 _atom_site_fract_x
 _atom_site_fract_y
 _atom_site_fract_z
 _atom_site_occupancy
  Ca  Ca0  1  0.92378104  0.60831621  0.75958107  1.0
  Ca  Ca1  1  1.60831621  -0.07621896  0.24041893  1.0
  B  B2  1  1.46510001  -0.47473344  0.87953867  1.0
  B  B3  1  1.52526656  0.46510001  0.12046133  1.0
  B  B4  1  1.62606477  -0.08027848  0.68954313  1.0
  B  B5  1  0.91972152  0.62606477  0.31045687  1.0
  B  B6  1  0.26508520  0.26508520  0.50000000  1.0
  Os  Os7  1  1.12090748  -0.61083264  0.59713561  1.0
  Os  Os8  1  0.38916736  0.12090748  0.40286439  1.0
  Os  Os9  1  -0.00981014  -0.00981014  0.00000000  1.0
