# generated using pymatgen
data_K2CrH2F8
_symmetry_space_group_name_H-M   'P 1'
_cell_length_a   5.47731111
_cell_length_b   8.12562346
_cell_length_c   8.88807280
_cell_angle_alpha   90.00000000
_cell_angle_beta   93.50875016
_cell_angle_gamma   90.00000000
_symmetry_Int_Tables_number   1
_chemical_formula_structural   K2CrH2F8
_chemical_formula_sum   'K4 Cr2 H4 F16'
_cell_volume   394.83608906
_cell_formula_units_Z   2
loop_
 _symmetry_equiv_pos_site_id
 _symmetry_equiv_pos_as_xyz
  1  'x, y, z'
loop_
 _atom_site_type_symbol
 _atom_site_label
 _atom_site_symmetry_multiplicity
 _atom_site_fract_x
 _atom_site_fract_y
 _atom_site_fract_z
 _atom_site_occupancy
  K  K0  1  0.57231395  0.68614065  0.80271456  1.0
  K  K1  1  0.57231395  0.81385935  0.30271456  1.0
  K  K2  1  0.42768605  0.18614065  0.69728544  1.0
  K  K3  1  0.42768605  0.31385935  0.19728544  1.0
  Cr  Cr4  1  0.00000000  0.00000000  0.00000000  1.0
  Cr  Cr5  1  0.00000000  0.50000000  0.50000000  1.0
  H  H6  1  0.84427922  0.32124159  0.94766435  1.0
  H  H7  1  0.84427922  0.17875841  0.44766435  1.0
  H  H8  1  0.15572078  0.82124159  0.55233565  1.0
  H  H9  1  0.15572078  0.67875841  0.05233565  1.0
  F  F10  1  0.93702732  0.72950429  0.53264787  1.0
  F  F11  1  0.93702732  0.77049571  0.03264787  1.0
  F  F12  1  0.06297268  0.22950429  0.96735213  1.0
  F  F13  1  0.06297268  0.27049571  0.46735213  1.0
  F  F14  1  0.80058378  0.99386596  0.82827945  1.0
  F  F15  1  0.80058378  0.50613404  0.32827945  1.0
  F  F16  1  0.19941622  0.49386596  0.67172055  1.0
  F  F17  1  0.19941622  0.00613404  0.17172055  1.0
  F  F18  1  0.68232470  0.37861971  0.93641116  1.0
  F  F19  1  0.68232470  0.12138029  0.43641116  1.0
  F  F20  1  0.31767530  0.87861971  0.56358884  1.0
  F  F21  1  0.31767530  0.62138029  0.06358884  1.0
  F  F22  1  0.25835536  0.94766380  0.89156725  1.0
  F  F23  1  0.25835536  0.55233620  0.39156725  1.0
  F  F24  1  0.74164464  0.44766380  0.60843275  1.0
  F  F25  1  0.74164464  0.05233620  0.10843275  1.0
