# generated using pymatgen
data_NaPH4SO8
_symmetry_space_group_name_H-M   'P 1'
_cell_length_a   5.51892032
_cell_length_b   6.85948550
_cell_length_c   9.09185226
_cell_angle_alpha   90.00000000
_cell_angle_beta   94.63808258
_cell_angle_gamma   90.00000000
_symmetry_Int_Tables_number   1
_chemical_formula_structural   NaPH4SO8
_chemical_formula_sum   'Na2 P2 H8 S2 O16'
_cell_volume   343.06273210
_cell_formula_units_Z   2
loop_
 _symmetry_equiv_pos_site_id
 _symmetry_equiv_pos_as_xyz
  1  'x, y, z'
loop_
 _atom_site_type_symbol
 _atom_site_label
 _atom_site_symmetry_multiplicity
 _atom_site_fract_x
 _atom_site_fract_y
 _atom_site_fract_z
 _atom_site_occupancy
  Na  Na0  1  0.51265269  0.49196272  0.93787147  1.0
  Na  Na1  1  0.48734731  -0.00803728  0.06212853  1.0
  P  P2  1  0.61032093  0.75879710  0.37517722  1.0
  P  P3  1  0.38967907  0.25879710  0.62482278  1.0
  H  H4  1  0.93021925  0.03706080  0.27960869  1.0
  H  H5  1  0.06978075  0.53706080  0.72039131  1.0
  H  H6  1  0.91640027  0.55271370  0.34800263  1.0
  H  H7  1  0.08359973  0.05271370  0.65199737  1.0
  H  H8  1  0.66875716  0.07109561  0.75282335  1.0
  H  H9  1  0.33124284  0.57109561  0.24717665  1.0
  H  H10  1  0.41567975  0.64052111  0.56478594  1.0
  H  H11  1  0.58432025  0.14052111  0.43521406  1.0
  S  S12  1  0.96315174  0.77598821  0.85881492  1.0
  S  S13  1  0.03684826  0.27598821  0.14118508  1.0
  O  O14  1  0.91181158  0.94088436  0.75309283  1.0
  O  O15  1  0.08818842  0.44088436  0.24690717  1.0
  O  O16  1  0.91840245  0.57945504  0.76956974  1.0
  O  O17  1  0.08159755  0.07945504  0.23043026  1.0
  O  O18  1  0.84140444  0.63617185  0.42400528  1.0
  O  O19  1  0.15859556  0.13617185  0.57599472  1.0
  O  O20  1  0.77963844  0.77025252  0.96675376  1.0
  O  O21  1  0.22036156  0.27025252  0.03324624  1.0
  O  O22  1  0.66976101  0.96798868  0.33291982  1.0
  O  O23  1  0.33023899  0.46798868  0.66708018  1.0
  O  O24  1  0.52855637  0.16283366  0.76659445  1.0
  O  O25  1  0.47144363  0.66283366  0.23340555  1.0
  O  O26  1  0.44711544  0.76457625  0.50767458  1.0
  O  O27  1  0.55288456  0.26457625  0.49232542  1.0
  O  O28  1  0.21721473  0.77559840  0.91998408  1.0
  O  O29  1  0.78278527  0.27559840  0.08001592  1.0
