# generated using pymatgen
data_La5MnOs3O16
_symmetry_space_group_name_H-M   'P 1'
_cell_length_a   5.72895831
_cell_length_b   5.71950421
_cell_length_c   10.06176666
_cell_angle_alpha   93.64628523
_cell_angle_beta   93.95360768
_cell_angle_gamma   91.66857024
_symmetry_Int_Tables_number   1
_chemical_formula_structural   La5MnOs3O16
_chemical_formula_sum   'La5 Mn1 Os3 O16'
_cell_volume   328.05559433
_cell_formula_units_Z   1
loop_
 _symmetry_equiv_pos_site_id
 _symmetry_equiv_pos_as_xyz
  1  'x, y, z'
loop_
 _atom_site_type_symbol
 _atom_site_label
 _atom_site_symmetry_multiplicity
 _atom_site_fract_x
 _atom_site_fract_y
 _atom_site_fract_z
 _atom_site_occupancy
  La  La0  1  -0.50000000  -0.50000000  -0.50000000  1.0
  La  La1  1  -0.46862052  -0.99191861  -0.79331787  1.0
  La  La2  1  -0.53137948  -0.00808139  -0.20668213  1.0
  La  La3  1  0.00615945  -0.46688392  -0.79089772  1.0
  La  La4  1  -1.00615945  -0.53311608  -0.20910228  1.0
  O  O5  1  -0.96245888  -0.96068425  -0.19693087  1.0
  O  O6  1  -0.03754112  -0.03931575  -0.80306913  1.0
  O  O7  1  -0.80904748  -0.81699564  -0.43092913  1.0
  O  O8  1  -0.19095252  -0.18300436  -0.56907087  1.0
  O  O9  1  -0.72113530  -0.72894042  -0.67632042  1.0
  O  O10  1  -0.27886470  -0.27105958  -0.32367958  1.0
  O  O11  1  -0.18734952  -0.71147492  -0.63270095  1.0
  O  O12  1  -0.81265048  -0.28852508  -0.36729905  1.0
  O  O13  1  -0.79506534  -0.68302043  -0.96690805  1.0
  O  O14  1  -0.20493466  -0.31697957  -0.03309195  1.0
  O  O15  1  -0.71818679  -0.19700885  -0.63243927  1.0
  O  O16  1  -0.28181321  -0.80299115  -0.36756073  1.0
  O  O17  1  -0.42055788  -0.42036223  -0.81055430  1.0
  O  O18  1  -0.57944212  -0.57963777  -0.18944570  1.0
  O  O19  1  -0.31832864  -0.79375368  -0.99629947  1.0
  O  O20  1  -0.68167136  -0.20624632  -0.00370053  1.0
  Mn  Mn21  1  0.00000000  0.00000000  0.00000000  1.0
  Os  Os22  1  -0.50000000  -0.50000000  -0.00000000  1.0
  Os  Os23  1  -0.94578396  -0.94747096  -0.60739813  1.0
  Os  Os24  1  -0.05421604  -0.05252904  -0.39260187  1.0
