# generated using pymatgen
data_CaSb2
_symmetry_space_group_name_H-M   'P 1'
_cell_length_a   4.68481358
_cell_length_b   4.29259149
_cell_length_c   8.92026249
_cell_angle_alpha   90.00000000
_cell_angle_beta   105.73495472
_cell_angle_gamma   90.00000000
_symmetry_Int_Tables_number   1
_chemical_formula_structural   CaSb2
_chemical_formula_sum   'Ca2 Sb4'
_cell_volume   172.66415799
_cell_formula_units_Z   2
loop_
 _symmetry_equiv_pos_site_id
 _symmetry_equiv_pos_as_xyz
  1  'x, y, z'
loop_
 _atom_site_type_symbol
 _atom_site_label
 _atom_site_symmetry_multiplicity
 _atom_site_fract_x
 _atom_site_fract_y
 _atom_site_fract_z
 _atom_site_occupancy
  Ca  Ca0  1  0.61489733  0.25000000  0.70882082  1.0
  Ca  Ca1  1  0.38510267  0.75000000  0.29117918  1.0
  Sb  Sb2  1  0.93022922  0.25000000  0.37843857  1.0
  Sb  Sb3  1  0.06977078  0.75000000  0.62156143  1.0
  Sb  Sb4  1  0.26183531  0.25000000  0.98555772  1.0
  Sb  Sb5  1  0.73816469  0.75000000  0.01444228  1.0
