# generated using pymatgen
data_InAgSe2
_symmetry_space_group_name_H-M   'P 1'
_cell_length_a   7.44587130
_cell_length_b   7.44587130
_cell_length_c   7.44587130
_cell_angle_alpha   130.77793205
_cell_angle_beta   130.77793205
_cell_angle_gamma   72.16613669
_symmetry_Int_Tables_number   1
_chemical_formula_structural   InAgSe2
_chemical_formula_sum   'In2 Ag2 Se4'
_cell_volume   231.44300273
_cell_formula_units_Z   2
loop_
 _symmetry_equiv_pos_site_id
 _symmetry_equiv_pos_as_xyz
  1  'x, y, z'
loop_
 _atom_site_type_symbol
 _atom_site_label
 _atom_site_symmetry_multiplicity
 _atom_site_fract_x
 _atom_site_fract_y
 _atom_site_fract_z
 _atom_site_occupancy
  In  In0  1  0.75000000  0.25000000  0.50000000  1.0
  In  In1  1  1.00000000  1.00000000  1.00000000  1.0
  Ag  Ag2  1  0.25000000  0.75000000  0.50000000  1.0
  Ag  Ag3  1  0.50000000  0.50000000  -0.00000000  1.0
  Se  Se4  1  1.12125196  1.12500000  1.49625196  1.0
  Se  Se5  1  1.37500000  0.87874804  1.00374804  1.0
  Se  Se6  1  0.87500000  1.37125196  0.99625196  1.0
  Se  Se7  1  0.62874804  0.62500000  0.50374804  1.0
