# generated using pymatgen
data_ZrAs2
_symmetry_space_group_name_H-M   'P 1'
_cell_length_a   6.84929752
_cell_length_b   3.71767100
_cell_length_c   9.12701411
_cell_angle_alpha   90.00000000
_cell_angle_beta   90.00000000
_cell_angle_gamma   90.00000000
_symmetry_Int_Tables_number   1
_chemical_formula_structural   ZrAs2
_chemical_formula_sum   'Zr4 As8'
_cell_volume   232.40512838
_cell_formula_units_Z   4
loop_
 _symmetry_equiv_pos_site_id
 _symmetry_equiv_pos_as_xyz
  1  'x, y, z'
loop_
 _atom_site_type_symbol
 _atom_site_label
 _atom_site_symmetry_multiplicity
 _atom_site_fract_x
 _atom_site_fract_y
 _atom_site_fract_z
 _atom_site_occupancy
  Zr  Zr0  1  0.77201519  0.75000000  0.33794388  1.0
  Zr  Zr1  1  0.27201519  0.75000000  0.16205612  1.0
  Zr  Zr2  1  0.22798481  0.25000000  0.66205612  1.0
  Zr  Zr3  1  0.72798481  0.25000000  0.83794388  1.0
  As  As4  1  0.91754677  0.75000000  0.64719396  1.0
  As  As5  1  0.41754677  0.75000000  0.85280604  1.0
  As  As6  1  0.08245323  0.25000000  0.35280604  1.0
  As  As7  1  0.58245323  0.25000000  0.14719396  1.0
  As  As8  1  0.87976223  0.75000000  0.04245566  1.0
  As  As9  1  0.37976223  0.75000000  0.45754434  1.0
  As  As10  1  0.12023777  0.25000000  0.95754434  1.0
  As  As11  1  0.62023777  0.25000000  0.54245566  1.0
