# generated using pymatgen
data_Rb3NaGe22
_symmetry_space_group_name_H-M   'P 1'
_cell_length_a   10.90240930
_cell_length_b   10.90240930
_cell_length_c   10.81199802
_cell_angle_alpha   90.00000000
_cell_angle_beta   90.00000000
_cell_angle_gamma   89.85314050
_symmetry_Int_Tables_number   1
_chemical_formula_structural   Rb3NaGe22
_chemical_formula_sum   'Rb6 Na2 Ge44'
_cell_volume   1285.13720231
_cell_formula_units_Z   2
loop_
 _symmetry_equiv_pos_site_id
 _symmetry_equiv_pos_as_xyz
  1  'x, y, z'
loop_
 _atom_site_type_symbol
 _atom_site_label
 _atom_site_symmetry_multiplicity
 _atom_site_fract_x
 _atom_site_fract_y
 _atom_site_fract_z
 _atom_site_occupancy
  Rb  Rb0  1  -0.24820373  1.24820373  0.50000000  1.0
  Rb  Rb1  1  -0.24820373  1.24820373  0.00000000  1.0
  Rb  Rb2  1  0.24944658  0.49882510  0.75000000  1.0
  Rb  Rb3  1  0.50117490  0.75055342  0.25000000  1.0
  Rb  Rb4  1  -0.75376370  1.00171048  0.75000000  1.0
  Rb  Rb5  1  -0.00171048  0.75376370  0.25000000  1.0
  Na  Na6  1  0.23619912  0.24196317  0.25000000  1.0
  Na  Na7  1  0.75803683  0.76380088  0.75000000  1.0
  Ge  Ge8  1  0.24965191  0.75034809  0.50000000  1.0
  Ge  Ge9  1  0.24965191  0.75034809  -0.00000000  1.0
  Ge  Ge10  1  -0.24984553  1.49925150  0.25000000  1.0
  Ge  Ge11  1  -0.49925150  1.24984553  0.75000000  1.0
  Ge  Ge12  1  -0.05311220  1.36331631  0.25000000  1.0
  Ge  Ge13  1  -0.36331631  1.05311220  0.75000000  1.0
  Ge  Ge14  1  -0.41577734  1.12194652  0.25000000  1.0
  Ge  Ge15  1  -0.12194652  1.41577734  0.75000000  1.0
  Ge  Ge16  1  -0.44511685  1.36182535  0.25000000  1.0
  Ge  Ge17  1  -0.36182535  1.44511685  0.75000000  1.0
  Ge  Ge18  1  -0.07954341  1.12513494  0.25000000  1.0
  Ge  Ge19  1  -0.12513494  1.07954341  0.75000000  1.0
  Ge  Ge20  1  0.06853471  0.42789451  0.43917159  1.0
  Ge  Ge21  1  0.57210549  0.93146529  0.56082841  1.0
  Ge  Ge22  1  0.06853471  0.42789451  0.06082841  1.0
  Ge  Ge23  1  0.57210549  0.93146529  0.93917159  1.0
  Ge  Ge24  1  -0.56090530  1.06810750  0.42786774  1.0
  Ge  Ge25  1  -0.06810750  1.56090530  0.57213226  1.0
  Ge  Ge26  1  -0.56090530  1.06810750  0.07213226  1.0
  Ge  Ge27  1  -0.06810750  1.56090530  0.92786774  1.0
  Ge  Ge28  1  0.06316404  0.07530676  0.06577974  1.0
  Ge  Ge29  1  0.92469324  0.93683596  0.93422026  1.0
  Ge  Ge30  1  0.06316404  0.07530676  0.43422026  1.0
  Ge  Ge31  1  0.92469324  0.93683596  0.56577974  1.0
  Ge  Ge32  1  0.43450760  0.43348122  0.06610384  1.0
  Ge  Ge33  1  0.56651878  0.56549240  0.93389616  1.0
  Ge  Ge34  1  0.43450760  0.43348122  0.43389616  1.0
  Ge  Ge35  1  0.56651878  0.56549240  0.56610384  1.0
  Ge  Ge36  1  0.12515093  0.24994361  0.58276352  1.0
  Ge  Ge37  1  0.75005639  0.87484907  0.41723648  1.0
  Ge  Ge38  1  0.12515093  0.24994361  0.91723648  1.0
  Ge  Ge39  1  0.75005639  0.87484907  0.08276352  1.0
  Ge  Ge40  1  -0.63532959  1.24846731  0.55325390  1.0
  Ge  Ge41  1  -0.24846731  1.63532959  0.44674610  1.0
  Ge  Ge42  1  -0.63532959  1.24846731  0.94674610  1.0
  Ge  Ge43  1  -0.24846731  1.63532959  0.05325390  1.0
  Ge  Ge44  1  0.24855563  0.55432532  0.36958004  1.0
  Ge  Ge45  1  0.44567468  0.75144437  0.63041996  1.0
  Ge  Ge46  1  0.24855563  0.55432532  0.13041996  1.0
  Ge  Ge47  1  0.44567468  0.75144437  0.86958004  1.0
  Ge  Ge48  1  0.24828001  0.94813661  0.37031864  1.0
  Ge  Ge49  1  0.05186339  0.75171999  0.62968136  1.0
  Ge  Ge50  1  0.24828001  0.94813661  0.12968136  1.0
  Ge  Ge51  1  0.05186339  0.75171999  0.87031864  1.0
