# generated using pymatgen
data_Na2Sn
_symmetry_space_group_name_H-M   'P 1'
_cell_length_a   12.96137208
_cell_length_b   12.96137208
_cell_length_c   12.96137208
_cell_angle_alpha   121.85931460
_cell_angle_beta   121.85931460
_cell_angle_gamma   86.80865376
_symmetry_Int_Tables_number   1
_chemical_formula_structural   Na2Sn
_chemical_formula_sum   'Na32 Sn16'
_cell_volume   1493.91412691
_cell_formula_units_Z   16
loop_
 _symmetry_equiv_pos_site_id
 _symmetry_equiv_pos_as_xyz
  1  'x, y, z'
loop_
 _atom_site_type_symbol
 _atom_site_label
 _atom_site_symmetry_multiplicity
 _atom_site_fract_x
 _atom_site_fract_y
 _atom_site_fract_z
 _atom_site_occupancy
  Na  Na0  1  0.77052617  1.06388987  1.49641358  1.0
  Na  Na1  1  0.18252371  0.97588741  0.99641358  1.0
  Na  Na2  1  1.06747629  0.56388987  1.29336370  1.0
  Na  Na3  1  0.47947383  0.47588741  0.79336370  1.0
  Na  Na4  1  1.22588741  0.93252371  1.49641358  1.0
  Na  Na5  1  1.31388987  0.52052617  0.99641358  1.0
  Na  Na6  1  0.93611013  0.43252371  0.70663630  1.0
  Na  Na7  1  1.02411259  1.02052617  1.20663630  1.0
  Na  Na8  1  0.27052617  0.77411259  0.70663630  1.0
  Na  Na9  1  0.68252371  0.68611013  1.20663630  1.0
  Na  Na10  1  0.56747629  0.27411259  0.50358642  1.0
  Na  Na11  1  0.97947383  0.18611013  1.00358642  1.0
  Na  Na12  1  0.72588741  1.22947383  1.29336370  1.0
  Na  Na13  1  0.81388987  0.81747629  0.79336370  1.0
  Na  Na14  1  0.43611013  0.72947383  0.50358642  1.0
  Na  Na15  1  0.52411259  1.31747629  1.00358642  1.0
  Na  Na16  1  0.24044454  1.06524470  0.79970382  1.0
  Na  Na17  1  0.48445912  0.80925928  1.29970382  1.0
  Na  Na18  1  0.76554088  0.56524470  0.82480016  1.0
  Na  Na19  1  0.00955546  0.30925928  0.32480016  1.0
  Na  Na20  1  1.05925928  0.23445912  0.79970382  1.0
  Na  Na21  1  0.31524470  -0.00955546  0.29970382  1.0
  Na  Na22  1  0.93475530  0.73445912  1.17519984  1.0
  Na  Na23  1  0.19074072  0.49044454  0.67519984  1.0
  Na  Na24  1  0.74044454  0.94074072  1.17519984  1.0
  Na  Na25  1  -0.01554088  0.68475530  0.67519984  1.0
  Na  Na26  1  0.26554088  0.44074072  0.20029618  1.0
  Na  Na27  1  0.50955546  0.18475530  0.70029618  1.0
  Na  Na28  1  0.55925928  0.75955546  0.82480016  1.0
  Na  Na29  1  0.81524470  0.51554088  1.32480016  1.0
  Na  Na30  1  0.43475530  0.25955546  0.20029618  1.0
  Na  Na31  1  0.69074072  0.01554088  0.70029618  1.0
  Sn  Sn32  1  0.99866062  0.80762000  1.48896063  1.0
  Sn  Sn33  1  0.43134063  0.74030001  0.98896063  1.0
  Sn  Sn34  1  0.81865937  0.30762000  0.80895938  1.0
  Sn  Sn35  1  0.25133938  0.24030001  0.30895938  1.0
  Sn  Sn36  1  0.99030001  1.18134063  1.48896063  1.0
  Sn  Sn37  1  1.05762000  0.74866062  0.98896063  1.0
  Sn  Sn38  1  1.19238000  0.68134063  1.19104062  1.0
  Sn  Sn39  1  1.25969999  1.24866062  1.69104062  1.0
  Sn  Sn40  1  0.49866062  1.00969999  1.19104062  1.0
  Sn  Sn41  1  0.93134063  0.94238000  1.69104062  1.0
  Sn  Sn42  1  0.31865937  0.50969999  0.51103937  1.0
  Sn  Sn43  1  0.75133938  0.44238000  1.01103937  1.0
  Sn  Sn44  1  0.49030001  1.00133938  0.80895938  1.0
  Sn  Sn45  1  0.55762000  0.56865937  0.30895938  1.0
  Sn  Sn46  1  0.69238000  0.50133938  0.51103937  1.0
  Sn  Sn47  1  0.75969999  1.06865937  1.01103937  1.0
