# generated using pymatgen
data_KSb(PS3)2
_symmetry_space_group_name_H-M   'P 1'
_cell_length_a   6.73818550
_cell_length_b   8.10581249
_cell_length_c   9.87037526
_cell_angle_alpha   90.00000000
_cell_angle_beta   92.19936724
_cell_angle_gamma   90.00000000
_symmetry_Int_Tables_number   1
_chemical_formula_structural   KSb(PS3)2
_chemical_formula_sum   'K2 Sb2 P4 S12'
_cell_volume   538.70764056
_cell_formula_units_Z   2
loop_
 _symmetry_equiv_pos_site_id
 _symmetry_equiv_pos_as_xyz
  1  'x, y, z'
loop_
 _atom_site_type_symbol
 _atom_site_label
 _atom_site_symmetry_multiplicity
 _atom_site_fract_x
 _atom_site_fract_y
 _atom_site_fract_z
 _atom_site_occupancy
  K  K0  1  0.80850702  0.20926240  0.98471522  1.0
  K  K1  1  0.19149298  0.70926240  0.01528478  1.0
  Sb  Sb2  1  0.67900546  0.50948074  0.51784801  1.0
  Sb  Sb3  1  0.32099454  0.00948074  0.48215199  1.0
  P  P4  1  0.80853676  0.91048927  0.66686608  1.0
  P  P5  1  0.19146324  0.41048927  0.33313392  1.0
  P  P6  1  0.70266042  0.70445157  0.80166345  1.0
  P  P7  1  0.29733958  0.20445157  0.19833655  1.0
  S  S8  1  0.92671192  0.49005919  0.25842936  1.0
  S  S9  1  0.07328808  -0.00994081  0.74157064  1.0
  S  S10  1  0.90609380  0.52377010  0.77131750  1.0
  S  S11  1  0.09390620  0.02377010  0.22868250  1.0
  S  S12  1  0.82042002  0.79865555  0.47570147  1.0
  S  S13  1  0.17957998  0.29865555  0.52429853  1.0
  S  S14  1  0.67294837  0.78980754  0.98762060  1.0
  S  S15  1  0.32705163  0.28980754  0.01237940  1.0
  S  S16  1  0.60173158  0.09928649  0.66761391  1.0
  S  S17  1  0.39826842  0.59928649  0.33238609  1.0
  S  S18  1  0.44559425  0.63573714  0.69295790  1.0
  S  S19  1  0.55440575  0.13573714  0.30704210  1.0
