# generated using pymatgen
data_K4V2O9
_symmetry_space_group_name_H-M   'P 1'
_cell_length_a   8.35287361
_cell_length_b   8.35287361
_cell_length_c   8.07449331
_cell_angle_alpha   90.00000000
_cell_angle_beta   90.00000000
_cell_angle_gamma   96.35293439
_symmetry_Int_Tables_number   1
_chemical_formula_structural   K4V2O9
_chemical_formula_sum   'K8 V4 O18'
_cell_volume   559.90189789
_cell_formula_units_Z   2
loop_
 _symmetry_equiv_pos_site_id
 _symmetry_equiv_pos_as_xyz
  1  'x, y, z'
loop_
 _atom_site_type_symbol
 _atom_site_label
 _atom_site_symmetry_multiplicity
 _atom_site_fract_x
 _atom_site_fract_y
 _atom_site_fract_z
 _atom_site_occupancy
  O  O0  1  0.14642186  0.85357814  0.94572605  1.0
  O  O1  1  0.14642186  0.85357814  0.55427395  1.0
  O  O2  1  -0.14642186  1.14642186  0.44572605  1.0
  O  O3  1  -0.14642186  1.14642186  0.05427395  1.0
  O  O4  1  0.26413341  0.73586659  0.25000000  1.0
  O  O5  1  -0.26413341  1.26413341  0.75000000  1.0
  O  O6  1  -0.18213497  1.65088146  0.25000000  1.0
  O  O7  1  0.65088146  0.81786503  0.75000000  1.0
  O  O8  1  -0.65088146  1.18213497  0.25000000  1.0
  O  O9  1  0.18213497  0.34911854  0.75000000  1.0
  O  O10  1  -0.21618170  1.46504712  0.46657320  1.0
  O  O11  1  -0.21618170  1.46504712  0.03342680  1.0
  O  O12  1  0.46504712  0.78381830  0.96657320  1.0
  O  O13  1  0.46504712  0.78381830  0.53342680  1.0
  O  O14  1  -0.46504712  1.21618170  0.46657320  1.0
  O  O15  1  -0.46504712  1.21618170  0.03342680  1.0
  O  O16  1  0.21618170  0.53495288  0.96657320  1.0
  O  O17  1  0.21618170  0.53495288  0.53342680  1.0
  K  K18  1  0.03484143  0.96515857  0.25000000  1.0
  K  K19  1  -0.03484143  1.03484143  0.75000000  1.0
  K  K20  1  -0.48284325  1.48284325  0.25000000  1.0
  K  K21  1  0.48284325  0.51715675  0.75000000  1.0
  K  K22  1  0.03478889  0.41147388  0.25000000  1.0
  K  K23  1  -0.58852612  1.03478889  0.75000000  1.0
  K  K24  1  0.58852612  0.96521111  0.25000000  1.0
  K  K25  1  -0.03478889  1.58852612  0.75000000  1.0
  V  V26  1  0.27162314  0.72837686  0.47493223  1.0
  V  V27  1  0.27162314  0.72837686  0.02506777  1.0
  V  V28  1  -0.27162314  1.27162314  0.97493223  1.0
  V  V29  1  -0.27162314  1.27162314  0.52506777  1.0
