# generated using pymatgen
data_CdMoO4
_symmetry_space_group_name_H-M   'P 1'
_cell_length_a   6.78135626
_cell_length_b   6.78135626
_cell_length_c   5.22907925
_cell_angle_alpha   67.31494972
_cell_angle_beta   112.68505028
_cell_angle_gamma   66.09894996
_symmetry_Int_Tables_number   1
_chemical_formula_structural   CdMoO4
_chemical_formula_sum   'Cd2 Mo2 O8'
_cell_volume   155.44142385
_cell_formula_units_Z   2
loop_
 _symmetry_equiv_pos_site_id
 _symmetry_equiv_pos_as_xyz
  1  'x, y, z'
loop_
 _atom_site_type_symbol
 _atom_site_label
 _atom_site_symmetry_multiplicity
 _atom_site_fract_x
 _atom_site_fract_y
 _atom_site_fract_z
 _atom_site_occupancy
  Cd  Cd0  1  1.37505230  0.37505230  0.75000000  1.0
  Cd  Cd1  1  0.62494770  0.62494770  0.25000000  1.0
  Mo  Mo2  1  0.87495881  0.87495881  0.75000000  1.0
  Mo  Mo3  1  1.12504119  0.12504119  0.25000000  1.0
  O  O4  1  1.63646678  -0.05829483  0.84092318  1.0
  O  O5  1  1.05829483  0.36353322  0.34092318  1.0
  O  O6  1  0.94170517  0.63646678  0.65907682  1.0
  O  O7  1  1.36353322  0.05829483  0.15907682  1.0
  O  O8  1  1.28265258  -0.20439293  0.64619111  1.0
  O  O9  1  1.20439293  0.71734742  0.14619111  1.0
  O  O10  1  0.79560707  0.28265258  0.85380889  1.0
  O  O11  1  1.71734742  0.20439293  0.35380889  1.0
