# generated using pymatgen
data_KTl(CN)2
_symmetry_space_group_name_H-M   'P 1'
_cell_length_a   9.47538995
_cell_length_b   9.47538995
_cell_length_c   9.47538995
_cell_angle_alpha   121.80286639
_cell_angle_beta   121.80286639
_cell_angle_gamma   86.90471583
_symmetry_Int_Tables_number   1
_chemical_formula_structural   KTl(CN)2
_chemical_formula_sum   'K4 Tl4 C8 N8'
_cell_volume   584.23634841
_cell_formula_units_Z   4
loop_
 _symmetry_equiv_pos_site_id
 _symmetry_equiv_pos_as_xyz
  1  'x, y, z'
loop_
 _atom_site_type_symbol
 _atom_site_label
 _atom_site_symmetry_multiplicity
 _atom_site_fract_x
 _atom_site_fract_y
 _atom_site_fract_z
 _atom_site_occupancy
  K  K0  1  0.37500000  0.62500000  0.75000000  1.0
  K  K1  1  0.87500000  0.62500000  1.25000000  1.0
  K  K2  1  0.37500000  1.12500000  0.75000000  1.0
  K  K3  1  0.37500000  0.62500000  0.25000000  1.0
  Tl  Tl4  1  0.87500000  0.12500000  0.75000000  1.0
  Tl  Tl5  1  0.37500000  0.12500000  0.25000000  1.0
  Tl  Tl6  1  0.87500000  0.62500000  0.75000000  1.0
  Tl  Tl7  1  0.87500000  1.12500000  1.25000000  1.0
  C  C8  1  1.12512329  0.91163555  1.72524543  1.0
  C  C9  1  0.56360988  0.85012214  1.22524543  1.0
  C  C10  1  1.08836445  0.81360988  1.21348774  1.0
  C  C11  1  1.14987786  1.37512329  1.71348774  1.0
  C  C12  1  0.18639012  0.39987786  0.27475457  1.0
  C  C13  1  0.62487671  0.33836445  0.77475457  1.0
  C  C14  1  0.60012214  0.87487671  0.78651226  1.0
  C  C15  1  0.66163555  0.43639012  0.28651226  1.0
  N  N16  1  1.13037973  0.81641625  0.77122921  1.0
  N  N17  1  0.70481296  0.89084949  1.27122921  1.0
  N  N18  1  0.18358375  0.95481296  1.31396348  1.0
  N  N19  1  1.10915051  1.38037973  1.81396348  1.0
  N  N20  1  1.04518704  1.35915051  1.22877079  1.0
  N  N21  1  0.61962027  0.43358375  0.72877079  1.0
  N  N22  1  0.64084949  -0.13037973  0.68603652  1.0
  N  N23  1  0.56641625  0.29518704  0.18603652  1.0
