# generated using pymatgen
data_WO3
_symmetry_space_group_name_H-M   'P 1'
_cell_length_a   12.16667266
_cell_length_b   12.16667266
_cell_length_c   3.96882855
_cell_angle_alpha   90.00000000
_cell_angle_beta   90.00000000
_cell_angle_gamma   90.00000000
_symmetry_Int_Tables_number   1
_chemical_formula_structural   WO3
_chemical_formula_sum   'W10 O30'
_cell_volume   587.49745055
_cell_formula_units_Z   10
loop_
 _symmetry_equiv_pos_site_id
 _symmetry_equiv_pos_as_xyz
  1  'x, y, z'
loop_
 _atom_site_type_symbol
 _atom_site_label
 _atom_site_symmetry_multiplicity
 _atom_site_fract_x
 _atom_site_fract_y
 _atom_site_fract_z
 _atom_site_occupancy
  W  W0  1  0.50000000  0.00000000  0.43620602  1.0
  W  W1  1  0.00000000  0.50000000  0.56379398  1.0
  W  W2  1  0.57767502  0.29362238  0.43665744  1.0
  W  W3  1  0.07767502  0.20637762  0.56334256  1.0
  W  W4  1  0.42232498  0.70637762  0.43665744  1.0
  W  W5  1  0.92232498  0.79362238  0.56334256  1.0
  W  W6  1  0.70637762  0.57767502  0.56334256  1.0
  W  W7  1  0.20637762  0.92232498  0.43665744  1.0
  W  W8  1  0.29362238  0.42232498  0.56334256  1.0
  W  W9  1  0.79362238  0.07767502  0.43665744  1.0
  O  O10  1  0.50000000  0.00000000  0.99023562  1.0
  O  O11  1  0.00000000  0.50000000  0.00976438  1.0
  O  O12  1  0.57739203  0.29394816  0.99095187  1.0
  O  O13  1  0.07739203  0.20605184  0.00904813  1.0
  O  O14  1  0.42260797  0.70605184  0.99095187  1.0
  O  O15  1  0.92260797  0.79394816  0.00904813  1.0
  O  O16  1  0.70605184  0.57739203  0.00904813  1.0
  O  O17  1  0.20605184  0.92260797  0.99095187  1.0
  O  O18  1  0.29394816  0.42260797  0.00904813  1.0
  O  O19  1  0.79394816  0.07739203  0.99095187  1.0
  O  O20  1  0.78763696  0.71236304  0.51205496  1.0
  O  O21  1  0.28763696  0.78763696  0.48794504  1.0
  O  O22  1  0.21236304  0.28763696  0.51205496  1.0
  O  O23  1  0.71236304  0.21236304  0.48794504  1.0
  O  O24  1  0.84439544  0.50375669  0.50358099  1.0
  O  O25  1  0.34439544  -0.00375669  0.49641901  1.0
  O  O26  1  0.15560456  0.49624331  0.50358099  1.0
  O  O27  1  0.65560456  1.00375669  0.49641901  1.0
  O  O28  1  0.49624331  0.84439544  0.49641901  1.0
  O  O29  1  -0.00375669  0.65560456  0.50358099  1.0
  O  O30  1  0.50375669  0.15560456  0.49641901  1.0
  O  O31  1  1.00375669  0.34439544  0.50358099  1.0
  O  O32  1  0.64244588  0.43209328  0.50249121  1.0
  O  O33  1  0.14244588  0.06790672  0.49750879  1.0
  O  O34  1  0.35755412  0.56790672  0.50249121  1.0
  O  O35  1  0.85755412  0.93209328  0.49750879  1.0
  O  O36  1  0.56790672  0.64244588  0.49750879  1.0
  O  O37  1  0.06790672  0.85755412  0.50249121  1.0
  O  O38  1  0.43209328  0.35755412  0.49750879  1.0
  O  O39  1  0.93209328  0.14244588  0.50249121  1.0
