# generated using pymatgen
data_KF5
_symmetry_space_group_name_H-M   'P 1'
_cell_length_a   7.57879343
_cell_length_b   7.57879343
_cell_length_c   7.57879343
_cell_angle_alpha   136.38078123
_cell_angle_beta   136.38078123
_cell_angle_gamma   63.39218769
_symmetry_Int_Tables_number   1
_chemical_formula_structural   KF5
_chemical_formula_sum   'K2 F10'
_cell_volume   204.49577453
_cell_formula_units_Z   2
loop_
 _symmetry_equiv_pos_site_id
 _symmetry_equiv_pos_as_xyz
  1  'x, y, z'
loop_
 _atom_site_type_symbol
 _atom_site_label
 _atom_site_symmetry_multiplicity
 _atom_site_fract_x
 _atom_site_fract_y
 _atom_site_fract_z
 _atom_site_occupancy
  K  K0  1  0.25000000  0.75000000  0.50000000  1.0
  K  K1  1  0.50000000  0.50000000  0.00000000  1.0
  F  F2  1  0.75000000  0.25000000  0.50000000  1.0
  F  F3  1  1.00000000  1.00000000  1.00000000  1.0
  F  F4  1  1.32038726  0.96497786  1.35544278  1.0
  F  F5  1  0.60953509  0.96494449  0.64455722  1.0
  F  F6  1  0.71494449  0.57038726  0.85540940  1.0
  F  F7  1  0.71497786  0.85953509  1.14459060  1.0
  F  F8  1  0.42961274  1.28502214  1.14455722  1.0
  F  F9  1  1.14046491  0.28505551  0.85544278  1.0
  F  F10  1  1.03505551  0.67961274  0.64459060  1.0
  F  F11  1  1.03502214  1.39046491  1.35540940  1.0
