# generated using pymatgen
data_Ag2Se
_symmetry_space_group_name_H-M   'P 1'
_cell_length_a   13.20733822
_cell_length_b   4.25410894
_cell_length_c   4.28989207
_cell_angle_alpha   90.00000000
_cell_angle_beta   90.00000000
_cell_angle_gamma   90.00000000
_symmetry_Int_Tables_number   1
_chemical_formula_structural   Ag2Se
_chemical_formula_sum   'Ag8 Se4'
_cell_volume   241.02954010
_cell_formula_units_Z   4
loop_
 _symmetry_equiv_pos_site_id
 _symmetry_equiv_pos_as_xyz
  1  'x, y, z'
loop_
 _atom_site_type_symbol
 _atom_site_label
 _atom_site_symmetry_multiplicity
 _atom_site_fract_x
 _atom_site_fract_y
 _atom_site_fract_z
 _atom_site_occupancy
  Ag  Ag0  1  0.91581556  0.25000000  0.09949909  1.0
  Ag  Ag1  1  0.41581556  0.25000000  0.40050091  1.0
  Ag  Ag2  1  0.08418444  0.75000000  0.90050091  1.0
  Ag  Ag3  1  0.58418444  0.75000000  0.59949909  1.0
  Ag  Ag4  1  0.75361280  0.25000000  0.60116268  1.0
  Ag  Ag5  1  0.25361280  0.25000000  0.89883732  1.0
  Ag  Ag6  1  0.24638720  0.75000000  0.39883732  1.0
  Ag  Ag7  1  0.74638720  0.75000000  0.10116268  1.0
  Se  Se8  1  0.60787323  0.25000000  0.15426117  1.0
  Se  Se9  1  0.10787323  0.25000000  0.34573883  1.0
  Se  Se10  1  0.39212677  0.75000000  0.84573883  1.0
  Se  Se11  1  0.89212677  0.75000000  0.65426117  1.0
