# generated using pymatgen
data_CsMnCr(CN)6
_symmetry_space_group_name_H-M   'P 1'
_cell_length_a   7.21150145
_cell_length_b   7.21150145
_cell_length_c   7.21150145
_cell_angle_alpha   60.00000000
_cell_angle_beta   60.00000000
_cell_angle_gamma   60.00000000
_symmetry_Int_Tables_number   1
_chemical_formula_structural   CsMnCr(CN)6
_chemical_formula_sum   'Cs1 Mn1 Cr1 C6 N6'
_cell_volume   265.19301889
_cell_formula_units_Z   1
loop_
 _symmetry_equiv_pos_site_id
 _symmetry_equiv_pos_as_xyz
  1  'x, y, z'
loop_
 _atom_site_type_symbol
 _atom_site_label
 _atom_site_symmetry_multiplicity
 _atom_site_fract_x
 _atom_site_fract_y
 _atom_site_fract_z
 _atom_site_occupancy
  Cs  Cs0  1  0.75000000  0.75000000  -0.25000000  1.0
  Mn  Mn1  1  0.00000000  0.00000000  0.00000000  1.0
  Cr  Cr2  1  -0.50000000  0.50000000  0.50000000  1.0
  C  C3  1  -0.81053935  0.81053935  0.81053935  1.0
  C  C4  1  -0.18946065  0.81053935  0.18946065  1.0
  C  C5  1  -0.18946065  0.18946065  0.81053935  1.0
  C  C6  1  0.18946065  1.18946065  -0.18946065  1.0
  C  C7  1  0.18946065  -0.18946065  0.18946065  1.0
  C  C8  1  -0.18946065  0.18946065  0.18946065  1.0
  N  N9  1  -0.69510192  0.69510192  0.69510192  1.0
  N  N10  1  -0.30489808  0.69510192  0.30489808  1.0
  N  N11  1  -0.30489808  0.30489808  0.69510192  1.0
  N  N12  1  0.30489808  1.30489808  -0.30489808  1.0
  N  N13  1  0.30489808  -0.30489808  0.30489808  1.0
  N  N14  1  -0.30489808  0.30489808  0.30489808  1.0
