# generated using pymatgen
data_SiNi
_symmetry_space_group_name_H-M   'P 1'
_cell_length_a   4.51940670
_cell_length_b   4.51940670
_cell_length_c   4.51940670
_cell_angle_alpha   90.00000000
_cell_angle_beta   90.00000000
_cell_angle_gamma   90.00000000
_symmetry_Int_Tables_number   1
_chemical_formula_structural   SiNi
_chemical_formula_sum   'Si4 Ni4'
_cell_volume   92.30904887
_cell_formula_units_Z   4
loop_
 _symmetry_equiv_pos_site_id
 _symmetry_equiv_pos_as_xyz
  1  'x, y, z'
loop_
 _atom_site_type_symbol
 _atom_site_label
 _atom_site_symmetry_multiplicity
 _atom_site_fract_x
 _atom_site_fract_y
 _atom_site_fract_z
 _atom_site_occupancy
  Si  Si0  1  0.65354598  0.15354598  0.34645402  1.0
  Si  Si1  1  0.15354598  0.34645402  0.65354598  1.0
  Si  Si2  1  0.34645402  0.65354598  0.15354598  1.0
  Si  Si3  1  0.84645402  0.84645402  0.84645402  1.0
  Ni  Ni4  1  0.35125330  0.85125330  0.64874670  1.0
  Ni  Ni5  1  0.85125330  0.64874670  0.35125330  1.0
  Ni  Ni6  1  0.64874670  0.35125330  0.85125330  1.0
  Ni  Ni7  1  0.14874670  0.14874670  0.14874670  1.0
