# generated using pymatgen
data_Nb3Cl8
_symmetry_space_group_name_H-M   'P 1'
_cell_length_a   6.80821325
_cell_length_b   6.80821325
_cell_length_c   13.58932564
_cell_angle_alpha   90.00000000
_cell_angle_beta   90.00000000
_cell_angle_gamma   120.00000000
_symmetry_Int_Tables_number   1
_chemical_formula_structural   Nb3Cl8
_chemical_formula_sum   'Nb6 Cl16'
_cell_volume   545.50010457
_cell_formula_units_Z   2
loop_
 _symmetry_equiv_pos_site_id
 _symmetry_equiv_pos_as_xyz
  1  'x, y, z'
loop_
 _atom_site_type_symbol
 _atom_site_label
 _atom_site_symmetry_multiplicity
 _atom_site_fract_x
 _atom_site_fract_y
 _atom_site_fract_z
 _atom_site_occupancy
  Nb  Nb0  1  0.47160810  0.94321621  0.74616429  1.0
  Nb  Nb1  1  0.47160810  0.52839190  0.74616429  1.0
  Nb  Nb2  1  0.05678379  0.52839190  0.74616429  1.0
  Nb  Nb3  1  0.52839190  0.05678379  0.25383571  1.0
  Nb  Nb4  1  0.52839190  0.47160810  0.25383571  1.0
  Nb  Nb5  1  0.94321621  0.47160810  0.25383571  1.0
  Cl  Cl6  1  0.66666667  0.33333333  0.84522421  1.0
  Cl  Cl7  1  0.33333333  0.66666667  0.15477579  1.0
  Cl  Cl8  1  0.33333333  0.66666667  0.61156877  1.0
  Cl  Cl9  1  0.66666667  0.33333333  0.38843123  1.0
  Cl  Cl10  1  0.83413867  0.66827733  0.64728589  1.0
  Cl  Cl11  1  0.83413867  0.16586133  0.64728589  1.0
  Cl  Cl12  1  0.33172267  0.16586133  0.64728589  1.0
  Cl  Cl13  1  0.16586133  0.33172267  0.35271411  1.0
  Cl  Cl14  1  0.16586133  0.83413867  0.35271411  1.0
  Cl  Cl15  1  0.66827733  0.83413867  0.35271411  1.0
  Cl  Cl16  1  0.17020112  0.34040225  0.86762159  1.0
  Cl  Cl17  1  0.17020112  0.82979888  0.86762159  1.0
  Cl  Cl18  1  0.65959775  0.82979888  0.86762159  1.0
  Cl  Cl19  1  0.82979888  0.65959775  0.13237841  1.0
  Cl  Cl20  1  0.82979888  0.17020112  0.13237841  1.0
  Cl  Cl21  1  0.34040225  0.17020112  0.13237841  1.0
