# generated using pymatgen
data_NbSe4
_symmetry_space_group_name_H-M   'P 1'
_cell_length_a   5.97834775
_cell_length_b   5.97834775
_cell_length_c   6.47542362
_cell_angle_alpha   90.00000000
_cell_angle_beta   90.00000000
_cell_angle_gamma   90.00000000
_symmetry_Int_Tables_number   1
_chemical_formula_structural   NbSe4
_chemical_formula_sum   'Nb2 Se8'
_cell_volume   231.43579613
_cell_formula_units_Z   2
loop_
 _symmetry_equiv_pos_site_id
 _symmetry_equiv_pos_as_xyz
  1  'x, y, z'
loop_
 _atom_site_type_symbol
 _atom_site_label
 _atom_site_symmetry_multiplicity
 _atom_site_fract_x
 _atom_site_fract_y
 _atom_site_fract_z
 _atom_site_occupancy
  Nb  Nb0  1  0.00000000  0.00000000  0.74500585  1.0
  Nb  Nb1  1  0.00000000  0.00000000  0.24500585  1.0
  Se  Se2  1  0.33401299  0.13541179  0.49499854  1.0
  Se  Se3  1  0.66598701  0.86458821  0.49499854  1.0
  Se  Se4  1  0.33401299  0.86458821  -0.00500146  1.0
  Se  Se5  1  0.66598701  0.13541179  -0.00500146  1.0
  Se  Se6  1  0.13541179  0.66598701  0.49499854  1.0
  Se  Se7  1  0.86458821  0.33401299  0.49499854  1.0
  Se  Se8  1  0.86458821  0.66598701  -0.00500146  1.0
  Se  Se9  1  0.13541179  0.33401299  -0.00500146  1.0
