# generated using pymatgen
data_Ca(BeN)2
_symmetry_space_group_name_H-M   'P 1'
_cell_length_a   5.23023207
_cell_length_b   5.23023207
_cell_length_c   5.23023207
_cell_angle_alpha   115.73764661
_cell_angle_beta   115.73764661
_cell_angle_gamma   97.55615878
_symmetry_Int_Tables_number   1
_chemical_formula_structural   Ca(BeN)2
_chemical_formula_sum   'Ca2 Be4 N4'
_cell_volume   106.68099778
_cell_formula_units_Z   2
loop_
 _symmetry_equiv_pos_site_id
 _symmetry_equiv_pos_as_xyz
  1  'x, y, z'
loop_
 _atom_site_type_symbol
 _atom_site_label
 _atom_site_symmetry_multiplicity
 _atom_site_fract_x
 _atom_site_fract_y
 _atom_site_fract_z
 _atom_site_occupancy
  Ca  Ca0  1  0.25000000  0.25000000  0.00000000  1.0
  Ca  Ca1  1  0.75000000  0.75000000  0.00000000  1.0
  Be  Be2  1  0.87386618  0.37386618  1.24773237  1.0
  Be  Be3  1  0.62613382  0.87386618  0.50000000  1.0
  Be  Be4  1  0.37386618  0.12613382  0.50000000  1.0
  Be  Be5  1  1.12613382  0.62613382  0.75226763  1.0
  N  N6  1  0.33054938  0.83054938  1.16109876  1.0
  N  N7  1  0.16945062  0.33054938  0.50000000  1.0
  N  N8  1  0.83054938  0.66945062  0.50000000  1.0
  N  N9  1  0.66945062  1.16945062  0.83890124  1.0
