# generated using pymatgen
data_CaTlCl5O7
_symmetry_space_group_name_H-M   'P 1'
_cell_length_a   8.66811400
_cell_length_b   8.66811400
_cell_length_c   8.23971679
_cell_angle_alpha   94.37332981
_cell_angle_beta   85.62667019
_cell_angle_gamma   104.90228631
_symmetry_Int_Tables_number   1
_chemical_formula_structural   CaTlCl5O7
_chemical_formula_sum   'Ca2 Tl2 Cl10 O14'
_cell_volume   595.50440230
_cell_formula_units_Z   2
loop_
 _symmetry_equiv_pos_site_id
 _symmetry_equiv_pos_as_xyz
  1  'x, y, z'
loop_
 _atom_site_type_symbol
 _atom_site_label
 _atom_site_symmetry_multiplicity
 _atom_site_fract_x
 _atom_site_fract_y
 _atom_site_fract_z
 _atom_site_occupancy
  Ca  Ca0  1  0.76817137  -0.76817137  0.96600880  1.0
  Ca  Ca1  1  0.23182863  -0.23182863  0.03399120  1.0
  Tl  Tl2  1  0.80179823  -0.19820177  0.50000000  1.0
  Tl  Tl3  1  1.19820177  0.19820177  0.50000000  1.0
  Cl  Cl4  1  0.88590278  -0.88590278  0.61655980  1.0
  Cl  Cl5  1  0.11409722  -0.11409722  0.38344020  1.0
  Cl  Cl6  1  1.27749072  0.13540946  0.79575407  1.0
  Cl  Cl7  1  0.86459054  -0.27749072  0.79575407  1.0
  Cl  Cl8  1  1.13540946  0.27749072  0.20424593  1.0
  Cl  Cl9  1  0.72250928  -0.13540946  0.20424593  1.0
  Cl  Cl10  1  0.51400277  -0.18903296  0.59668032  1.0
  Cl  Cl11  1  1.18903296  0.48599723  0.59668032  1.0
  Cl  Cl12  1  0.81096704  -0.48599723  0.40331968  1.0
  Cl  Cl13  1  1.48599723  0.18903296  0.40331968  1.0
  O  O14  1  0.62674595  -0.62674595  0.80336086  1.0
  O  O15  1  0.37325405  -0.37325405  0.19663914  1.0
  O  O16  1  0.29715483  -0.29715483  0.75084443  1.0
  O  O17  1  0.70284517  -0.70284517  0.24915557  1.0
  O  O18  1  0.92994047  -0.92994047  1.05161539  1.0
  O  O19  1  0.07005953  -0.07005953  -0.05161539  1.0
  O  O20  1  1.52480188  0.12025817  0.86231348  1.0
  O  O21  1  0.87974183  -0.52480188  0.86231348  1.0
  O  O22  1  1.12025817  0.52480188  0.13768652  1.0
  O  O23  1  0.47519812  -0.12025817  0.13768652  1.0
  O  O24  1  0.50192155  -0.29556845  0.94033450  1.0
  O  O25  1  1.29556845  0.49807845  0.94033450  1.0
  O  O26  1  0.70443155  -0.49807845  0.05966550  1.0
  O  O27  1  1.49807845  0.29556845  0.05966550  1.0
