# generated using pymatgen
data_Ni3W3C
_symmetry_space_group_name_H-M   'P 1'
_cell_length_a   7.82903768
_cell_length_b   7.82903768
_cell_length_c   7.82903768
_cell_angle_alpha   60.00000000
_cell_angle_beta   60.00000000
_cell_angle_gamma   60.00000000
_symmetry_Int_Tables_number   1
_chemical_formula_structural   Ni3W3C
_chemical_formula_sum   'Ni12 W12 C4'
_cell_volume   339.32054171
_cell_formula_units_Z   4
loop_
 _symmetry_equiv_pos_site_id
 _symmetry_equiv_pos_as_xyz
  1  'x, y, z'
loop_
 _atom_site_type_symbol
 _atom_site_label
 _atom_site_symmetry_multiplicity
 _atom_site_fract_x
 _atom_site_fract_y
 _atom_site_fract_z
 _atom_site_occupancy
  Ni  Ni0  1  0.62500000  1.12500000  0.12500000  1.0
  Ni  Ni1  1  0.12500000  1.62500000  0.12500000  1.0
  Ni  Ni2  1  0.12500000  0.12500000  1.62500000  1.0
  Ni  Ni3  1  0.12500000  0.12500000  0.12500000  1.0
  Ni  Ni4  1  -0.74610511  0.91536837  0.91536837  1.0
  Ni  Ni5  1  0.91536837  -0.74610511  0.91536837  1.0
  Ni  Ni6  1  0.91536837  0.91536837  -0.74610511  1.0
  Ni  Ni7  1  0.91536837  0.91536837  0.91536837  1.0
  Ni  Ni8  1  -0.00389489  1.33463163  0.33463163  1.0
  Ni  Ni9  1  0.33463163  0.99610511  0.33463163  1.0
  Ni  Ni10  1  0.33463163  1.33463163  -0.00389489  1.0
  Ni  Ni11  1  0.33463163  1.33463163  0.33463163  1.0
  W  W12  1  0.70709508  0.70709508  -0.70709508  1.0
  W  W13  1  0.29290492  1.29290492  -0.29290492  1.0
  W  W14  1  0.70709508  -0.70709508  0.70709508  1.0
  W  W15  1  0.29290492  -0.29290492  0.29290492  1.0
  W  W16  1  -0.70709508  0.70709508  0.70709508  1.0
  W  W17  1  -0.29290492  0.29290492  0.29290492  1.0
  W  W18  1  -0.45709508  0.54290492  0.95709508  1.0
  W  W19  1  0.95709508  0.95709508  -0.45709508  1.0
  W  W20  1  0.54290492  0.95709508  0.54290492  1.0
  W  W21  1  0.95709508  0.54290492  0.95709508  1.0
  W  W22  1  0.95709508  0.54290492  -0.45709508  1.0
  W  W23  1  0.54290492  0.95709508  -0.04290492  1.0
  C  C24  1  1.12500000  0.62500000  0.62500000  1.0
  C  C25  1  0.62500000  1.12500000  -0.37500000  1.0
  C  C26  1  -0.37500000  0.62500000  1.12500000  1.0
  C  C27  1  -0.37500000  0.62500000  0.62500000  1.0
