# generated using pymatgen
data_RbLi(H2N)2
_symmetry_space_group_name_H-M   'P 1'
_cell_length_a   7.98267153
_cell_length_b   3.88776696
_cell_length_c   11.56860778
_cell_angle_alpha   90.00000000
_cell_angle_beta   90.00000000
_cell_angle_gamma   90.00000000
_symmetry_Int_Tables_number   1
_chemical_formula_structural   RbLi(H2N)2
_chemical_formula_sum   'Rb4 Li4 H16 N8'
_cell_volume   359.02904318
_cell_formula_units_Z   4
loop_
 _symmetry_equiv_pos_site_id
 _symmetry_equiv_pos_as_xyz
  1  'x, y, z'
loop_
 _atom_site_type_symbol
 _atom_site_label
 _atom_site_symmetry_multiplicity
 _atom_site_fract_x
 _atom_site_fract_y
 _atom_site_fract_z
 _atom_site_occupancy
  Rb  Rb0  1  0.87150058  0.75000000  0.74031775  1.0
  Rb  Rb1  1  0.37150058  0.75000000  0.75968225  1.0
  Rb  Rb2  1  0.12849942  0.25000000  0.25968225  1.0
  Rb  Rb3  1  0.62849942  0.25000000  0.24031775  1.0
  Li  Li4  1  0.61184828  0.75000000  0.00071932  1.0
  Li  Li5  1  0.11184828  0.75000000  0.49928068  1.0
  Li  Li6  1  0.38815172  0.25000000  0.99928068  1.0
  Li  Li7  1  0.88815172  0.25000000  0.50071932  1.0
  H  H8  1  0.89635958  0.95425127  0.07303188  1.0
  H  H9  1  0.89635958  0.54574873  0.07303188  1.0
  H  H10  1  0.39635958  0.95425127  0.42696812  1.0
  H  H11  1  0.39635958  0.54574873  0.42696812  1.0
  H  H12  1  0.10364042  0.45425127  0.92696812  1.0
  H  H13  1  0.10364042  0.04574873  0.92696812  1.0
  H  H14  1  0.60364042  0.45425127  0.57303188  1.0
  H  H15  1  0.60364042  0.04574873  0.57303188  1.0
  H  H16  1  0.87657195  0.75000000  0.32156433  1.0
  H  H17  1  0.37657195  0.75000000  0.17843567  1.0
  H  H18  1  0.12342805  0.25000000  0.67843567  1.0
  H  H19  1  0.62342805  0.25000000  0.82156433  1.0
  H  H20  1  0.76802000  0.75000000  0.43932193  1.0
  H  H21  1  0.26802000  0.75000000  0.06067807  1.0
  H  H22  1  0.23198000  0.25000000  0.56067807  1.0
  H  H23  1  0.73198000  0.25000000  0.93932193  1.0
  N  N24  1  0.88978969  0.75000000  0.41022453  1.0
  N  N25  1  0.38978969  0.75000000  0.08977547  1.0
  N  N26  1  0.11021031  0.25000000  0.58977547  1.0
  N  N27  1  0.61021031  0.25000000  0.91022453  1.0
  N  N28  1  0.83129937  0.75000000  0.10780281  1.0
  N  N29  1  0.33129937  0.75000000  0.39219719  1.0
  N  N30  1  0.16870063  0.25000000  0.89219719  1.0
  N  N31  1  0.66870063  0.25000000  0.60780281  1.0
