# generated using pymatgen
data_In3SnI5
_symmetry_space_group_name_H-M   'P 1'
_cell_length_a   8.91459288
_cell_length_b   9.94214535
_cell_length_c   16.20999366
_cell_angle_alpha   90.00000000
_cell_angle_beta   90.00000000
_cell_angle_gamma   90.00000000
_symmetry_Int_Tables_number   1
_chemical_formula_structural   In3SnI5
_chemical_formula_sum   'In12 Sn4 I20'
_cell_volume   1436.69462697
_cell_formula_units_Z   4
loop_
 _symmetry_equiv_pos_site_id
 _symmetry_equiv_pos_as_xyz
  1  'x, y, z'
loop_
 _atom_site_type_symbol
 _atom_site_label
 _atom_site_symmetry_multiplicity
 _atom_site_fract_x
 _atom_site_fract_y
 _atom_site_fract_z
 _atom_site_occupancy
  In  In0  1  0.42807262  0.32614319  0.52602944  1.0
  In  In1  1  0.92807262  0.17385681  0.47397056  1.0
  In  In2  1  0.57192738  0.82614319  0.97397056  1.0
  In  In3  1  0.07192738  0.67385681  0.02602944  1.0
  In  In4  1  0.04527660  0.57463477  0.70833962  1.0
  In  In5  1  0.54527660  0.92536523  0.29166038  1.0
  In  In6  1  0.95472340  0.07463477  0.79166038  1.0
  In  In7  1  0.45472340  0.42536523  0.20833962  1.0
  In  In8  1  0.78031991  0.70714485  0.55326882  1.0
  In  In9  1  0.28031991  0.79285515  0.44673118  1.0
  In  In10  1  0.21968009  0.20714485  0.94673118  1.0
  In  In11  1  0.71968009  0.29285515  0.05326882  1.0
  Sn  Sn12  1  0.42788289  0.93316965  0.70111915  1.0
  Sn  Sn13  1  0.92788289  0.56683035  0.29888085  1.0
  Sn  Sn14  1  0.57211711  0.43316965  0.79888085  1.0
  Sn  Sn15  1  0.07211711  0.06683035  0.20111915  1.0
  I  I16  1  0.41285209  0.50113887  0.97560637  1.0
  I  I17  1  0.91285209  0.99886113  0.02439363  1.0
  I  I18  1  0.58714791  0.00113887  0.52439363  1.0
  I  I19  1  0.08714791  0.49886113  0.47560637  1.0
  I  I20  1  0.41464706  0.65168991  0.63166121  1.0
  I  I21  1  0.91464706  0.84831009  0.36833879  1.0
  I  I22  1  0.58535294  0.15168991  0.86833879  1.0
  I  I23  1  0.08535294  0.34831009  0.13166121  1.0
  I  I24  1  0.26869628  0.30171326  0.72525974  1.0
  I  I25  1  0.76869628  0.19828674  0.27474026  1.0
  I  I26  1  0.73130372  0.80171326  0.77474026  1.0
  I  I27  1  0.23130372  0.69828674  0.22525974  1.0
  I  I28  1  0.23348814  0.84470356  0.85221697  1.0
  I  I29  1  0.73348814  0.65529644  0.14778303  1.0
  I  I30  1  0.76651186  0.34470356  0.64778303  1.0
  I  I31  1  0.26651186  0.15529644  0.35221697  1.0
  I  I32  1  0.10211908  0.95221617  0.60708110  1.0
  I  I33  1  0.60211908  0.54778383  0.39291890  1.0
  I  I34  1  0.89788092  0.45221617  0.89291890  1.0
  I  I35  1  0.39788092  0.04778383  0.10708110  1.0
