# generated using pymatgen
data_Gd2MgSi2
_symmetry_space_group_name_H-M   'P 1'
_cell_length_a   7.24461164
_cell_length_b   7.24461164
_cell_length_c   4.24582882
_cell_angle_alpha   90.00000000
_cell_angle_beta   90.00000000
_cell_angle_gamma   90.00000000
_symmetry_Int_Tables_number   1
_chemical_formula_structural   Gd2MgSi2
_chemical_formula_sum   'Gd4 Mg2 Si4'
_cell_volume   222.83976891
_cell_formula_units_Z   2
loop_
 _symmetry_equiv_pos_site_id
 _symmetry_equiv_pos_as_xyz
  1  'x, y, z'
loop_
 _atom_site_type_symbol
 _atom_site_label
 _atom_site_symmetry_multiplicity
 _atom_site_fract_x
 _atom_site_fract_y
 _atom_site_fract_z
 _atom_site_occupancy
  Gd  Gd0  1  0.32150556  0.17849444  0.50000000  1.0
  Gd  Gd1  1  0.82150556  0.32150556  0.50000000  1.0
  Gd  Gd2  1  0.67849444  0.82150556  0.50000000  1.0
  Gd  Gd3  1  0.17849444  0.67849444  0.50000000  1.0
  Mg  Mg4  1  0.50000000  0.50000000  0.00000000  1.0
  Mg  Mg5  1  0.00000000  0.00000000  0.00000000  1.0
  Si  Si6  1  0.88282787  0.61717213  0.00000000  1.0
  Si  Si7  1  0.38282787  0.88282787  0.00000000  1.0
  Si  Si8  1  0.11717213  0.38282787  0.00000000  1.0
  Si  Si9  1  0.61717213  0.11717213  0.00000000  1.0
