# generated using pymatgen
data_Mg2NiH4
_symmetry_space_group_name_H-M   'P 1'
_cell_length_a   4.45604579
_cell_length_b   4.45604579
_cell_length_c   6.55557739
_cell_angle_alpha   89.99645923
_cell_angle_beta   90.00354077
_cell_angle_gamma   87.87703617
_symmetry_Int_Tables_number   1
_chemical_formula_structural   Mg2NiH4
_chemical_formula_sum   'Mg4 Ni2 H8'
_cell_volume   130.08045487
_cell_formula_units_Z   2
loop_
 _symmetry_equiv_pos_site_id
 _symmetry_equiv_pos_as_xyz
  1  'x, y, z'
loop_
 _atom_site_type_symbol
 _atom_site_label
 _atom_site_symmetry_multiplicity
 _atom_site_fract_x
 _atom_site_fract_y
 _atom_site_fract_z
 _atom_site_occupancy
  Mg  Mg0  1  0.49994011  0.00000126  0.74335956  1.0
  Mg  Mg1  1  0.99999874  0.50005989  0.74335956  1.0
  Mg  Mg2  1  1.00000126  -0.50005989  0.25664044  1.0
  Mg  Mg3  1  1.50005989  -0.00000126  0.25664044  1.0
  Ni  Ni4  1  0.50000000  0.50000000  0.50000000  1.0
  Ni  Ni5  1  0.00000000  0.00000000  0.00000000  1.0
  H  H6  1  0.75019550  0.24980450  1.00003831  1.0
  H  H7  1  1.24980450  -0.24980450  -0.00003831  1.0
  H  H8  1  0.75118622  0.24881378  0.50001007  1.0
  H  H9  1  1.24881378  -0.24881378  0.49998993  1.0
  H  H10  1  1.50007235  -0.50007235  0.73552612  1.0
  H  H11  1  0.49992765  0.50007235  0.26447388  1.0
  H  H12  1  0.76159124  0.76159124  0.00000000  1.0
  H  H13  1  0.23840876  0.23840876  -0.00000000  1.0
