# generated using pymatgen
data_RbCr(SO4)2
_symmetry_space_group_name_H-M   'P 1'
_cell_length_a   4.87196177
_cell_length_b   4.87196177
_cell_length_c   17.20884542
_cell_angle_alpha   90.00000000
_cell_angle_beta   90.00000000
_cell_angle_gamma   120.00000000
_symmetry_Int_Tables_number   1
_chemical_formula_structural   RbCr(SO4)2
_chemical_formula_sum   'Rb2 Cr2 S4 O16'
_cell_volume   353.74483537
_cell_formula_units_Z   2
loop_
 _symmetry_equiv_pos_site_id
 _symmetry_equiv_pos_as_xyz
  1  'x, y, z'
loop_
 _atom_site_type_symbol
 _atom_site_label
 _atom_site_symmetry_multiplicity
 _atom_site_fract_x
 _atom_site_fract_y
 _atom_site_fract_z
 _atom_site_occupancy
  Rb  Rb0  1  0.00000000  0.00000000  0.25000000  1.0
  Rb  Rb1  1  0.00000000  0.00000000  0.75000000  1.0
  Cr  Cr2  1  0.00000000  0.00000000  0.00000000  1.0
  Cr  Cr3  1  0.00000000  0.00000000  0.50000000  1.0
  S  S4  1  0.33333333  0.66666667  0.90213619  1.0
  S  S5  1  0.66666667  0.33333333  0.59786381  1.0
  S  S6  1  0.33333333  0.66666667  0.40213619  1.0
  S  S7  1  0.66666667  0.33333333  0.09786381  1.0
  O  O8  1  0.28820986  0.93293419  0.93096071  1.0
  O  O9  1  0.93293419  0.28820986  0.56903929  1.0
  O  O10  1  0.64472433  0.71179014  0.93096071  1.0
  O  O11  1  0.06706581  0.35527567  0.93096071  1.0
  O  O12  1  0.71179014  0.64472433  0.56903929  1.0
  O  O13  1  0.35527567  0.06706581  0.56903929  1.0
  O  O14  1  0.93293419  0.64472433  0.06903929  1.0
  O  O15  1  0.64472433  0.93293419  0.43096071  1.0
  O  O16  1  0.71179014  0.06706581  0.06903929  1.0
  O  O17  1  0.35527567  0.28820986  0.06903929  1.0
  O  O18  1  0.06706581  0.71179014  0.43096071  1.0
  O  O19  1  0.28820986  0.35527567  0.43096071  1.0
  O  O20  1  0.33333333  0.66666667  0.81677461  1.0
  O  O21  1  0.66666667  0.33333333  0.68322539  1.0
  O  O22  1  0.33333333  0.66666667  0.31677461  1.0
  O  O23  1  0.66666667  0.33333333  0.18322539  1.0
