# generated using pymatgen
data_BaTlVO4
_symmetry_space_group_name_H-M   'P 1'
_cell_length_a   7.97422317
_cell_length_b   5.97772929
_cell_length_c   10.56347959
_cell_angle_alpha   90.00000000
_cell_angle_beta   90.00000000
_cell_angle_gamma   90.00000000
_symmetry_Int_Tables_number   1
_chemical_formula_structural   BaTlVO4
_chemical_formula_sum   'Ba4 Tl4 V4 O16'
_cell_volume   503.53727677
_cell_formula_units_Z   4
loop_
 _symmetry_equiv_pos_site_id
 _symmetry_equiv_pos_as_xyz
  1  'x, y, z'
loop_
 _atom_site_type_symbol
 _atom_site_label
 _atom_site_symmetry_multiplicity
 _atom_site_fract_x
 _atom_site_fract_y
 _atom_site_fract_z
 _atom_site_occupancy
  Ba  Ba0  1  0.50287638  0.75000000  0.70310964  1.0
  Ba  Ba1  1  0.00287638  0.75000000  0.79689036  1.0
  Ba  Ba2  1  0.49712362  0.25000000  0.29689036  1.0
  Ba  Ba3  1  0.99712362  0.25000000  0.20310964  1.0
  Tl  Tl4  1  0.82498444  0.75000000  0.42888277  1.0
  Tl  Tl5  1  0.32498444  0.75000000  0.07111723  1.0
  Tl  Tl6  1  0.17501556  0.25000000  0.57111723  1.0
  Tl  Tl7  1  0.67501556  0.25000000  0.92888277  1.0
  V  V8  1  0.77913855  0.75000000  0.07961036  1.0
  V  V9  1  0.27913855  0.75000000  0.42038964  1.0
  V  V10  1  0.22086145  0.25000000  0.92038964  1.0
  V  V11  1  0.72086145  0.25000000  0.57961036  1.0
  O  O12  1  0.71432701  0.99103122  0.15593857  1.0
  O  O13  1  0.71432701  0.50896878  0.15593857  1.0
  O  O14  1  0.21432701  0.99103122  0.34406143  1.0
  O  O15  1  0.21432701  0.50896878  0.34406143  1.0
  O  O16  1  0.28567299  0.49103122  0.84406143  1.0
  O  O17  1  0.28567299  0.00896878  0.84406143  1.0
  O  O18  1  0.78567299  0.49103122  0.65593857  1.0
  O  O19  1  0.78567299  0.00896878  0.65593857  1.0
  O  O20  1  0.99387670  0.75000000  0.07134358  1.0
  O  O21  1  0.49387670  0.75000000  0.42865642  1.0
  O  O22  1  0.00612330  0.25000000  0.92865642  1.0
  O  O23  1  0.50612330  0.25000000  0.57134358  1.0
  O  O24  1  0.20519123  0.75000000  0.57476268  1.0
  O  O25  1  0.70519123  0.75000000  0.92523732  1.0
  O  O26  1  0.79480877  0.25000000  0.42523732  1.0
  O  O27  1  0.29480877  0.25000000  0.07476268  1.0
