# generated using pymatgen
data_Cs2MgH8(CO3)4
_symmetry_space_group_name_H-M   'P 1'
_cell_length_a   9.49294062
_cell_length_b   9.49294062
_cell_length_c   13.80571419
_cell_angle_alpha   54.51833643
_cell_angle_beta   125.48166357
_cell_angle_gamma   133.51166664
_symmetry_Int_Tables_number   1
_chemical_formula_structural   Cs2MgH8(CO3)4
_chemical_formula_sum   'Cs4 Mg2 H16 C8 O24'
_cell_volume   699.44158612
_cell_formula_units_Z   2
loop_
 _symmetry_equiv_pos_site_id
 _symmetry_equiv_pos_as_xyz
  1  'x, y, z'
loop_
 _atom_site_type_symbol
 _atom_site_label
 _atom_site_symmetry_multiplicity
 _atom_site_fract_x
 _atom_site_fract_y
 _atom_site_fract_z
 _atom_site_occupancy
  Cs  Cs0  1  0.66543846  -0.03503197  0.89768317  1.0
  Cs  Cs1  1  1.03503197  -0.66543846  0.39768317  1.0
  Cs  Cs2  1  0.96496803  0.66543846  0.60231683  1.0
  Cs  Cs3  1  1.33456154  0.03503197  0.10231683  1.0
  Mg  Mg4  1  0.82396167  0.82396167  0.75000000  1.0
  Mg  Mg5  1  0.17603833  0.17603833  0.25000000  1.0
  H  H6  1  0.18368726  -0.14924614  0.86156407  1.0
  H  H7  1  1.14924614  0.81631274  0.36156407  1.0
  H  H8  1  0.85075386  -0.81631274  0.63843593  1.0
  H  H9  1  1.81631274  0.14924614  0.13843593  1.0
  H  H10  1  0.21348075  0.05241875  0.74088428  1.0
  H  H11  1  0.94758125  0.78651925  0.24088428  1.0
  H  H12  1  1.05241875  -0.78651925  0.75911572  1.0
  H  H13  1  1.78651925  -0.05241875  0.25911572  1.0
  H  H14  1  0.42326613  0.24239065  0.63904146  1.0
  H  H15  1  0.75760935  -0.42326613  0.13904146  1.0
  H  H16  1  1.24239065  0.42326613  0.86095854  1.0
  H  H17  1  1.57673387  -0.24239065  0.36095854  1.0
  H  H18  1  0.49380484  0.36216780  0.71685182  1.0
  H  H19  1  0.63783220  0.50619516  0.21685182  1.0
  H  H20  1  1.36216780  -0.50619516  0.78314818  1.0
  H  H21  1  1.50619516  -0.36216780  0.28314818  1.0
  C  C22  1  1.54789368  -0.19521281  0.50130254  1.0
  C  C23  1  1.19521281  -0.54789368  0.00130254  1.0
  C  C24  1  0.80478719  0.54789368  0.99869746  1.0
  C  C25  1  0.45210632  0.19521281  0.49869746  1.0
  C  C26  1  1.42183971  -0.25962166  0.57332182  1.0
  C  C27  1  1.25962166  -0.42183971  0.07332182  1.0
  C  C28  1  0.74037834  0.42183971  0.92667818  1.0
  C  C29  1  0.57816029  0.25962166  0.42667818  1.0
  O  O30  1  1.73456108  -0.13996653  0.56166987  1.0
  O  O31  1  1.13996653  -0.73456108  0.06166987  1.0
  O  O32  1  0.86003347  0.73456108  0.93833013  1.0
  O  O33  1  0.26543892  0.13996653  0.43833013  1.0
  O  O34  1  1.51552988  -0.27239043  0.68923086  1.0
  O  O35  1  1.27239043  -0.51552988  0.18923086  1.0
  O  O36  1  0.72760957  0.51552988  0.81076914  1.0
  O  O37  1  0.48447012  0.27239043  0.31076914  1.0
  O  O38  1  0.70206046  0.24285221  0.98287220  1.0
  O  O39  1  0.75714779  0.29793954  0.48287220  1.0
  O  O40  1  1.24285221  -0.29793954  0.51712780  1.0
  O  O41  1  1.29793954  -0.24285221  0.01712780  1.0
  O  O42  1  0.54287497  0.20694241  0.60794821  1.0
  O  O43  1  0.79305759  -0.54287497  0.10794821  1.0
  O  O44  1  1.20694241  0.54287497  0.89205179  1.0
  O  O45  1  1.45712503  -0.20694241  0.39205179  1.0
  O  O46  1  0.10948595  -0.09044404  0.77787112  1.0
  O  O47  1  1.09044404  0.89051405  0.27787112  1.0
  O  O48  1  0.90955596  -0.89051405  0.72212888  1.0
  O  O49  1  1.89051405  0.09044404  0.22212888  1.0
  O  O50  1  1.27595533  -0.63069790  0.83765164  1.0
  O  O51  1  1.63069790  -0.27595533  0.33765164  1.0
  O  O52  1  0.36930210  0.27595533  0.66234836  1.0
  O  O53  1  0.72404467  0.63069790  0.16234836  1.0
