# generated using pymatgen
data_Ta3Co3C
_symmetry_space_group_name_H-M   'P 1'
_cell_length_a   7.98075261
_cell_length_b   7.98075261
_cell_length_c   7.98075261
_cell_angle_alpha   60.00000000
_cell_angle_beta   60.00000000
_cell_angle_gamma   60.00000000
_symmetry_Int_Tables_number   1
_chemical_formula_structural   Ta3Co3C
_chemical_formula_sum   'Ta12 Co12 C4'
_cell_volume   359.43184182
_cell_formula_units_Z   4
loop_
 _symmetry_equiv_pos_site_id
 _symmetry_equiv_pos_as_xyz
  1  'x, y, z'
loop_
 _atom_site_type_symbol
 _atom_site_label
 _atom_site_symmetry_multiplicity
 _atom_site_fract_x
 _atom_site_fract_y
 _atom_site_fract_z
 _atom_site_occupancy
  Ta  Ta0  1  0.55160334  0.55160334  0.94839666  1.0
  Ta  Ta1  1  0.94839666  0.55160334  0.94839666  1.0
  Ta  Ta2  1  0.55160334  0.94839666  0.94839666  1.0
  Ta  Ta3  1  0.94839666  0.94839666  0.55160334  1.0
  Ta  Ta4  1  0.55160334  0.94839666  0.55160334  1.0
  Ta  Ta5  1  0.94839666  0.55160334  0.55160334  1.0
  Ta  Ta6  1  0.69839666  0.69839666  -0.69839666  1.0
  Ta  Ta7  1  1.30160334  -0.30160334  0.30160334  1.0
  Ta  Ta8  1  -0.30160334  0.30160334  0.30160334  1.0
  Ta  Ta9  1  0.30160334  0.30160334  -0.30160334  1.0
  Ta  Ta10  1  0.69839666  -0.69839666  0.69839666  1.0
  Ta  Ta11  1  -0.69839666  0.69839666  0.69839666  1.0
  Co  Co12  1  0.12500000  0.12500000  1.62500000  1.0
  Co  Co13  1  0.12500000  0.62500000  1.12500000  1.0
  Co  Co14  1  1.62500000  0.12500000  0.12500000  1.0
  Co  Co15  1  1.12500000  0.12500000  0.12500000  1.0
  Co  Co16  1  0.92166587  -0.07833413  0.23500240  1.0
  Co  Co17  1  0.92166587  -0.76499760  0.92166587  1.0
  Co  Co18  1  0.23500240  0.92166587  0.92166587  1.0
  Co  Co19  1  0.92166587  0.92166587  0.92166587  1.0
  Co  Co20  1  1.32833413  0.32833413  0.01499760  1.0
  Co  Co21  1  1.32833413  0.01499760  0.32833413  1.0
  Co  Co22  1  1.01499760  0.32833413  0.32833413  1.0
  Co  Co23  1  1.32833413  0.32833413  0.32833413  1.0
  C  C24  1  0.62500000  0.62500000  1.12500000  1.0
  C  C25  1  0.62500000  1.12500000  0.62500000  1.0
  C  C26  1  1.12500000  0.62500000  0.62500000  1.0
  C  C27  1  0.62500000  0.62500000  0.62500000  1.0
