# generated using pymatgen
data_Ge2RuC4(Cl3O2)2
_symmetry_space_group_name_H-M   'P 1'
_cell_length_a   8.80464202
_cell_length_b   10.84045258
_cell_length_c   12.82814994
_cell_angle_alpha   90.00000000
_cell_angle_beta   130.62946468
_cell_angle_gamma   90.00000000
_symmetry_Int_Tables_number   1
_chemical_formula_structural   Ge2RuC4(Cl3O2)2
_chemical_formula_sum   'Ge4 Ru2 C8 Cl12 O8'
_cell_volume   929.24152512
_cell_formula_units_Z   2
loop_
 _symmetry_equiv_pos_site_id
 _symmetry_equiv_pos_as_xyz
  1  'x, y, z'
loop_
 _atom_site_type_symbol
 _atom_site_label
 _atom_site_symmetry_multiplicity
 _atom_site_fract_x
 _atom_site_fract_y
 _atom_site_fract_z
 _atom_site_occupancy
  Ge  Ge0  1  0.29512987  0.33561085  0.50029161  1.0
  Ge  Ge1  1  0.29512987  0.16438915  1.00029161  1.0
  Ge  Ge2  1  0.70487013  0.83561085  -0.00029161  1.0
  Ge  Ge3  1  0.70487013  0.66438915  0.49970839  1.0
  Ru  Ru4  1  0.50000000  0.50000000  0.50000000  1.0
  Ru  Ru5  1  0.50000000  0.00000000  0.00000000  1.0
  C  C6  1  0.69776640  0.00685376  0.20170593  1.0
  C  C7  1  0.69776640  0.49314624  0.70170593  1.0
  C  C8  1  0.30223360  0.50685376  0.29829407  1.0
  C  C9  1  0.30223360  0.99314624  0.79829407  1.0
  C  C10  1  0.65110555  0.37467676  0.48969664  1.0
  C  C11  1  0.65110555  0.12532324  0.98969664  1.0
  C  C12  1  0.34889445  0.87467676  0.01030336  1.0
  C  C13  1  0.34889445  0.62532324  0.51030336  1.0
  Cl  Cl14  1  0.97611935  0.33886851  0.31762926  1.0
  Cl  Cl15  1  0.97611935  0.16113149  0.81762926  1.0
  Cl  Cl16  1  0.02388065  0.83886851  0.18237074  1.0
  Cl  Cl17  1  0.02388065  0.66113149  0.68237074  1.0
  Cl  Cl18  1  0.61362158  0.85555409  0.48517411  1.0
  Cl  Cl19  1  0.61362158  0.64444591  0.98517411  1.0
  Cl  Cl20  1  0.38637842  0.35555409  0.01482589  1.0
  Cl  Cl21  1  0.38637842  0.14444591  0.51482589  1.0
  Cl  Cl22  1  0.29690153  0.14572907  0.17141735  1.0
  Cl  Cl23  1  0.29690153  0.35427093  0.67141735  1.0
  Cl  Cl24  1  0.70309847  0.64572907  0.32858265  1.0
  Cl  Cl25  1  0.70309847  0.85427093  0.82858265  1.0
  O  O26  1  0.81217367  0.01072346  0.31887865  1.0
  O  O27  1  0.81217367  0.48927654  0.81887865  1.0
  O  O28  1  0.18782633  0.51072346  0.18112135  1.0
  O  O29  1  0.18782633  0.98927654  0.68112135  1.0
  O  O30  1  0.73918012  0.30237399  0.48339693  1.0
  O  O31  1  0.73918012  0.19762601  0.98339693  1.0
  O  O32  1  0.26081988  0.80237399  0.01660307  1.0
  O  O33  1  0.26081988  0.69762601  0.51660307  1.0
