# generated using pymatgen
data_MnTlF4
_symmetry_space_group_name_H-M   'P 1'
_cell_length_a   7.68157355
_cell_length_b   7.68157355
_cell_length_c   5.69113535
_cell_angle_alpha   63.57804104
_cell_angle_beta   116.42195896
_cell_angle_gamma   138.10660312
_symmetry_Int_Tables_number   1
_chemical_formula_structural   MnTlF4
_chemical_formula_sum   'Mn2 Tl2 F8'
_cell_volume   197.14925506
_cell_formula_units_Z   2
loop_
 _symmetry_equiv_pos_site_id
 _symmetry_equiv_pos_as_xyz
  1  'x, y, z'
loop_
 _atom_site_type_symbol
 _atom_site_label
 _atom_site_symmetry_multiplicity
 _atom_site_fract_x
 _atom_site_fract_y
 _atom_site_fract_z
 _atom_site_occupancy
  Mn  Mn0  1  0.50000000  -0.00000000  0.50000000  1.0
  Mn  Mn1  1  1.00000000  0.50000000  -0.00000000  1.0
  Tl  Tl2  1  0.76621337  0.76621337  0.25000000  1.0
  Tl  Tl3  1  0.23378663  0.23378663  0.75000000  1.0
  F  F4  1  0.75076626  0.16997053  0.30315677  1.0
  F  F5  1  0.83002947  0.24923374  0.80315677  1.0
  F  F6  1  1.16997053  0.75076626  0.19684323  1.0
  F  F7  1  0.24923374  -0.16997053  0.69684323  1.0
  F  F8  1  0.46316470  0.24185350  0.30542398  1.0
  F  F9  1  0.75814650  0.53683530  0.80542398  1.0
  F  F10  1  1.24185350  0.46316470  0.19457602  1.0
  F  F11  1  0.53683530  -0.24185350  0.69457602  1.0
