# generated using pymatgen
data_Rb2MoS4
_symmetry_space_group_name_H-M   'P 1'
_cell_length_a   9.97147829
_cell_length_b   7.12020474
_cell_length_c   12.69268607
_cell_angle_alpha   90.00000000
_cell_angle_beta   90.00000000
_cell_angle_gamma   90.00000000
_symmetry_Int_Tables_number   1
_chemical_formula_structural   Rb2MoS4
_chemical_formula_sum   'Rb8 Mo4 S16'
_cell_volume   901.16759983
_cell_formula_units_Z   4
loop_
 _symmetry_equiv_pos_site_id
 _symmetry_equiv_pos_as_xyz
  1  'x, y, z'
loop_
 _atom_site_type_symbol
 _atom_site_label
 _atom_site_symmetry_multiplicity
 _atom_site_fract_x
 _atom_site_fract_y
 _atom_site_fract_z
 _atom_site_occupancy
  Rb  Rb0  1  0.84569902  0.75000000  0.39276122  1.0
  Rb  Rb1  1  0.34569902  0.75000000  0.10723878  1.0
  Rb  Rb2  1  0.15430098  0.25000000  0.60723878  1.0
  Rb  Rb3  1  0.65430098  0.25000000  0.89276122  1.0
  Rb  Rb4  1  0.53908660  0.75000000  0.66694411  1.0
  Rb  Rb5  1  0.03908660  0.75000000  0.83305589  1.0
  Rb  Rb6  1  0.46091340  0.25000000  0.33305589  1.0
  Rb  Rb7  1  0.96091340  0.25000000  0.16694411  1.0
  Mo  Mo8  1  0.75457047  0.75000000  0.07183933  1.0
  Mo  Mo9  1  0.25457047  0.75000000  0.42816067  1.0
  Mo  Mo10  1  0.24542953  0.25000000  0.92816067  1.0
  Mo  Mo11  1  0.74542953  0.25000000  0.57183933  1.0
  S  S12  1  0.66073111  0.99960364  0.14158556  1.0
  S  S13  1  0.66073111  0.50039636  0.14158556  1.0
  S  S14  1  0.16073111  0.99960364  0.35841444  1.0
  S  S15  1  0.16073111  0.50039636  0.35841444  1.0
  S  S16  1  0.33926889  0.49960364  0.85841444  1.0
  S  S17  1  0.33926889  0.00039636  0.85841444  1.0
  S  S18  1  0.83926889  0.49960364  0.64158556  1.0
  S  S19  1  0.83926889  0.00039636  0.64158556  1.0
  S  S20  1  0.97139665  0.75000000  0.10658152  1.0
  S  S21  1  0.47139665  0.75000000  0.39341848  1.0
  S  S22  1  0.02860335  0.25000000  0.89341848  1.0
  S  S23  1  0.52860335  0.25000000  0.60658152  1.0
  S  S24  1  0.21778520  0.75000000  0.59908268  1.0
  S  S25  1  0.71778520  0.75000000  0.90091732  1.0
  S  S26  1  0.78221480  0.25000000  0.40091732  1.0
  S  S27  1  0.28221480  0.25000000  0.09908268  1.0
