# generated using pymatgen
data_Ba2TlCuHgO5
_symmetry_space_group_name_H-M   'P 1'
_cell_length_a   12.19323270
_cell_length_b   12.19323270
_cell_length_c   12.19323270
_cell_angle_alpha   161.46164084
_cell_angle_beta   161.46164084
_cell_angle_gamma   26.33417182
_symmetry_Int_Tables_number   1
_chemical_formula_structural   Ba2TlCuHgO5
_chemical_formula_sum   'Ba2 Tl1 Cu1 Hg1 O5'
_cell_volume   183.18562904
_cell_formula_units_Z   1
loop_
 _symmetry_equiv_pos_site_id
 _symmetry_equiv_pos_as_xyz
  1  'x, y, z'
loop_
 _atom_site_type_symbol
 _atom_site_label
 _atom_site_symmetry_multiplicity
 _atom_site_fract_x
 _atom_site_fract_y
 _atom_site_fract_z
 _atom_site_occupancy
  Hg  Hg0  1  0.40539944  0.40539944  -0.00000000  1.0
  Tl  Tl1  1  0.00221441  0.00221441  -0.00000000  1.0
  O  O2  1  0.70143087  0.20143087  0.50000000  1.0
  O  O3  1  0.20143087  0.70143087  0.50000000  1.0
  O  O4  1  0.32187057  0.32187057  -0.00000000  1.0
  O  O5  1  0.49044973  0.49044973  1.00000000  1.0
  O  O6  1  0.09679502  0.09679502  -0.00000000  1.0
  Cu  Cu7  1  0.19225836  0.19225836  0.00000000  1.0
  Ba  Ba8  1  0.61645469  0.61645469  1.00000000  1.0
  Ba  Ba9  1  0.78069603  0.78069603  1.00000000  1.0
