# generated using pymatgen
data_RbPt2S3
_symmetry_space_group_name_H-M   'P 1'
_cell_length_a   7.94213979
_cell_length_b   7.94213979
_cell_length_c   7.94213979
_cell_angle_alpha   53.81114395
_cell_angle_beta   53.81114395
_cell_angle_gamma   53.81114395
_symmetry_Int_Tables_number   1
_chemical_formula_structural   RbPt2S3
_chemical_formula_sum   'Rb2 Pt4 S6'
_cell_volume   302.99712152
_cell_formula_units_Z   2
loop_
 _symmetry_equiv_pos_site_id
 _symmetry_equiv_pos_as_xyz
  1  'x, y, z'
loop_
 _atom_site_type_symbol
 _atom_site_label
 _atom_site_symmetry_multiplicity
 _atom_site_fract_x
 _atom_site_fract_y
 _atom_site_fract_z
 _atom_site_occupancy
  Rb  Rb0  1  0.80668186  0.80668186  0.80668186  1.0
  Rb  Rb1  1  1.19331814  1.19331814  0.19331814  1.0
  Pt  Pt2  1  0.50000000  0.00000000  -0.50000000  1.0
  Pt  Pt3  1  0.50000000  -0.50000000  0.00000000  1.0
  Pt  Pt4  1  0.00000000  0.50000000  -0.50000000  1.0
  Pt  Pt5  1  0.00000000  0.00000000  0.00000000  1.0
  S  S6  1  1.22765332  0.22765332  0.71450211  1.0
  S  S7  1  1.22765332  0.71450211  0.22765332  1.0
  S  S8  1  1.28549789  0.77234668  0.77234668  1.0
  S  S9  1  1.77234668  0.28549789  0.77234668  1.0
  S  S10  1  1.77234668  0.77234668  0.28549789  1.0
  S  S11  1  1.71450211  0.22765332  0.22765332  1.0
