# generated using pymatgen
data_Ti3O
_symmetry_space_group_name_H-M   'P 1'
_cell_length_a   5.12862782
_cell_length_b   5.12862782
_cell_length_c   4.90207875
_cell_angle_alpha   90.00000000
_cell_angle_beta   90.00000000
_cell_angle_gamma   120.00000000
_symmetry_Int_Tables_number   1
_chemical_formula_structural   Ti3O
_chemical_formula_sum   'Ti6 O2'
_cell_volume   111.66402617
_cell_formula_units_Z   2
loop_
 _symmetry_equiv_pos_site_id
 _symmetry_equiv_pos_as_xyz
  1  'x, y, z'
loop_
 _atom_site_type_symbol
 _atom_site_label
 _atom_site_symmetry_multiplicity
 _atom_site_fract_x
 _atom_site_fract_y
 _atom_site_fract_z
 _atom_site_occupancy
  Ti  Ti0  1  0.67073851  0.00000000  0.75000033  1.0
  Ti  Ti1  1  0.32926149  0.32926149  0.75000033  1.0
  Ti  Ti2  1  0.00000000  0.67073851  0.75000033  1.0
  Ti  Ti3  1  0.32926149  0.00000000  0.24999967  1.0
  Ti  Ti4  1  0.67073851  0.67073851  0.24999967  1.0
  Ti  Ti5  1  0.00000000  0.32926149  0.24999967  1.0
  O  O6  1  0.00000000  0.00000000  0.50000000  1.0
  O  O7  1  0.00000000  0.00000000  0.00000000  1.0
