# generated using pymatgen
data_Gd4MnS7
_symmetry_space_group_name_H-M   'P 1'
_cell_length_a   9.66964687
_cell_length_b   9.66964687
_cell_length_c   6.79302018
_cell_angle_alpha   90.00000000
_cell_angle_beta   90.00000000
_cell_angle_gamma   120.00000000
_symmetry_Int_Tables_number   1
_chemical_formula_structural   Gd4MnS7
_chemical_formula_sum   'Gd8 Mn2 S14'
_cell_volume   550.06595370
_cell_formula_units_Z   2
loop_
 _symmetry_equiv_pos_site_id
 _symmetry_equiv_pos_as_xyz
  1  'x, y, z'
loop_
 _atom_site_type_symbol
 _atom_site_label
 _atom_site_symmetry_multiplicity
 _atom_site_fract_x
 _atom_site_fract_y
 _atom_site_fract_z
 _atom_site_occupancy
  Gd  Gd0  1  0.83964417  0.62153426  0.21652819  1.0
  Gd  Gd1  1  0.62153426  0.78189010  0.71652819  1.0
  Gd  Gd2  1  0.78189010  0.16035583  0.21652819  1.0
  Gd  Gd3  1  0.37846574  0.21810990  0.21652819  1.0
  Gd  Gd4  1  0.16035583  0.37846574  0.71652819  1.0
  Gd  Gd5  1  0.21810990  0.83964417  0.71652819  1.0
  Gd  Gd6  1  0.33333333  0.66666667  0.16920989  1.0
  Gd  Gd7  1  0.66666667  0.33333333  0.66920989  1.0
  Mn  Mn8  1  -0.00000000  -0.00000000  0.01299612  1.0
  Mn  Mn9  1  -0.00000000  -0.00000000  0.51299612  1.0
  S  S10  1  0.13250224  0.88922208  0.31616138  1.0
  S  S11  1  0.88922208  0.75671984  0.81616138  1.0
  S  S12  1  0.75671984  0.86749776  0.31616138  1.0
  S  S13  1  0.11077792  0.24328016  0.31616138  1.0
  S  S14  1  0.86749776  0.11077792  0.81616138  1.0
  S  S15  1  0.24328016  0.13250224  0.81616138  1.0
  S  S16  1  0.55887912  0.48441790  0.45444931  1.0
  S  S17  1  0.48441790  0.92553877  0.95444931  1.0
  S  S18  1  0.92553877  0.44112088  0.45444931  1.0
  S  S19  1  0.51558210  0.07446123  0.45444931  1.0
  S  S20  1  0.44112088  0.51558210  0.95444931  1.0
  S  S21  1  0.07446123  0.55887912  0.95444931  1.0
  S  S22  1  0.33333333  0.66666667  0.55237735  1.0
  S  S23  1  0.66666667  0.33333333  0.05237735  1.0
