# generated using pymatgen
data_Ag2TeO4
_symmetry_space_group_name_H-M   'P 1'
_cell_length_a   6.65659833
_cell_length_b   6.65659833
_cell_length_c   13.91650108
_cell_angle_alpha   88.40165114
_cell_angle_beta   91.59834886
_cell_angle_gamma   88.75948017
_symmetry_Int_Tables_number   1
_chemical_formula_structural   Ag2TeO4
_chemical_formula_sum   'Ag12 Te6 O24'
_cell_volume   616.00937695
_cell_formula_units_Z   6
loop_
 _symmetry_equiv_pos_site_id
 _symmetry_equiv_pos_as_xyz
  1  'x, y, z'
loop_
 _atom_site_type_symbol
 _atom_site_label
 _atom_site_symmetry_multiplicity
 _atom_site_fract_x
 _atom_site_fract_y
 _atom_site_fract_z
 _atom_site_occupancy
  Ag  Ag0  1  0.39139942  -0.27952611  0.16864225  1.0
  Ag  Ag1  1  1.27952611  0.60860058  0.66864225  1.0
  Ag  Ag2  1  0.72047389  -0.60860058  0.33135775  1.0
  Ag  Ag3  1  1.60860058  0.27952611  0.83135775  1.0
  Ag  Ag4  1  1.48866363  0.20209272  0.07548365  1.0
  Ag  Ag5  1  0.79790728  -0.48866363  0.57548365  1.0
  Ag  Ag6  1  1.20209272  0.48866363  0.42451635  1.0
  Ag  Ag7  1  0.51133637  -0.20209272  0.92451635  1.0
  Ag  Ag8  1  0.94420529  -0.05579471  0.25000000  1.0
  Ag  Ag9  1  1.05579471  0.05579471  0.75000000  1.0
  Ag  Ag10  1  1.27406542  0.27406542  0.25000000  1.0
  Ag  Ag11  1  0.72593458  -0.27406542  0.75000000  1.0
  Te  Te12  1  0.49366580  -0.08782108  0.39441277  1.0
  Te  Te13  1  1.08782108  0.50633420  0.89441277  1.0
  Te  Te14  1  0.91217892  -0.50633420  0.10558723  1.0
  Te  Te15  1  1.50633420  0.08782108  0.60558723  1.0
  Te  Te16  1  0.00000000  -0.00000000  0.50000000  1.0
  Te  Te17  1  0.00000000  0.00000000  0.00000000  1.0
  O  O18  1  0.79942260  -0.11805171  0.40019529  1.0
  O  O19  1  1.11805171  0.20057740  0.90019529  1.0
  O  O20  1  0.88194829  -0.20057740  0.09980471  1.0
  O  O21  1  1.20057740  0.11805171  0.59980471  1.0
  O  O22  1  0.46041507  -0.36149121  0.34854568  1.0
  O  O23  1  1.36149121  0.53958493  0.84854568  1.0
  O  O24  1  0.63850879  -0.53958493  0.15145432  1.0
  O  O25  1  1.53958493  0.36149121  0.65145432  1.0
  O  O26  1  1.71581825  0.05337989  0.95407509  1.0
  O  O27  1  0.94662011  -0.71581825  0.45407509  1.0
  O  O28  1  1.05337989  0.71581825  0.54592491  1.0
  O  O29  1  0.28418175  -0.05337989  0.04592491  1.0
  O  O30  1  1.51190563  0.05008504  0.26830286  1.0
  O  O31  1  0.94991496  -0.51190563  0.76830286  1.0
  O  O32  1  1.05008504  0.51190563  0.23169714  1.0
  O  O33  1  0.48809437  -0.05008504  0.73169714  1.0
  O  O34  1  1.51416429  0.18323235  0.46382715  1.0
  O  O35  1  0.81676765  -0.51416429  0.96382715  1.0
  O  O36  1  1.18323235  0.51416429  0.03617285  1.0
  O  O37  1  0.48583571  -0.18323235  0.53617285  1.0
  O  O38  1  0.18810507  -0.03527261  0.38642096  1.0
  O  O39  1  1.03527261  0.81189493  0.88642096  1.0
  O  O40  1  0.96472739  -0.81189493  0.11357904  1.0
  O  O41  1  1.81189493  0.03527261  0.61357904  1.0
