# generated using pymatgen
data_Eu(ZnP)2
_symmetry_space_group_name_H-M   'P 1'
_cell_length_a   4.08302142
_cell_length_b   4.08302142
_cell_length_c   6.83726077
_cell_angle_alpha   90.00000000
_cell_angle_beta   90.00000000
_cell_angle_gamma   120.00000000
_symmetry_Int_Tables_number   1
_chemical_formula_structural   Eu(ZnP)2
_chemical_formula_sum   'Eu1 Zn2 P2'
_cell_volume   98.71339592
_cell_formula_units_Z   1
loop_
 _symmetry_equiv_pos_site_id
 _symmetry_equiv_pos_as_xyz
  1  'x, y, z'
loop_
 _atom_site_type_symbol
 _atom_site_label
 _atom_site_symmetry_multiplicity
 _atom_site_fract_x
 _atom_site_fract_y
 _atom_site_fract_z
 _atom_site_occupancy
  Eu  Eu0  1  -0.00000000  0.00000000  -0.00000000  1.0
  Zn  Zn1  1  0.33333333  0.66666667  0.63551191  1.0
  Zn  Zn2  1  0.66666667  0.33333333  0.36448809  1.0
  P  P3  1  0.33333333  0.66666667  0.26550252  1.0
  P  P4  1  0.66666667  0.33333333  0.73449748  1.0
