# generated using pymatgen
data_Co5Mo12N
_symmetry_space_group_name_H-M   'P 1'
_cell_length_a   9.55426912
_cell_length_b   9.55426912
_cell_length_c   9.55426912
_cell_angle_alpha   60.00000000
_cell_angle_beta   60.00000000
_cell_angle_gamma   60.00000000
_symmetry_Int_Tables_number   1
_chemical_formula_structural   Co5Mo12N
_chemical_formula_sum   'Co10 Mo24 N2'
_cell_volume   616.70491826
_cell_formula_units_Z   2
loop_
 _symmetry_equiv_pos_site_id
 _symmetry_equiv_pos_as_xyz
  1  'x, y, z'
loop_
 _atom_site_type_symbol
 _atom_site_label
 _atom_site_symmetry_multiplicity
 _atom_site_fract_x
 _atom_site_fract_y
 _atom_site_fract_z
 _atom_site_occupancy
  Co  Co0  1  0.66517872  -0.33482128  1.00446385  1.0
  Co  Co1  1  0.66517872  0.00446385  0.66517872  1.0
  Co  Co2  1  0.58482128  -0.41517872  0.58482128  1.0
  Co  Co3  1  1.24553615  -0.41517872  0.58482128  1.0
  Co  Co4  1  1.00446385  -0.33482128  0.66517872  1.0
  Co  Co5  1  0.66517872  -0.33482128  0.66517872  1.0
  Co  Co6  1  0.58482128  0.24553615  0.58482128  1.0
  Co  Co7  1  0.58482128  -0.41517872  1.24553615  1.0
  Co  Co8  1  0.50000000  0.50000000  -0.50000000  1.0
  Co  Co9  1  0.75000000  -0.25000000  0.75000000  1.0
  Mo  Mo10  1  0.95810085  -0.60015903  0.68395734  1.0
  Mo  Mo11  1  -0.04189915  0.68395734  0.39984097  1.0
  Mo  Mo12  1  -0.14984097  0.29189915  0.29189915  1.0
  Mo  Mo13  1  0.56604266  0.29189915  0.29189915  1.0
  Mo  Mo14  1  -0.60015903  0.95810085  0.68395734  1.0
  Mo  Mo15  1  0.95810085  -0.04189915  0.68395734  1.0
  Mo  Mo16  1  0.95810085  -0.31604266  0.95810085  1.0
  Mo  Mo17  1  -0.60015903  0.68395734  0.95810085  1.0
  Mo  Mo18  1  0.29189915  -0.14984097  0.29189915  1.0
  Mo  Mo19  1  0.29189915  0.29189915  -0.14984097  1.0
  Mo  Mo20  1  0.56604266  0.29189915  -0.14984097  1.0
  Mo  Mo21  1  0.56604266  -0.14984097  0.29189915  1.0
  Mo  Mo22  1  0.68395734  -0.04189915  0.95810085  1.0
  Mo  Mo23  1  -0.60015903  0.95810085  0.95810085  1.0
  Mo  Mo24  1  0.29189915  0.56604266  -0.14984097  1.0
  Mo  Mo25  1  0.29189915  -0.14984097  0.56604266  1.0
  Mo  Mo26  1  -0.31604266  0.95810085  0.39984097  1.0
  Mo  Mo27  1  0.68395734  -0.60015903  0.95810085  1.0
  Mo  Mo28  1  0.95810085  -0.60015903  0.95810085  1.0
  Mo  Mo29  1  -0.04189915  0.95810085  0.39984097  1.0
  Mo  Mo30  1  0.29189915  0.56604266  0.29189915  1.0
  Mo  Mo31  1  -0.14984097  0.56604266  0.29189915  1.0
  Mo  Mo32  1  -0.14984097  0.29189915  0.56604266  1.0
  Mo  Mo33  1  0.29189915  0.29189915  0.56604266  1.0
  N  N34  1  -0.00000000  1.00000000  0.00000000  1.0
  N  N35  1  0.25000000  0.25000000  0.25000000  1.0
