# generated using pymatgen
data_CdTe
_symmetry_space_group_name_H-M   'P 1'
_cell_length_a   4.67836921
_cell_length_b   4.67836921
_cell_length_c   45.87588833
_cell_angle_alpha   90.00000000
_cell_angle_beta   90.00000000
_cell_angle_gamma   120.00000000
_symmetry_Int_Tables_number   1
_chemical_formula_structural   CdTe
_chemical_formula_sum   'Cd12 Te12'
_cell_volume   869.56910983
_cell_formula_units_Z   12
loop_
 _symmetry_equiv_pos_site_id
 _symmetry_equiv_pos_as_xyz
  1  'x, y, z'
loop_
 _atom_site_type_symbol
 _atom_site_label
 _atom_site_symmetry_multiplicity
 _atom_site_fract_x
 _atom_site_fract_y
 _atom_site_fract_z
 _atom_site_occupancy
  Cd  Cd0  1  0.33333333  0.66666667  0.16665687  1.0
  Cd  Cd1  1  0.66666667  0.33333333  0.66665687  1.0
  Cd  Cd2  1  0.33333333  0.66666667  0.41659563  1.0
  Cd  Cd3  1  0.66666667  0.33333333  0.91659563  1.0
  Cd  Cd4  1  0.33333333  0.66666667  0.58337540  1.0
  Cd  Cd5  1  0.66666667  0.33333333  0.08337540  1.0
  Cd  Cd6  1  0.33333333  0.66666667  0.83332284  1.0
  Cd  Cd7  1  0.66666667  0.33333333  0.33332284  1.0
  Cd  Cd8  1  0.00000000  0.00000000  0.00001315  1.0
  Cd  Cd9  1  0.00000000  0.00000000  0.50001315  1.0
  Cd  Cd10  1  0.00000000  0.00000000  0.24999027  1.0
  Cd  Cd11  1  0.00000000  0.00000000  0.74999027  1.0
  Te  Te12  1  0.33333333  0.66666667  0.10418935  1.0
  Te  Te13  1  0.66666667  0.33333333  0.60418935  1.0
  Te  Te14  1  0.33333333  0.66666667  0.35415198  1.0
  Te  Te15  1  0.66666667  0.33333333  0.85415198  1.0
  Te  Te16  1  0.33333333  0.66666667  0.52092172  1.0
  Te  Te17  1  0.66666667  0.33333333  0.02092172  1.0
  Te  Te18  1  0.33333333  0.66666667  0.77084786  1.0
  Te  Te19  1  0.66666667  0.33333333  0.27084786  1.0
  Te  Te20  1  0.00000000  0.00000000  0.18751111  1.0
  Te  Te21  1  0.00000000  0.00000000  0.68751111  1.0
  Te  Te22  1  0.00000000  0.00000000  0.43742381  1.0
  Te  Te23  1  0.00000000  0.00000000  0.93742381  1.0
