# generated using pymatgen
data_TeF6
_symmetry_space_group_name_H-M   'P 1'
_cell_length_a   10.60058016
_cell_length_b   9.50936012
_cell_length_c   5.54127361
_cell_angle_alpha   90.00000000
_cell_angle_beta   90.00000000
_cell_angle_gamma   90.00000000
_symmetry_Int_Tables_number   1
_chemical_formula_structural   TeF6
_chemical_formula_sum   'Te4 F24'
_cell_volume   558.58661405
_cell_formula_units_Z   4
loop_
 _symmetry_equiv_pos_site_id
 _symmetry_equiv_pos_as_xyz
  1  'x, y, z'
loop_
 _atom_site_type_symbol
 _atom_site_label
 _atom_site_symmetry_multiplicity
 _atom_site_fract_x
 _atom_site_fract_y
 _atom_site_fract_z
 _atom_site_occupancy
  Te  Te0  1  0.87168153  0.25000000  0.40284728  1.0
  Te  Te1  1  0.37168153  0.25000000  0.09715272  1.0
  Te  Te2  1  0.12831847  0.75000000  0.59715272  1.0
  Te  Te3  1  0.62831847  0.75000000  0.90284728  1.0
  F  F4  1  0.97338720  0.39283472  0.25341100  1.0
  F  F5  1  0.97338720  0.10716528  0.25341100  1.0
  F  F6  1  0.47338720  0.39283472  0.24658900  1.0
  F  F7  1  0.47338720  0.10716528  0.24658900  1.0
  F  F8  1  0.02661280  0.89283472  0.74658900  1.0
  F  F9  1  0.02661280  0.60716528  0.74658900  1.0
  F  F10  1  0.52661280  0.89283472  0.75341100  1.0
  F  F11  1  0.52661280  0.60716528  0.75341100  1.0
  F  F12  1  0.76981557  0.39281870  0.55165426  1.0
  F  F13  1  0.76981557  0.10718130  0.55165426  1.0
  F  F14  1  0.26981557  0.39281870  0.94834574  1.0
  F  F15  1  0.26981557  0.10718130  0.94834574  1.0
  F  F16  1  0.23018443  0.89281870  0.44834574  1.0
  F  F17  1  0.23018443  0.60718130  0.44834574  1.0
  F  F18  1  0.73018443  0.89281870  0.05165426  1.0
  F  F19  1  0.73018443  0.60718130  0.05165426  1.0
  F  F20  1  0.98198710  0.25000000  0.67802141  1.0
  F  F21  1  0.48198710  0.25000000  0.82197859  1.0
  F  F22  1  0.01801290  0.75000000  0.32197859  1.0
  F  F23  1  0.51801290  0.75000000  0.17802141  1.0
  F  F24  1  0.76151111  0.25000000  0.12727675  1.0
  F  F25  1  0.26151111  0.25000000  0.37272325  1.0
  F  F26  1  0.23848889  0.75000000  0.87272325  1.0
  F  F27  1  0.73848889  0.75000000  0.62727675  1.0
