# generated using pymatgen
data_LuSb(PbO3)2
_symmetry_space_group_name_H-M   'P 1'
_cell_length_a   5.91157003
_cell_length_b   5.91157003
_cell_length_c   10.21609954
_cell_angle_alpha   73.76708333
_cell_angle_beta   106.23291667
_cell_angle_gamma   120.12594232
_symmetry_Int_Tables_number   1
_chemical_formula_structural   LuSb(PbO3)2
_chemical_formula_sum   'Lu2 Sb2 Pb4 O12'
_cell_volume   292.28617944
_cell_formula_units_Z   2
loop_
 _symmetry_equiv_pos_site_id
 _symmetry_equiv_pos_as_xyz
  1  'x, y, z'
loop_
 _atom_site_type_symbol
 _atom_site_label
 _atom_site_symmetry_multiplicity
 _atom_site_fract_x
 _atom_site_fract_y
 _atom_site_fract_z
 _atom_site_occupancy
  Lu  Lu0  1  0.75196326  0.75196326  0.75000000  1.0
  Lu  Lu1  1  0.24803674  0.24803674  0.25000000  1.0
  Sb  Sb2  1  0.50000000  0.00000000  -0.00000000  1.0
  Sb  Sb3  1  1.00000000  0.50000000  0.50000000  1.0
  Pb  Pb4  1  0.41351874  0.14953948  0.62765641  1.0
  Pb  Pb5  1  0.85046052  0.58648126  0.12765641  1.0
  Pb  Pb6  1  1.14953948  0.41351874  0.87234359  1.0
  Pb  Pb7  1  0.58648126  -0.14953948  0.37234359  1.0
  O  O8  1  0.61126447  -0.19046078  0.91325572  1.0
  O  O9  1  1.19046078  0.38873553  0.41325572  1.0
  O  O10  1  0.80953922  0.61126447  0.58674428  1.0
  O  O11  1  0.38873553  0.19046078  0.08674428  1.0
  O  O12  1  0.83567902  0.14109845  0.62141730  1.0
  O  O13  1  0.85890155  0.16432098  0.12141730  1.0
  O  O14  1  1.14109845  0.83567902  0.87858270  1.0
  O  O15  1  0.16432098  -0.14109845  0.37858270  1.0
  O  O16  1  0.61920646  0.32259952  0.85126860  1.0
  O  O17  1  0.67740048  0.38079354  0.35126860  1.0
  O  O18  1  1.32259952  0.61920646  0.64873140  1.0
  O  O19  1  0.38079354  -0.32259952  0.14873140  1.0
