# generated using pymatgen
data_Sr(In4Ir)2
_symmetry_space_group_name_H-M   'P 1'
_cell_length_a   14.09127396
_cell_length_b   16.41991539
_cell_length_c   4.45876245
_cell_angle_alpha   90.00000000
_cell_angle_beta   90.00000000
_cell_angle_gamma   90.00000000
_symmetry_Int_Tables_number   1
_chemical_formula_structural   Sr(In4Ir)2
_chemical_formula_sum   'Sr4 In32 Ir8'
_cell_volume   1031.65742549
_cell_formula_units_Z   4
loop_
 _symmetry_equiv_pos_site_id
 _symmetry_equiv_pos_as_xyz
  1  'x, y, z'
loop_
 _atom_site_type_symbol
 _atom_site_label
 _atom_site_symmetry_multiplicity
 _atom_site_fract_x
 _atom_site_fract_y
 _atom_site_fract_z
 _atom_site_occupancy
  Sr  Sr0  1  0.84222890  0.18076421  0.00000000  1.0
  Sr  Sr1  1  0.15777110  0.81923579  0.00000000  1.0
  Sr  Sr2  1  0.34222890  0.31923579  -0.00000000  1.0
  Sr  Sr3  1  0.65777110  0.68076421  -0.00000000  1.0
  In  In4  1  0.51937603  0.36673586  0.50000000  1.0
  In  In5  1  0.48062397  0.63326414  0.50000000  1.0
  In  In6  1  0.01937603  0.13326414  0.50000000  1.0
  In  In7  1  0.98062397  0.86673586  0.50000000  1.0
  In  In8  1  0.66672869  0.12245563  0.50000000  1.0
  In  In9  1  0.33327131  0.87754437  0.50000000  1.0
  In  In10  1  0.16672869  0.37754437  0.50000000  1.0
  In  In11  1  0.83327131  0.62245563  0.50000000  1.0
  In  In12  1  0.73994259  0.32291421  0.50000000  1.0
  In  In13  1  0.26005741  0.67708579  0.50000000  1.0
  In  In14  1  0.23994259  0.17708579  0.50000000  1.0
  In  In15  1  0.76005741  0.82291421  0.50000000  1.0
  In  In16  1  0.82959080  0.01097163  0.50000000  1.0
  In  In17  1  0.17040920  0.98902837  0.50000000  1.0
  In  In18  1  0.32959080  0.48902837  0.50000000  1.0
  In  In19  1  0.67040920  0.51097163  0.50000000  1.0
  In  In20  1  0.94902639  0.31694617  0.50000000  1.0
  In  In21  1  0.05097361  0.68305383  0.50000000  1.0
  In  In22  1  0.44902639  0.18305383  0.50000000  1.0
  In  In23  1  0.55097361  0.81694617  0.50000000  1.0
  In  In24  1  0.60022840  0.24742565  -0.00000000  1.0
  In  In25  1  0.39977160  0.75257435  -0.00000000  1.0
  In  In26  1  0.10022840  0.25257435  0.00000000  1.0
  In  In27  1  0.89977160  0.74742565  0.00000000  1.0
  In  In28  1  0.84061560  0.45604502  -0.00000000  1.0
  In  In29  1  0.15938440  0.54395498  -0.00000000  1.0
  In  In30  1  0.34061560  0.04395498  -0.00000000  1.0
  In  In31  1  0.65938440  0.95604502  -0.00000000  1.0
  In  In32  1  0.50000000  0.00000000  0.50000000  1.0
  In  In33  1  0.00000000  0.50000000  0.50000000  1.0
  In  In34  1  0.50000000  0.50000000  0.00000000  1.0
  In  In35  1  0.00000000  0.00000000  0.00000000  1.0
  Ir  Ir36  1  0.53467729  0.09649754  0.00000000  1.0
  Ir  Ir37  1  0.46532271  0.90350246  0.00000000  1.0
  Ir  Ir38  1  0.03467729  0.40350246  -0.00000000  1.0
  Ir  Ir39  1  0.96532271  0.59649754  -0.00000000  1.0
  Ir  Ir40  1  0.65427028  0.40382557  -0.00000000  1.0
  Ir  Ir41  1  0.34572972  0.59617443  -0.00000000  1.0
  Ir  Ir42  1  0.15427028  0.09617443  0.00000000  1.0
  Ir  Ir43  1  0.84572972  0.90382557  0.00000000  1.0
