# generated using pymatgen
data_BaNi9P5
_symmetry_space_group_name_H-M   'P 1'
_cell_length_a   6.52725977
_cell_length_b   6.52725977
_cell_length_c   10.93240890
_cell_angle_alpha   90.00000000
_cell_angle_beta   90.00000000
_cell_angle_gamma   120.00000000
_symmetry_Int_Tables_number   1
_chemical_formula_structural   BaNi9P5
_chemical_formula_sum   'Ba2 Ni18 P10'
_cell_volume   403.37436270
_cell_formula_units_Z   2
loop_
 _symmetry_equiv_pos_site_id
 _symmetry_equiv_pos_as_xyz
  1  'x, y, z'
loop_
 _atom_site_type_symbol
 _atom_site_label
 _atom_site_symmetry_multiplicity
 _atom_site_fract_x
 _atom_site_fract_y
 _atom_site_fract_z
 _atom_site_occupancy
  Ba  Ba0  1  0.00000000  0.00000000  0.50000000  1.0
  Ba  Ba1  1  0.00000000  0.00000000  0.00000000  1.0
  Ni  Ni2  1  0.20299354  0.79700646  0.25000000  1.0
  Ni  Ni3  1  0.20299354  0.40598708  0.25000000  1.0
  Ni  Ni4  1  0.79700646  0.20299354  0.75000000  1.0
  Ni  Ni5  1  0.79700646  0.59401292  0.75000000  1.0
  Ni  Ni6  1  0.59401292  0.79700646  0.25000000  1.0
  Ni  Ni7  1  0.40598708  0.20299354  0.75000000  1.0
  Ni  Ni8  1  0.53558921  0.46441079  0.39262955  1.0
  Ni  Ni9  1  0.53558921  0.46441079  0.10737045  1.0
  Ni  Ni10  1  0.53558921  0.07117842  0.39262955  1.0
  Ni  Ni11  1  0.53558921  0.07117842  0.10737045  1.0
  Ni  Ni12  1  0.46441079  0.53558921  0.89262955  1.0
  Ni  Ni13  1  0.46441079  0.53558921  0.60737045  1.0
  Ni  Ni14  1  0.46441079  0.92882158  0.89262955  1.0
  Ni  Ni15  1  0.46441079  0.92882158  0.60737045  1.0
  Ni  Ni16  1  0.92882158  0.46441079  0.39262955  1.0
  Ni  Ni17  1  0.92882158  0.46441079  0.10737045  1.0
  Ni  Ni18  1  0.07117842  0.53558921  0.89262955  1.0
  Ni  Ni19  1  0.07117842  0.53558921  0.60737045  1.0
  P  P20  1  0.82398880  0.17601120  0.25000000  1.0
  P  P21  1  0.82398880  0.64797760  0.25000000  1.0
  P  P22  1  0.17601120  0.82398880  0.75000000  1.0
  P  P23  1  0.17601120  0.35202240  0.75000000  1.0
  P  P24  1  0.35202240  0.17601120  0.25000000  1.0
  P  P25  1  0.64797760  0.82398880  0.75000000  1.0
  P  P26  1  0.33333333  0.66666667  0.43870131  1.0
  P  P27  1  0.33333333  0.66666667  0.06129869  1.0
  P  P28  1  0.66666667  0.33333333  0.93870131  1.0
  P  P29  1  0.66666667  0.33333333  0.56129869  1.0
