# generated using pymatgen
data_Cs2CuBrCl3
_symmetry_space_group_name_H-M   'P 1'
_cell_length_a   10.14993099
_cell_length_b   7.69095561
_cell_length_c   12.85918001
_cell_angle_alpha   90.00000000
_cell_angle_beta   90.00000000
_cell_angle_gamma   90.00000000
_symmetry_Int_Tables_number   1
_chemical_formula_structural   Cs2CuBrCl3
_chemical_formula_sum   'Cs8 Cu4 Br4 Cl12'
_cell_volume   1003.82190865
_cell_formula_units_Z   4
loop_
 _symmetry_equiv_pos_site_id
 _symmetry_equiv_pos_as_xyz
  1  'x, y, z'
loop_
 _atom_site_type_symbol
 _atom_site_label
 _atom_site_symmetry_multiplicity
 _atom_site_fract_x
 _atom_site_fract_y
 _atom_site_fract_z
 _atom_site_occupancy
  Br  Br0  1  -0.00090556  0.75000000  0.12485607  1.0
  Br  Br1  1  0.49909444  0.75000000  0.37514393  1.0
  Br  Br2  1  1.00090556  0.25000000  0.87514393  1.0
  Br  Br3  1  0.50090556  0.25000000  0.62485607  1.0
  Cs  Cs4  1  0.87643978  0.75000000  0.40579932  1.0
  Cs  Cs5  1  0.37643978  0.75000000  0.09420068  1.0
  Cs  Cs6  1  0.12356022  0.25000000  0.59420068  1.0
  Cs  Cs7  1  0.62356022  0.25000000  0.90579932  1.0
  Cs  Cs8  1  0.49242894  0.75000000  0.67730966  1.0
  Cs  Cs9  1  0.99242894  0.75000000  0.82269034  1.0
  Cs  Cs10  1  0.50757106  0.25000000  0.32269034  1.0
  Cs  Cs11  1  0.00757106  0.25000000  0.17730966  1.0
  Cu  Cu12  1  0.76760667  0.75000000  0.07944815  1.0
  Cu  Cu13  1  0.26760667  0.75000000  0.42055185  1.0
  Cu  Cu14  1  0.23239333  0.25000000  0.92055185  1.0
  Cu  Cu15  1  0.73239333  0.25000000  0.57944815  1.0
  Cl  Cl16  1  0.16020929  0.75000000  0.57680786  1.0
  Cl  Cl17  1  0.66020929  0.75000000  0.92319214  1.0
  Cl  Cl18  1  0.83979071  0.25000000  0.42319214  1.0
  Cl  Cl19  1  0.33979071  0.25000000  0.07680786  1.0
  Cl  Cl20  1  0.70901896  1.01471779  0.13744974  1.0
  Cl  Cl21  1  0.70901896  0.48528221  0.13744974  1.0
  Cl  Cl22  1  0.20901896  1.01471779  0.36255026  1.0
  Cl  Cl23  1  0.20901896  0.48528221  0.36255026  1.0
  Cl  Cl24  1  0.29098104  0.51471779  0.86255026  1.0
  Cl  Cl25  1  0.29098104  -0.01471779  0.86255026  1.0
  Cl  Cl26  1  0.79098104  0.51471779  0.63744974  1.0
  Cl  Cl27  1  0.79098104  -0.01471779  0.63744974  1.0
