# generated using pymatgen
data_H8Pd(NCl3)2
_symmetry_space_group_name_H-M   'P 1'
_cell_length_a   7.10050982
_cell_length_b   7.04017241
_cell_length_c   12.67514249
_cell_angle_alpha   90.00000000
_cell_angle_beta   123.44450161
_cell_angle_gamma   90.00000000
_symmetry_Int_Tables_number   1
_chemical_formula_structural   H8Pd(NCl3)2
_chemical_formula_sum   'H16 Pd2 N4 Cl12'
_cell_volume   528.70133918
_cell_formula_units_Z   2
loop_
 _symmetry_equiv_pos_site_id
 _symmetry_equiv_pos_as_xyz
  1  'x, y, z'
loop_
 _atom_site_type_symbol
 _atom_site_label
 _atom_site_symmetry_multiplicity
 _atom_site_fract_x
 _atom_site_fract_y
 _atom_site_fract_z
 _atom_site_occupancy
  H  H0  1  0.59457376  0.52799324  0.73966754  1.0
  H  H1  1  0.59457376  0.97200676  0.23966754  1.0
  H  H2  1  0.40542624  0.02799324  0.76033246  1.0
  H  H3  1  0.40542624  0.47200676  0.26033246  1.0
  H  H4  1  0.87735626  0.57076535  0.82600379  1.0
  H  H5  1  0.87735626  0.92923465  0.32600379  1.0
  H  H6  1  0.12264374  0.07076535  0.67399621  1.0
  H  H7  1  0.12264374  0.42923465  0.17399621  1.0
  H  H8  1  0.77279400  0.35709565  0.75540007  1.0
  H  H9  1  0.77279400  0.14290435  0.25540007  1.0
  H  H10  1  0.22720600  0.85709565  0.74459993  1.0
  H  H11  1  0.22720600  0.64290435  0.24459993  1.0
  H  H12  1  0.26530432  0.05216434  0.83302439  1.0
  H  H13  1  0.26530432  0.44783566  0.33302439  1.0
  H  H14  1  0.73469568  0.55216434  0.66697561  1.0
  H  H15  1  0.73469568  0.94783566  0.16697561  1.0
  Pd  Pd16  1  0.00000000  0.00000000  0.00000000  1.0
  Pd  Pd17  1  -0.00000000  0.50000000  0.50000000  1.0
  N  N18  1  0.74511235  0.50218518  0.74706930  1.0
  N  N19  1  0.74511235  0.99781482  0.24706930  1.0
  N  N20  1  0.25488765  0.00218518  0.75293070  1.0
  N  N21  1  0.25488765  0.49781482  0.25293070  1.0
  Cl  Cl22  1  0.75098413  0.02221882  0.77917613  1.0
  Cl  Cl23  1  0.75098413  0.47778118  0.27917613  1.0
  Cl  Cl24  1  0.24901587  0.52221882  0.72082387  1.0
  Cl  Cl25  1  0.24901587  0.97778118  0.22082387  1.0
  Cl  Cl26  1  0.17939904  0.73771029  0.97756346  1.0
  Cl  Cl27  1  0.17939904  0.76228971  0.47756346  1.0
  Cl  Cl28  1  0.82060096  0.23771029  0.52243654  1.0
  Cl  Cl29  1  0.82060096  0.26228971  0.02243654  1.0
  Cl  Cl30  1  0.25123252  0.20466121  -0.00975431  1.0
  Cl  Cl31  1  0.25123252  0.29533879  0.49024569  1.0
  Cl  Cl32  1  0.74876748  0.70466121  0.50975431  1.0
  Cl  Cl33  1  0.74876748  0.79533879  1.00975431  1.0
