# generated using pymatgen
data_Zr4Mn4Si7
_symmetry_space_group_name_H-M   'P 1'
_cell_length_a   9.64393180
_cell_length_b   9.64393180
_cell_length_c   9.64393180
_cell_angle_alpha   94.03798805
_cell_angle_beta   94.03798805
_cell_angle_gamma   149.22287742
_symmetry_Int_Tables_number   1
_chemical_formula_structural   Zr4Mn4Si7
_chemical_formula_sum   'Zr8 Mn8 Si14'
_cell_volume   442.50845091
_cell_formula_units_Z   2
loop_
 _symmetry_equiv_pos_site_id
 _symmetry_equiv_pos_as_xyz
  1  'x, y, z'
loop_
 _atom_site_type_symbol
 _atom_site_label
 _atom_site_symmetry_multiplicity
 _atom_site_fract_x
 _atom_site_fract_y
 _atom_site_fract_z
 _atom_site_occupancy
  Si  Si0  1  0.79041958  0.79041958  0.58083916  1.0
  Si  Si1  1  1.20958042  0.79041958  1.00000000  1.0
  Si  Si2  1  0.79041958  0.20958042  1.00000000  1.0
  Si  Si3  1  0.20958042  0.20958042  0.41916084  1.0
  Si  Si4  1  0.75042112  0.75042112  0.00000000  1.0
  Si  Si5  1  0.24957888  0.24957888  -0.00000000  1.0
  Si  Si6  1  0.50000000  0.79777177  0.29777177  1.0
  Si  Si7  1  0.79777177  0.50000000  1.29777177  1.0
  Si  Si8  1  0.20222823  0.50000000  0.70222823  1.0
  Si  Si9  1  0.50000000  1.20222823  0.70222823  1.0
  Si  Si10  1  -0.00000000  0.59113521  0.59113521  1.0
  Si  Si11  1  0.59113521  1.00000000  0.59113521  1.0
  Si  Si12  1  1.40886479  1.00000000  1.40886479  1.0
  Si  Si13  1  -0.00000000  0.40886479  0.40886479  1.0
  Mn  Mn14  1  1.10219309  0.60219309  1.20438619  1.0
  Mn  Mn15  1  1.60219309  1.10219309  1.20438619  1.0
  Mn  Mn16  1  0.39780691  0.60219309  0.50000000  1.0
  Mn  Mn17  1  0.89780691  1.10219309  0.50000000  1.0
  Mn  Mn18  1  1.10219309  0.89780691  1.50000000  1.0
  Mn  Mn19  1  1.60219309  1.39780691  1.50000000  1.0
  Mn  Mn20  1  0.39780691  0.89780691  0.79561381  1.0
  Mn  Mn21  1  0.89780691  1.39780691  0.79561381  1.0
  Zr  Zr22  1  -0.00000000  0.80264007  0.80264007  1.0
  Zr  Zr23  1  0.80264007  1.00000000  0.80264007  1.0
  Zr  Zr24  1  1.19735993  1.00000000  1.19735993  1.0
  Zr  Zr25  1  -0.00000000  0.19735993  0.19735993  1.0
  Zr  Zr26  1  0.63904808  0.63904808  0.27809615  1.0
  Zr  Zr27  1  1.36095192  0.63904808  1.00000000  1.0
  Zr  Zr28  1  0.63904808  0.36095192  1.00000000  1.0
  Zr  Zr29  1  0.36095192  0.36095192  0.72190385  1.0
