# generated using pymatgen
data_ZrCu
_symmetry_space_group_name_H-M   'P 1'
_cell_length_a   5.27209373
_cell_length_b   5.27209373
_cell_length_c   5.36502471
_cell_angle_alpha   81.21226561
_cell_angle_beta   98.78773439
_cell_angle_gamma   76.52300964
_symmetry_Int_Tables_number   1
_chemical_formula_structural   ZrCu
_chemical_formula_sum   'Zr4 Cu4'
_cell_volume   140.53205091
_cell_formula_units_Z   4
loop_
 _symmetry_equiv_pos_site_id
 _symmetry_equiv_pos_as_xyz
  1  'x, y, z'
loop_
 _atom_site_type_symbol
 _atom_site_label
 _atom_site_symmetry_multiplicity
 _atom_site_fract_x
 _atom_site_fract_y
 _atom_site_fract_z
 _atom_site_occupancy
  Zr  Zr0  1  0.54357145  -0.09937142  1.02464544  1.0
  Zr  Zr1  1  1.09937142  0.45642855  1.02464544  1.0
  Zr  Zr2  1  0.68256543  -0.68256543  0.40851101  1.0
  Zr  Zr3  1  0.18112133  -0.18112133  0.43626613  1.0
  Cu  Cu4  1  0.71968847  -0.21995786  0.58261068  1.0
  Cu  Cu5  1  1.21995786  0.28031153  0.58261068  1.0
  Cu  Cu6  1  -0.00700222  0.00700222  -0.11901860  1.0
  Cu  Cu7  1  0.57682625  -0.57682625  0.86732922  1.0
