# generated using pymatgen
data_TiTl2O3
_symmetry_space_group_name_H-M   'P 1'
_cell_length_a   12.89076092
_cell_length_b   3.87243234
_cell_length_c   9.98653087
_cell_angle_alpha   90.00000000
_cell_angle_beta   90.00000000
_cell_angle_gamma   90.00000000
_symmetry_Int_Tables_number   1
_chemical_formula_structural   TiTl2O3
_chemical_formula_sum   'Ti4 Tl8 O12'
_cell_volume   498.51363484
_cell_formula_units_Z   4
loop_
 _symmetry_equiv_pos_site_id
 _symmetry_equiv_pos_as_xyz
  1  'x, y, z'
loop_
 _atom_site_type_symbol
 _atom_site_label
 _atom_site_symmetry_multiplicity
 _atom_site_fract_x
 _atom_site_fract_y
 _atom_site_fract_z
 _atom_site_occupancy
  Ti  Ti0  1  0.09648249  0.75000000  0.01552195  1.0
  Ti  Ti1  1  0.59648249  0.75000000  0.48447805  1.0
  Ti  Ti2  1  0.90351751  0.25000000  0.98447805  1.0
  Ti  Ti3  1  0.40351751  0.25000000  0.51552195  1.0
  Tl  Tl4  1  0.38258489  0.75000000  0.83327756  1.0
  Tl  Tl5  1  0.88258489  0.75000000  0.66672244  1.0
  Tl  Tl6  1  0.61741511  0.25000000  0.16672244  1.0
  Tl  Tl7  1  0.11741511  0.25000000  0.33327756  1.0
  Tl  Tl8  1  0.35546981  0.75000000  0.21565074  1.0
  Tl  Tl9  1  0.85546981  0.75000000  0.28434926  1.0
  Tl  Tl10  1  0.64453019  0.25000000  0.78434926  1.0
  Tl  Tl11  1  0.14453019  0.25000000  0.71565074  1.0
  O  O12  1  0.44093945  0.75000000  0.51171619  1.0
  O  O13  1  0.94093945  0.75000000  0.98828381  1.0
  O  O14  1  0.55906055  0.25000000  0.48828381  1.0
  O  O15  1  0.05906055  0.25000000  0.01171619  1.0
  O  O16  1  0.18653523  0.75000000  0.87699871  1.0
  O  O17  1  0.68653523  0.75000000  0.62300129  1.0
  O  O18  1  0.81346477  0.25000000  0.12300129  1.0
  O  O19  1  0.31346477  0.25000000  0.37699871  1.0
  O  O20  1  0.16228796  0.75000000  0.17619334  1.0
  O  O21  1  0.66228796  0.75000000  0.32380666  1.0
  O  O22  1  0.83771204  0.25000000  0.82380666  1.0
  O  O23  1  0.33771204  0.25000000  0.67619334  1.0
