# generated using pymatgen
data_Rb2Ti(Si2O5)3
_symmetry_space_group_name_H-M   'P 1'
_cell_length_a   7.48069457
_cell_length_b   7.48069457
_cell_length_c   15.41064041
_cell_angle_alpha   76.69591528
_cell_angle_beta   103.30408472
_cell_angle_gamma   119.83730682
_symmetry_Int_Tables_number   1
_chemical_formula_structural   Rb2Ti(Si2O5)3
_chemical_formula_sum   'Rb4 Ti2 Si12 O30'
_cell_volume   721.13660501
_cell_formula_units_Z   2
loop_
 _symmetry_equiv_pos_site_id
 _symmetry_equiv_pos_as_xyz
  1  'x, y, z'
loop_
 _atom_site_type_symbol
 _atom_site_label
 _atom_site_symmetry_multiplicity
 _atom_site_fract_x
 _atom_site_fract_y
 _atom_site_fract_z
 _atom_site_occupancy
  Rb  Rb0  1  0.60948571  0.14925719  0.51878596  1.0
  Rb  Rb1  1  0.85074281  0.39051429  0.01878596  1.0
  Rb  Rb2  1  0.38672643  -0.11322246  0.85030144  1.0
  Rb  Rb3  1  1.11322246  0.61327357  0.35030144  1.0
  Ti  Ti4  1  0.27448664  0.24540365  0.94238994  1.0
  Ti  Ti5  1  0.75459635  0.72551336  0.44238994  1.0
  Si  Si6  1  0.89915478  -0.03637200  0.79079356  1.0
  Si  Si7  1  1.03637200  0.10084522  0.29079356  1.0
  Si  Si8  1  0.98575519  0.94971369  0.10319891  1.0
  Si  Si9  1  0.05028631  0.01424481  0.60319891  1.0
  Si  Si10  1  0.61538249  0.50079898  0.78591727  1.0
  Si  Si11  1  0.49920102  0.38461751  0.28591727  1.0
  Si  Si12  1  1.12424580  0.67064953  0.59410952  1.0
  Si  Si13  1  0.32935047  -0.12424580  0.09410952  1.0
  Si  Si14  1  0.96985923  0.38968495  0.78272735  1.0
  Si  Si15  1  0.61031505  0.03014077  0.28272735  1.0
  Si  Si16  1  1.39099086  0.48250316  0.58168075  1.0
  Si  Si17  1  0.51749684  -0.39099086  0.08168075  1.0
  O  O18  1  0.84105874  -0.09155970  0.53461598  1.0
  O  O19  1  1.09155970  0.15894126  0.03461598  1.0
  O  O20  1  1.00444551  0.97248805  0.70682631  1.0
  O  O21  1  0.02751195  -0.00444551  0.20682631  1.0
  O  O22  1  0.68263157  -0.25947132  0.79918344  1.0
  O  O23  1  1.25947132  0.31736843  0.29918344  1.0
  O  O24  1  0.52025045  0.51912692  0.50381537  1.0
  O  O25  1  0.48087308  0.47974955  0.00381537  1.0
  O  O26  1  0.51717711  0.46279401  0.68179261  1.0
  O  O27  1  0.53720599  0.48282289  0.18179261  1.0
  O  O28  1  0.46532930  0.32662786  0.85570060  1.0
  O  O29  1  0.67337214  0.53467070  0.35570060  1.0
  O  O30  1  1.08479726  0.79092033  0.10819052  1.0
  O  O31  1  0.20907967  -0.08479726  0.60819052  1.0
  O  O32  1  0.93202782  0.59712833  0.51461972  1.0
  O  O33  1  0.40287167  0.06797218  0.01461972  1.0
  O  O34  1  0.83236403  0.48252479  0.80630785  1.0
  O  O35  1  0.51747521  0.16763597  0.30630785  1.0
  O  O36  1  1.07037670  0.52369239  0.69086365  1.0
  O  O37  1  0.47630761  -0.07037670  0.19086365  1.0
  O  O38  1  0.81822567  0.14341018  0.76580714  1.0
  O  O39  1  0.85658982  0.18177433  0.26580714  1.0
  O  O40  1  0.32927627  -0.32759570  0.06927099  1.0
  O  O41  1  1.32759570  0.67072373  0.56927099  1.0
  O  O42  1  1.14871780  0.41242232  0.86731789  1.0
  O  O43  1  0.58757768  -0.14871780  0.36731789  1.0
  O  O44  1  1.17034404  0.26572934  0.57228124  1.0
  O  O45  1  0.73427066  -0.17034404  0.07228124  1.0
  O  O46  1  0.06540341  -0.00014172  0.88060199  1.0
  O  O47  1  1.00014172  0.93459659  0.38060199  1.0
