# generated using pymatgen
data_LiMnH6O7
_symmetry_space_group_name_H-M   'P 1'
_cell_length_a   7.75783753
_cell_length_b   7.75783753
_cell_length_c   5.67781389
_cell_angle_alpha   90.00000000
_cell_angle_beta   90.00000000
_cell_angle_gamma   120.00000000
_symmetry_Int_Tables_number   1
_chemical_formula_structural   LiMnH6O7
_chemical_formula_sum   'Li2 Mn2 H12 O14'
_cell_volume   295.93282789
_cell_formula_units_Z   2
loop_
 _symmetry_equiv_pos_site_id
 _symmetry_equiv_pos_as_xyz
  1  'x, y, z'
loop_
 _atom_site_type_symbol
 _atom_site_label
 _atom_site_symmetry_multiplicity
 _atom_site_fract_x
 _atom_site_fract_y
 _atom_site_fract_z
 _atom_site_occupancy
  Li  Li0  1  -0.00000000  -0.00000000  -0.02196470  1.0
  Li  Li1  1  -0.00000000  -0.00000000  0.47803530  1.0
  Mn  Mn2  1  0.33333333  0.66666667  0.27208473  1.0
  Mn  Mn3  1  0.66666667  0.33333333  0.77208473  1.0
  H  H4  1  0.73403971  0.66901320  0.21934954  1.0
  H  H5  1  0.73403971  0.06502651  0.21934954  1.0
  H  H6  1  0.66901320  0.73403971  0.71934954  1.0
  H  H7  1  0.66901320  0.93497349  0.71934954  1.0
  H  H8  1  0.93497349  0.66901320  0.21934954  1.0
  H  H9  1  0.93497349  0.26596029  0.21934954  1.0
  H  H10  1  0.33098680  0.26596029  0.21934954  1.0
  H  H11  1  0.33098680  0.06502651  0.21934954  1.0
  H  H12  1  0.26596029  0.93497349  0.71934954  1.0
  H  H13  1  0.26596029  0.33098680  0.71934954  1.0
  H  H14  1  0.06502651  0.73403971  0.71934954  1.0
  H  H15  1  0.06502651  0.33098680  0.71934954  1.0
  O  O16  1  0.10578753  0.55289377  0.17970145  1.0
  O  O17  1  0.55289377  0.10578753  0.67970145  1.0
  O  O18  1  0.55289377  0.44710623  0.67970145  1.0
  O  O19  1  0.44710623  0.55289377  0.17970145  1.0
  O  O20  1  0.44710623  0.89421247  0.17970145  1.0
  O  O21  1  0.89421247  0.44710623  0.67970145  1.0
  O  O22  1  0.24249979  0.12124989  0.22845548  1.0
  O  O23  1  0.12124989  0.24249979  0.72845548  1.0
  O  O24  1  0.12124989  0.87875011  0.72845548  1.0
  O  O25  1  0.87875011  0.12124989  0.22845548  1.0
  O  O26  1  0.87875011  0.75750021  0.22845548  1.0
  O  O27  1  0.75750021  0.87875011  0.72845548  1.0
  O  O28  1  0.33333333  0.66666667  0.55401199  1.0
  O  O29  1  0.66666667  0.33333333  0.05401199  1.0
