# generated using pymatgen
data_AlAu2
_symmetry_space_group_name_H-M   'P 1'
_cell_length_a   6.84287885
_cell_length_b   3.27629279
_cell_length_c   8.99897336
_cell_angle_alpha   90.00000000
_cell_angle_beta   90.00000000
_cell_angle_gamma   90.00000000
_symmetry_Int_Tables_number   1
_chemical_formula_structural   AlAu2
_chemical_formula_sum   'Al4 Au8'
_cell_volume   201.75045505
_cell_formula_units_Z   4
loop_
 _symmetry_equiv_pos_site_id
 _symmetry_equiv_pos_as_xyz
  1  'x, y, z'
loop_
 _atom_site_type_symbol
 _atom_site_label
 _atom_site_symmetry_multiplicity
 _atom_site_fract_x
 _atom_site_fract_y
 _atom_site_fract_z
 _atom_site_occupancy
  Al  Al0  1  0.86658639  0.75000000  0.72253849  1.0
  Al  Al1  1  0.36658639  0.75000000  0.77746151  1.0
  Al  Al2  1  0.13341361  0.25000000  0.27746151  1.0
  Al  Al3  1  0.63341361  0.25000000  0.22253849  1.0
  Au  Au4  1  0.91493207  0.75000000  0.11566475  1.0
  Au  Au5  1  0.41493207  0.75000000  0.38433525  1.0
  Au  Au6  1  0.08506793  0.25000000  0.88433525  1.0
  Au  Au7  1  0.58506793  0.25000000  0.61566475  1.0
  Au  Au8  1  0.85062611  0.75000000  0.42376446  1.0
  Au  Au9  1  0.35062611  0.75000000  0.07623554  1.0
  Au  Au10  1  0.14937389  0.25000000  0.57623554  1.0
  Au  Au11  1  0.64937389  0.25000000  0.92376446  1.0
