# generated using pymatgen
data_In5Cl9
_symmetry_space_group_name_H-M   'P 1'
_cell_length_a   9.67074649
_cell_length_b   9.67074649
_cell_length_c   9.67074649
_cell_angle_alpha   82.40610524
_cell_angle_beta   82.40610524
_cell_angle_gamma   82.40610524
_symmetry_Int_Tables_number   1
_chemical_formula_structural   In5Cl9
_chemical_formula_sum   'In10 Cl18'
_cell_volume   882.57091828
_cell_formula_units_Z   2
loop_
 _symmetry_equiv_pos_site_id
 _symmetry_equiv_pos_as_xyz
  1  'x, y, z'
loop_
 _atom_site_type_symbol
 _atom_site_label
 _atom_site_symmetry_multiplicity
 _atom_site_fract_x
 _atom_site_fract_y
 _atom_site_fract_z
 _atom_site_occupancy
  In  In0  1  0.54536558  0.25000000  -0.04536558  1.0
  In  In1  1  0.04536558  0.45463442  -0.25000000  1.0
  In  In2  1  0.75000000  0.04536558  -0.54536558  1.0
  In  In3  1  0.25000000  0.95463442  -0.45463442  1.0
  In  In4  1  0.45463442  0.75000000  -0.95463442  1.0
  In  In5  1  0.95463442  -0.45463442  0.25000000  1.0
  In  In6  1  0.34932002  0.34932002  -0.65067998  1.0
  In  In7  1  0.84932002  0.84932002  -0.15067998  1.0
  In  In8  1  1.15067998  1.15067998  0.15067998  1.0
  In  In9  1  0.65067998  0.65067998  -0.34932002  1.0
  Cl  Cl10  1  0.22330902  0.57147449  -0.58191563  1.0
  Cl  Cl11  1  0.72330902  -0.08191563  0.07147449  1.0
  Cl  Cl12  1  1.08191563  -0.07147449  -0.72330902  1.0
  Cl  Cl13  1  0.58191563  0.77669098  -0.57147449  1.0
  Cl  Cl14  1  0.42852551  0.58191563  -0.22330902  1.0
  Cl  Cl15  1  0.92852551  -0.72330902  0.08191563  1.0
  Cl  Cl16  1  0.77669098  0.42852551  -0.41808437  1.0
  Cl  Cl17  1  0.27669098  0.08191563  -0.07147449  1.0
  Cl  Cl18  1  0.41808437  0.22330902  -0.42852551  1.0
  Cl  Cl19  1  0.91808437  0.07147449  -0.27669098  1.0
  Cl  Cl20  1  1.07147449  -0.27669098  -0.08191563  1.0
  Cl  Cl21  1  0.57147449  0.41808437  -0.77669098  1.0
  Cl  Cl22  1  1.09654052  1.25000000  0.40345948  1.0
  Cl  Cl23  1  0.59654052  0.90345948  -0.25000000  1.0
  Cl  Cl24  1  0.75000000  0.59654052  -0.09654052  1.0
  Cl  Cl25  1  1.25000000  1.40345948  0.09654052  1.0
  Cl  Cl26  1  0.90345948  0.75000000  -0.40345948  1.0
  Cl  Cl27  1  1.40345948  1.09654052  0.25000000  1.0
