# generated using pymatgen
data_Sc3Mn3Al7Si5
_symmetry_space_group_name_H-M   'P 1'
_cell_length_a   8.31805701
_cell_length_b   8.31805701
_cell_length_c   8.97462273
_cell_angle_alpha   90.00000000
_cell_angle_beta   90.00000000
_cell_angle_gamma   120.00000000
_symmetry_Int_Tables_number   1
_chemical_formula_structural   Sc3Mn3Al7Si5
_chemical_formula_sum   'Sc6 Mn6 Al14 Si10'
_cell_volume   537.76262893
_cell_formula_units_Z   2
loop_
 _symmetry_equiv_pos_site_id
 _symmetry_equiv_pos_as_xyz
  1  'x, y, z'
loop_
 _atom_site_type_symbol
 _atom_site_label
 _atom_site_symmetry_multiplicity
 _atom_site_fract_x
 _atom_site_fract_y
 _atom_site_fract_z
 _atom_site_occupancy
  Sc  Sc0  1  0.20031008  0.79968992  0.25000000  1.0
  Sc  Sc1  1  0.20031008  0.40062016  0.25000000  1.0
  Sc  Sc2  1  0.79968992  0.20031008  0.75000000  1.0
  Sc  Sc3  1  0.79968992  0.59937984  0.75000000  1.0
  Sc  Sc4  1  0.59937984  0.79968992  0.25000000  1.0
  Sc  Sc5  1  0.40062016  0.20031008  0.75000000  1.0
  Mn  Mn6  1  0.50000000  0.50000000  0.50000000  1.0
  Mn  Mn7  1  0.50000000  0.50000000  0.00000000  1.0
  Mn  Mn8  1  0.50000000  0.00000000  0.50000000  1.0
  Mn  Mn9  1  0.50000000  0.00000000  0.00000000  1.0
  Mn  Mn10  1  -0.00000000  0.50000000  0.50000000  1.0
  Mn  Mn11  1  -0.00000000  0.50000000  0.00000000  1.0
  Al  Al12  1  0.16399302  0.83600698  0.92023726  1.0
  Al  Al13  1  0.16399302  0.83600698  0.57976274  1.0
  Al  Al14  1  0.16399302  0.32798603  0.92023726  1.0
  Al  Al15  1  0.16399302  0.32798603  0.57976274  1.0
  Al  Al16  1  0.83600698  0.16399302  0.42023726  1.0
  Al  Al17  1  0.83600698  0.16399302  0.07976274  1.0
  Al  Al18  1  0.83600698  0.67201397  0.42023726  1.0
  Al  Al19  1  0.83600698  0.67201397  0.07976274  1.0
  Al  Al20  1  0.67201397  0.83600698  0.92023726  1.0
  Al  Al21  1  0.67201397  0.83600698  0.57976274  1.0
  Al  Al22  1  0.32798603  0.16399302  0.42023726  1.0
  Al  Al23  1  0.32798603  0.16399302  0.07976274  1.0
  Al  Al24  1  0.00000000  0.00000000  0.25000000  1.0
  Al  Al25  1  0.00000000  0.00000000  0.75000000  1.0
  Si  Si26  1  0.33333333  0.66666667  0.46034639  1.0
  Si  Si27  1  0.33333333  0.66666667  0.03965361  1.0
  Si  Si28  1  0.66666667  0.33333333  0.96034639  1.0
  Si  Si29  1  0.66666667  0.33333333  0.53965361  1.0
  Si  Si30  1  0.55958928  0.44041072  0.25000000  1.0
  Si  Si31  1  0.55958928  0.11917856  0.25000000  1.0
  Si  Si32  1  0.44041072  0.55958928  0.75000000  1.0
  Si  Si33  1  0.44041072  0.88082144  0.75000000  1.0
  Si  Si34  1  0.88082144  0.44041072  0.25000000  1.0
  Si  Si35  1  0.11917856  0.55958928  0.75000000  1.0
