# generated using pymatgen
data_LaS2
_symmetry_space_group_name_H-M   'P 1'
_cell_length_a   8.17979773
_cell_length_b   16.43828389
_cell_length_c   4.16222112
_cell_angle_alpha   90.00000000
_cell_angle_beta   90.00000000
_cell_angle_gamma   90.00000000
_symmetry_Int_Tables_number   1
_chemical_formula_structural   LaS2
_chemical_formula_sum   'La8 S16'
_cell_volume   559.65989794
_cell_formula_units_Z   8
loop_
 _symmetry_equiv_pos_site_id
 _symmetry_equiv_pos_as_xyz
  1  'x, y, z'
loop_
 _atom_site_type_symbol
 _atom_site_label
 _atom_site_symmetry_multiplicity
 _atom_site_fract_x
 _atom_site_fract_y
 _atom_site_fract_z
 _atom_site_occupancy
  La  La0  1  0.37010436  0.88851021  0.71701203  1.0
  La  La1  1  0.37010436  0.61148979  0.71701203  1.0
  La  La2  1  0.87010436  0.88851021  0.78298797  1.0
  La  La3  1  0.87010436  0.61148979  0.78298797  1.0
  La  La4  1  0.62989564  0.38851021  0.28298797  1.0
  La  La5  1  0.62989564  0.11148979  0.28298797  1.0
  La  La6  1  0.12989564  0.38851021  0.21701203  1.0
  La  La7  1  0.12989564  0.11148979  0.21701203  1.0
  S  S8  1  0.10714312  0.75000000  0.64461695  1.0
  S  S9  1  0.60714312  0.75000000  0.85538305  1.0
  S  S10  1  0.89285688  0.25000000  0.35538305  1.0
  S  S11  1  0.39285688  0.25000000  0.14461695  1.0
  S  S12  1  0.37451438  0.43266661  0.73832082  1.0
  S  S13  1  0.37451438  0.06733339  0.73832082  1.0
  S  S14  1  0.87451438  0.43266661  0.76167918  1.0
  S  S15  1  0.87451438  0.06733339  0.76167918  1.0
  S  S16  1  0.62548562  0.93266661  0.26167918  1.0
  S  S17  1  0.62548562  0.56733339  0.26167918  1.0
  S  S18  1  0.12548562  0.93266661  0.23832082  1.0
  S  S19  1  0.12548562  0.56733339  0.23832082  1.0
  S  S20  1  0.39935639  0.75000000  0.16061012  1.0
  S  S21  1  0.89935639  0.75000000  0.33938988  1.0
  S  S22  1  0.60064361  0.25000000  0.83938988  1.0
  S  S23  1  0.10064361  0.25000000  0.66061012  1.0
