# generated using pymatgen
data_ReN2
_symmetry_space_group_name_H-M   'P 1'
_cell_length_a   6.90199275
_cell_length_b   6.90199275
_cell_length_c   6.90199275
_cell_angle_alpha   156.61703219
_cell_angle_beta   148.63193504
_cell_angle_gamma   39.49197154
_symmetry_Int_Tables_number   1
_chemical_formula_structural   ReN2
_chemical_formula_sum   'Re2 N4'
_cell_volume   67.80970841
_cell_formula_units_Z   2
loop_
 _symmetry_equiv_pos_site_id
 _symmetry_equiv_pos_as_xyz
  1  'x, y, z'
loop_
 _atom_site_type_symbol
 _atom_site_label
 _atom_site_symmetry_multiplicity
 _atom_site_fract_x
 _atom_site_fract_y
 _atom_site_fract_z
 _atom_site_occupancy
  Re  Re0  1  0.84165265  0.84165265  1.00000000  1.0
  Re  Re1  1  0.15834735  0.15834735  0.00000000  1.0
  N  N2  1  0.95027516  0.45027516  0.50000000  1.0
  N  N3  1  0.04972484  0.54972484  0.50000000  1.0
  N  N4  1  0.70773113  0.20773113  0.50000000  1.0
  N  N5  1  0.29226887  0.79226887  0.50000000  1.0
