# generated using pymatgen
data_La3(TaN3)2
_symmetry_space_group_name_H-M   'P 1'
_cell_length_a   10.51251184
_cell_length_b   10.51251184
_cell_length_c   10.51251184
_cell_angle_alpha   157.58940519
_cell_angle_beta   157.58940519
_cell_angle_gamma   31.90223161
_symmetry_Int_Tables_number   1
_chemical_formula_structural   La3(TaN3)2
_chemical_formula_sum   'La3 Ta2 N6'
_cell_volume   168.72706885
_cell_formula_units_Z   1
loop_
 _symmetry_equiv_pos_site_id
 _symmetry_equiv_pos_as_xyz
  1  'x, y, z'
loop_
 _atom_site_type_symbol
 _atom_site_label
 _atom_site_symmetry_multiplicity
 _atom_site_fract_x
 _atom_site_fract_y
 _atom_site_fract_z
 _atom_site_occupancy
  La  La0  1  0.81947263  0.81947263  1.00000000  1.0
  La  La1  1  0.18052737  0.18052737  0.00000000  1.0
  La  La2  1  0.00000000  0.00000000  0.00000000  1.0
  Ta  Ta3  1  0.60095636  0.60095636  1.00000000  1.0
  Ta  Ta4  1  0.39904364  0.39904364  -0.00000000  1.0
  N  N5  1  0.41429647  0.91429647  0.50000000  1.0
  N  N6  1  0.58570353  0.08570353  0.50000000  1.0
  N  N7  1  0.91429647  0.41429647  0.50000000  1.0
  N  N8  1  0.08570353  0.58570353  0.50000000  1.0
  N  N9  1  0.69773372  0.69773372  1.00000000  1.0
  N  N10  1  0.30226628  0.30226628  0.00000000  1.0
