# generated using pymatgen
data_AgSbO12
_symmetry_space_group_name_H-M   'P 1'
_cell_length_a   7.90082150
_cell_length_b   7.90082150
_cell_length_c   7.90082150
_cell_angle_alpha   60.00000000
_cell_angle_beta   60.00000000
_cell_angle_gamma   60.00000000
_symmetry_Int_Tables_number   1
_chemical_formula_structural   AgSbO12
_chemical_formula_sum   'Ag2 Sb2 O24'
_cell_volume   348.73999066
_cell_formula_units_Z   2
loop_
 _symmetry_equiv_pos_site_id
 _symmetry_equiv_pos_as_xyz
  1  'x, y, z'
loop_
 _atom_site_type_symbol
 _atom_site_label
 _atom_site_symmetry_multiplicity
 _atom_site_fract_x
 _atom_site_fract_y
 _atom_site_fract_z
 _atom_site_occupancy
  Ag  Ag0  1  0.50000000  0.50000000  -0.50000000  1.0
  Ag  Ag1  1  0.75000000  -0.25000000  0.75000000  1.0
  Sb  Sb2  1  -0.00000000  1.00000000  0.00000000  1.0
  Sb  Sb3  1  0.25000000  0.25000000  0.25000000  1.0
  O  O4  1  0.80834090  -0.63578063  1.01909882  1.0
  O  O5  1  -0.19165910  1.01909882  0.36421937  1.0
  O  O6  1  -0.11421937  0.44165910  0.44165910  1.0
  O  O7  1  0.23090118  0.44165910  0.44165910  1.0
  O  O8  1  -0.63578063  0.80834090  1.01909882  1.0
  O  O9  1  0.80834090  -0.19165910  1.01909882  1.0
  O  O10  1  0.80834090  0.01909882  0.80834090  1.0
  O  O11  1  -0.63578063  1.01909882  0.80834090  1.0
  O  O12  1  0.44165910  -0.11421937  0.44165910  1.0
  O  O13  1  0.44165910  0.44165910  -0.11421937  1.0
  O  O14  1  0.23090118  0.44165910  -0.11421937  1.0
  O  O15  1  0.23090118  -0.11421937  0.44165910  1.0
  O  O16  1  1.01909882  -0.19165910  0.80834090  1.0
  O  O17  1  -0.63578063  0.80834090  0.80834090  1.0
  O  O18  1  0.44165910  0.23090118  -0.11421937  1.0
  O  O19  1  0.44165910  -0.11421937  0.23090118  1.0
  O  O20  1  0.01909882  0.80834090  0.36421937  1.0
  O  O21  1  1.01909882  -0.63578063  0.80834090  1.0
  O  O22  1  0.80834090  -0.63578063  0.80834090  1.0
  O  O23  1  -0.19165910  0.80834090  0.36421937  1.0
  O  O24  1  0.44165910  0.23090118  0.44165910  1.0
  O  O25  1  -0.11421937  0.23090118  0.44165910  1.0
  O  O26  1  -0.11421937  0.44165910  0.23090118  1.0
  O  O27  1  0.44165910  0.44165910  0.23090118  1.0
