# generated using pymatgen
data_InRhO3
_symmetry_space_group_name_H-M   'P 1'
_cell_length_a   5.47729654
_cell_length_b   7.87207295
_cell_length_c   5.31481325
_cell_angle_alpha   90.00000000
_cell_angle_beta   90.00000000
_cell_angle_gamma   90.00000000
_symmetry_Int_Tables_number   1
_chemical_formula_structural   InRhO3
_chemical_formula_sum   'In4 Rh4 O12'
_cell_volume   229.16240592
_cell_formula_units_Z   4
loop_
 _symmetry_equiv_pos_site_id
 _symmetry_equiv_pos_as_xyz
  1  'x, y, z'
loop_
 _atom_site_type_symbol
 _atom_site_label
 _atom_site_symmetry_multiplicity
 _atom_site_fract_x
 _atom_site_fract_y
 _atom_site_fract_z
 _atom_site_occupancy
  In  In0  1  0.06042424  0.75000000  0.52634112  1.0
  In  In1  1  0.56042424  0.75000000  0.97365888  1.0
  In  In2  1  0.93957576  0.25000000  0.47365888  1.0
  In  In3  1  0.43957576  0.25000000  0.02634112  1.0
  Rh  Rh4  1  0.50000000  0.00000000  0.50000000  1.0
  Rh  Rh5  1  0.50000000  0.50000000  0.50000000  1.0
  Rh  Rh6  1  0.00000000  0.00000000  0.00000000  1.0
  Rh  Rh7  1  0.00000000  0.50000000  0.00000000  1.0
  O  O8  1  0.29530255  0.92085681  0.79817037  1.0
  O  O9  1  0.29530255  0.57914319  0.79817037  1.0
  O  O10  1  0.79530255  0.92085681  0.70182963  1.0
  O  O11  1  0.79530255  0.57914319  0.70182963  1.0
  O  O12  1  0.70469745  0.42085681  0.20182963  1.0
  O  O13  1  0.70469745  0.07914319  0.20182963  1.0
  O  O14  1  0.20469745  0.42085681  0.29817037  1.0
  O  O15  1  0.20469745  0.07914319  0.29817037  1.0
  O  O16  1  0.93179581  0.75000000  0.13643712  1.0
  O  O17  1  0.43179581  0.75000000  0.36356288  1.0
  O  O18  1  0.06820419  0.25000000  0.86356288  1.0
  O  O19  1  0.56820419  0.25000000  0.63643712  1.0
