# generated using pymatgen
data_AlH3NCl3
_symmetry_space_group_name_H-M   'P 1'
_cell_length_a   10.24266949
_cell_length_b   10.19900981
_cell_length_c   12.12803771
_cell_angle_alpha   90.00000000
_cell_angle_beta   90.00000000
_cell_angle_gamma   90.00000000
_symmetry_Int_Tables_number   1
_chemical_formula_structural   AlH3NCl3
_chemical_formula_sum   'Al8 H24 N8 Cl24'
_cell_volume   1266.95650923
_cell_formula_units_Z   8
loop_
 _symmetry_equiv_pos_site_id
 _symmetry_equiv_pos_as_xyz
  1  'x, y, z'
loop_
 _atom_site_type_symbol
 _atom_site_label
 _atom_site_symmetry_multiplicity
 _atom_site_fract_x
 _atom_site_fract_y
 _atom_site_fract_z
 _atom_site_occupancy
  Al  Al0  1  0.83354572  0.40378076  0.34047501  1.0
  Al  Al1  1  0.33354572  0.09621924  0.65952499  1.0
  Al  Al2  1  0.16645428  0.90378076  0.15952499  1.0
  Al  Al3  1  0.66645428  0.59621924  0.84047501  1.0
  Al  Al4  1  0.16645428  0.59621924  0.65952499  1.0
  Al  Al5  1  0.66645428  0.90378076  0.34047501  1.0
  Al  Al6  1  0.83354572  0.09621924  0.84047501  1.0
  Al  Al7  1  0.33354572  0.40378076  0.15952499  1.0
  H  H8  1  0.89950003  0.18035091  0.42069088  1.0
  H  H9  1  0.39950003  0.31964909  0.57930912  1.0
  H  H10  1  0.10049997  0.68035091  0.07930912  1.0
  H  H11  1  0.60049997  0.81964909  0.92069088  1.0
  H  H12  1  0.10049997  0.81964909  0.57930912  1.0
  H  H13  1  0.60049997  0.68035091  0.42069088  1.0
  H  H14  1  0.89950003  0.31964909  0.92069088  1.0
  H  H15  1  0.39950003  0.18035091  0.07930912  1.0
  H  H16  1  0.96800146  0.29984361  0.49252696  1.0
  H  H17  1  0.46800146  0.20015639  0.50747304  1.0
  H  H18  1  0.03199854  0.79984361  0.00747304  1.0
  H  H19  1  0.53199854  0.70015639  0.99252696  1.0
  H  H20  1  0.03199854  0.70015639  0.50747304  1.0
  H  H21  1  0.53199854  0.79984361  0.49252696  1.0
  H  H22  1  0.96800146  0.20015639  0.99252696  1.0
  H  H23  1  0.46800146  0.29984361  0.00747304  1.0
  H  H24  1  1.02873647  0.25752461  0.37192877  1.0
  H  H25  1  0.52873647  0.24247539  0.62807123  1.0
  H  H26  1  -0.02873647  0.75752461  0.12807123  1.0
  H  H27  1  0.47126353  0.74247539  0.87192877  1.0
  H  H28  1  -0.02873647  0.74247539  0.62807123  1.0
  H  H29  1  0.47126353  0.75752461  0.37192877  1.0
  H  H30  1  1.02873647  0.24247539  0.87192877  1.0
  H  H31  1  0.52873647  0.25752461  0.12807123  1.0
  N  N32  1  0.94242040  0.27144580  0.41388006  1.0
  N  N33  1  0.44242040  0.22855420  0.58611994  1.0
  N  N34  1  0.05757960  0.77144580  0.08611994  1.0
  N  N35  1  0.55757960  0.72855420  0.91388006  1.0
  N  N36  1  0.05757960  0.72855420  0.58611994  1.0
  N  N37  1  0.55757960  0.77144580  0.41388006  1.0
  N  N38  1  0.94242040  0.22855420  0.91388006  1.0
  N  N39  1  0.44242040  0.27144580  0.08611994  1.0
  Cl  Cl40  1  0.66856383  0.44004896  0.44474032  1.0
  Cl  Cl41  1  0.16856383  0.05995104  0.55525968  1.0
  Cl  Cl42  1  0.33143617  0.94004896  0.05525968  1.0
  Cl  Cl43  1  0.83143617  0.55995104  0.94474032  1.0
  Cl  Cl44  1  0.33143617  0.55995104  0.55525968  1.0
  Cl  Cl45  1  0.83143617  0.94004896  0.44474032  1.0
  Cl  Cl46  1  0.66856383  0.05995104  0.94474032  1.0
  Cl  Cl47  1  0.16856383  0.44004896  0.05525968  1.0
  Cl  Cl48  1  0.78033808  0.32248741  0.18450637  1.0
  Cl  Cl49  1  0.28033808  0.17751259  0.81549363  1.0
  Cl  Cl50  1  0.21966192  0.82248741  0.31549363  1.0
  Cl  Cl51  1  0.71966192  0.67751259  0.68450637  1.0
  Cl  Cl52  1  0.21966192  0.67751259  0.81549363  1.0
  Cl  Cl53  1  0.71966192  0.82248741  0.18450637  1.0
  Cl  Cl54  1  0.78033808  0.17751259  0.68450637  1.0
  Cl  Cl55  1  0.28033808  0.32248741  0.31549363  1.0
  Cl  Cl56  1  0.95830712  0.57247432  0.33155073  1.0
  Cl  Cl57  1  0.45830712  0.92752568  0.66844927  1.0
  Cl  Cl58  1  0.04169288  0.07247432  0.16844927  1.0
  Cl  Cl59  1  0.54169288  0.42752568  0.83155073  1.0
  Cl  Cl60  1  0.04169288  0.42752568  0.66844927  1.0
  Cl  Cl61  1  0.54169288  0.07247432  0.33155073  1.0
  Cl  Cl62  1  0.95830712  0.92752568  0.83155073  1.0
  Cl  Cl63  1  0.45830712  0.57247432  0.16844927  1.0
