# generated using pymatgen
data_Li2NiGeO4
_symmetry_space_group_name_H-M   'P 1'
_cell_length_a   10.88267416
_cell_length_b   6.51270089
_cell_length_c   5.01254322
_cell_angle_alpha   90.00000000
_cell_angle_beta   90.00000000
_cell_angle_gamma   90.00000000
_symmetry_Int_Tables_number   1
_chemical_formula_structural   Li2NiGeO4
_chemical_formula_sum   'Li8 Ni4 Ge4 O16'
_cell_volume   355.26701711
_cell_formula_units_Z   4
loop_
 _symmetry_equiv_pos_site_id
 _symmetry_equiv_pos_as_xyz
  1  'x, y, z'
loop_
 _atom_site_type_symbol
 _atom_site_label
 _atom_site_symmetry_multiplicity
 _atom_site_fract_x
 _atom_site_fract_y
 _atom_site_fract_z
 _atom_site_occupancy
  Ni  Ni0  1  0.65563237  0.25000000  0.19172448  1.0
  Ni  Ni1  1  0.15563237  0.25000000  0.30827552  1.0
  Ni  Ni2  1  0.34436763  0.75000000  0.80827552  1.0
  Ni  Ni3  1  0.84436763  0.75000000  0.69172448  1.0
  Li  Li4  1  0.91226416  0.49929541  0.18907639  1.0
  Li  Li5  1  0.91226416  0.00070459  0.18907639  1.0
  Li  Li6  1  0.41226416  0.49929541  0.31092361  1.0
  Li  Li7  1  0.41226416  0.00070459  0.31092361  1.0
  Li  Li8  1  0.08773584  0.99929541  0.81092361  1.0
  Li  Li9  1  0.08773584  0.50070459  0.81092361  1.0
  Li  Li10  1  0.58773584  0.99929541  0.68907639  1.0
  Li  Li11  1  0.58773584  0.50070459  0.68907639  1.0
  O  O12  1  0.59297157  0.97634421  0.28792023  1.0
  O  O13  1  0.59297157  0.52365579  0.28792023  1.0
  O  O14  1  0.09297157  0.97634421  0.21207977  1.0
  O  O15  1  0.09297157  0.52365579  0.21207977  1.0
  O  O16  1  0.40702843  0.47634421  0.71207977  1.0
  O  O17  1  0.40702843  0.02365579  0.71207977  1.0
  O  O18  1  0.90702843  0.47634421  0.78792023  1.0
  O  O19  1  0.90702843  0.02365579  0.78792023  1.0
  O  O20  1  0.82884825  0.25000000  0.32239585  1.0
  O  O21  1  0.32884825  0.25000000  0.17760415  1.0
  O  O22  1  0.17115175  0.75000000  0.67760415  1.0
  O  O23  1  0.67115175  0.75000000  0.82239585  1.0
  O  O24  1  0.67445301  0.25000000  0.79604396  1.0
  O  O25  1  0.17445301  0.25000000  0.70395604  1.0
  O  O26  1  0.32554699  0.75000000  0.20395604  1.0
  O  O27  1  0.82554699  0.75000000  0.29604396  1.0
  Ge  Ge28  1  0.82998840  0.25000000  0.67935593  1.0
  Ge  Ge29  1  0.32998840  0.25000000  0.82064407  1.0
  Ge  Ge30  1  0.17001160  0.75000000  0.32064407  1.0
  Ge  Ge31  1  0.67001160  0.75000000  0.17935593  1.0
