# generated using pymatgen
data_LiH2N3O
_symmetry_space_group_name_H-M   'P 1'
_cell_length_a   9.23675759
_cell_length_b   9.23675759
_cell_length_c   5.64490356
_cell_angle_alpha   90.00000000
_cell_angle_beta   90.00000000
_cell_angle_gamma   120.00000000
_symmetry_Int_Tables_number   1
_chemical_formula_structural   LiH2N3O
_chemical_formula_sum   'Li6 H12 N18 O6'
_cell_volume   417.08661270
_cell_formula_units_Z   6
loop_
 _symmetry_equiv_pos_site_id
 _symmetry_equiv_pos_as_xyz
  1  'x, y, z'
loop_
 _atom_site_type_symbol
 _atom_site_label
 _atom_site_symmetry_multiplicity
 _atom_site_fract_x
 _atom_site_fract_y
 _atom_site_fract_z
 _atom_site_occupancy
  Li  Li0  1  0.33333333  0.66666667  0.50000000  1.0
  Li  Li1  1  0.33333333  0.66666667  0.00000000  1.0
  Li  Li2  1  0.66666667  0.33333333  0.50000000  1.0
  Li  Li3  1  0.66666667  0.33333333  0.00000000  1.0
  Li  Li4  1  0.00000000  0.00000000  0.50000000  1.0
  Li  Li5  1  0.00000000  0.00000000  0.00000000  1.0
  H  H6  1  0.19162549  0.90080670  0.25000000  1.0
  H  H7  1  0.19162549  0.29081879  0.75000000  1.0
  H  H8  1  0.90080670  0.19162549  0.25000000  1.0
  H  H9  1  0.90080670  0.70918121  0.75000000  1.0
  H  H10  1  0.70918121  0.90080670  0.75000000  1.0
  H  H11  1  0.70918121  0.80837451  0.25000000  1.0
  H  H12  1  0.09919330  0.80837451  0.75000000  1.0
  H  H13  1  0.09919330  0.29081879  0.25000000  1.0
  H  H14  1  0.80837451  0.70918121  0.25000000  1.0
  H  H15  1  0.80837451  0.09919330  0.75000000  1.0
  H  H16  1  0.29081879  0.19162549  0.75000000  1.0
  H  H17  1  0.29081879  0.09919330  0.25000000  1.0
  N  N18  1  0.14750498  0.67216692  0.25000000  1.0
  N  N19  1  0.14750498  0.47533806  0.75000000  1.0
  N  N20  1  0.67216692  0.14750498  0.25000000  1.0
  N  N21  1  0.67216692  0.52466194  0.75000000  1.0
  N  N22  1  0.52466194  0.67216692  0.75000000  1.0
  N  N23  1  0.52466194  0.85249502  0.25000000  1.0
  N  N24  1  0.32783308  0.85249502  0.75000000  1.0
  N  N25  1  0.32783308  0.47533806  0.25000000  1.0
  N  N26  1  0.85249502  0.52466194  0.25000000  1.0
  N  N27  1  0.85249502  0.32783308  0.75000000  1.0
  N  N28  1  0.47533806  0.14750498  0.75000000  1.0
  N  N29  1  0.47533806  0.32783308  0.25000000  1.0
  N  N30  1  0.40378027  0.40378027  0.25000000  1.0
  N  N31  1  0.40378027  0.00000000  0.75000000  1.0
  N  N32  1  0.00000000  0.40378027  0.75000000  1.0
  N  N33  1  0.00000000  0.59621973  0.25000000  1.0
  N  N34  1  0.59621973  0.59621973  0.75000000  1.0
  N  N35  1  0.59621973  0.00000000  0.25000000  1.0
  O  O36  1  0.82223738  0.82223738  0.25000000  1.0
  O  O37  1  0.82223738  0.00000000  0.75000000  1.0
  O  O38  1  0.00000000  0.82223738  0.75000000  1.0
  O  O39  1  0.00000000  0.17776262  0.25000000  1.0
  O  O40  1  0.17776262  0.17776262  0.75000000  1.0
  O  O41  1  0.17776262  0.00000000  0.25000000  1.0
