# generated using pymatgen
data_Li2RuO3
_symmetry_space_group_name_H-M   'P 1'
_cell_length_a   5.08713106
_cell_length_b   5.08713106
_cell_length_c   5.19333456
_cell_angle_alpha   80.63526336
_cell_angle_beta   99.36473664
_cell_angle_gamma   59.47856914
_symmetry_Int_Tables_number   1
_chemical_formula_structural   Li2RuO3
_chemical_formula_sum   'Li4 Ru2 O6'
_cell_volume   109.36952150
_cell_formula_units_Z   2
loop_
 _symmetry_equiv_pos_site_id
 _symmetry_equiv_pos_as_xyz
  1  'x, y, z'
loop_
 _atom_site_type_symbol
 _atom_site_label
 _atom_site_symmetry_multiplicity
 _atom_site_fract_x
 _atom_site_fract_y
 _atom_site_fract_z
 _atom_site_occupancy
  Li  Li0  1  0.66004089  -0.33995911  0.50000000  1.0
  Li  Li1  1  0.33995911  0.33995911  0.50000000  1.0
  Li  Li2  1  -0.00000000  0.00000000  0.50000000  1.0
  Li  Li3  1  0.50000000  -0.50000000  0.00000000  1.0
  Ru  Ru4  1  0.82939637  -0.17060363  0.00000000  1.0
  Ru  Ru5  1  0.17060363  0.17060363  -0.00000000  1.0
  O  O6  1  0.42288939  -0.07947743  0.76085944  1.0
  O  O7  1  1.07947743  -0.42288939  0.76085944  1.0
  O  O8  1  0.92052257  -0.57711061  0.23914056  1.0
  O  O9  1  0.57711061  0.07947743  0.23914056  1.0
  O  O10  1  0.76910092  -0.76910092  0.76839821  1.0
  O  O11  1  0.23089908  -0.23089908  0.23160179  1.0
