# generated using pymatgen
data_CrCl3
_symmetry_space_group_name_H-M   'P 1'
_cell_length_a   7.54372072
_cell_length_b   7.54372072
_cell_length_c   7.54372072
_cell_angle_alpha   47.41324777
_cell_angle_beta   47.41324777
_cell_angle_gamma   47.41324777
_symmetry_Int_Tables_number   1
_chemical_formula_structural   CrCl3
_chemical_formula_sum   'Cr2 Cl6'
_cell_volume   212.91375403
_cell_formula_units_Z   2
loop_
 _symmetry_equiv_pos_site_id
 _symmetry_equiv_pos_as_xyz
  1  'x, y, z'
loop_
 _atom_site_type_symbol
 _atom_site_label
 _atom_site_symmetry_multiplicity
 _atom_site_fract_x
 _atom_site_fract_y
 _atom_site_fract_z
 _atom_site_occupancy
  Cr  Cr0  1  0.16665389  0.16665389  0.16665389  1.0
  Cr  Cr1  1  0.83334611  -0.16665389  -0.16665389  1.0
  Cl  Cl2  1  0.43342534  0.07278658  -0.20603874  1.0
  Cl  Cl3  1  1.20603874  -0.43342534  -0.07278658  1.0
  Cl  Cl4  1  0.92721342  0.20603874  -0.43342534  1.0
  Cl  Cl5  1  0.56657466  -0.07278658  0.20603874  1.0
  Cl  Cl6  1  0.79396126  -0.56657466  0.07278658  1.0
  Cl  Cl7  1  1.07278658  -0.20603874  -0.56657466  1.0
