# generated using pymatgen
data_Si2Pd9
_symmetry_space_group_name_H-M   'P 1'
_cell_length_a   9.14984165
_cell_length_b   7.51367211
_cell_length_c   9.50576188
_cell_angle_alpha   90.00000000
_cell_angle_beta   90.00000000
_cell_angle_gamma   90.00000000
_symmetry_Int_Tables_number   1
_chemical_formula_structural   Si2Pd9
_chemical_formula_sum   'Si8 Pd36'
_cell_volume   653.51076870
_cell_formula_units_Z   4
loop_
 _symmetry_equiv_pos_site_id
 _symmetry_equiv_pos_as_xyz
  1  'x, y, z'
loop_
 _atom_site_type_symbol
 _atom_site_label
 _atom_site_symmetry_multiplicity
 _atom_site_fract_x
 _atom_site_fract_y
 _atom_site_fract_z
 _atom_site_occupancy
  Si  Si0  1  0.36970285  0.75000000  0.78893193  1.0
  Si  Si1  1  0.86970285  0.75000000  0.71106807  1.0
  Si  Si2  1  0.63029715  0.25000000  0.21106807  1.0
  Si  Si3  1  0.13029715  0.25000000  0.28893193  1.0
  Si  Si4  1  0.22690014  0.75000000  0.17846408  1.0
  Si  Si5  1  0.72690014  0.75000000  0.32153592  1.0
  Si  Si6  1  0.77309986  0.25000000  0.82153592  1.0
  Si  Si7  1  0.27309986  0.25000000  0.67846408  1.0
  Pd  Pd8  1  0.38787462  0.94251741  0.59386759  1.0
  Pd  Pd9  1  0.38787462  0.55748259  0.59386759  1.0
  Pd  Pd10  1  0.88787462  0.94251741  0.90613241  1.0
  Pd  Pd11  1  0.88787462  0.55748259  0.90613241  1.0
  Pd  Pd12  1  0.61212538  0.44251741  0.40613241  1.0
  Pd  Pd13  1  0.61212538  0.05748259  0.40613241  1.0
  Pd  Pd14  1  0.11212538  0.44251741  0.09386759  1.0
  Pd  Pd15  1  0.11212538  0.05748259  0.09386759  1.0
  Pd  Pd16  1  0.31751016  0.44134751  0.87774948  1.0
  Pd  Pd17  1  0.31751016  0.05865249  0.87774948  1.0
  Pd  Pd18  1  0.81751016  0.44134751  0.62225052  1.0
  Pd  Pd19  1  0.81751016  0.05865249  0.62225052  1.0
  Pd  Pd20  1  0.68248984  0.94134751  0.12225052  1.0
  Pd  Pd21  1  0.68248984  0.55865249  0.12225052  1.0
  Pd  Pd22  1  0.18248984  0.94134751  0.37774948  1.0
  Pd  Pd23  1  0.18248984  0.55865249  0.37774948  1.0
  Pd  Pd24  1  0.10193359  0.93409377  0.68078488  1.0
  Pd  Pd25  1  0.10193359  0.56590623  0.68078488  1.0
  Pd  Pd26  1  0.60193359  0.93409377  0.81921512  1.0
  Pd  Pd27  1  0.60193359  0.56590623  0.81921512  1.0
  Pd  Pd28  1  0.89806641  0.43409377  0.31921512  1.0
  Pd  Pd29  1  0.89806641  0.06590623  0.31921512  1.0
  Pd  Pd30  1  0.39806641  0.43409377  0.18078488  1.0
  Pd  Pd31  1  0.39806641  0.06590623  0.18078488  1.0
  Pd  Pd32  1  0.44956813  0.75000000  0.33568929  1.0
  Pd  Pd33  1  0.94956813  0.75000000  0.16431071  1.0
  Pd  Pd34  1  0.55043187  0.25000000  0.66431071  1.0
  Pd  Pd35  1  0.05043187  0.25000000  0.83568929  1.0
  Pd  Pd36  1  0.44085303  0.75000000  0.03062740  1.0
  Pd  Pd37  1  0.94085303  0.75000000  0.46937260  1.0
  Pd  Pd38  1  0.55914697  0.25000000  0.96937260  1.0
  Pd  Pd39  1  0.05914697  0.25000000  0.53062740  1.0
  Pd  Pd40  1  0.14918006  0.75000000  0.93225508  1.0
  Pd  Pd41  1  0.64918006  0.75000000  0.56774492  1.0
  Pd  Pd42  1  0.85081994  0.25000000  0.06774492  1.0
  Pd  Pd43  1  0.35081994  0.25000000  0.43225508  1.0
