# generated using pymatgen
data_NaFePO4
_symmetry_space_group_name_H-M   'P 1'
_cell_length_a   11.55194150
_cell_length_b   6.45626324
_cell_length_c   4.80817923
_cell_angle_alpha   90.00000000
_cell_angle_beta   90.00000000
_cell_angle_gamma   90.00000000
_symmetry_Int_Tables_number   1
_chemical_formula_structural   NaFePO4
_chemical_formula_sum   'Na4 Fe4 P4 O16'
_cell_volume   358.60542754
_cell_formula_units_Z   4
loop_
 _symmetry_equiv_pos_site_id
 _symmetry_equiv_pos_as_xyz
  1  'x, y, z'
loop_
 _atom_site_type_symbol
 _atom_site_label
 _atom_site_symmetry_multiplicity
 _atom_site_fract_x
 _atom_site_fract_y
 _atom_site_fract_z
 _atom_site_occupancy
  Na  Na0  1  0.27836969  0.25000000  0.01872083  1.0
  Na  Na1  1  0.77836969  0.25000000  0.48127917  1.0
  Na  Na2  1  0.72163031  0.75000000  0.98127917  1.0
  Na  Na3  1  0.22163031  0.75000000  0.51872083  1.0
  Fe  Fe4  1  0.00000000  0.50000000  -0.00000000  1.0
  Fe  Fe5  1  0.50000000  0.00000000  0.50000000  1.0
  Fe  Fe6  1  0.00000000  0.00000000  0.00000000  1.0
  Fe  Fe7  1  0.50000000  0.50000000  0.50000000  1.0
  P  P8  1  0.08191671  0.25000000  0.58997630  1.0
  P  P9  1  0.58191671  0.25000000  0.91002370  1.0
  P  P10  1  0.91808329  0.75000000  0.41002370  1.0
  P  P11  1  0.41808329  0.75000000  0.08997630  1.0
  O  O12  1  0.07707199  0.25000000  0.26492054  1.0
  O  O13  1  0.57707199  0.25000000  0.23507946  1.0
  O  O14  1  0.92292801  0.75000000  0.73507946  1.0
  O  O15  1  0.42292801  0.75000000  0.76492054  1.0
  O  O16  1  0.45596953  0.25000000  0.77356761  1.0
  O  O17  1  0.95596953  0.25000000  0.72643239  1.0
  O  O18  1  0.54403047  0.75000000  0.22643239  1.0
  O  O19  1  0.04403047  0.75000000  0.27356761  1.0
  O  O20  1  0.14073438  0.44794933  0.70967220  1.0
  O  O21  1  0.64073438  0.05205067  0.79032780  1.0
  O  O22  1  0.85926562  0.94794933  0.29032780  1.0
  O  O23  1  0.35926562  0.55205067  0.20967220  1.0
  O  O24  1  0.85926562  0.55205067  0.29032780  1.0
  O  O25  1  0.35926562  0.94794933  0.20967220  1.0
  O  O26  1  0.14073438  0.05205067  0.70967220  1.0
  O  O27  1  0.64073438  0.44794933  0.79032780  1.0
