# generated using pymatgen
data_PWC5Br3O5
_symmetry_space_group_name_H-M   'P 1'
_cell_length_a   7.34850756
_cell_length_b   14.77783548
_cell_length_c   14.41960840
_cell_angle_alpha   90.00000000
_cell_angle_beta   92.41008811
_cell_angle_gamma   90.00000000
_symmetry_Int_Tables_number   1
_chemical_formula_structural   PWC5Br3O5
_chemical_formula_sum   'P4 W4 C20 Br12 O20'
_cell_volume   1564.51276062
_cell_formula_units_Z   4
loop_
 _symmetry_equiv_pos_site_id
 _symmetry_equiv_pos_as_xyz
  1  'x, y, z'
loop_
 _atom_site_type_symbol
 _atom_site_label
 _atom_site_symmetry_multiplicity
 _atom_site_fract_x
 _atom_site_fract_y
 _atom_site_fract_z
 _atom_site_occupancy
  P  P0  1  0.80951469  0.35984373  0.33816978  1.0
  P  P1  1  0.80951469  0.14015627  0.83816978  1.0
  P  P2  1  0.19048531  0.85984373  0.16183022  1.0
  P  P3  1  0.19048531  0.64015627  0.66183022  1.0
  W  W4  1  0.78895385  0.20226885  0.39110458  1.0
  W  W5  1  0.78895385  0.29773115  0.89110458  1.0
  W  W6  1  0.21104615  0.70226885  0.10889542  1.0
  W  W7  1  0.21104615  0.79773115  0.60889542  1.0
  C  C8  1  0.96584267  0.66947133  0.16371206  1.0
  C  C9  1  0.96584267  0.83052867  0.66371206  1.0
  C  C10  1  0.03415733  0.16947133  0.33628794  1.0
  C  C11  1  0.03415733  0.33052867  0.83628794  1.0
  C  C12  1  0.92071515  0.26108042  0.01394095  1.0
  C  C13  1  0.92071515  0.23891958  0.51394095  1.0
  C  C14  1  0.07928485  0.76108042  0.48605905  1.0
  C  C15  1  0.07928485  0.73891958  0.98605905  1.0
  C  C16  1  0.76612573  0.07414018  0.43753464  1.0
  C  C17  1  0.76612573  0.42585982  0.93753464  1.0
  C  C18  1  0.23387427  0.57414018  0.06246536  1.0
  C  C19  1  0.23387427  0.92585982  0.56246536  1.0
  C  C20  1  0.66115183  0.16419477  0.26775556  1.0
  C  C21  1  0.66115183  0.33580523  0.76775556  1.0
  C  C22  1  0.33884817  0.66419477  0.23224444  1.0
  C  C23  1  0.33884817  0.83580523  0.73224444  1.0
  C  C24  1  0.54379969  0.23327950  0.44642834  1.0
  C  C25  1  0.54379969  0.26672050  0.94642834  1.0
  C  C26  1  0.45620031  0.73327950  0.05357166  1.0
  C  C27  1  0.45620031  0.76672050  0.55357166  1.0
  Br  Br28  1  0.91795608  0.91040624  0.20369989  1.0
  Br  Br29  1  0.91795608  0.58959376  0.70369989  1.0
  Br  Br30  1  0.08204392  0.41040624  0.29630011  1.0
  Br  Br31  1  0.08204392  0.08959376  0.79630011  1.0
  Br  Br32  1  0.73502446  0.46590951  0.44050953  1.0
  Br  Br33  1  0.73502446  0.03409049  0.94050953  1.0
  Br  Br34  1  0.26497554  0.96590951  0.05949047  1.0
  Br  Br35  1  0.26497554  0.53409049  0.55949047  1.0
  Br  Br36  1  0.63206467  0.40102426  0.21464328  1.0
  Br  Br37  1  0.63206467  0.09897574  0.71464328  1.0
  Br  Br38  1  0.36793533  0.90102426  0.28535672  1.0
  Br  Br39  1  0.36793533  0.59897574  0.78535672  1.0
  O  O40  1  -0.00646776  0.24111802  0.08349875  1.0
  O  O41  1  -0.00646776  0.25888198  0.58349875  1.0
  O  O42  1  1.00646776  0.74111802  0.41650125  1.0
  O  O43  1  1.00646776  0.75888198  0.91650125  1.0
  O  O44  1  0.75145879  1.00049331  0.46398978  1.0
  O  O45  1  0.75145879  0.49950669  0.96398978  1.0
  O  O46  1  0.24854121  0.50049331  0.03601022  1.0
  O  O47  1  0.24854121  -0.00049331  0.53601022  1.0
  O  O48  1  0.59233324  0.14167613  0.19807224  1.0
  O  O49  1  0.59233324  0.35832387  0.69807224  1.0
  O  O50  1  0.40766676  0.64167613  0.30192776  1.0
  O  O51  1  0.40766676  0.85832387  0.80192776  1.0
  O  O52  1  0.40632427  0.25019853  0.47844963  1.0
  O  O53  1  0.40632427  0.24980147  0.97844963  1.0
  O  O54  1  0.59367573  0.75019853  0.02155037  1.0
  O  O55  1  0.59367573  0.74980147  0.52155037  1.0
  O  O56  1  0.17111238  0.14977804  0.30548174  1.0
  O  O57  1  0.17111238  0.35022196  0.80548174  1.0
  O  O58  1  0.82888762  0.64977804  0.19451826  1.0
  O  O59  1  0.82888762  0.85022196  0.69451826  1.0
