# generated using pymatgen
data_BaPb
_symmetry_space_group_name_H-M   'P 1'
_cell_length_a   6.97485035
_cell_length_b   6.97485035
_cell_length_c   4.87397060
_cell_angle_alpha   90.00000000
_cell_angle_beta   90.00000000
_cell_angle_gamma   134.54764405
_symmetry_Int_Tables_number   1
_chemical_formula_structural   BaPb
_chemical_formula_sum   'Ba2 Pb2'
_cell_volume   168.98165746
_cell_formula_units_Z   2
loop_
 _symmetry_equiv_pos_site_id
 _symmetry_equiv_pos_as_xyz
  1  'x, y, z'
loop_
 _atom_site_type_symbol
 _atom_site_label
 _atom_site_symmetry_multiplicity
 _atom_site_fract_x
 _atom_site_fract_y
 _atom_site_fract_z
 _atom_site_occupancy
  Ba  Ba0  1  0.36689611  0.63310389  0.75000000  1.0
  Ba  Ba1  1  -0.36689611  0.36689611  0.25000000  1.0
  Pb  Pb2  1  0.07868667  0.92131333  0.75000000  1.0
  Pb  Pb3  1  -0.07868667  0.07868667  0.25000000  1.0
