# generated using pymatgen
data_Mg3(HO2)2
_symmetry_space_group_name_H-M   'P 1'
_cell_length_a   3.06686559
_cell_length_b   3.06686559
_cell_length_c   19.73404512
_cell_angle_alpha   90.00000000
_cell_angle_beta   90.00000000
_cell_angle_gamma   120.00000000
_symmetry_Int_Tables_number   1
_chemical_formula_structural   Mg3(HO2)2
_chemical_formula_sum   'Mg6 H4 O8'
_cell_volume   160.74454122
_cell_formula_units_Z   2
loop_
 _symmetry_equiv_pos_site_id
 _symmetry_equiv_pos_as_xyz
  1  'x, y, z'
loop_
 _atom_site_type_symbol
 _atom_site_label
 _atom_site_symmetry_multiplicity
 _atom_site_fract_x
 _atom_site_fract_y
 _atom_site_fract_z
 _atom_site_occupancy
  Mg  Mg0  1  0.00000000  0.00000000  0.87717335  1.0
  Mg  Mg1  1  0.00000000  0.00000000  0.12282665  1.0
  Mg  Mg2  1  0.66666667  0.33333333  0.62937219  1.0
  Mg  Mg3  1  0.33333333  0.66666667  0.37062781  1.0
  Mg  Mg4  1  0.33333333  0.66666667  0.75327801  1.0
  Mg  Mg5  1  0.66666667  0.33333333  0.24672199  1.0
  H  H6  1  0.33333333  0.66666667  0.52684333  1.0
  H  H7  1  0.66666667  0.33333333  0.47315667  1.0
  H  H8  1  0.33333333  0.66666667  0.97986257  1.0
  H  H9  1  0.66666667  0.33333333  0.02013743  1.0
  O  O10  1  0.33333333  0.66666667  0.57579000  1.0
  O  O11  1  0.66666667  0.33333333  0.42421000  1.0
  O  O12  1  0.00000000  0.00000000  0.69151082  1.0
  O  O13  1  0.00000000  0.00000000  0.30848918  1.0
  O  O14  1  0.66666667  0.33333333  0.81504921  1.0
  O  O15  1  0.33333333  0.66666667  0.18495079  1.0
  O  O16  1  0.33333333  0.66666667  0.93082074  1.0
  O  O17  1  0.66666667  0.33333333  0.06917926  1.0
