# generated using pymatgen
data_La(Mo3S4)2
_symmetry_space_group_name_H-M   'P 1'
_cell_length_a   6.55962236
_cell_length_b   6.55962236
_cell_length_c   6.55962236
_cell_angle_alpha   88.92688455
_cell_angle_beta   88.92688455
_cell_angle_gamma   88.92688455
_symmetry_Int_Tables_number   1
_chemical_formula_structural   La(Mo3S4)2
_chemical_formula_sum   'La1 Mo6 S8'
_cell_volume   282.10498133
_cell_formula_units_Z   1
loop_
 _symmetry_equiv_pos_site_id
 _symmetry_equiv_pos_as_xyz
  1  'x, y, z'
loop_
 _atom_site_type_symbol
 _atom_site_label
 _atom_site_symmetry_multiplicity
 _atom_site_fract_x
 _atom_site_fract_y
 _atom_site_fract_z
 _atom_site_occupancy
  La  La0  1  0.00000000  0.00000000  0.00000000  1.0
  Mo  Mo1  1  0.43741665  0.58003506  -0.22758112  1.0
  Mo  Mo2  1  0.41996494  0.22758112  -0.43741665  1.0
  Mo  Mo3  1  0.22758112  0.56258335  -0.58003506  1.0
  Mo  Mo4  1  0.56258335  0.41996494  -0.77241888  1.0
  Mo  Mo5  1  0.58003506  0.77241888  -0.56258335  1.0
  Mo  Mo6  1  0.77241888  0.43741665  -0.41996494  1.0
  S  S7  1  0.87296599  0.62378700  -0.74663441  1.0
  S  S8  1  0.37621300  0.74663441  -0.87296599  1.0
  S  S9  1  0.74663441  0.12703401  -0.62378700  1.0
  S  S10  1  0.12703401  0.37621300  -0.25336559  1.0
  S  S11  1  0.62378700  0.25336559  -0.12703401  1.0
  S  S12  1  0.25336559  0.87296599  -0.37621300  1.0
  S  S13  1  0.75547714  0.75547714  -0.24452286  1.0
  S  S14  1  1.24452286  1.24452286  0.24452286  1.0
