# generated using pymatgen
data_Rb3PdF5
_symmetry_space_group_name_H-M   'P 1'
_cell_length_a   7.61888448
_cell_length_b   7.61888448
_cell_length_c   6.53533139
_cell_angle_alpha   90.00000000
_cell_angle_beta   90.00000000
_cell_angle_gamma   90.00000000
_symmetry_Int_Tables_number   1
_chemical_formula_structural   Rb3PdF5
_chemical_formula_sum   'Rb6 Pd2 F10'
_cell_volume   379.35899989
_cell_formula_units_Z   2
loop_
 _symmetry_equiv_pos_site_id
 _symmetry_equiv_pos_as_xyz
  1  'x, y, z'
loop_
 _atom_site_type_symbol
 _atom_site_label
 _atom_site_symmetry_multiplicity
 _atom_site_fract_x
 _atom_site_fract_y
 _atom_site_fract_z
 _atom_site_occupancy
  Rb  Rb0  1  0.32302745  0.17697255  0.50000000  1.0
  Rb  Rb1  1  0.82302745  0.32302745  0.50000000  1.0
  Rb  Rb2  1  0.67697255  0.82302745  0.50000000  1.0
  Rb  Rb3  1  0.17697255  0.67697255  0.50000000  1.0
  Rb  Rb4  1  0.50000000  0.50000000  0.00000000  1.0
  Rb  Rb5  1  0.00000000  0.00000000  0.00000000  1.0
  Pd  Pd6  1  0.50000000  0.00000000  0.00000000  1.0
  Pd  Pd7  1  0.00000000  0.50000000  0.00000000  1.0
  F  F8  1  0.86867063  0.63132937  0.78734140  1.0
  F  F9  1  0.86867063  0.63132937  0.21265860  1.0
  F  F10  1  0.36867063  0.86867063  0.78734140  1.0
  F  F11  1  0.36867063  0.86867063  0.21265860  1.0
  F  F12  1  0.13132937  0.36867063  0.78734140  1.0
  F  F13  1  0.13132937  0.36867063  0.21265860  1.0
  F  F14  1  0.63132937  0.13132937  0.78734140  1.0
  F  F15  1  0.63132937  0.13132937  0.21265860  1.0
  F  F16  1  0.50000000  0.50000000  0.50000000  1.0
  F  F17  1  0.00000000  0.00000000  0.50000000  1.0
