# generated using pymatgen
data_K3Li2Nb5O15
_symmetry_space_group_name_H-M   'P 1'
_cell_length_a   12.59343462
_cell_length_b   12.59343462
_cell_length_c   4.22550198
_cell_angle_alpha   90.00000000
_cell_angle_beta   90.00000000
_cell_angle_gamma   90.00000000
_symmetry_Int_Tables_number   1
_chemical_formula_structural   K3Li2Nb5O15
_chemical_formula_sum   'K6 Li4 Nb10 O30'
_cell_volume   670.14177711
_cell_formula_units_Z   2
loop_
 _symmetry_equiv_pos_site_id
 _symmetry_equiv_pos_as_xyz
  1  'x, y, z'
loop_
 _atom_site_type_symbol
 _atom_site_label
 _atom_site_symmetry_multiplicity
 _atom_site_fract_x
 _atom_site_fract_y
 _atom_site_fract_z
 _atom_site_occupancy
  K  K0  1  0.32788460  0.17211540  -0.01469792  1.0
  K  K1  1  0.82788460  0.32788460  -0.01469792  1.0
  K  K2  1  0.67211540  0.82788460  -0.01469792  1.0
  K  K3  1  0.17211540  0.67211540  -0.01469792  1.0
  K  K4  1  0.50000000  0.50000000  -0.00369469  1.0
  K  K5  1  0.00000000  0.00000000  -0.00369469  1.0
  Li  Li6  1  0.87595897  0.62404103  -0.07869477  1.0
  Li  Li7  1  0.37595897  0.87595897  -0.07869477  1.0
  Li  Li8  1  0.12404103  0.37595897  -0.07869477  1.0
  Li  Li9  1  0.62404103  0.12404103  -0.07869477  1.0
  Nb  Nb10  1  0.42422256  0.70826430  0.47929887  1.0
  Nb  Nb11  1  0.92422256  0.79173570  0.47929887  1.0
  Nb  Nb12  1  0.29173570  0.42422256  0.47929887  1.0
  Nb  Nb13  1  0.79173570  0.07577744  0.47929887  1.0
  Nb  Nb14  1  0.57577744  0.29173570  0.47929887  1.0
  Nb  Nb15  1  0.07577744  0.20826430  0.47929887  1.0
  Nb  Nb16  1  0.70826430  0.57577744  0.47929887  1.0
  Nb  Nb17  1  0.20826430  0.92422256  0.47929887  1.0
  Nb  Nb18  1  0.00000000  0.50000000  0.48524288  1.0
  Nb  Nb19  1  0.50000000  0.00000000  0.48524288  1.0
  O  O20  1  0.49709903  0.84605479  0.56731226  1.0
  O  O21  1  0.99709903  0.65394521  0.56731226  1.0
  O  O22  1  0.15394521  0.49709903  0.56731226  1.0
  O  O23  1  0.65394521  0.00290097  0.56731226  1.0
  O  O24  1  0.50290097  0.15394521  0.56731226  1.0
  O  O25  1  0.00290097  0.34605479  0.56731226  1.0
  O  O26  1  0.84605479  0.50290097  0.56731226  1.0
  O  O27  1  0.34605479  0.99709903  0.56731226  1.0
  O  O28  1  0.42030261  0.71718914  0.04725011  1.0
  O  O29  1  0.92030261  0.78281086  0.04725011  1.0
  O  O30  1  0.28281086  0.42030261  0.04725011  1.0
  O  O31  1  0.78281086  0.07969739  0.04725011  1.0
  O  O32  1  0.57969739  0.28281086  0.04725011  1.0
  O  O33  1  0.07969739  0.21718914  0.04725011  1.0
  O  O34  1  0.71718914  0.57969739  0.04725011  1.0
  O  O35  1  0.21718914  0.92030261  0.04725011  1.0
  O  O36  1  0.35851340  0.56901146  0.53285569  1.0
  O  O37  1  0.85851340  0.93098854  0.53285569  1.0
  O  O38  1  0.43098854  0.35851340  0.53285569  1.0
  O  O39  1  0.93098854  0.14148660  0.53285569  1.0
  O  O40  1  0.64148660  0.43098854  0.53285569  1.0
  O  O41  1  0.14148660  0.06901146  0.53285569  1.0
  O  O42  1  0.56901146  0.64148660  0.53285569  1.0
  O  O43  1  0.06901146  0.85851340  0.53285569  1.0
  O  O44  1  0.78955940  0.71044060  0.55358346  1.0
  O  O45  1  0.28955940  0.78955940  0.55358346  1.0
  O  O46  1  0.21044060  0.28955940  0.55358346  1.0
  O  O47  1  0.71044060  0.21044060  0.55358346  1.0
  O  O48  1  0.00000000  0.50000000  1.04980258  1.0
  O  O49  1  0.50000000  0.00000000  1.04980258  1.0
