# generated using pymatgen
data_Ba3Ga3N5
_symmetry_space_group_name_H-M   'P 1'
_cell_length_a   9.45748826
_cell_length_b   9.45748826
_cell_length_c   11.74029659
_cell_angle_alpha   72.37854285
_cell_angle_beta   107.62145715
_cell_angle_gamma   127.27576705
_symmetry_Int_Tables_number   1
_chemical_formula_structural   Ba3Ga3N5
_chemical_formula_sum   'Ba12 Ga12 N20'
_cell_volume   786.45896261
_cell_formula_units_Z   4
loop_
 _symmetry_equiv_pos_site_id
 _symmetry_equiv_pos_as_xyz
  1  'x, y, z'
loop_
 _atom_site_type_symbol
 _atom_site_label
 _atom_site_symmetry_multiplicity
 _atom_site_fract_x
 _atom_site_fract_y
 _atom_site_fract_z
 _atom_site_occupancy
  Ba  Ba0  1  0.66832090  0.08017217  0.66172332  1.0
  Ba  Ba1  1  0.91982783  0.33167910  0.16172332  1.0
  Ba  Ba2  1  1.08017217  0.66832090  0.83827668  1.0
  Ba  Ba3  1  0.33167910  -0.08017217  0.33827668  1.0
  Ba  Ba4  1  0.59705004  0.22024795  0.88435448  1.0
  Ba  Ba5  1  0.77975205  0.40294996  0.38435448  1.0
  Ba  Ba6  1  1.22024795  0.59705004  0.61564552  1.0
  Ba  Ba7  1  0.40294996  -0.22024795  0.11564552  1.0
  Ba  Ba8  1  0.66111952  0.66111952  0.75000000  1.0
  Ba  Ba9  1  0.33888048  0.33888048  0.25000000  1.0
  Ba  Ba10  1  0.15367931  0.15367931  0.75000000  1.0
  Ba  Ba11  1  0.84632069  0.84632069  0.25000000  1.0
  Ga  Ga12  1  0.85250540  0.01106146  0.50213394  1.0
  Ga  Ga13  1  0.98893854  0.14749460  0.00213394  1.0
  Ga  Ga14  1  1.01106146  0.85250540  0.99786606  1.0
  Ga  Ga15  1  0.14749460  -0.01106146  0.49786606  1.0
  Ga  Ga16  1  1.35515356  0.51453357  0.94281205  1.0
  Ga  Ga17  1  0.48546643  -0.35515356  0.44281205  1.0
  Ga  Ga18  1  0.51453357  0.35515356  0.55718795  1.0
  Ga  Ga19  1  0.64484644  0.48546643  0.05718795  1.0
  Ga  Ga20  1  0.65735873  -0.14627133  0.94917760  1.0
  Ga  Ga21  1  1.14627133  0.34264127  0.44917760  1.0
  Ga  Ga22  1  0.85372867  0.65735873  0.55082240  1.0
  Ga  Ga23  1  0.34264127  0.14627133  0.05082240  1.0
  N  N24  1  0.88189518  -0.02754593  0.88155358  1.0
  N  N25  1  1.02754593  0.11810482  0.38155358  1.0
  N  N26  1  0.97245407  0.88189518  0.61844642  1.0
  N  N27  1  0.11810482  0.02754593  0.11844642  1.0
  N  N28  1  0.59363036  -0.13214797  0.49905193  1.0
  N  N29  1  1.13214797  0.40636964  0.99905193  1.0
  N  N30  1  0.86785203  0.59363036  0.00094807  1.0
  N  N31  1  0.40636964  0.13214797  0.50094807  1.0
  N  N32  1  0.43478895  -0.25251650  0.82489860  1.0
  N  N33  1  1.25251650  0.56521105  0.32489860  1.0
  N  N34  1  0.74748350  0.43478895  0.67510140  1.0
  N  N35  1  0.56521105  0.25251650  0.17510140  1.0
  N  N36  1  0.25515739  -0.04896555  0.96104771  1.0
  N  N37  1  1.04896555  0.74484261  0.46104771  1.0
  N  N38  1  0.95103445  0.25515739  0.53895229  1.0
  N  N39  1  0.74484261  0.04896555  0.03895229  1.0
  N  N40  1  0.42807608  0.36751614  0.92076809  1.0
  N  N41  1  0.63248386  0.57192392  0.42076809  1.0
  N  N42  1  1.36751614  0.42807608  0.57923191  1.0
  N  N43  1  0.57192392  -0.36751614  0.07923191  1.0
