# generated using pymatgen
data_Lu2Mg3Ru
_symmetry_space_group_name_H-M   'P 1'
_cell_length_a   3.34274893
_cell_length_b   3.34274893
_cell_length_c   12.25760123
_cell_angle_alpha   90.00000000
_cell_angle_beta   90.00000000
_cell_angle_gamma   90.00000000
_symmetry_Int_Tables_number   1
_chemical_formula_structural   Lu2Mg3Ru
_chemical_formula_sum   'Lu2 Mg3 Ru1'
_cell_volume   136.96607330
_cell_formula_units_Z   1
loop_
 _symmetry_equiv_pos_site_id
 _symmetry_equiv_pos_as_xyz
  1  'x, y, z'
loop_
 _atom_site_type_symbol
 _atom_site_label
 _atom_site_symmetry_multiplicity
 _atom_site_fract_x
 _atom_site_fract_y
 _atom_site_fract_z
 _atom_site_occupancy
  Lu  Lu0  1  0.50000000  0.50000000  0.86779909  1.0
  Lu  Lu1  1  0.50000000  0.50000000  0.13220091  1.0
  Mg  Mg2  1  0.00000000  0.00000000  0.66685771  1.0
  Mg  Mg3  1  0.00000000  0.00000000  0.33314229  1.0
  Mg  Mg4  1  0.50000000  0.50000000  0.50000000  1.0
  Ru  Ru5  1  0.00000000  0.00000000  0.00000000  1.0
