# generated using pymatgen
data_C2S3(NO)4
_symmetry_space_group_name_H-M   'P 1'
_cell_length_a   8.40463328
_cell_length_b   8.40463328
_cell_length_c   9.29505721
_cell_angle_alpha   59.52432798
_cell_angle_beta   120.47567202
_cell_angle_gamma   117.73729521
_symmetry_Int_Tables_number   1
_chemical_formula_structural   C2S3(NO)4
_chemical_formula_sum   'C4 S6 N8 O8'
_cell_volume   468.14476415
_cell_formula_units_Z   2
loop_
 _symmetry_equiv_pos_site_id
 _symmetry_equiv_pos_as_xyz
  1  'x, y, z'
loop_
 _atom_site_type_symbol
 _atom_site_label
 _atom_site_symmetry_multiplicity
 _atom_site_fract_x
 _atom_site_fract_y
 _atom_site_fract_z
 _atom_site_occupancy
  C  C0  1  1.41522500  0.51172482  0.74929607  1.0
  C  C1  1  0.51172482  0.41522500  0.75070393  1.0
  C  C2  1  0.58477500  -0.51172482  0.25070393  1.0
  C  C3  1  1.48827518  -0.41522500  0.24929607  1.0
  S  S4  1  0.47121484  -0.26432549  0.75394980  1.0
  S  S5  1  0.73567451  0.47121484  0.74605020  1.0
  S  S6  1  1.52878516  0.26432549  0.24605020  1.0
  S  S7  1  1.26432549  -0.47121484  0.25394980  1.0
  S  S8  1  0.86547188  0.86547188  0.75000000  1.0
  S  S9  1  0.13452812  0.13452812  0.25000000  1.0
  N  N10  1  0.67893816  -0.12916335  0.74629654  1.0
  N  N11  1  0.87083665  0.67893816  0.75370346  1.0
  N  N12  1  1.32106184  0.12916335  0.25370346  1.0
  N  N13  1  1.12916335  -0.67893816  0.24629654  1.0
  N  N14  1  1.20817818  -0.57680258  0.72593110  1.0
  N  N15  1  0.42319742  0.20817818  0.77406890  1.0
  N  N16  1  0.79182182  0.57680258  0.27406890  1.0
  N  N17  1  1.57680258  -0.20817818  0.22593110  1.0
  O  O18  1  1.15413699  -0.54713809  0.80981721  1.0
  O  O19  1  0.45286191  0.15413699  0.69018279  1.0
  O  O20  1  0.84586301  0.54713809  0.19018279  1.0
  O  O21  1  1.54713809  -0.15413699  0.30981721  1.0
  O  O22  1  1.10354939  -0.66266888  0.62049366  1.0
  O  O23  1  0.33733112  0.10354939  0.87950634  1.0
  O  O24  1  0.89645061  0.66266888  0.37950634  1.0
  O  O25  1  1.66266888  -0.10354939  0.12049366  1.0
