# generated using pymatgen
data_Gd12(OsC3)5
_symmetry_space_group_name_H-M   'P 1'
_cell_length_a   10.79687407
_cell_length_b   10.79687407
_cell_length_c   5.16048461
_cell_angle_alpha   90.00000000
_cell_angle_beta   90.00000000
_cell_angle_gamma   120.00000000
_symmetry_Int_Tables_number   1
_chemical_formula_structural   Gd12(OsC3)5
_chemical_formula_sum   'Gd12 Os5 C15'
_cell_volume   520.97536855
_cell_formula_units_Z   1
loop_
 _symmetry_equiv_pos_site_id
 _symmetry_equiv_pos_as_xyz
  1  'x, y, z'
loop_
 _atom_site_type_symbol
 _atom_site_label
 _atom_site_symmetry_multiplicity
 _atom_site_fract_x
 _atom_site_fract_y
 _atom_site_fract_z
 _atom_site_occupancy
  Gd  Gd0  1  0.18458757  0.72743621  0.00000000  1.0
  Gd  Gd1  1  0.72743621  0.18458757  0.00000000  1.0
  Gd  Gd2  1  0.54284864  0.81541243  0.00000000  1.0
  Gd  Gd3  1  0.27256379  0.45715136  0.00000000  1.0
  Gd  Gd4  1  0.81541243  0.54284864  0.00000000  1.0
  Gd  Gd5  1  0.45715136  0.27256379  0.00000000  1.0
  Gd  Gd6  1  0.56661016  0.56661016  0.50000000  1.0
  Gd  Gd7  1  -0.00000000  0.43338984  0.50000000  1.0
  Gd  Gd8  1  0.43338984  0.00000000  0.50000000  1.0
  Gd  Gd9  1  0.20708204  0.20708204  0.50000000  1.0
  Gd  Gd10  1  0.00000000  0.79291796  0.50000000  1.0
  Gd  Gd11  1  0.79291796  0.00000000  0.50000000  1.0
  Os  Os12  1  0.84076214  0.84076214  0.00000000  1.0
  Os  Os13  1  0.00000000  0.15923786  0.00000000  1.0
  Os  Os14  1  0.15923786  0.00000000  0.00000000  1.0
  Os  Os15  1  0.33333333  0.66666667  0.50000000  1.0
  Os  Os16  1  0.66666667  0.33333333  0.50000000  1.0
  C  C17  1  0.18432907  0.71344345  0.50000000  1.0
  C  C18  1  0.71344345  0.18432907  0.50000000  1.0
  C  C19  1  0.52911438  0.81567093  0.50000000  1.0
  C  C20  1  0.28655655  0.47088562  0.50000000  1.0
  C  C21  1  0.81567093  0.52911438  0.50000000  1.0
  C  C22  1  0.47088562  0.28655655  0.50000000  1.0
  C  C23  1  0.66652613  0.66652613  0.00000000  1.0
  C  C24  1  -0.00000000  0.33347387  0.00000000  1.0
  C  C25  1  0.33347387  0.00000000  0.00000000  1.0
  C  C26  1  0.54265628  0.54265628  0.00000000  1.0
  C  C27  1  -0.00000000  0.45734372  0.00000000  1.0
  C  C28  1  0.45734372  0.00000000  0.00000000  1.0
  C  C29  1  0.20634581  0.20634581  0.00000000  1.0
  C  C30  1  0.00000000  0.79365419  0.00000000  1.0
  C  C31  1  0.79365419  0.00000000  0.00000000  1.0
