# generated using pymatgen
data_AlPO4
_symmetry_space_group_name_H-M   'P 1'
_cell_length_a   11.13895960
_cell_length_b   5.07270144
_cell_length_c   9.01579652
_cell_angle_alpha   90.00000000
_cell_angle_beta   90.42988386
_cell_angle_gamma   90.00000000
_symmetry_Int_Tables_number   1
_chemical_formula_structural   AlPO4
_chemical_formula_sum   'Al6 P6 O24'
_cell_volume   509.41978518
_cell_formula_units_Z   6
loop_
 _symmetry_equiv_pos_site_id
 _symmetry_equiv_pos_as_xyz
  1  'x, y, z'
loop_
 _atom_site_type_symbol
 _atom_site_label
 _atom_site_symmetry_multiplicity
 _atom_site_fract_x
 _atom_site_fract_y
 _atom_site_fract_z
 _atom_site_occupancy
  Al  Al0  1  0.83367782  0.76653007  0.48902252  1.0
  Al  Al1  1  0.83367782  0.23346993  0.98902252  1.0
  Al  Al2  1  0.16632218  0.76653007  0.01097748  1.0
  Al  Al3  1  0.16632218  0.23346993  0.51097748  1.0
  Al  Al4  1  0.50000000  0.52703713  0.75000000  1.0
  Al  Al5  1  0.50000000  0.47296287  0.25000000  1.0
  P  P6  1  -0.00000000  0.97406417  0.75000000  1.0
  P  P7  1  0.00000000  0.02593583  0.25000000  1.0
  P  P8  1  0.33255111  0.73771675  0.48933642  1.0
  P  P9  1  0.33255111  0.26228325  0.98933642  1.0
  P  P10  1  0.66744889  0.73771675  0.01066358  1.0
  P  P11  1  0.66744889  0.26228325  0.51066358  1.0
  O  O12  1  0.60778926  0.33413615  0.65921770  1.0
  O  O13  1  0.60778926  0.66586385  0.15921770  1.0
  O  O14  1  0.39221074  0.33413615  0.84078230  1.0
  O  O15  1  0.39221074  0.66586385  0.34078230  1.0
  O  O16  1  0.94046443  0.79404629  0.63260488  1.0
  O  O17  1  0.94046443  0.20595371  0.13260488  1.0
  O  O18  1  0.05953557  0.79404629  0.86739512  1.0
  O  O19  1  0.05953557  0.20595371  0.36739512  1.0
  O  O20  1  0.90383395  0.84751238  0.32129027  1.0
  O  O21  1  0.90383395  0.15248762  0.82129027  1.0
  O  O22  1  0.09616605  0.84751238  0.17870973  1.0
  O  O23  1  0.09616605  0.15248762  0.67870973  1.0
  O  O24  1  0.77669100  0.55640169  0.98082843  1.0
  O  O25  1  0.77669100  0.44359831  0.48082843  1.0
  O  O26  1  0.22330900  0.55640169  0.51917157  1.0
  O  O27  1  0.22330900  0.44359831  0.01917157  1.0
  O  O28  1  0.71075509  0.97455818  0.52199381  1.0
  O  O29  1  0.71075509  0.02544182  0.02199381  1.0
  O  O30  1  0.28924491  0.97455818  0.97800619  1.0
  O  O31  1  0.28924491  0.02544182  0.47800619  1.0
  O  O32  1  0.57549470  0.72010604  0.88212307  1.0
  O  O33  1  0.57549470  0.27989396  0.38212307  1.0
  O  O34  1  0.42450530  0.72010604  0.61787693  1.0
  O  O35  1  0.42450530  0.27989396  0.11787693  1.0
