# generated using pymatgen
data_MnGeO3
_symmetry_space_group_name_H-M   'P 1'
_cell_length_a   5.64401626
_cell_length_b   5.64401626
_cell_length_c   5.64401626
_cell_angle_alpha   53.57115665
_cell_angle_beta   53.57115665
_cell_angle_gamma   53.57115665
_symmetry_Int_Tables_number   1
_chemical_formula_structural   MnGeO3
_chemical_formula_sum   'Mn2 Ge2 O6'
_cell_volume   108.01094018
_cell_formula_units_Z   2
loop_
 _symmetry_equiv_pos_site_id
 _symmetry_equiv_pos_as_xyz
  1  'x, y, z'
loop_
 _atom_site_type_symbol
 _atom_site_label
 _atom_site_symmetry_multiplicity
 _atom_site_fract_x
 _atom_site_fract_y
 _atom_site_fract_z
 _atom_site_occupancy
  Mn  Mn0  1  0.36711702  0.36711702  -0.63288298  1.0
  Mn  Mn1  1  0.63288298  0.63288298  -0.36711702  1.0
  Ge  Ge2  1  0.15732569  0.15732569  0.15732569  1.0
  Ge  Ge3  1  0.84267431  -0.15732569  -0.15732569  1.0
  O  O4  1  0.43882613  0.04466542  -0.20736290  1.0
  O  O5  1  1.20736290  -0.43882613  -0.04466542  1.0
  O  O6  1  0.95533458  0.20736290  -0.43882613  1.0
  O  O7  1  0.56117387  -0.04466542  0.20736290  1.0
  O  O8  1  0.79263710  -0.56117387  0.04466542  1.0
  O  O9  1  1.04466542  -0.20736290  -0.56117387  1.0
