# generated using pymatgen
data_Li2La2Si3
_symmetry_space_group_name_H-M   'P 1'
_cell_length_a   9.67551135
_cell_length_b   9.67551135
_cell_length_c   6.91300034
_cell_angle_alpha   90.00000000
_cell_angle_beta   90.00000000
_cell_angle_gamma   153.02859544
_symmetry_Int_Tables_number   1
_chemical_formula_structural   Li2La2Si3
_chemical_formula_sum   'Li4 La4 Si6'
_cell_volume   293.51854029
_cell_formula_units_Z   2
loop_
 _symmetry_equiv_pos_site_id
 _symmetry_equiv_pos_as_xyz
  1  'x, y, z'
loop_
 _atom_site_type_symbol
 _atom_site_label
 _atom_site_symmetry_multiplicity
 _atom_site_fract_x
 _atom_site_fract_y
 _atom_site_fract_z
 _atom_site_occupancy
  Li  Li0  1  -0.81254438  0.81254438  0.93860466  1.0
  Li  Li1  1  -0.81254438  0.81254438  0.56139534  1.0
  Li  Li2  1  -0.18745562  1.18745562  0.43860466  1.0
  Li  Li3  1  -0.18745562  1.18745562  0.06139534  1.0
  La  La4  1  -0.55187216  0.55187216  0.25000000  1.0
  La  La5  1  -0.44812784  1.44812784  0.75000000  1.0
  La  La6  1  -0.34015649  1.34015649  0.25000000  1.0
  La  La7  1  -0.65984351  0.65984351  0.75000000  1.0
  Si  Si8  1  -0.72001306  0.72001306  0.25000000  1.0
  Si  Si9  1  -0.27998694  1.27998694  0.75000000  1.0
  Si  Si10  1  -0.94308249  0.94308249  0.42333167  1.0
  Si  Si11  1  -0.94308249  0.94308249  0.07666833  1.0
  Si  Si12  1  -0.05691751  1.05691751  0.92333167  1.0
  Si  Si13  1  -0.05691751  1.05691751  0.57666833  1.0
