# generated using pymatgen
data_LaCu4P3
_symmetry_space_group_name_H-M   'P 1'
_cell_length_a   5.82143749
_cell_length_b   5.82143749
_cell_length_c   7.36600282
_cell_angle_alpha   90.00000000
_cell_angle_beta   90.00000000
_cell_angle_gamma   90.00000000
_symmetry_Int_Tables_number   1
_chemical_formula_structural   LaCu4P3
_chemical_formula_sum   'La2 Cu8 P6'
_cell_volume   249.62745961
_cell_formula_units_Z   2
loop_
 _symmetry_equiv_pos_site_id
 _symmetry_equiv_pos_as_xyz
  1  'x, y, z'
loop_
 _atom_site_type_symbol
 _atom_site_label
 _atom_site_symmetry_multiplicity
 _atom_site_fract_x
 _atom_site_fract_y
 _atom_site_fract_z
 _atom_site_occupancy
  La  La0  1  0.50000000  0.00000000  0.02267022  1.0
  La  La1  1  0.00000000  0.50000000  0.97732978  1.0
  Cu  Cu2  1  0.72939430  0.22939430  0.67365058  1.0
  Cu  Cu3  1  0.72939430  0.77060570  0.67365058  1.0
  Cu  Cu4  1  0.22939430  0.72939430  0.32634942  1.0
  Cu  Cu5  1  0.22939430  0.27060570  0.32634942  1.0
  Cu  Cu6  1  0.77060570  0.72939430  0.32634942  1.0
  Cu  Cu7  1  0.77060570  0.27060570  0.32634942  1.0
  Cu  Cu8  1  0.27060570  0.22939430  0.67365058  1.0
  Cu  Cu9  1  0.27060570  0.77060570  0.67365058  1.0
  P  P10  1  0.00000000  0.00000000  0.15507006  1.0
  P  P11  1  0.50000000  0.50000000  0.84492994  1.0
  P  P12  1  0.50000000  0.50000000  0.15507006  1.0
  P  P13  1  0.00000000  0.00000000  0.84492994  1.0
  P  P14  1  0.50000000  0.00000000  0.47110714  1.0
  P  P15  1  0.00000000  0.50000000  0.52889286  1.0
