# generated using pymatgen
data_Na4Zr2(GeO4)3
_symmetry_space_group_name_H-M   'P 1'
_cell_length_a   9.37576178
_cell_length_b   9.37576178
_cell_length_c   9.37576178
_cell_angle_alpha   61.45885936
_cell_angle_beta   61.45885936
_cell_angle_gamma   61.45885936
_symmetry_Int_Tables_number   1
_chemical_formula_structural   Na4Zr2(GeO4)3
_chemical_formula_sum   'Na8 Zr4 Ge6 O24'
_cell_volume   601.87024769
_cell_formula_units_Z   2
loop_
 _symmetry_equiv_pos_site_id
 _symmetry_equiv_pos_as_xyz
  1  'x, y, z'
loop_
 _atom_site_type_symbol
 _atom_site_label
 _atom_site_symmetry_multiplicity
 _atom_site_fract_x
 _atom_site_fract_y
 _atom_site_fract_z
 _atom_site_occupancy
  Na  Na0  1  0.62962595  0.25012513  -0.12880494  1.0
  Na  Na1  1  0.74987487  0.12880494  -0.62962595  1.0
  Na  Na2  1  1.12880494  -0.62962595  -0.25012513  1.0
  Na  Na3  1  0.37037405  -0.25012513  0.12880494  1.0
  Na  Na4  1  0.25012513  0.87119506  -0.37037405  1.0
  Na  Na5  1  0.87119506  0.62962595  -0.74987487  1.0
  Na  Na6  1  0.50000000  0.50000000  -0.50000000  1.0
  Na  Na7  1  0.00000000  0.00000000  0.00000000  1.0
  Zr  Zr8  1  0.85577965  0.85577965  -0.14422035  1.0
  Zr  Zr9  1  1.14422035  1.14422035  0.14422035  1.0
  Zr  Zr10  1  0.64435786  0.64435786  -0.35564214  1.0
  Zr  Zr11  1  0.35564214  0.35564214  -0.64435786  1.0
  Ge  Ge12  1  0.75018244  -0.54379862  0.04377184  1.0
  Ge  Ge13  1  0.54379862  -0.04377184  0.24981756  1.0
  Ge  Ge14  1  0.95622816  0.24981756  -0.45620138  1.0
  Ge  Ge15  1  0.24981756  0.54379862  -0.04377184  1.0
  Ge  Ge16  1  0.45620138  0.04377184  -0.24981756  1.0
  Ge  Ge17  1  1.04377184  -0.24981756  -0.54379862  1.0
  O  O18  1  0.79804526  -0.36630529  0.00816104  1.0
  O  O19  1  0.36630529  0.99183896  -0.79804526  1.0
  O  O20  1  0.99183896  0.20195474  -0.63369471  1.0
  O  O21  1  0.20195474  0.36630529  -0.00816104  1.0
  O  O22  1  0.63369471  0.00816104  -0.20195474  1.0
  O  O23  1  1.00816104  -0.20195474  -0.36630529  1.0
  O  O24  1  0.42466618  0.55841848  -0.23704953  1.0
  O  O25  1  0.44158152  0.23704953  -0.42466618  1.0
  O  O26  1  0.23704953  0.57533382  -0.55841848  1.0
  O  O27  1  0.57533382  0.44158152  -0.76295047  1.0
  O  O28  1  0.55841848  0.76295047  -0.57533382  1.0
  O  O29  1  0.76295047  0.42466618  -0.44158152  1.0
  O  O30  1  0.73997528  -0.06441046  0.07901411  1.0
  O  O31  1  1.06441046  -0.07901411  -0.73997528  1.0
  O  O32  1  0.92098589  -0.73997528  0.06441046  1.0
  O  O33  1  0.26002472  0.06441046  -0.07901411  1.0
  O  O34  1  0.93558954  0.07901411  -0.26002472  1.0
  O  O35  1  1.07901411  -0.26002472  -0.06441046  1.0
  O  O36  1  0.49038902  0.86391627  -0.29320927  1.0
  O  O37  1  1.13608373  1.29320927  0.50961098  1.0
  O  O38  1  1.29320927  1.50961098  0.13608373  1.0
  O  O39  1  1.50961098  1.13608373  0.29320927  1.0
  O  O40  1  0.86391627  0.70679073  -0.50961098  1.0
  O  O41  1  0.70679073  0.49038902  -0.13608373  1.0
