# generated using pymatgen
data_Sr2SnH18(SeO3)4
_symmetry_space_group_name_H-M   'P 1'
_cell_length_a   6.01016971
_cell_length_b   9.45970865
_cell_length_c   8.59450532
_cell_angle_alpha   73.58985516
_cell_angle_beta   69.47463013
_cell_angle_gamma   76.57799614
_symmetry_Int_Tables_number   1
_chemical_formula_structural   Sr2SnH18(SeO3)4
_chemical_formula_sum   'Sr2 Sn1 H18 Se4 O12'
_cell_volume   434.13219809
_cell_formula_units_Z   1
loop_
 _symmetry_equiv_pos_site_id
 _symmetry_equiv_pos_as_xyz
  1  'x, y, z'
loop_
 _atom_site_type_symbol
 _atom_site_label
 _atom_site_symmetry_multiplicity
 _atom_site_fract_x
 _atom_site_fract_y
 _atom_site_fract_z
 _atom_site_occupancy
  Sr  Sr0  1  -0.36621414  -0.96057340  0.70273109  1.0
  Sr  Sr1  1  0.36621414  -0.03942660  0.29726891  1.0
  Sn  Sn2  1  0.00000000  0.00000000  0.00000000  1.0
  H  H3  1  0.64740181  -0.39363801  0.34522358  1.0
  H  H4  1  -0.64740181  -0.60636199  0.65477642  1.0
  H  H5  1  0.16047639  -0.14372421  0.69912123  1.0
  H  H6  1  -0.16047639  -0.85627579  0.30087877  1.0
  H  H7  1  0.17907173  -0.86194525  0.60367402  1.0
  H  H8  1  -0.17907173  -0.13805475  0.39632598  1.0
  H  H9  1  0.70035926  -0.76944025  0.09691056  1.0
  H  H10  1  -0.70035926  -0.23055975  0.90308944  1.0
  H  H11  1  0.32369221  -0.75791516  0.44127935  1.0
  H  H12  1  -0.32369221  -0.24208484  0.55872065  1.0
  H  H13  1  0.39419530  -0.39976480  0.33562794  1.0
  H  H14  1  -0.39419530  -0.60023520  0.66437206  1.0
  H  H15  1  0.05146659  -0.24402889  0.63144615  1.0
  H  H16  1  -0.05146659  -0.75597111  0.36855385  1.0
  H  H17  1  -0.07527596  -0.75137863  0.77193658  1.0
  H  H18  1  0.07527596  -0.24862137  0.22806342  1.0
  H  H19  1  -0.77036001  -0.78803779  0.98676357  1.0
  H  H20  1  0.77036001  -0.21196221  0.01323643  1.0
  Se  Se21  1  -0.19998780  -0.48376149  0.98269850  1.0
  Se  Se22  1  0.19998780  -0.51623851  0.01730150  1.0
  Se  Se23  1  -0.08656997  -0.47570548  0.68819280  1.0
  Se  Se24  1  0.08656997  -0.52429452  0.31180720  1.0
  O  O25  1  0.72398993  -0.87359265  0.15759654  1.0
  O  O26  1  -0.72398993  -0.12640735  0.84240346  1.0
  O  O27  1  0.48862881  -0.33445615  0.34933132  1.0
  O  O28  1  -0.48862881  -0.66554385  0.65066868  1.0
  O  O29  1  0.33513267  -0.86127325  0.50743835  1.0
  O  O30  1  -0.33513267  -0.13872675  0.49256165  1.0
  O  O31  1  -0.05620011  -0.85841428  0.77518573  1.0
  O  O32  1  0.05620011  -0.14158572  0.22481427  1.0
  O  O33  1  -0.07606086  -0.85962906  0.38476143  1.0
  O  O34  1  0.07606086  -0.14037094  0.61523857  1.0
  O  O35  1  -0.72677203  -0.89549939  0.99286495  1.0
  O  O36  1  0.72677203  -0.10450061  0.00713505  1.0
