# generated using pymatgen
data_Ge(SeO3)2
_symmetry_space_group_name_H-M   'P 1'
_cell_length_a   7.94044956
_cell_length_b   7.94044956
_cell_length_c   7.94044956
_cell_angle_alpha   90.00000000
_cell_angle_beta   90.00000000
_cell_angle_gamma   90.00000000
_symmetry_Int_Tables_number   1
_chemical_formula_structural   Ge(SeO3)2
_chemical_formula_sum   'Ge4 Se8 O24'
_cell_volume   500.65121496
_cell_formula_units_Z   4
loop_
 _symmetry_equiv_pos_site_id
 _symmetry_equiv_pos_as_xyz
  1  'x, y, z'
loop_
 _atom_site_type_symbol
 _atom_site_label
 _atom_site_symmetry_multiplicity
 _atom_site_fract_x
 _atom_site_fract_y
 _atom_site_fract_z
 _atom_site_occupancy
  Ge  Ge0  1  0.50000000  -0.00000000  0.50000000  1.0
  Ge  Ge1  1  0.50000000  0.50000000  -0.00000000  1.0
  Ge  Ge2  1  -0.00000000  -0.00000000  0.00000000  1.0
  Ge  Ge3  1  0.00000000  0.50000000  0.50000000  1.0
  Se  Se4  1  0.17208520  0.67208520  0.82791480  1.0
  Se  Se5  1  0.17208520  0.82791480  0.32791480  1.0
  Se  Se6  1  0.67208520  0.67208520  0.67208520  1.0
  Se  Se7  1  0.67208520  0.82791480  0.17208520  1.0
  Se  Se8  1  0.82791480  0.17208520  0.67208520  1.0
  Se  Se9  1  0.82791480  0.32791480  0.17208520  1.0
  Se  Se10  1  0.32791480  0.17208520  0.82791480  1.0
  Se  Se11  1  0.32791480  0.32791480  0.32791480  1.0
  O  O12  1  0.26247491  0.53240125  0.97032239  1.0
  O  O13  1  0.26247491  0.96759875  0.47032239  1.0
  O  O14  1  0.76247491  0.53240125  0.52967761  1.0
  O  O15  1  0.76247491  0.96759875  0.02967761  1.0
  O  O16  1  0.03240125  0.52967761  0.73752509  1.0
  O  O17  1  0.03240125  0.97032239  0.23752509  1.0
  O  O18  1  0.53240125  0.52967761  0.76247491  1.0
  O  O19  1  0.53240125  0.97032239  0.26247491  1.0
  O  O20  1  0.02967761  0.76247491  0.96759875  1.0
  O  O21  1  0.02967761  0.73752509  0.46759875  1.0
  O  O22  1  0.52967761  0.76247491  0.53240125  1.0
  O  O23  1  0.52967761  0.73752509  0.03240125  1.0
  O  O24  1  0.73752509  0.03240125  0.52967761  1.0
  O  O25  1  0.73752509  0.46759875  0.02967761  1.0
  O  O26  1  0.23752509  0.03240125  0.97032239  1.0
  O  O27  1  0.23752509  0.46759875  0.47032239  1.0
  O  O28  1  0.96759875  0.02967761  0.76247491  1.0
  O  O29  1  0.96759875  0.47032239  0.26247491  1.0
  O  O30  1  0.46759875  0.02967761  0.73752509  1.0
  O  O31  1  0.46759875  0.47032239  0.23752509  1.0
  O  O32  1  0.97032239  0.26247491  0.53240125  1.0
  O  O33  1  0.97032239  0.23752509  0.03240125  1.0
  O  O34  1  0.47032239  0.26247491  0.96759875  1.0
  O  O35  1  0.47032239  0.23752509  0.46759875  1.0
