# generated using pymatgen
data_Li2ReN2
_symmetry_space_group_name_H-M   'P 1'
_cell_length_a   10.46698251
_cell_length_b   5.67200018
_cell_length_c   9.03079876
_cell_angle_alpha   90.00000000
_cell_angle_beta   90.00000000
_cell_angle_gamma   90.00000000
_symmetry_Int_Tables_number   1
_chemical_formula_structural   Li2ReN2
_chemical_formula_sum   'Li16 Re8 N16'
_cell_volume   536.14702316
_cell_formula_units_Z   8
loop_
 _symmetry_equiv_pos_site_id
 _symmetry_equiv_pos_as_xyz
  1  'x, y, z'
loop_
 _atom_site_type_symbol
 _atom_site_label
 _atom_site_symmetry_multiplicity
 _atom_site_fract_x
 _atom_site_fract_y
 _atom_site_fract_z
 _atom_site_occupancy
  Li  Li0  1  0.62113592  0.75282810  0.71807384  1.0
  Li  Li1  1  0.62113592  0.24717190  0.71807384  1.0
  Li  Li2  1  1.12113592  0.25282810  0.28192616  1.0
  Li  Li3  1  1.12113592  0.74717190  0.28192616  1.0
  Li  Li4  1  0.37886408  0.75282810  0.71807384  1.0
  Li  Li5  1  0.37886408  0.24717190  0.71807384  1.0
  Li  Li6  1  -0.12113592  0.25282810  0.28192616  1.0
  Li  Li7  1  -0.12113592  0.74717190  0.28192616  1.0
  Li  Li8  1  0.37053463  0.74778476  0.31431764  1.0
  Li  Li9  1  0.37053463  0.25221524  0.31431764  1.0
  Li  Li10  1  0.87053463  0.24778476  0.68568236  1.0
  Li  Li11  1  0.87053463  0.75221524  0.68568236  1.0
  Li  Li12  1  0.62946537  0.74778476  0.31431764  1.0
  Li  Li13  1  0.62946537  0.25221524  0.31431764  1.0
  Li  Li14  1  0.12946537  0.24778476  0.68568236  1.0
  Li  Li15  1  0.12946537  0.75221524  0.68568236  1.0
  Re  Re16  1  0.12462660  0.20561054  0.98548199  1.0
  Re  Re17  1  0.12462660  0.79438946  0.98548199  1.0
  Re  Re18  1  0.62462660  0.70561054  0.01451801  1.0
  Re  Re19  1  0.62462660  0.29438946  0.01451801  1.0
  Re  Re20  1  0.87537340  0.20561054  0.98548199  1.0
  Re  Re21  1  0.87537340  0.79438946  0.98548199  1.0
  Re  Re22  1  0.37537340  0.70561054  0.01451801  1.0
  Re  Re23  1  0.37537340  0.29438946  0.01451801  1.0
  N  N24  1  0.44162917  0.22837320  0.51356925  1.0
  N  N25  1  0.44162917  0.77162680  0.51356925  1.0
  N  N26  1  0.94162917  0.72837320  0.48643075  1.0
  N  N27  1  0.94162917  0.27162680  0.48643075  1.0
  N  N28  1  0.55837083  0.22837320  0.51356925  1.0
  N  N29  1  0.55837083  0.77162680  0.51356925  1.0
  N  N30  1  0.05837083  0.72837320  0.48643075  1.0
  N  N31  1  0.05837083  0.27162680  0.48643075  1.0
  N  N32  1  0.24402535  0.36506144  0.83409052  1.0
  N  N33  1  0.24402535  0.63493856  0.83409052  1.0
  N  N34  1  0.74402535  0.86506144  0.16590948  1.0
  N  N35  1  0.74402535  0.13493856  0.16590948  1.0
  N  N36  1  0.75597465  0.36506144  0.83409052  1.0
  N  N37  1  0.75597465  0.63493856  0.83409052  1.0
  N  N38  1  0.25597465  0.86506144  0.16590948  1.0
  N  N39  1  0.25597465  0.13493856  0.16590948  1.0
