# generated using pymatgen
data_ZrNiGe
_symmetry_space_group_name_H-M   'P 1'
_cell_length_a   6.58174547
_cell_length_b   3.89321615
_cell_length_c   7.39174782
_cell_angle_alpha   90.00000000
_cell_angle_beta   90.00000000
_cell_angle_gamma   90.00000000
_symmetry_Int_Tables_number   1
_chemical_formula_structural   ZrNiGe
_chemical_formula_sum   'Zr4 Ni4 Ge4'
_cell_volume   189.40731228
_cell_formula_units_Z   4
loop_
 _symmetry_equiv_pos_site_id
 _symmetry_equiv_pos_as_xyz
  1  'x, y, z'
loop_
 _atom_site_type_symbol
 _atom_site_label
 _atom_site_symmetry_multiplicity
 _atom_site_fract_x
 _atom_site_fract_y
 _atom_site_fract_z
 _atom_site_occupancy
  Zr  Zr0  1  0.98171449  0.75000000  0.68988963  1.0
  Zr  Zr1  1  0.48171449  0.75000000  0.81011037  1.0
  Zr  Zr2  1  0.01828551  0.25000000  0.31011037  1.0
  Zr  Zr3  1  0.51828551  0.25000000  0.18988963  1.0
  Ni  Ni4  1  0.85976482  0.75000000  0.06223683  1.0
  Ni  Ni5  1  0.35976482  0.75000000  0.43776317  1.0
  Ni  Ni6  1  0.14023518  0.25000000  0.93776317  1.0
  Ni  Ni7  1  0.64023518  0.25000000  0.56223683  1.0
  Ge  Ge8  1  0.73321457  0.75000000  0.38558441  1.0
  Ge  Ge9  1  0.23321457  0.75000000  0.11441559  1.0
  Ge  Ge10  1  0.26678543  0.25000000  0.61441559  1.0
  Ge  Ge11  1  0.76678543  0.25000000  0.88558441  1.0
