# generated using pymatgen
data_Na2IrO3
_symmetry_space_group_name_H-M   'P 1'
_cell_length_a   5.52207842
_cell_length_b   5.52207842
_cell_length_c   5.64898058
_cell_angle_alpha   80.37842213
_cell_angle_beta   99.62157787
_cell_angle_gamma   60.12190310
_symmetry_Int_Tables_number   1
_chemical_formula_structural   Na2IrO3
_chemical_formula_sum   'Na4 Ir2 O6'
_cell_volume   140.80161149
_cell_formula_units_Z   2
loop_
 _symmetry_equiv_pos_site_id
 _symmetry_equiv_pos_as_xyz
  1  'x, y, z'
loop_
 _atom_site_type_symbol
 _atom_site_label
 _atom_site_symmetry_multiplicity
 _atom_site_fract_x
 _atom_site_fract_y
 _atom_site_fract_z
 _atom_site_occupancy
  Na  Na0  1  0.66028960  -0.33971040  0.50000000  1.0
  Na  Na1  1  1.33971040  0.33971040  0.50000000  1.0
  Na  Na2  1  -0.00000000  0.00000000  0.50000000  1.0
  Na  Na3  1  0.50000000  -0.50000000  0.00000000  1.0
  Ir  Ir4  1  0.83307435  -0.16692565  0.00000000  1.0
  Ir  Ir5  1  1.16692565  0.16692565  0.00000000  1.0
  O  O6  1  0.43115370  -0.06087618  0.79700064  1.0
  O  O7  1  1.06087618  0.56884630  0.79700064  1.0
  O  O8  1  0.93912382  -0.56884630  0.20299936  1.0
  O  O9  1  1.56884630  0.06087618  0.20299936  1.0
  O  O10  1  0.79838641  -0.79838641  0.79405421  1.0
  O  O11  1  0.20161359  -0.20161359  0.20594579  1.0
