# generated using pymatgen
data_SrZrSi2O7
_symmetry_space_group_name_H-M   'P 1'
_cell_length_a   7.83887279
_cell_length_b   8.17666228
_cell_length_c   10.16709788
_cell_angle_alpha   90.00000000
_cell_angle_beta   111.72188711
_cell_angle_gamma   90.00000000
_symmetry_Int_Tables_number   1
_chemical_formula_structural   SrZrSi2O7
_chemical_formula_sum   'Sr4 Zr4 Si8 O28'
_cell_volume   605.39427542
_cell_formula_units_Z   4
loop_
 _symmetry_equiv_pos_site_id
 _symmetry_equiv_pos_as_xyz
  1  'x, y, z'
loop_
 _atom_site_type_symbol
 _atom_site_label
 _atom_site_symmetry_multiplicity
 _atom_site_fract_x
 _atom_site_fract_y
 _atom_site_fract_z
 _atom_site_occupancy
  Sr  Sr0  1  0.71638927  0.51785285  0.70685469  1.0
  Sr  Sr1  1  0.71638927  0.98214715  0.20685469  1.0
  Sr  Sr2  1  0.28361073  0.01785285  0.79314531  1.0
  Sr  Sr3  1  0.28361073  0.48214715  0.29314531  1.0
  Zr  Zr4  1  0.74362175  0.98839324  0.75290855  1.0
  Zr  Zr5  1  0.74362175  0.51160676  0.25290855  1.0
  Zr  Zr6  1  0.25637825  0.48839324  0.74709145  1.0
  Zr  Zr7  1  0.25637825  0.01160676  0.24709145  1.0
  Si  Si8  1  0.93566599  0.75066236  0.54295831  1.0
  Si  Si9  1  0.93566599  0.74933764  0.04295831  1.0
  Si  Si10  1  0.06433401  0.25066236  0.95704169  1.0
  Si  Si11  1  0.06433401  0.24933764  0.45704169  1.0
  Si  Si12  1  0.67445941  0.28553726  0.95881338  1.0
  Si  Si13  1  0.67445941  0.21446274  0.45881338  1.0
  Si  Si14  1  0.32554059  0.78553726  0.54118662  1.0
  Si  Si15  1  0.32554059  0.71446274  0.04118662  1.0
  O  O16  1  0.98934877  0.57881964  0.63224106  1.0
  O  O17  1  0.98934877  0.92118036  0.13224106  1.0
  O  O18  1  0.01065123  0.07881964  0.86775894  1.0
  O  O19  1  0.01065123  0.42118036  0.36775894  1.0
  O  O20  1  0.86744690  0.34474818  0.93704038  1.0
  O  O21  1  0.86744690  0.15525182  0.43704038  1.0
  O  O22  1  0.13255310  0.84474818  0.56295962  1.0
  O  O23  1  0.13255310  0.65525182  0.06295962  1.0
  O  O24  1  0.82743122  0.86458979  0.61762302  1.0
  O  O25  1  0.82743122  0.63541021  0.11762302  1.0
  O  O26  1  0.17256878  0.36458979  0.88237698  1.0
  O  O27  1  0.17256878  0.13541021  0.38237698  1.0
  O  O28  1  0.81121190  0.77234098  0.87585223  1.0
  O  O29  1  0.81121190  0.72765902  0.37585223  1.0
  O  O30  1  0.18878810  0.27234098  0.62414777  1.0
  O  O31  1  0.18878810  0.22765902  0.12414777  1.0
  O  O32  1  0.47575904  0.90764388  0.65152905  1.0
  O  O33  1  0.47575904  0.59235612  0.15152905  1.0
  O  O34  1  0.52424096  0.40764388  0.84847095  1.0
  O  O35  1  0.52424096  0.09235612  0.34847095  1.0
  O  O36  1  0.36943174  0.59453955  0.59585596  1.0
  O  O37  1  0.36943174  0.90546045  0.09585596  1.0
  O  O38  1  0.63056826  0.09453955  0.90414404  1.0
  O  O39  1  0.63056826  0.40546045  0.40414404  1.0
  O  O40  1  0.30503873  0.70428270  0.87587996  1.0
  O  O41  1  0.30503873  0.79571730  0.37587996  1.0
  O  O42  1  0.69496127  0.20428270  0.62412004  1.0
  O  O43  1  0.69496127  0.29571730  0.12412004  1.0
