# generated using pymatgen
data_Lu4CdNi
_symmetry_space_group_name_H-M   'P 1'
_cell_length_a   9.33860166
_cell_length_b   9.33860166
_cell_length_c   9.33860166
_cell_angle_alpha   60.00000000
_cell_angle_beta   60.00000000
_cell_angle_gamma   60.00000000
_symmetry_Int_Tables_number   1
_chemical_formula_structural   Lu4CdNi
_chemical_formula_sum   'Lu16 Cd4 Ni4'
_cell_volume   575.87808820
_cell_formula_units_Z   4
loop_
 _symmetry_equiv_pos_site_id
 _symmetry_equiv_pos_as_xyz
  1  'x, y, z'
loop_
 _atom_site_type_symbol
 _atom_site_label
 _atom_site_symmetry_multiplicity
 _atom_site_fract_x
 _atom_site_fract_y
 _atom_site_fract_z
 _atom_site_occupancy
  Lu  Lu0  1  0.06364406  0.43635594  0.43635594  1.0
  Lu  Lu1  1  0.43635594  0.43635594  0.06364406  1.0
  Lu  Lu2  1  0.43635594  0.06364406  0.43635594  1.0
  Lu  Lu3  1  0.06364406  0.06364406  0.43635594  1.0
  Lu  Lu4  1  0.06364406  0.43635594  0.06364406  1.0
  Lu  Lu5  1  0.43635594  0.06364406  0.06364406  1.0
  Lu  Lu6  1  -0.81166759  0.81166759  0.81166759  1.0
  Lu  Lu7  1  -0.18833241  0.81166759  0.18833241  1.0
  Lu  Lu8  1  -0.18833241  0.18833241  0.81166759  1.0
  Lu  Lu9  1  0.18833241  1.18833241  -0.18833241  1.0
  Lu  Lu10  1  0.18833241  -0.18833241  0.18833241  1.0
  Lu  Lu11  1  -0.18833241  0.18833241  0.18833241  1.0
  Lu  Lu12  1  -0.34858251  0.65141749  0.65141749  1.0
  Lu  Lu13  1  1.04574752  0.65141749  -0.34858251  1.0
  Lu  Lu14  1  -0.34858251  0.65141749  1.04574752  1.0
  Lu  Lu15  1  0.65141749  1.04574752  -0.34858251  1.0
  Cd  Cd16  1  0.41876977  1.41876977  0.41876977  1.0
  Cd  Cd17  1  -0.25630932  0.41876977  0.41876977  1.0
  Cd  Cd18  1  0.41876977  1.41876977  -0.25630932  1.0
  Cd  Cd19  1  0.41876977  -0.25630932  0.41876977  1.0
  Ni  Ni20  1  0.85748732  0.85748732  -0.14251268  1.0
  Ni  Ni21  1  0.42753804  0.85748732  -0.14251268  1.0
  Ni  Ni22  1  0.85748732  0.85748732  -0.57246196  1.0
  Ni  Ni23  1  0.85748732  0.42753804  -0.14251268  1.0
