# generated using pymatgen
data_Dy4Co
_symmetry_space_group_name_H-M   'P 1'
_cell_length_a   7.56238639
_cell_length_b   7.56238639
_cell_length_c   7.56238639
_cell_angle_alpha   60.00000000
_cell_angle_beta   60.00000000
_cell_angle_gamma   60.00000000
_symmetry_Int_Tables_number   1
_chemical_formula_structural   Dy4Co
_chemical_formula_sum   'Dy8 Co2'
_cell_volume   305.81697745
_cell_formula_units_Z   2
loop_
 _symmetry_equiv_pos_site_id
 _symmetry_equiv_pos_as_xyz
  1  'x, y, z'
loop_
 _atom_site_type_symbol
 _atom_site_label
 _atom_site_symmetry_multiplicity
 _atom_site_fract_x
 _atom_site_fract_y
 _atom_site_fract_z
 _atom_site_occupancy
  Dy  Dy0  1  -0.11576683  0.88423317  0.34730050  1.0
  Dy  Dy1  1  0.88423317  -0.65269950  0.88423317  1.0
  Dy  Dy2  1  0.36576683  0.36576683  0.36576683  1.0
  Dy  Dy3  1  -0.09730050  0.36576683  0.36576683  1.0
  Dy  Dy4  1  -0.65269950  0.88423317  0.88423317  1.0
  Dy  Dy5  1  0.88423317  -0.11576683  0.88423317  1.0
  Dy  Dy6  1  0.36576683  -0.09730050  0.36576683  1.0
  Dy  Dy7  1  0.36576683  0.36576683  -0.09730050  1.0
  Co  Co8  1  0.50000000  0.50000000  -0.50000000  1.0
  Co  Co9  1  0.75000000  -0.25000000  0.75000000  1.0
