# generated using pymatgen
data_Ti3H2O7
_symmetry_space_group_name_H-M   'P 1'
_cell_length_a   8.34993162
_cell_length_b   8.34993162
_cell_length_c   9.51636700
_cell_angle_alpha   80.60685391
_cell_angle_beta   99.39314609
_cell_angle_gamma   153.98973940
_symmetry_Int_Tables_number   1
_chemical_formula_structural   Ti3H2O7
_chemical_formula_sum   'Ti6 H4 O14'
_cell_volume   286.85249931
_cell_formula_units_Z   2
loop_
 _symmetry_equiv_pos_site_id
 _symmetry_equiv_pos_as_xyz
  1  'x, y, z'
loop_
 _atom_site_type_symbol
 _atom_site_label
 _atom_site_symmetry_multiplicity
 _atom_site_fract_x
 _atom_site_fract_y
 _atom_site_fract_z
 _atom_site_occupancy
  Ti  Ti0  1  0.77106077  0.22893923  0.78617751  1.0
  Ti  Ti1  1  0.22893923  -0.22893923  0.21382249  1.0
  Ti  Ti2  1  0.82479214  0.17520786  0.48843849  1.0
  Ti  Ti3  1  0.17520786  -0.17520786  0.51156151  1.0
  Ti  Ti4  1  0.87472942  0.12527058  0.15542148  1.0
  Ti  Ti5  1  0.12527058  -0.12527058  0.84457852  1.0
  H  H6  1  0.02228063  -0.02228063  0.59739432  1.0
  H  H7  1  0.97771937  0.02228063  0.40260568  1.0
  H  H8  1  0.95960848  0.04039152  0.79725184  1.0
  H  H9  1  0.04039152  -0.04039152  0.20274816  1.0
  O  O10  1  0.82933193  0.17066807  0.95835370  1.0
  O  O11  1  0.17066807  -0.17066807  0.04164630  1.0
  O  O12  1  0.86483295  0.13516705  0.67308682  1.0
  O  O13  1  0.13516705  -0.13516705  0.32691318  1.0
  O  O14  1  0.91738286  0.08261714  0.38990405  1.0
  O  O15  1  0.08261714  -0.08261714  0.61009595  1.0
  O  O16  1  0.98235006  0.01764994  0.15107832  1.0
  O  O17  1  0.01764994  -0.01764994  0.84892168  1.0
  O  O18  1  0.65502085  0.34497915  0.82765286  1.0
  O  O19  1  0.34497915  -0.34497915  0.17234714  1.0
  O  O20  1  0.70699854  0.29300146  0.54259699  1.0
  O  O21  1  0.29300146  -0.29300146  0.45740301  1.0
  O  O22  1  0.75982663  0.24017337  0.25349417  1.0
  O  O23  1  0.24017337  -0.24017337  0.74650583  1.0
