# generated using pymatgen
data_Gd5BiIr2
_symmetry_space_group_name_H-M   'P 1'
_cell_length_a   8.96624389
_cell_length_b   8.96624389
_cell_length_c   8.96624389
_cell_angle_alpha   128.18960115
_cell_angle_beta   128.18960115
_cell_angle_gamma   76.31808254
_symmetry_Int_Tables_number   1
_chemical_formula_structural   Gd5BiIr2
_chemical_formula_sum   'Gd10 Bi2 Ir4'
_cell_volume   432.72337479
_cell_formula_units_Z   2
loop_
 _symmetry_equiv_pos_site_id
 _symmetry_equiv_pos_as_xyz
  1  'x, y, z'
loop_
 _atom_site_type_symbol
 _atom_site_label
 _atom_site_symmetry_multiplicity
 _atom_site_fract_x
 _atom_site_fract_y
 _atom_site_fract_z
 _atom_site_occupancy
  Gd  Gd0  1  1.21092541  0.71092541  1.18266504  1.0
  Gd  Gd1  1  0.47173963  0.97173963  1.18266504  1.0
  Gd  Gd2  1  1.02826037  1.21092541  1.50000000  1.0
  Gd  Gd3  1  0.28907459  0.47173963  0.50000000  1.0
  Gd  Gd4  1  0.71092541  0.52826037  0.50000000  1.0
  Gd  Gd5  1  0.97173963  0.78907459  1.50000000  1.0
  Gd  Gd6  1  0.52826037  1.02826037  0.81733496  1.0
  Gd  Gd7  1  0.78907459  0.28907459  0.81733496  1.0
  Gd  Gd8  1  0.00000000  0.00000000  0.00000000  1.0
  Gd  Gd9  1  0.50000000  0.50000000  1.00000000  1.0
  Bi  Bi10  1  0.75000000  0.75000000  1.00000000  1.0
  Bi  Bi11  1  0.25000000  0.25000000  -0.00000000  1.0
  Ir  Ir12  1  0.86062967  0.36062967  1.22125934  1.0
  Ir  Ir13  1  0.63937033  0.86062967  1.50000000  1.0
  Ir  Ir14  1  0.36062967  0.13937033  0.50000000  1.0
  Ir  Ir15  1  0.13937033  0.63937033  0.77874066  1.0
