# generated using pymatgen
data_Sr2CdPt2
_symmetry_space_group_name_H-M   'P 1'
_cell_length_a   5.96382894
_cell_length_b   5.96382894
_cell_length_c   5.96382894
_cell_angle_alpha   134.75655454
_cell_angle_beta   119.43383029
_cell_angle_gamma   78.72524607
_symmetry_Int_Tables_number   1
_chemical_formula_structural   Sr2CdPt2
_chemical_formula_sum   'Sr2 Cd1 Pt2'
_cell_volume   127.24003417
_cell_formula_units_Z   1
loop_
 _symmetry_equiv_pos_site_id
 _symmetry_equiv_pos_as_xyz
  1  'x, y, z'
loop_
 _atom_site_type_symbol
 _atom_site_label
 _atom_site_symmetry_multiplicity
 _atom_site_fract_x
 _atom_site_fract_y
 _atom_site_fract_z
 _atom_site_occupancy
  Sr  Sr0  1  1.29899068  0.79899068  0.50000000  1.0
  Sr  Sr1  1  0.70100932  0.20100932  0.50000000  1.0
  Cd  Cd2  1  0.00000000  0.00000000  0.00000000  1.0
  Pt  Pt3  1  0.72577897  0.50000000  1.22577897  1.0
  Pt  Pt4  1  0.27422103  0.50000000  0.77422103  1.0
