# generated using pymatgen
data_Sr2InOsO6
_symmetry_space_group_name_H-M   'P 1'
_cell_length_a   5.78453855
_cell_length_b   5.78453855
_cell_length_c   5.78453855
_cell_angle_alpha   60.00000000
_cell_angle_beta   60.00000000
_cell_angle_gamma   60.00000000
_symmetry_Int_Tables_number   1
_chemical_formula_structural   Sr2InOsO6
_chemical_formula_sum   'Sr2 In1 Os1 O6'
_cell_volume   136.86460900
_cell_formula_units_Z   1
loop_
 _symmetry_equiv_pos_site_id
 _symmetry_equiv_pos_as_xyz
  1  'x, y, z'
loop_
 _atom_site_type_symbol
 _atom_site_label
 _atom_site_symmetry_multiplicity
 _atom_site_fract_x
 _atom_site_fract_y
 _atom_site_fract_z
 _atom_site_occupancy
  Sr  Sr0  1  0.75000000  0.75000000  -0.25000000  1.0
  Sr  Sr1  1  1.25000000  0.25000000  0.25000000  1.0
  In  In2  1  -0.50000000  0.50000000  0.50000000  1.0
  Os  Os3  1  0.00000000  0.00000000  0.00000000  1.0
  O  O4  1  -0.76006131  0.76006131  0.76006131  1.0
  O  O5  1  -0.23993869  0.23993869  0.76006131  1.0
  O  O6  1  0.76006131  0.76006131  -0.76006131  1.0
  O  O7  1  0.23993869  1.23993869  -0.23993869  1.0
  O  O8  1  0.23993869  -0.23993869  1.23993869  1.0
  O  O9  1  -0.23993869  0.23993869  0.23993869  1.0
