# generated using pymatgen
data_BaZr(AsO4)2
_symmetry_space_group_name_H-M   'P 1'
_cell_length_a   5.26034897
_cell_length_b   5.26034897
_cell_length_c   8.08410620
_cell_angle_alpha   87.69775035
_cell_angle_beta   92.30224965
_cell_angle_gamma   114.75606523
_symmetry_Int_Tables_number   1
_chemical_formula_structural   BaZr(AsO4)2
_chemical_formula_sum   'Ba1 Zr1 As2 O8'
_cell_volume   202.90825353
_cell_formula_units_Z   1
loop_
 _symmetry_equiv_pos_site_id
 _symmetry_equiv_pos_as_xyz
  1  'x, y, z'
loop_
 _atom_site_type_symbol
 _atom_site_label
 _atom_site_symmetry_multiplicity
 _atom_site_fract_x
 _atom_site_fract_y
 _atom_site_fract_z
 _atom_site_occupancy
  Ba  Ba0  1  -0.00000000  0.00000000  0.50000000  1.0
  Zr  Zr1  1  0.00000000  0.00000000  -0.00000000  1.0
  As  As2  1  0.63607619  -0.63607619  0.78118609  1.0
  As  As3  1  0.36392381  -0.36392381  0.21881391  1.0
  O  O4  1  1.27410115  0.22559745  0.80768307  1.0
  O  O5  1  0.77440255  -0.27410115  0.80768307  1.0
  O  O6  1  1.22559745  0.27410115  0.19231693  1.0
  O  O7  1  0.72589885  -0.22559745  0.19231693  1.0
  O  O8  1  0.77357749  -0.77357749  0.93981723  1.0
  O  O9  1  0.22642251  -0.22642251  0.06018277  1.0
  O  O10  1  0.69705511  -0.69705511  0.58471692  1.0
  O  O11  1  0.30294489  -0.30294489  0.41528308  1.0
