# generated using pymatgen
data_Rb2Pd3S4
_symmetry_space_group_name_H-M   'P 1'
_cell_length_a   7.53865800
_cell_length_b   7.53865800
_cell_length_c   6.21110980
_cell_angle_alpha   77.40556908
_cell_angle_beta   102.59443092
_cell_angle_gamma   50.07129261
_symmetry_Int_Tables_number   1
_chemical_formula_structural   Rb2Pd3S4
_chemical_formula_sum   'Rb2 Pd3 S4'
_cell_volume   231.98634100
_cell_formula_units_Z   1
loop_
 _symmetry_equiv_pos_site_id
 _symmetry_equiv_pos_as_xyz
  1  'x, y, z'
loop_
 _atom_site_type_symbol
 _atom_site_label
 _atom_site_symmetry_multiplicity
 _atom_site_fract_x
 _atom_site_fract_y
 _atom_site_fract_z
 _atom_site_occupancy
  Rb  Rb0  1  1.34187457  0.34187457  0.00000000  1.0
  Rb  Rb1  1  0.65812543  0.65812543  0.00000000  1.0
  Pd  Pd2  1  0.00000000  -0.00000000  0.50000000  1.0
  Pd  Pd3  1  0.50000000  -0.50000000  0.50000000  1.0
  Pd  Pd4  1  0.00000000  -0.00000000  0.00000000  1.0
  S  S5  1  0.94296441  0.28097259  0.66143343  1.0
  S  S6  1  1.71902741  0.05703559  0.66143343  1.0
  S  S7  1  1.28097259  -0.05703559  0.33856657  1.0
  S  S8  1  1.05703559  0.71902741  0.33856657  1.0
