# generated using pymatgen
data_BaSiO3
_symmetry_space_group_name_H-M   'P 1'
_cell_length_a   7.46928271
_cell_length_b   7.46928271
_cell_length_c   7.46928271
_cell_angle_alpha   44.08000702
_cell_angle_beta   44.08000702
_cell_angle_gamma   44.08000702
_symmetry_Int_Tables_number   1
_chemical_formula_structural   BaSiO3
_chemical_formula_sum   'Ba3 Si3 O9'
_cell_volume   183.19830349
_cell_formula_units_Z   3
loop_
 _symmetry_equiv_pos_site_id
 _symmetry_equiv_pos_as_xyz
  1  'x, y, z'
loop_
 _atom_site_type_symbol
 _atom_site_label
 _atom_site_symmetry_multiplicity
 _atom_site_fract_x
 _atom_site_fract_y
 _atom_site_fract_z
 _atom_site_occupancy
  Ba  Ba0  1  0.78599374  0.78599374  0.78599374  1.0
  Ba  Ba1  1  1.21400626  1.21400626  0.21400626  1.0
  Ba  Ba2  1  0.00000000  -0.00000000  0.00000000  1.0
  Si  Si3  1  1.61920907  0.61920907  0.61920907  1.0
  Si  Si4  1  1.38079093  0.38079093  0.38079093  1.0
  Si  Si5  1  1.50000000  0.50000000  0.50000000  1.0
  O  O6  1  1.30010805  0.30010805  0.72499618  1.0
  O  O7  1  1.30010805  0.72499618  0.30010805  1.0
  O  O8  1  1.27500382  0.69989195  0.69989195  1.0
  O  O9  1  1.69989195  0.27500382  0.69989195  1.0
  O  O10  1  1.69989195  0.69989195  0.27500382  1.0
  O  O11  1  1.72499618  0.30010805  0.30010805  1.0
  O  O12  1  0.50000000  0.00000000  -0.50000000  1.0
  O  O13  1  0.50000000  -0.50000000  0.00000000  1.0
  O  O14  1  0.00000000  0.50000000  -0.50000000  1.0
