# generated using pymatgen
data_NaCdF3
_symmetry_space_group_name_H-M   'P 1'
_cell_length_a   6.14445324
_cell_length_b   6.14445324
_cell_length_c   6.14445324
_cell_angle_alpha   56.73902474
_cell_angle_beta   56.73902474
_cell_angle_gamma   56.73902474
_symmetry_Int_Tables_number   1
_chemical_formula_structural   NaCdF3
_chemical_formula_sum   'Na2 Cd2 F6'
_cell_volume   151.68472915
_cell_formula_units_Z   2
loop_
 _symmetry_equiv_pos_site_id
 _symmetry_equiv_pos_as_xyz
  1  'x, y, z'
loop_
 _atom_site_type_symbol
 _atom_site_label
 _atom_site_symmetry_multiplicity
 _atom_site_fract_x
 _atom_site_fract_y
 _atom_site_fract_z
 _atom_site_occupancy
  Na  Na0  1  0.20981986  0.20981986  0.20981986  1.0
  Na  Na1  1  0.70981986  -0.29018014  -0.29018014  1.0
  Cd  Cd2  1  0.49889519  0.49889519  -0.50110481  1.0
  Cd  Cd3  1  0.99889519  -0.00110481  -0.00110481  1.0
  F  F4  1  0.61775846  0.88501506  -0.70748856  1.0
  F  F5  1  0.38501506  0.11775846  -0.20748856  1.0
  F  F6  1  0.88501506  0.29251144  -0.38224154  1.0
  F  F7  1  0.11775846  0.79251144  -0.61498494  1.0
  F  F8  1  0.29251144  0.61775846  -0.11498494  1.0
  F  F9  1  0.79251144  0.38501506  -0.88224154  1.0
