# generated using pymatgen
data_Nb5P3
_symmetry_space_group_name_H-M   'P 1'
_cell_length_a   25.51037984
_cell_length_b   3.44233935
_cell_length_c   11.53626024
_cell_angle_alpha   90.00000000
_cell_angle_beta   90.00000000
_cell_angle_gamma   90.00000000
_symmetry_Int_Tables_number   1
_chemical_formula_structural   Nb5P3
_chemical_formula_sum   'Nb40 P24'
_cell_volume   1013.06112724
_cell_formula_units_Z   8
loop_
 _symmetry_equiv_pos_site_id
 _symmetry_equiv_pos_as_xyz
  1  'x, y, z'
loop_
 _atom_site_type_symbol
 _atom_site_label
 _atom_site_symmetry_multiplicity
 _atom_site_fract_x
 _atom_site_fract_y
 _atom_site_fract_z
 _atom_site_occupancy
  Nb  Nb0  1  0.49943815  0.75000000  0.10866089  1.0
  Nb  Nb1  1  0.99943815  0.75000000  0.39133911  1.0
  Nb  Nb2  1  0.50056185  0.25000000  0.89133911  1.0
  Nb  Nb3  1  0.00056185  0.25000000  0.60866089  1.0
  Nb  Nb4  1  0.45448588  0.75000000  0.69396819  1.0
  Nb  Nb5  1  0.95448588  0.75000000  0.80603181  1.0
  Nb  Nb6  1  0.54551412  0.25000000  0.30603181  1.0
  Nb  Nb7  1  0.04551412  0.25000000  0.19396819  1.0
  Nb  Nb8  1  0.34816854  0.75000000  0.55697010  1.0
  Nb  Nb9  1  0.84816854  0.75000000  0.94302990  1.0
  Nb  Nb10  1  0.65183146  0.25000000  0.44302990  1.0
  Nb  Nb11  1  0.15183146  0.25000000  0.05697010  1.0
  Nb  Nb12  1  0.32302270  0.75000000  0.95946020  1.0
  Nb  Nb13  1  0.82302270  0.75000000  0.54053980  1.0
  Nb  Nb14  1  0.67697730  0.25000000  0.04053980  1.0
  Nb  Nb15  1  0.17697730  0.25000000  0.45946020  1.0
  Nb  Nb16  1  0.25975456  0.75000000  0.34513771  1.0
  Nb  Nb17  1  0.75975456  0.75000000  0.15486229  1.0
  Nb  Nb18  1  0.74024544  0.25000000  0.65486229  1.0
  Nb  Nb19  1  0.24024544  0.25000000  0.84513771  1.0
  Nb  Nb20  1  0.22568948  0.75000000  0.62096154  1.0
  Nb  Nb21  1  0.72568948  0.75000000  0.87903846  1.0
  Nb  Nb22  1  0.77431052  0.25000000  0.37903846  1.0
  Nb  Nb23  1  0.27431052  0.25000000  0.12096154  1.0
  Nb  Nb24  1  0.13769744  0.75000000  0.84308377  1.0
  Nb  Nb25  1  0.63769744  0.75000000  0.65691623  1.0
  Nb  Nb26  1  0.86230256  0.25000000  0.15691623  1.0
  Nb  Nb27  1  0.36230256  0.25000000  0.34308377  1.0
  Nb  Nb28  1  0.12437641  0.75000000  0.28881317  1.0
  Nb  Nb29  1  0.62437641  0.75000000  0.21118683  1.0
  Nb  Nb30  1  0.87562359  0.25000000  0.71118683  1.0
  Nb  Nb31  1  0.37562359  0.25000000  0.78881317  1.0
  Nb  Nb32  1  0.10114622  0.75000000  0.56791757  1.0
  Nb  Nb33  1  0.60114622  0.75000000  0.93208243  1.0
  Nb  Nb34  1  0.89885378  0.25000000  0.43208243  1.0
  Nb  Nb35  1  0.39885378  0.25000000  0.06791757  1.0
  Nb  Nb36  1  0.96419617  0.75000000  0.08468588  1.0
  Nb  Nb37  1  0.46419617  0.75000000  0.41531412  1.0
  Nb  Nb38  1  0.03580383  0.25000000  0.91531412  1.0
  Nb  Nb39  1  0.53580383  0.25000000  0.58468588  1.0
  P  P40  1  0.42714839  0.75000000  0.91865635  1.0
  P  P41  1  0.92714839  0.75000000  0.58134365  1.0
  P  P42  1  0.57285161  0.25000000  0.08134365  1.0
  P  P43  1  0.07285161  0.25000000  0.41865635  1.0
  P  P44  1  0.34197442  0.75000000  0.18773950  1.0
  P  P45  1  0.84197442  0.75000000  0.31226050  1.0
  P  P46  1  0.65802558  0.25000000  0.81226050  1.0
  P  P47  1  0.15802558  0.25000000  0.68773950  1.0
  P  P48  1  0.30296911  0.75000000  0.74629597  1.0
  P  P49  1  0.80296911  0.75000000  0.75370403  1.0
  P  P50  1  0.69703089  0.25000000  0.25370403  1.0
  P  P51  1  0.19703089  0.25000000  0.24629597  1.0
  P  P52  1  0.22003407  0.75000000  0.00094843  1.0
  P  P53  1  0.72003407  0.75000000  0.49905157  1.0
  P  P54  1  0.77996593  0.25000000  0.99905157  1.0
  P  P55  1  0.27996593  0.25000000  0.50094843  1.0
  P  P56  1  0.07701019  0.75000000  0.05181892  1.0
  P  P57  1  0.57701019  0.75000000  0.44818108  1.0
  P  P58  1  0.92298981  0.25000000  0.94818108  1.0
  P  P59  1  0.42298981  0.25000000  0.55181892  1.0
  P  P60  1  0.04906947  0.75000000  0.74937726  1.0
  P  P61  1  0.54906947  0.75000000  0.75062274  1.0
  P  P62  1  0.95093053  0.25000000  0.25062274  1.0
  P  P63  1  0.45093053  0.25000000  0.24937726  1.0
