# generated using pymatgen
data_GdAlAu
_symmetry_space_group_name_H-M   'P 1'
_cell_length_a   7.30452858
_cell_length_b   4.51674105
_cell_length_c   7.80043823
_cell_angle_alpha   90.00000000
_cell_angle_beta   90.00000000
_cell_angle_gamma   90.00000000
_symmetry_Int_Tables_number   1
_chemical_formula_structural   GdAlAu
_chemical_formula_sum   'Gd4 Al4 Au4'
_cell_volume   257.35723825
_cell_formula_units_Z   4
loop_
 _symmetry_equiv_pos_site_id
 _symmetry_equiv_pos_as_xyz
  1  'x, y, z'
loop_
 _atom_site_type_symbol
 _atom_site_label
 _atom_site_symmetry_multiplicity
 _atom_site_fract_x
 _atom_site_fract_y
 _atom_site_fract_z
 _atom_site_occupancy
  Gd  Gd0  1  0.99182525  0.75000000  0.69757498  1.0
  Gd  Gd1  1  0.49182525  0.75000000  0.80242502  1.0
  Gd  Gd2  1  0.00817475  0.25000000  0.30242502  1.0
  Gd  Gd3  1  0.50817475  0.25000000  0.19757498  1.0
  Al  Al4  1  0.82466700  0.75000000  0.07964259  1.0
  Al  Al5  1  0.32466700  0.75000000  0.42035741  1.0
  Al  Al6  1  0.17533300  0.25000000  0.92035741  1.0
  Al  Al7  1  0.67533300  0.25000000  0.57964259  1.0
  Au  Au8  1  0.70886176  0.75000000  0.40673430  1.0
  Au  Au9  1  0.20886176  0.75000000  0.09326570  1.0
  Au  Au10  1  0.29113824  0.25000000  0.59326570  1.0
  Au  Au11  1  0.79113824  0.25000000  0.90673430  1.0
