# generated using pymatgen
data_Gd2ZrSe5
_symmetry_space_group_name_H-M   'P 1'
_cell_length_a   12.18895586
_cell_length_b   8.18585661
_cell_length_c   7.66884285
_cell_angle_alpha   90.00000000
_cell_angle_beta   90.00000000
_cell_angle_gamma   90.00000000
_symmetry_Int_Tables_number   1
_chemical_formula_structural   Gd2ZrSe5
_chemical_formula_sum   'Gd8 Zr4 Se20'
_cell_volume   765.17447756
_cell_formula_units_Z   4
loop_
 _symmetry_equiv_pos_site_id
 _symmetry_equiv_pos_as_xyz
  1  'x, y, z'
loop_
 _atom_site_type_symbol
 _atom_site_label
 _atom_site_symmetry_multiplicity
 _atom_site_fract_x
 _atom_site_fract_y
 _atom_site_fract_z
 _atom_site_occupancy
  Gd  Gd0  1  0.67938269  0.49614215  0.02403909  1.0
  Gd  Gd1  1  0.67938269  0.00385785  0.02403909  1.0
  Gd  Gd2  1  0.17938269  0.49614215  0.47596091  1.0
  Gd  Gd3  1  0.17938269  0.00385785  0.47596091  1.0
  Gd  Gd4  1  0.32061731  0.99614215  0.97596091  1.0
  Gd  Gd5  1  0.32061731  0.50385785  0.97596091  1.0
  Gd  Gd6  1  0.82061731  0.99614215  0.52403909  1.0
  Gd  Gd7  1  0.82061731  0.50385785  0.52403909  1.0
  Zr  Zr8  1  0.99324474  0.25000000  0.07995637  1.0
  Zr  Zr9  1  0.49324474  0.25000000  0.42004363  1.0
  Zr  Zr10  1  0.00675526  0.75000000  0.92004363  1.0
  Zr  Zr11  1  0.50675526  0.75000000  0.57995637  1.0
  Se  Se12  1  0.90756584  0.96150099  0.16207637  1.0
  Se  Se13  1  0.90756584  0.53849901  0.16207637  1.0
  Se  Se14  1  0.40756584  0.96150099  0.33792363  1.0
  Se  Se15  1  0.40756584  0.53849901  0.33792363  1.0
  Se  Se16  1  0.09243416  0.46150099  0.83792363  1.0
  Se  Se17  1  0.09243416  0.03849901  0.83792363  1.0
  Se  Se18  1  0.59243416  0.46150099  0.66207637  1.0
  Se  Se19  1  0.59243416  0.03849901  0.66207637  1.0
  Se  Se20  1  0.99621700  0.25000000  0.44936475  1.0
  Se  Se21  1  0.49621700  0.25000000  0.05063525  1.0
  Se  Se22  1  0.00378300  0.75000000  0.55063525  1.0
  Se  Se23  1  0.50378300  0.75000000  0.94936475  1.0
  Se  Se24  1  0.81910967  0.25000000  0.83305646  1.0
  Se  Se25  1  0.31910967  0.25000000  0.66694354  1.0
  Se  Se26  1  0.18089033  0.75000000  0.16694354  1.0
  Se  Se27  1  0.68089033  0.75000000  0.33305646  1.0
  Se  Se28  1  0.70796481  0.25000000  0.31169313  1.0
  Se  Se29  1  0.20796481  0.25000000  0.18830687  1.0
  Se  Se30  1  0.29203519  0.75000000  0.68830687  1.0
  Se  Se31  1  0.79203519  0.75000000  0.81169313  1.0
