# generated using pymatgen
data_Co2P
_symmetry_space_group_name_H-M   'P 1'
_cell_length_a   5.50840107
_cell_length_b   3.50470942
_cell_length_c   6.58725007
_cell_angle_alpha   90.00000000
_cell_angle_beta   90.00000000
_cell_angle_gamma   90.00000000
_symmetry_Int_Tables_number   1
_chemical_formula_structural   Co2P
_chemical_formula_sum   'Co8 P4'
_cell_volume   127.16913607
_cell_formula_units_Z   4
loop_
 _symmetry_equiv_pos_site_id
 _symmetry_equiv_pos_as_xyz
  1  'x, y, z'
loop_
 _atom_site_type_symbol
 _atom_site_label
 _atom_site_symmetry_multiplicity
 _atom_site_fract_x
 _atom_site_fract_y
 _atom_site_fract_z
 _atom_site_occupancy
  Co  Co0  1  0.85575381  0.75000000  0.06547031  1.0
  Co  Co1  1  0.35575381  0.75000000  0.43452969  1.0
  Co  Co2  1  0.14424619  0.25000000  0.93452969  1.0
  Co  Co3  1  0.64424619  0.25000000  0.56547031  1.0
  Co  Co4  1  0.96746203  0.75000000  0.66827516  1.0
  Co  Co5  1  0.46746203  0.75000000  0.83172484  1.0
  Co  Co6  1  0.03253797  0.25000000  0.33172484  1.0
  Co  Co7  1  0.53253797  0.25000000  0.16827516  1.0
  P  P8  1  0.74941079  0.75000000  0.37899104  1.0
  P  P9  1  0.24941079  0.75000000  0.12100896  1.0
  P  P10  1  0.25058921  0.25000000  0.62100896  1.0
  P  P11  1  0.75058921  0.25000000  0.87899104  1.0
