# generated using pymatgen
data_TlI
_symmetry_space_group_name_H-M   'P 1'
_cell_length_a   7.13514895
_cell_length_b   7.13514895
_cell_length_c   5.31532119
_cell_angle_alpha   90.00000000
_cell_angle_beta   90.00000000
_cell_angle_gamma   141.35055072
_symmetry_Int_Tables_number   1
_chemical_formula_structural   TlI
_chemical_formula_sum   'Tl2 I2'
_cell_volume   169.00731237
_cell_formula_units_Z   2
loop_
 _symmetry_equiv_pos_site_id
 _symmetry_equiv_pos_as_xyz
  1  'x, y, z'
loop_
 _atom_site_type_symbol
 _atom_site_label
 _atom_site_symmetry_multiplicity
 _atom_site_fract_x
 _atom_site_fract_y
 _atom_site_fract_z
 _atom_site_occupancy
  Tl  Tl0  1  -0.88281909  0.88281909  0.25000000  1.0
  Tl  Tl1  1  -0.11718091  1.11718091  0.75000000  1.0
  I  I2  1  -0.63265939  0.63265939  0.25000000  1.0
  I  I3  1  -0.36734061  1.36734061  0.75000000  1.0
