# generated using pymatgen
data_HfNi
_symmetry_space_group_name_H-M   'P 1'
_cell_length_a   5.17870906
_cell_length_b   5.17870906
_cell_length_c   4.08523156
_cell_angle_alpha   90.00000000
_cell_angle_beta   90.00000000
_cell_angle_gamma   143.38119526
_symmetry_Int_Tables_number   1
_chemical_formula_structural   HfNi
_chemical_formula_sum   'Hf2 Ni2'
_cell_volume   65.35241736
_cell_formula_units_Z   2
loop_
 _symmetry_equiv_pos_site_id
 _symmetry_equiv_pos_as_xyz
  1  'x, y, z'
loop_
 _atom_site_type_symbol
 _atom_site_label
 _atom_site_symmetry_multiplicity
 _atom_site_fract_x
 _atom_site_fract_y
 _atom_site_fract_z
 _atom_site_occupancy
  Hf  Hf0  1  -0.64026320  0.64026320  0.25000000  1.0
  Hf  Hf1  1  -0.35973680  1.35973680  0.75000000  1.0
  Ni  Ni2  1  -0.91628864  0.91628864  0.25000000  1.0
  Ni  Ni3  1  -0.08371136  1.08371136  0.75000000  1.0
