# generated using pymatgen
data_NiPbO3
_symmetry_space_group_name_H-M   'P 1'
_cell_length_a   5.44889497
_cell_length_b   5.44889497
_cell_length_c   5.44889497
_cell_angle_alpha   60.24445314
_cell_angle_beta   60.24445314
_cell_angle_gamma   60.24445314
_symmetry_Int_Tables_number   1
_chemical_formula_structural   NiPbO3
_chemical_formula_sum   'Ni2 Pb2 O6'
_cell_volume   115.02890049
_cell_formula_units_Z   2
loop_
 _symmetry_equiv_pos_site_id
 _symmetry_equiv_pos_as_xyz
  1  'x, y, z'
loop_
 _atom_site_type_symbol
 _atom_site_label
 _atom_site_symmetry_multiplicity
 _atom_site_fract_x
 _atom_site_fract_y
 _atom_site_fract_z
 _atom_site_occupancy
  Ni  Ni0  1  -0.00204778  -0.00204778  -0.00204778  1.0
  Ni  Ni1  1  0.49795222  0.49795222  -0.50204778  1.0
  Pb  Pb2  1  0.76358144  -0.23641856  -0.23641856  1.0
  Pb  Pb3  1  0.26358144  0.26358144  0.26358144  1.0
  O  O4  1  0.66420726  -0.17175659  0.23271567  1.0
  O  O5  1  0.16420726  0.73271567  -0.67175659  1.0
  O  O6  1  0.73271567  0.32824341  -0.83579274  1.0
  O  O7  1  1.23271567  -0.33579274  -0.17175659  1.0
  O  O8  1  0.32824341  0.16420726  -0.26728433  1.0
  O  O9  1  0.82824341  0.23271567  -0.33579274  1.0
