# generated using pymatgen
data_Pr6Ni6P17
_symmetry_space_group_name_H-M   'P 1'
_cell_length_a   8.73282272
_cell_length_b   8.73282272
_cell_length_c   8.73282272
_cell_angle_alpha   109.47122063
_cell_angle_beta   109.47122063
_cell_angle_gamma   109.47122063
_symmetry_Int_Tables_number   1
_chemical_formula_structural   Pr6Ni6P17
_chemical_formula_sum   'Pr6 Ni6 P17'
_cell_volume   512.67488285
_cell_formula_units_Z   1
loop_
 _symmetry_equiv_pos_site_id
 _symmetry_equiv_pos_as_xyz
  1  'x, y, z'
loop_
 _atom_site_type_symbol
 _atom_site_label
 _atom_site_symmetry_multiplicity
 _atom_site_fract_x
 _atom_site_fract_y
 _atom_site_fract_z
 _atom_site_occupancy
  P  P0  1  0.59484118  0.36526927  0.36526927  1.0
  P  P1  1  0.36526927  0.59484118  0.36526927  1.0
  P  P2  1  1.00000000  1.22957191  0.63473073  1.0
  P  P3  1  1.22957191  1.00000000  0.63473073  1.0
  P  P4  1  0.36526927  0.36526927  0.59484118  1.0
  P  P5  1  0.77042809  0.77042809  0.40515882  1.0
  P  P6  1  1.00000000  0.63473073  1.22957191  1.0
  P  P7  1  0.77042809  0.40515882  0.77042809  1.0
  P  P8  1  0.40515882  0.77042809  0.77042809  1.0
  P  P9  1  0.63473073  1.00000000  1.22957191  1.0
  P  P10  1  1.22957191  0.63473073  1.00000000  1.0
  P  P11  1  0.63473073  1.22957191  1.00000000  1.0
  P  P12  1  0.57842879  0.57842879  0.57842879  1.0
  P  P13  1  1.00000000  1.00000000  0.42157121  1.0
  P  P14  1  1.00000000  0.42157121  1.00000000  1.0
  P  P15  1  0.42157121  1.00000000  1.00000000  1.0
  P  P16  1  0.00000000  0.00000000  0.00000000  1.0
  Ni  Ni17  1  0.25000000  0.75000000  0.50000000  1.0
  Ni  Ni18  1  0.75000000  0.25000000  0.50000000  1.0
  Ni  Ni19  1  0.25000000  0.50000000  0.75000000  1.0
  Ni  Ni20  1  0.50000000  0.25000000  0.75000000  1.0
  Ni  Ni21  1  0.75000000  0.50000000  0.25000000  1.0
  Ni  Ni22  1  0.50000000  0.75000000  0.25000000  1.0
  Pr  Pr23  1  0.71206755  0.71206755  0.00000000  1.0
  Pr  Pr24  1  0.71206755  -0.00000000  0.71206755  1.0
  Pr  Pr25  1  0.00000000  0.71206755  0.71206755  1.0
  Pr  Pr26  1  0.28793245  0.00000000  0.28793245  1.0
  Pr  Pr27  1  0.00000000  0.28793245  0.28793245  1.0
  Pr  Pr28  1  0.28793245  0.28793245  0.00000000  1.0
