# generated using pymatgen
data_NaBS2
_symmetry_space_group_name_H-M   'P 1'
_cell_length_a   9.15297703
_cell_length_b   9.15297703
_cell_length_c   9.15297703
_cell_angle_alpha   112.55179857
_cell_angle_beta   112.55179857
_cell_angle_gamma   112.55179857
_symmetry_Int_Tables_number   1
_chemical_formula_structural   NaBS2
_chemical_formula_sum   'Na6 B6 S12'
_cell_volume   512.05373772
_cell_formula_units_Z   6
loop_
 _symmetry_equiv_pos_site_id
 _symmetry_equiv_pos_as_xyz
  1  'x, y, z'
loop_
 _atom_site_type_symbol
 _atom_site_label
 _atom_site_symmetry_multiplicity
 _atom_site_fract_x
 _atom_site_fract_y
 _atom_site_fract_z
 _atom_site_occupancy
  Na  Na0  1  1.28494437  -0.25000000  0.21505563  1.0
  Na  Na1  1  0.78494437  0.71505563  0.25000000  1.0
  Na  Na2  1  1.25000000  0.78494437  0.71505563  1.0
  Na  Na3  1  0.75000000  1.21505563  0.28494437  1.0
  Na  Na4  1  0.71505563  0.25000000  -0.21505563  1.0
  Na  Na5  1  0.21505563  0.28494437  -0.25000000  1.0
  B  B6  1  0.63262022  0.75000000  -0.13262022  1.0
  B  B7  1  1.13262022  0.36737978  0.25000000  1.0
  B  B8  1  1.25000000  1.13262022  0.36737978  1.0
  B  B9  1  0.75000000  0.86737978  0.63262022  1.0
  B  B10  1  0.36737978  0.25000000  0.13262022  1.0
  B  B11  1  0.86737978  -0.36737978  -0.25000000  1.0
  S  S12  1  0.51594657  0.75000000  -0.01594657  1.0
  S  S13  1  1.01594657  0.48405343  0.25000000  1.0
  S  S14  1  1.25000000  1.01594657  0.48405343  1.0
  S  S15  1  0.75000000  0.98405343  0.51594657  1.0
  S  S16  1  0.48405343  0.25000000  0.01594657  1.0
  S  S17  1  0.98405343  -0.48405343  -0.25000000  1.0
  S  S18  1  0.87292858  0.75000000  0.62707142  1.0
  S  S19  1  1.37292858  0.12707142  0.25000000  1.0
  S  S20  1  0.25000000  0.37292858  0.12707142  1.0
  S  S21  1  0.75000000  0.62707142  -0.12707142  1.0
  S  S22  1  1.12707142  1.25000000  0.37292858  1.0
  S  S23  1  0.62707142  -0.12707142  -0.25000000  1.0
