# generated using pymatgen
data_NaLi2PO4
_symmetry_space_group_name_H-M   'P 1'
_cell_length_a   10.19919666
_cell_length_b   6.89951619
_cell_length_c   5.00025766
_cell_angle_alpha   90.00000000
_cell_angle_beta   90.00000000
_cell_angle_gamma   90.00000000
_symmetry_Int_Tables_number   1
_chemical_formula_structural   NaLi2PO4
_chemical_formula_sum   'Na4 Li8 P4 O16'
_cell_volume   351.86574438
_cell_formula_units_Z   4
loop_
 _symmetry_equiv_pos_site_id
 _symmetry_equiv_pos_as_xyz
  1  'x, y, z'
loop_
 _atom_site_type_symbol
 _atom_site_label
 _atom_site_symmetry_multiplicity
 _atom_site_fract_x
 _atom_site_fract_y
 _atom_site_fract_z
 _atom_site_occupancy
  Na  Na0  1  0.60454045  0.25000000  0.75802311  1.0
  Na  Na1  1  0.10454045  0.25000000  0.74197689  1.0
  Na  Na2  1  0.39545955  0.75000000  0.24197689  1.0
  Na  Na3  1  0.89545955  0.75000000  0.25802311  1.0
  Li  Li4  1  0.65790341  0.00024909  0.28970907  1.0
  Li  Li5  1  0.65790341  0.49975091  0.28970907  1.0
  Li  Li6  1  0.15790341  0.00024909  0.21029093  1.0
  Li  Li7  1  0.15790341  0.49975091  0.21029093  1.0
  Li  Li8  1  0.34209659  0.50024909  0.71029093  1.0
  Li  Li9  1  0.34209659  0.99975091  0.71029093  1.0
  Li  Li10  1  0.84209659  0.50024909  0.78970907  1.0
  Li  Li11  1  0.84209659  0.99975091  0.78970907  1.0
  P  P12  1  0.90194742  0.25000000  0.29568117  1.0
  P  P13  1  0.40194742  0.25000000  0.20431883  1.0
  P  P14  1  0.09805258  0.75000000  0.70431883  1.0
  P  P15  1  0.59805258  0.75000000  0.79568117  1.0
  O  O16  1  0.83786405  0.43498232  0.17271189  1.0
  O  O17  1  0.83786405  0.06501768  0.17271189  1.0
  O  O18  1  0.33786405  0.43498232  0.32728811  1.0
  O  O19  1  0.33786405  0.06501768  0.32728811  1.0
  O  O20  1  0.16213595  0.93498232  0.82728811  1.0
  O  O21  1  0.16213595  0.56501768  0.82728811  1.0
  O  O22  1  0.66213595  0.93498232  0.67271189  1.0
  O  O23  1  0.66213595  0.56501768  0.67271189  1.0
  O  O24  1  0.87936694  0.25000000  0.60630288  1.0
  O  O25  1  0.37936694  0.25000000  0.89369712  1.0
  O  O26  1  0.12063306  0.75000000  0.39369712  1.0
  O  O27  1  0.62063306  0.75000000  0.10630288  1.0
  O  O28  1  0.55366792  0.25000000  0.25786003  1.0
  O  O29  1  0.05366792  0.25000000  0.24213997  1.0
  O  O30  1  0.44633208  0.75000000  0.74213997  1.0
  O  O31  1  0.94633208  0.75000000  0.75786003  1.0
