# generated using pymatgen
data_CaAsPd
_symmetry_space_group_name_H-M   'P 1'
_cell_length_a   7.21575389
_cell_length_b   8.71686008
_cell_length_c   16.79468453
_cell_angle_alpha   90.00000000
_cell_angle_beta   90.00000000
_cell_angle_gamma   90.00000000
_symmetry_Int_Tables_number   1
_chemical_formula_structural   CaAsPd
_chemical_formula_sum   'Ca16 As16 Pd16'
_cell_volume   1056.36411007
_cell_formula_units_Z   16
loop_
 _symmetry_equiv_pos_site_id
 _symmetry_equiv_pos_as_xyz
  1  'x, y, z'
loop_
 _atom_site_type_symbol
 _atom_site_label
 _atom_site_symmetry_multiplicity
 _atom_site_fract_x
 _atom_site_fract_y
 _atom_site_fract_z
 _atom_site_occupancy
  Ca  Ca0  1  0.26577208  0.99219161  0.68804541  1.0
  Ca  Ca1  1  0.26577208  0.50780839  0.68804541  1.0
  Ca  Ca2  1  0.76577208  0.99219161  0.81195459  1.0
  Ca  Ca3  1  0.76577208  0.50780839  0.81195459  1.0
  Ca  Ca4  1  0.73422792  0.49219161  0.31195459  1.0
  Ca  Ca5  1  0.73422792  0.00780839  0.31195459  1.0
  Ca  Ca6  1  0.23422792  0.49219161  0.18804541  1.0
  Ca  Ca7  1  0.23422792  0.00780839  0.18804541  1.0
  Ca  Ca8  1  0.25090720  0.97870084  0.93897889  1.0
  Ca  Ca9  1  0.25090720  0.52129916  0.93897889  1.0
  Ca  Ca10  1  0.75090720  0.97870084  0.56102111  1.0
  Ca  Ca11  1  0.75090720  0.52129916  0.56102111  1.0
  Ca  Ca12  1  0.74909280  0.47870084  0.06102111  1.0
  Ca  Ca13  1  0.74909280  0.02129916  0.06102111  1.0
  Ca  Ca14  1  0.24909280  0.47870084  0.43897889  1.0
  Ca  Ca15  1  0.24909280  0.02129916  0.43897889  1.0
  As  As16  1  0.45099260  0.75000000  0.82306391  1.0
  As  As17  1  0.95099260  0.75000000  0.67693609  1.0
  As  As18  1  0.54900740  0.25000000  0.17693609  1.0
  As  As19  1  0.04900740  0.25000000  0.32306391  1.0
  As  As20  1  0.43058317  0.75000000  0.28952915  1.0
  As  As21  1  0.93058317  0.75000000  0.21047085  1.0
  As  As22  1  0.56941683  0.25000000  0.71047085  1.0
  As  As23  1  0.06941683  0.25000000  0.78952915  1.0
  As  As24  1  0.42326378  0.75000000  0.57108204  1.0
  As  As25  1  0.92326378  0.75000000  0.92891796  1.0
  As  As26  1  0.57673622  0.25000000  0.42891796  1.0
  As  As27  1  0.07673622  0.25000000  0.07108204  1.0
  As  As28  1  0.35708704  0.75000000  0.06682249  1.0
  As  As29  1  0.85708704  0.75000000  0.43317751  1.0
  As  As30  1  0.64291296  0.25000000  0.93317751  1.0
  As  As31  1  0.14291296  0.25000000  0.56682249  1.0
  Pd  Pd32  1  0.10935426  0.75000000  0.80747722  1.0
  Pd  Pd33  1  0.60935426  0.75000000  0.69252278  1.0
  Pd  Pd34  1  0.89064574  0.25000000  0.19252278  1.0
  Pd  Pd35  1  0.39064574  0.25000000  0.30747722  1.0
  Pd  Pd36  1  0.10754210  0.75000000  0.33386979  1.0
  Pd  Pd37  1  0.60754210  0.75000000  0.16613021  1.0
  Pd  Pd38  1  0.89245790  0.25000000  0.66613021  1.0
  Pd  Pd39  1  0.39245790  0.25000000  0.83386979  1.0
  Pd  Pd40  1  0.09407933  0.75000000  0.53824917  1.0
  Pd  Pd41  1  0.59407933  0.75000000  0.96175083  1.0
  Pd  Pd42  1  0.90592067  0.25000000  0.46175083  1.0
  Pd  Pd43  1  0.40592067  0.25000000  0.03824917  1.0
  Pd  Pd44  1  0.01412234  0.75000000  0.07047679  1.0
  Pd  Pd45  1  0.51412234  0.75000000  0.42952321  1.0
  Pd  Pd46  1  0.98587766  0.25000000  0.92952321  1.0
  Pd  Pd47  1  0.48587766  0.25000000  0.57047679  1.0
