# generated using pymatgen
data_Zr3Ti2Ga3
_symmetry_space_group_name_H-M   'P 1'
_cell_length_a   7.95264634
_cell_length_b   7.95264634
_cell_length_c   5.47864545
_cell_angle_alpha   90.00000000
_cell_angle_beta   90.00000000
_cell_angle_gamma   120.00000000
_symmetry_Int_Tables_number   1
_chemical_formula_structural   Zr3Ti2Ga3
_chemical_formula_sum   'Zr6 Ti4 Ga6'
_cell_volume   300.07317061
_cell_formula_units_Z   2
loop_
 _symmetry_equiv_pos_site_id
 _symmetry_equiv_pos_as_xyz
  1  'x, y, z'
loop_
 _atom_site_type_symbol
 _atom_site_label
 _atom_site_symmetry_multiplicity
 _atom_site_fract_x
 _atom_site_fract_y
 _atom_site_fract_z
 _atom_site_occupancy
  Zr  Zr0  1  0.75708146  0.75708146  0.25000000  1.0
  Zr  Zr1  1  0.75708146  0.00000000  0.75000000  1.0
  Zr  Zr2  1  0.00000000  0.75708146  0.75000000  1.0
  Zr  Zr3  1  -0.00000000  0.24291854  0.25000000  1.0
  Zr  Zr4  1  0.24291854  0.24291854  0.75000000  1.0
  Zr  Zr5  1  0.24291854  0.00000000  0.25000000  1.0
  Ti  Ti6  1  0.33333333  0.66666667  0.50000000  1.0
  Ti  Ti7  1  0.33333333  0.66666667  0.00000000  1.0
  Ti  Ti8  1  0.66666667  0.33333333  0.50000000  1.0
  Ti  Ti9  1  0.66666667  0.33333333  0.00000000  1.0
  Ga  Ga10  1  0.40133196  0.40133196  0.25000000  1.0
  Ga  Ga11  1  0.40133196  0.00000000  0.75000000  1.0
  Ga  Ga12  1  0.00000000  0.40133196  0.75000000  1.0
  Ga  Ga13  1  -0.00000000  0.59866804  0.25000000  1.0
  Ga  Ga14  1  0.59866804  0.59866804  0.75000000  1.0
  Ga  Ga15  1  0.59866804  0.00000000  0.25000000  1.0
