# generated using pymatgen
data_Rb3InS3
_symmetry_space_group_name_H-M   'P 1'
_cell_length_a   8.28780225
_cell_length_b   8.28780225
_cell_length_c   8.01939906
_cell_angle_alpha   83.83378145
_cell_angle_beta   96.16621855
_cell_angle_gamma   66.13141114
_symmetry_Int_Tables_number   1
_chemical_formula_structural   Rb3InS3
_chemical_formula_sum   'Rb6 In2 S6'
_cell_volume   493.86601683
_cell_formula_units_Z   2
loop_
 _symmetry_equiv_pos_site_id
 _symmetry_equiv_pos_as_xyz
  1  'x, y, z'
loop_
 _atom_site_type_symbol
 _atom_site_label
 _atom_site_symmetry_multiplicity
 _atom_site_fract_x
 _atom_site_fract_y
 _atom_site_fract_z
 _atom_site_occupancy
  Rb  Rb0  1  0.61242878  -0.61242878  0.85377517  1.0
  Rb  Rb1  1  0.38757122  -0.38757122  0.14622483  1.0
  Rb  Rb2  1  0.75515280  -0.24484720  0.50000000  1.0
  Rb  Rb3  1  1.24484720  0.24484720  0.50000000  1.0
  Rb  Rb4  1  0.81946101  -0.18053899  0.00000000  1.0
  Rb  Rb5  1  1.18053899  0.18053899  0.00000000  1.0
  In  In6  1  0.82366960  -0.82366960  0.35261940  1.0
  In  In7  1  0.17633040  -0.17633040  0.64738060  1.0
  S  S8  1  0.44816412  -0.15542920  0.77432571  1.0
  S  S9  1  1.15542920  0.55183588  0.77432571  1.0
  S  S10  1  0.84457080  -0.55183588  0.22567429  1.0
  S  S11  1  1.55183588  0.15542920  0.22567429  1.0
  S  S12  1  0.89900235  -0.89900235  0.67741452  1.0
  S  S13  1  0.10099765  -0.10099765  0.32258548  1.0
