# generated using pymatgen
data_HgH4C2S2(O4F3)2
_symmetry_space_group_name_H-M   'P 1'
_cell_length_a   8.04856662
_cell_length_b   7.90753426
_cell_length_c   10.65470352
_cell_angle_alpha   99.52079738
_cell_angle_beta   94.84750094
_cell_angle_gamma   95.39412559
_symmetry_Int_Tables_number   1
_chemical_formula_structural   HgH4C2S2(O4F3)2
_chemical_formula_sum   'Hg2 H8 C4 S4 O16 F12'
_cell_volume   662.34328971
_cell_formula_units_Z   2
loop_
 _symmetry_equiv_pos_site_id
 _symmetry_equiv_pos_as_xyz
  1  'x, y, z'
loop_
 _atom_site_type_symbol
 _atom_site_label
 _atom_site_symmetry_multiplicity
 _atom_site_fract_x
 _atom_site_fract_y
 _atom_site_fract_z
 _atom_site_occupancy
  Hg  Hg0  1  -0.25913927  -0.78640954  -0.49635721  1.0
  Hg  Hg1  1  -0.74086073  -0.21359046  -0.50364279  1.0
  H  H2  1  -0.04825902  -0.94566914  -0.64788653  1.0
  H  H3  1  -0.95174098  -0.05433086  -0.35211347  1.0
  H  H4  1  -0.77267183  -0.93603500  -0.33702595  1.0
  H  H5  1  -0.22732817  -0.06396500  -0.66297405  1.0
  H  H6  1  -0.66256677  -0.48226108  -0.66217783  1.0
  H  H7  1  -0.33743323  -0.51773892  -0.33782217  1.0
  H  H8  1  -0.52139092  -0.32119284  -0.66492003  1.0
  H  H9  1  -0.47860908  -0.67880716  -0.33507997  1.0
  C  C10  1  -0.70627654  -0.93682050  -0.85804098  1.0
  C  C11  1  -0.29372346  -0.06317950  -0.14195902  1.0
  C  C12  1  -0.82404741  -0.52548402  -0.15689685  1.0
  C  C13  1  -0.17595259  -0.47451598  -0.84310315  1.0
  S  S14  1  -0.70755147  -0.87062248  -0.68070383  1.0
  S  S15  1  -0.29244853  -0.12937752  -0.31929617  1.0
  S  S16  1  -0.78946847  -0.59168280  -0.32926526  1.0
  S  S17  1  -0.21053153  -0.40831720  -0.67073474  1.0
  O  O18  1  -0.85255882  -0.98144918  -0.64908130  1.0
  O  O19  1  -0.14744118  -0.01855082  -0.35091870  1.0
  O  O20  1  -0.54846511  -0.91734981  -0.62598730  1.0
  O  O21  1  -0.45153489  -0.08265019  -0.37401270  1.0
  O  O22  1  -0.17353097  -0.94156166  -0.65405981  1.0
  O  O23  1  -0.82646903  -0.05843834  -0.34594019  1.0
  O  O24  1  -0.68263475  -0.73645452  -0.32603287  1.0
  O  O25  1  -0.31736525  -0.26354548  -0.67396713  1.0
  O  O26  1  -0.73168541  -0.68784633  -0.66199372  1.0
  O  O27  1  -0.26831459  -0.31215367  -0.33800628  1.0
  O  O28  1  -0.95651515  -0.64534024  -0.39542723  1.0
  O  O29  1  -0.04348485  -0.35465976  -0.60457277  1.0
  O  O30  1  -0.69491751  -0.44037371  -0.36202744  1.0
  O  O31  1  -0.30508249  -0.55962629  -0.63797256  1.0
  O  O32  1  -0.64476754  -0.35534209  -0.66279793  1.0
  O  O33  1  -0.35523246  -0.64465791  -0.33720207  1.0
  F  F34  1  -0.85277122  -0.90931658  -0.91849679  1.0
  F  F35  1  -0.14722878  -0.09068342  -0.08150321  1.0
  F  F36  1  -0.57937268  -0.84276512  -0.89864507  1.0
  F  F37  1  -0.42062732  -0.15723488  -0.10135493  1.0
  F  F38  1  -0.90882673  -0.65808976  -0.11559069  1.0
  F  F39  1  -0.09117327  -0.34191024  -0.88440931  1.0
  F  F40  1  -0.08568964  -0.61051594  -0.85574911  1.0
  F  F41  1  -0.91431036  -0.38948406  -0.14425089  1.0
  F  F42  1  -0.32437715  -0.51855256  -0.91552912  1.0
  F  F43  1  -0.67562285  -0.48144744  -0.08447088  1.0
  F  F44  1  -0.68529283  -0.10556952  -0.88665685  1.0
  F  F45  1  -0.31470717  -0.89443048  -0.11334315  1.0
