# generated using pymatgen
data_K2BeF4
_symmetry_space_group_name_H-M   'P 1'
_cell_length_a   7.40212537
_cell_length_b   10.09454955
_cell_length_c   5.79858902
_cell_angle_alpha   90.00000000
_cell_angle_beta   90.00000000
_cell_angle_gamma   90.00000000
_symmetry_Int_Tables_number   1
_chemical_formula_structural   K2BeF4
_chemical_formula_sum   'K8 Be4 F16'
_cell_volume   433.27707398
_cell_formula_units_Z   4
loop_
 _symmetry_equiv_pos_site_id
 _symmetry_equiv_pos_as_xyz
  1  'x, y, z'
loop_
 _atom_site_type_symbol
 _atom_site_label
 _atom_site_symmetry_multiplicity
 _atom_site_fract_x
 _atom_site_fract_y
 _atom_site_fract_z
 _atom_site_occupancy
  K  K0  1  0.49255837  0.69411865  -0.00333026  1.0
  K  K1  1  0.99255837  0.80588135  -0.00333026  1.0
  K  K2  1  0.50744163  0.30588135  0.49666974  1.0
  K  K3  1  0.00744163  0.19411865  0.49666974  1.0
  K  K4  1  0.33928408  0.91365860  0.49680134  1.0
  K  K5  1  0.83928408  0.58634140  0.49680134  1.0
  K  K6  1  0.66071592  0.08634140  -0.00319866  1.0
  K  K7  1  0.16071592  0.41365860  -0.00319866  1.0
  Be  Be8  1  0.26973759  0.58101001  0.49724281  1.0
  Be  Be9  1  0.76973759  0.91898999  0.49724281  1.0
  Be  Be10  1  0.73026241  0.41898999  -0.00275719  1.0
  Be  Be11  1  0.23026241  0.08101001  -0.00275719  1.0
  F  F12  1  0.47996913  0.57862019  0.49809513  1.0
  F  F13  1  0.97996913  0.92137981  0.49809513  1.0
  F  F14  1  0.52003087  0.42137981  -0.00190487  1.0
  F  F15  1  0.02003087  0.07862019  -0.00190487  1.0
  F  F16  1  0.31209626  0.93611082  -0.00426543  1.0
  F  F17  1  0.81209626  0.56388918  -0.00426543  1.0
  F  F18  1  0.68790374  0.06388918  0.49573457  1.0
  F  F19  1  0.18790374  0.43611082  0.49573457  1.0
  F  F20  1  0.30172238  0.15466346  0.77673657  1.0
  F  F21  1  0.80172238  0.34533654  0.77673657  1.0
  F  F22  1  0.69827762  0.84533654  0.27673657  1.0
  F  F23  1  0.19827762  0.65466346  0.27673657  1.0
  F  F24  1  0.19739833  0.65324757  0.71871983  1.0
  F  F25  1  0.69739833  0.84675243  0.71871983  1.0
  F  F26  1  0.80260167  0.34675243  0.21871983  1.0
  F  F27  1  0.30260167  0.15324757  0.21871983  1.0
