# generated using pymatgen
data_Ba2Ca4Cu5AgO13
_symmetry_space_group_name_H-M   'P 1'
_cell_length_a   3.84615582
_cell_length_b   3.84615582
_cell_length_c   22.38826282
_cell_angle_alpha   90.00000000
_cell_angle_beta   90.00000000
_cell_angle_gamma   90.00000000
_symmetry_Int_Tables_number   1
_chemical_formula_structural   Ba2Ca4Cu5AgO13
_chemical_formula_sum   'Ba2 Ca4 Cu5 Ag1 O13'
_cell_volume   331.18765911
_cell_formula_units_Z   1
loop_
 _symmetry_equiv_pos_site_id
 _symmetry_equiv_pos_as_xyz
  1  'x, y, z'
loop_
 _atom_site_type_symbol
 _atom_site_label
 _atom_site_symmetry_multiplicity
 _atom_site_fract_x
 _atom_site_fract_y
 _atom_site_fract_z
 _atom_site_occupancy
  Ba  Ba0  1  0.50000000  0.50000000  0.88572524  1.0
  Ba  Ba1  1  0.50000000  0.50000000  0.11427476  1.0
  Ag  Ag2  1  0.00000000  0.00000000  0.00000000  1.0
  Ca  Ca3  1  0.50000000  0.50000000  0.72038141  1.0
  Ca  Ca4  1  0.50000000  0.50000000  0.27961859  1.0
  Ca  Ca5  1  0.50000000  0.50000000  0.57302408  1.0
  Ca  Ca6  1  0.50000000  0.50000000  0.42697592  1.0
  O  O7  1  0.00000000  0.50000000  0.78355873  1.0
  O  O8  1  0.00000000  0.50000000  0.21644127  1.0
  O  O9  1  0.50000000  0.00000000  0.78355873  1.0
  O  O10  1  0.50000000  0.00000000  0.21644127  1.0
  O  O11  1  0.00000000  0.50000000  0.64230170  1.0
  O  O12  1  0.00000000  0.50000000  0.35769830  1.0
  O  O13  1  0.50000000  0.00000000  0.64230170  1.0
  O  O14  1  0.50000000  0.00000000  0.35769830  1.0
  O  O15  1  0.00000000  0.50000000  0.50000000  1.0
  O  O16  1  0.50000000  0.00000000  0.50000000  1.0
  O  O17  1  0.50000000  0.50000000  0.00000000  1.0
  O  O18  1  0.00000000  0.00000000  0.90814758  1.0
  O  O19  1  0.00000000  0.00000000  0.09185242  1.0
  Cu  Cu20  1  0.00000000  0.00000000  0.79353769  1.0
  Cu  Cu21  1  0.00000000  0.00000000  0.20646231  1.0
  Cu  Cu22  1  0.00000000  0.00000000  0.64367319  1.0
  Cu  Cu23  1  0.00000000  0.00000000  0.35632681  1.0
  Cu  Cu24  1  0.00000000  0.00000000  0.50000000  1.0
