# generated using pymatgen
data_K2SiP2
_symmetry_space_group_name_H-M   'P 1'
_cell_length_a   7.99329477
_cell_length_b   7.99329477
_cell_length_c   7.99329477
_cell_angle_alpha   128.64705274
_cell_angle_beta   70.79318512
_cell_angle_gamma   134.78575554
_symmetry_Int_Tables_number   1
_chemical_formula_structural   K2SiP2
_chemical_formula_sum   'K4 Si2 P4'
_cell_volume   277.36650921
_cell_formula_units_Z   2
loop_
 _symmetry_equiv_pos_site_id
 _symmetry_equiv_pos_as_xyz
  1  'x, y, z'
loop_
 _atom_site_type_symbol
 _atom_site_label
 _atom_site_symmetry_multiplicity
 _atom_site_fract_x
 _atom_site_fract_y
 _atom_site_fract_z
 _atom_site_occupancy
  K  K0  1  0.14576670  0.33806547  0.48383217  1.0
  K  K1  1  0.35423330  0.83806547  1.19229877  1.0
  K  K2  1  0.64576670  1.16193453  0.80770123  1.0
  K  K3  1  0.85423330  0.66193453  0.51616783  1.0
  Si  Si4  1  0.25000000  0.25000000  0.00000000  1.0
  Si  Si5  1  0.75000000  0.75000000  -0.00000000  1.0
  P  P6  1  0.40342340  0.33609955  0.73952296  1.0
  P  P7  1  0.09657660  0.83609955  0.93267615  1.0
  P  P8  1  0.90342340  1.16390045  1.06732385  1.0
  P  P9  1  0.59657660  0.66390045  0.26047704  1.0
