# generated using pymatgen
data_Co(O2F)2
_symmetry_space_group_name_H-M   'P 1'
_cell_length_a   9.82463401
_cell_length_b   6.85209058
_cell_length_c   6.28648997
_cell_angle_alpha   90.00000000
_cell_angle_beta   90.00000000
_cell_angle_gamma   90.00000000
_symmetry_Int_Tables_number   1
_chemical_formula_structural   Co(O2F)2
_chemical_formula_sum   'Co4 O16 F8'
_cell_volume   423.20199234
_cell_formula_units_Z   4
loop_
 _symmetry_equiv_pos_site_id
 _symmetry_equiv_pos_as_xyz
  1  'x, y, z'
loop_
 _atom_site_type_symbol
 _atom_site_label
 _atom_site_symmetry_multiplicity
 _atom_site_fract_x
 _atom_site_fract_y
 _atom_site_fract_z
 _atom_site_occupancy
  Co  Co0  1  0.38436026  0.24503628  0.70087444  1.0
  Co  Co1  1  0.88436026  0.75496372  0.70087444  1.0
  Co  Co2  1  0.61563974  0.75496372  0.20087444  1.0
  Co  Co3  1  0.11563974  0.24503628  0.20087444  1.0
  O  O4  1  0.37467010  0.06140535  0.49113821  1.0
  O  O5  1  0.87467010  0.93859465  0.49113821  1.0
  O  O6  1  0.62532990  0.93859465  -0.00886179  1.0
  O  O7  1  0.12532990  0.06140535  -0.00886179  1.0
  O  O8  1  0.38607599  0.42309252  0.90134962  1.0
  O  O9  1  0.88607599  0.57690748  0.90134962  1.0
  O  O10  1  0.61392401  0.57690748  0.40134962  1.0
  O  O11  1  0.11392401  0.42309252  0.40134962  1.0
  O  O12  1  0.19394295  0.23945239  0.71521522  1.0
  O  O13  1  0.69394295  0.76054761  0.71521522  1.0
  O  O14  1  0.80605705  0.76054761  0.21521522  1.0
  O  O15  1  0.30605705  0.23945239  0.21521522  1.0
  O  O16  1  0.05740478  0.75276477  0.68514311  1.0
  O  O17  1  0.55740478  0.24723523  0.68514311  1.0
  O  O18  1  0.94259522  0.24723523  0.18514311  1.0
  O  O19  1  0.44259522  0.75276477  0.18514311  1.0
  F  F20  1  0.38127293  0.04197260  0.88960195  1.0
  F  F21  1  0.88127293  0.95802740  0.88960195  1.0
  F  F22  1  0.61872707  0.95802740  0.38960196  1.0
  F  F23  1  0.11872707  0.04197260  0.38960196  1.0
  F  F24  1  0.36323052  0.44104313  0.50367745  1.0
  F  F25  1  0.86323052  0.55895687  0.50367745  1.0
  F  F26  1  0.63676948  0.55895687  0.00367745  1.0
  F  F27  1  0.13676948  0.44104313  0.00367745  1.0
