# generated using pymatgen
data_Rb3NiO2
_symmetry_space_group_name_H-M   'P 1'
_cell_length_a   6.33838430
_cell_length_b   6.33838430
_cell_length_c   15.08449550
_cell_angle_alpha   90.00000000
_cell_angle_beta   90.00000000
_cell_angle_gamma   90.00000000
_symmetry_Int_Tables_number   1
_chemical_formula_structural   Rb3NiO2
_chemical_formula_sum   'Rb12 Ni4 O8'
_cell_volume   606.02135044
_cell_formula_units_Z   4
loop_
 _symmetry_equiv_pos_site_id
 _symmetry_equiv_pos_as_xyz
  1  'x, y, z'
loop_
 _atom_site_type_symbol
 _atom_site_label
 _atom_site_symmetry_multiplicity
 _atom_site_fract_x
 _atom_site_fract_y
 _atom_site_fract_z
 _atom_site_occupancy
  Rb  Rb0  1  0.99698007  0.50371079  0.12501321  1.0
  Rb  Rb1  1  0.49698007  0.99628921  0.62498679  1.0
  Rb  Rb2  1  0.49628921  0.00301993  0.37498679  1.0
  Rb  Rb3  1  0.99628921  0.49698007  0.37501321  1.0
  Rb  Rb4  1  0.00301993  0.49628921  0.62501321  1.0
  Rb  Rb5  1  0.50301993  0.00371079  0.12498679  1.0
  Rb  Rb6  1  0.50371079  0.99698007  0.87498679  1.0
  Rb  Rb7  1  0.00371079  0.50301993  0.87501321  1.0
  Rb  Rb8  1  0.49326581  0.50673419  0.25000000  1.0
  Rb  Rb9  1  0.99326581  0.99326581  0.50000000  1.0
  Rb  Rb10  1  0.50673419  0.49326581  0.75000000  1.0
  Rb  Rb11  1  0.00673419  0.00673419  0.00000000  1.0
  Ni  Ni12  1  0.99918308  0.00081692  0.25000000  1.0
  Ni  Ni13  1  0.49918308  0.49918308  0.50000000  1.0
  Ni  Ni14  1  0.00081692  0.99918308  0.75000000  1.0
  Ni  Ni15  1  0.50081692  0.50081692  0.00000000  1.0
  O  O16  1  0.30376249  0.69853497  0.00145784  1.0
  O  O17  1  0.80376249  0.80146503  0.74854216  1.0
  O  O18  1  0.30146503  0.69623751  0.49854216  1.0
  O  O19  1  0.80146503  0.80376249  0.25145784  1.0
  O  O20  1  0.69623751  0.30146503  0.50145784  1.0
  O  O21  1  0.19623751  0.19853497  0.24854216  1.0
  O  O22  1  0.69853497  0.30376249  0.99854216  1.0
  O  O23  1  0.19853497  0.19623751  0.75145784  1.0
