# generated using pymatgen
data_GdSi3Ni5
_symmetry_space_group_name_H-M   'P 1'
_cell_length_a   18.80552498
_cell_length_b   3.80718770
_cell_length_c   6.65393984
_cell_angle_alpha   90.00000000
_cell_angle_beta   90.00000000
_cell_angle_gamma   90.00000000
_symmetry_Int_Tables_number   1
_chemical_formula_structural   GdSi3Ni5
_chemical_formula_sum   'Gd4 Si12 Ni20'
_cell_volume   476.39656413
_cell_formula_units_Z   4
loop_
 _symmetry_equiv_pos_site_id
 _symmetry_equiv_pos_as_xyz
  1  'x, y, z'
loop_
 _atom_site_type_symbol
 _atom_site_label
 _atom_site_symmetry_multiplicity
 _atom_site_fract_x
 _atom_site_fract_y
 _atom_site_fract_z
 _atom_site_occupancy
  Gd  Gd0  1  0.14368543  0.75000000  0.37671366  1.0
  Gd  Gd1  1  0.64368543  0.75000000  0.12328634  1.0
  Gd  Gd2  1  0.85631457  0.25000000  0.62328634  1.0
  Gd  Gd3  1  0.35631457  0.25000000  0.87671366  1.0
  Si  Si4  1  0.42625795  0.75000000  0.15620017  1.0
  Si  Si5  1  0.92625795  0.75000000  0.34379983  1.0
  Si  Si6  1  0.57374205  0.25000000  0.84379983  1.0
  Si  Si7  1  0.07374205  0.25000000  0.65620017  1.0
  Si  Si8  1  0.41403326  0.75000000  0.57979207  1.0
  Si  Si9  1  0.91403326  0.75000000  0.92020793  1.0
  Si  Si10  1  0.58596674  0.25000000  0.42020793  1.0
  Si  Si11  1  0.08596674  0.25000000  0.07979207  1.0
  Si  Si12  1  0.23694052  0.75000000  0.87910971  1.0
  Si  Si13  1  0.73694052  0.75000000  0.62089029  1.0
  Si  Si14  1  0.76305948  0.25000000  0.12089029  1.0
  Si  Si15  1  0.26305948  0.25000000  0.37910971  1.0
  Ni  Ni16  1  0.49476167  0.75000000  0.86543751  1.0
  Ni  Ni17  1  0.99476167  0.75000000  0.63456249  1.0
  Ni  Ni18  1  0.50523833  0.25000000  0.13456249  1.0
  Ni  Ni19  1  0.00523833  0.25000000  0.36543751  1.0
  Ni  Ni20  1  0.29325391  0.75000000  0.56999288  1.0
  Ni  Ni21  1  0.79325391  0.75000000  0.93000712  1.0
  Ni  Ni22  1  0.70674609  0.25000000  0.43000712  1.0
  Ni  Ni23  1  0.20674609  0.25000000  0.06999288  1.0
  Ni  Ni24  1  0.30066816  0.75000000  0.18627471  1.0
  Ni  Ni25  1  0.80066816  0.75000000  0.31372529  1.0
  Ni  Ni26  1  0.69933184  0.25000000  0.81372529  1.0
  Ni  Ni27  1  0.19933184  0.25000000  0.68627471  1.0
  Ni  Ni28  1  0.11498613  0.75000000  0.85608291  1.0
  Ni  Ni29  1  0.61498613  0.75000000  0.64391709  1.0
  Ni  Ni30  1  0.88501387  0.25000000  0.14391709  1.0
  Ni  Ni31  1  0.38501387  0.25000000  0.35608291  1.0
  Ni  Ni32  1  0.01524201  0.75000000  0.11443887  1.0
  Ni  Ni33  1  0.51524201  0.75000000  0.38556113  1.0
  Ni  Ni34  1  0.98475799  0.25000000  0.88556113  1.0
  Ni  Ni35  1  0.48475799  0.25000000  0.61443887  1.0
