# generated using pymatgen
data_BaZn5
_symmetry_space_group_name_H-M   'P 1'
_cell_length_a   6.87826798
_cell_length_b   6.87826798
_cell_length_c   5.35227189
_cell_angle_alpha   90.00000000
_cell_angle_beta   90.00000000
_cell_angle_gamma   75.79938464
_symmetry_Int_Tables_number   1
_chemical_formula_structural   BaZn5
_chemical_formula_sum   'Ba2 Zn10'
_cell_volume   245.48134999
_cell_formula_units_Z   2
loop_
 _symmetry_equiv_pos_site_id
 _symmetry_equiv_pos_as_xyz
  1  'x, y, z'
loop_
 _atom_site_type_symbol
 _atom_site_label
 _atom_site_symmetry_multiplicity
 _atom_site_fract_x
 _atom_site_fract_y
 _atom_site_fract_z
 _atom_site_occupancy
  Ba  Ba0  1  -0.33157552  1.33157552  0.25000000  1.0
  Ba  Ba1  1  0.33157552  0.66842448  0.75000000  1.0
  Zn  Zn2  1  0.08126014  0.53534613  0.25000000  1.0
  Zn  Zn3  1  -0.46465387  1.08126014  0.75000000  1.0
  Zn  Zn4  1  0.46465387  0.91873986  0.25000000  1.0
  Zn  Zn5  1  -0.08126014  1.46465387  0.75000000  1.0
  Zn  Zn6  1  0.79512134  0.79512134  0.50000000  1.0
  Zn  Zn7  1  0.79512134  0.79512134  0.00000000  1.0
  Zn  Zn8  1  0.20487866  0.20487866  0.50000000  1.0
  Zn  Zn9  1  0.20487866  0.20487866  0.00000000  1.0
  Zn  Zn10  1  0.07799075  0.92200925  0.25000000  1.0
  Zn  Zn11  1  -0.07799075  1.07799075  0.75000000  1.0
