# generated using pymatgen
data_Re4Ni4Mo7
_symmetry_space_group_name_H-M   'P 1'
_cell_length_a   9.28912774
_cell_length_b   9.28912774
_cell_length_c   4.94108461
_cell_angle_alpha   90.00000000
_cell_angle_beta   90.00000000
_cell_angle_gamma   90.00000000
_symmetry_Int_Tables_number   1
_chemical_formula_structural   Re4Ni4Mo7
_chemical_formula_sum   'Re8 Ni8 Mo14'
_cell_volume   426.35578536
_cell_formula_units_Z   2
loop_
 _symmetry_equiv_pos_site_id
 _symmetry_equiv_pos_as_xyz
  1  'x, y, z'
loop_
 _atom_site_type_symbol
 _atom_site_label
 _atom_site_symmetry_multiplicity
 _atom_site_fract_x
 _atom_site_fract_y
 _atom_site_fract_z
 _atom_site_occupancy
  Re  Re0  1  0.31448970  0.68551030  0.25046089  1.0
  Re  Re1  1  0.68551030  0.31448970  0.25046089  1.0
  Re  Re2  1  0.18551030  0.18551030  0.75046089  1.0
  Re  Re3  1  0.81448970  0.81448970  0.75046089  1.0
  Re  Re4  1  0.68551030  0.31448970  0.74953911  1.0
  Re  Re5  1  0.31448970  0.68551030  0.74953911  1.0
  Re  Re6  1  0.81448970  0.81448970  0.24953911  1.0
  Re  Re7  1  0.18551030  0.18551030  0.24953911  1.0
  Ni  Ni8  1  0.43213327  0.24115017  0.50000000  1.0
  Ni  Ni9  1  0.56786673  0.75884983  0.50000000  1.0
  Ni  Ni10  1  0.06786673  0.74115017  0.00000000  1.0
  Ni  Ni11  1  0.93213327  0.25884983  0.00000000  1.0
  Ni  Ni12  1  0.24115017  0.43213327  0.50000000  1.0
  Ni  Ni13  1  0.75884983  0.56786673  0.50000000  1.0
  Ni  Ni14  1  0.74115017  0.06786673  0.00000000  1.0
  Ni  Ni15  1  0.25884983  0.93213327  0.00000000  1.0
  Mo  Mo16  1  0.50000000  0.50000000  0.50000000  1.0
  Mo  Mo17  1  0.00000000  0.00000000  0.00000000  1.0
  Mo  Mo18  1  0.10696963  0.89303037  0.50000000  1.0
  Mo  Mo19  1  0.89303037  0.10696963  0.50000000  1.0
  Mo  Mo20  1  0.39303037  0.39303037  0.00000000  1.0
  Mo  Mo21  1  0.60696963  0.60696963  0.00000000  1.0
  Mo  Mo22  1  0.37026217  0.96402444  0.50000000  1.0
  Mo  Mo23  1  0.62973783  0.03597556  0.50000000  1.0
  Mo  Mo24  1  0.12973783  0.46402444  0.00000000  1.0
  Mo  Mo25  1  0.87026217  0.53597556  0.00000000  1.0
  Mo  Mo26  1  0.96402444  0.37026217  0.50000000  1.0
  Mo  Mo27  1  0.03597556  0.62973783  0.50000000  1.0
  Mo  Mo28  1  0.46402444  0.12973783  0.00000000  1.0
  Mo  Mo29  1  0.53597556  0.87026217  0.00000000  1.0
