# generated using pymatgen
data_Xe(OF)2
_symmetry_space_group_name_H-M   'P 1'
_cell_length_a   4.62399913
_cell_length_b   4.62399913
_cell_length_c   9.13454034
_cell_angle_alpha   90.00000000
_cell_angle_beta   90.00000000
_cell_angle_gamma   94.21407999
_symmetry_Int_Tables_number   1
_chemical_formula_structural   Xe(OF)2
_chemical_formula_sum   'Xe2 O4 F4'
_cell_volume   194.78094033
_cell_formula_units_Z   2
loop_
 _symmetry_equiv_pos_site_id
 _symmetry_equiv_pos_as_xyz
  1  'x, y, z'
loop_
 _atom_site_type_symbol
 _atom_site_label
 _atom_site_symmetry_multiplicity
 _atom_site_fract_x
 _atom_site_fract_y
 _atom_site_fract_z
 _atom_site_occupancy
  Xe  Xe0  1  0.21114780  0.78885220  0.25000000  1.0
  Xe  Xe1  1  -0.21114780  1.21114780  0.75000000  1.0
  O  O2  1  -0.17792874  1.70844703  0.25000000  1.0
  O  O3  1  0.70844703  0.82207126  0.75000000  1.0
  O  O4  1  -0.70844703  1.17792874  0.25000000  1.0
  O  O5  1  0.17792874  0.29155297  0.75000000  1.0
  F  F6  1  0.23385790  0.76614210  0.46879827  1.0
  F  F7  1  0.23385790  0.76614210  0.03120173  1.0
  F  F8  1  -0.23385790  1.23385790  0.96879827  1.0
  F  F9  1  -0.23385790  1.23385790  0.53120173  1.0
