# generated using pymatgen
data_Ti2VHO6
_symmetry_space_group_name_H-M   'P 1'
_cell_length_a   8.54256362
_cell_length_b   4.61374571
_cell_length_c   10.03287954
_cell_angle_alpha   90.00000000
_cell_angle_beta   92.94433070
_cell_angle_gamma   90.00000000
_symmetry_Int_Tables_number   1
_chemical_formula_structural   Ti2VHO6
_chemical_formula_sum   'Ti8 V4 H4 O24'
_cell_volume   394.90605146
_cell_formula_units_Z   4
loop_
 _symmetry_equiv_pos_site_id
 _symmetry_equiv_pos_as_xyz
  1  'x, y, z'
loop_
 _atom_site_type_symbol
 _atom_site_label
 _atom_site_symmetry_multiplicity
 _atom_site_fract_x
 _atom_site_fract_y
 _atom_site_fract_z
 _atom_site_occupancy
  H  H0  1  0.58689705  0.92015064  0.43710122  1.0
  H  H1  1  0.58689705  0.57984936  0.93710122  1.0
  H  H2  1  0.41310295  0.42015064  0.06289878  1.0
  H  H3  1  0.41310295  0.07984936  0.56289878  1.0
  V  V4  1  0.40764892  0.48255714  0.34718094  1.0
  V  V5  1  0.40764892  0.01744286  0.84718094  1.0
  V  V6  1  0.59235108  0.98255714  0.15281906  1.0
  V  V7  1  0.59235108  0.51744286  0.65281906  1.0
  O  O8  1  0.92561596  0.28487833  0.29584683  1.0
  O  O9  1  0.92561596  0.21512167  0.79584683  1.0
  O  O10  1  0.07438404  0.78487833  0.20415317  1.0
  O  O11  1  0.07438404  0.71512167  0.70415317  1.0
  O  O12  1  0.90937746  0.78961150  0.45731334  1.0
  O  O13  1  0.90937746  0.71038850  0.95731334  1.0
  O  O14  1  0.09062254  0.28961150  0.04268666  1.0
  O  O15  1  0.09062254  0.21038850  0.54268666  1.0
  O  O16  1  0.75669561  0.21216813  0.05060480  1.0
  O  O17  1  0.75669561  0.28783187  0.55060480  1.0
  O  O18  1  0.24330439  0.71216813  0.44939520  1.0
  O  O19  1  0.24330439  0.78783187  0.94939520  1.0
  O  O20  1  0.58585087  0.24188068  0.29764164  1.0
  O  O21  1  0.58585087  0.25811932  0.79764164  1.0
  O  O22  1  0.41414913  0.74188068  0.20235836  1.0
  O  O23  1  0.41414913  0.75811932  0.70235836  1.0
  O  O24  1  0.41885580  0.21107869  0.04427645  1.0
  O  O25  1  0.41885580  0.28892131  0.54427645  1.0
  O  O26  1  0.58114420  0.71107869  0.45572355  1.0
  O  O27  1  0.58114420  0.78892131  0.95572355  1.0
  O  O28  1  0.24990154  0.20679145  0.28892303  1.0
  O  O29  1  0.24990154  0.29320855  0.78892303  1.0
  O  O30  1  0.75009846  0.70679145  0.21107697  1.0
  O  O31  1  0.75009846  0.79320855  0.71107697  1.0
  Ti  Ti32  1  0.77431248  0.48204851  0.38355324  1.0
  Ti  Ti33  1  0.77431248  0.01795149  0.88355324  1.0
  Ti  Ti34  1  0.22568752  0.98204851  0.11644676  1.0
  Ti  Ti35  1  0.22568752  0.51795149  0.61644676  1.0
  Ti  Ti36  1  0.90624822  0.49447205  0.12260122  1.0
  Ti  Ti37  1  0.90624822  0.00552795  0.62260122  1.0
  Ti  Ti38  1  0.09375178  0.99447205  0.37739878  1.0
  Ti  Ti39  1  0.09375178  0.50552795  0.87739878  1.0
