# generated using pymatgen
data_Cu3AsS4
_symmetry_space_group_name_H-M   'P 1'
_cell_length_a   7.46491895
_cell_length_b   6.47795442
_cell_length_c   6.18546693
_cell_angle_alpha   90.00000000
_cell_angle_beta   90.00000000
_cell_angle_gamma   90.00000000
_symmetry_Int_Tables_number   1
_chemical_formula_structural   Cu3AsS4
_chemical_formula_sum   'Cu6 As2 S8'
_cell_volume   299.11312768
_cell_formula_units_Z   2
loop_
 _symmetry_equiv_pos_site_id
 _symmetry_equiv_pos_as_xyz
  1  'x, y, z'
loop_
 _atom_site_type_symbol
 _atom_site_label
 _atom_site_symmetry_multiplicity
 _atom_site_fract_x
 _atom_site_fract_y
 _atom_site_fract_z
 _atom_site_occupancy
  Cu  Cu0  1  0.24990184  0.17144744  0.99805159  1.0
  Cu  Cu1  1  0.74990184  0.82855256  0.49805159  1.0
  Cu  Cu2  1  0.75009816  0.17144744  0.99805159  1.0
  Cu  Cu3  1  0.25009816  0.82855256  0.49805159  1.0
  Cu  Cu4  1  0.50000000  0.66142467  -0.00595959  1.0
  Cu  Cu5  1  0.00000000  0.33857533  0.49404041  1.0
  As  As6  1  0.50000000  0.33029856  0.49249887  1.0
  As  As7  1  0.00000000  0.66970144  -0.00750113  1.0
  S  S8  1  0.24867632  0.16121388  0.36826106  1.0
  S  S9  1  0.74867632  0.83878612  0.86826106  1.0
  S  S10  1  0.75132368  0.16121388  0.36826106  1.0
  S  S11  1  0.25132368  0.83878612  0.86826106  1.0
  S  S12  1  0.50000000  0.32830483  0.86381751  1.0
  S  S13  1  0.00000000  0.67169517  0.36381751  1.0
  S  S14  1  0.50000000  0.66134062  0.36601792  1.0
  S  S15  1  0.00000000  0.33865938  0.86601792  1.0
