# generated using pymatgen
data_TiS
_symmetry_space_group_name_H-M   'P 1'
_cell_length_a   9.10210960
_cell_length_b   9.10210960
_cell_length_c   9.10210960
_cell_angle_alpha   21.82945285
_cell_angle_beta   21.82945285
_cell_angle_gamma   21.82945285
_symmetry_Int_Tables_number   1
_chemical_formula_structural   TiS
_chemical_formula_sum   'Ti3 S3'
_cell_volume   91.39043432
_cell_formula_units_Z   3
loop_
 _symmetry_equiv_pos_site_id
 _symmetry_equiv_pos_as_xyz
  1  'x, y, z'
loop_
 _atom_site_type_symbol
 _atom_site_label
 _atom_site_symmetry_multiplicity
 _atom_site_fract_x
 _atom_site_fract_y
 _atom_site_fract_z
 _atom_site_occupancy
  Ti  Ti0  1  0.00000000  0.00000000  0.00000000  1.0
  Ti  Ti1  1  0.88163875  0.88163875  0.88163875  1.0
  Ti  Ti2  1  1.11836125  1.11836125  0.11836125  1.0
  S  S3  1  0.72324752  0.72324752  0.72324752  1.0
  S  S4  1  1.27675248  1.27675248  0.27675248  1.0
  S  S5  1  1.50000000  0.50000000  0.50000000  1.0
