# generated using pymatgen
data_Ca3Al2O6
_symmetry_space_group_name_H-M   'P 1'
_cell_length_a   7.66552221
_cell_length_b   7.66552221
_cell_length_c   7.66552221
_cell_angle_alpha   90.00000000
_cell_angle_beta   90.00000000
_cell_angle_gamma   90.00000000
_symmetry_Int_Tables_number   1
_chemical_formula_structural   Ca3Al2O6
_chemical_formula_sum   'Ca9 Al6 O18'
_cell_volume   450.42785393
_cell_formula_units_Z   3
loop_
 _symmetry_equiv_pos_site_id
 _symmetry_equiv_pos_as_xyz
  1  'x, y, z'
loop_
 _atom_site_type_symbol
 _atom_site_label
 _atom_site_symmetry_multiplicity
 _atom_site_fract_x
 _atom_site_fract_y
 _atom_site_fract_z
 _atom_site_occupancy
  O  O0  1  0.50000000  0.00000000  0.76258290  1.0
  O  O1  1  0.00000000  0.23741710  0.50000000  1.0
  O  O2  1  0.23741710  0.50000000  0.00000000  1.0
  O  O3  1  0.50000000  0.23741710  0.00000000  1.0
  O  O4  1  0.00000000  0.50000000  0.76258290  1.0
  O  O5  1  0.23741710  0.00000000  0.50000000  1.0
  O  O6  1  0.50000000  0.00000000  0.23741710  1.0
  O  O7  1  0.00000000  0.76258290  0.50000000  1.0
  O  O8  1  0.50000000  0.76258290  0.00000000  1.0
  O  O9  1  0.00000000  0.50000000  0.23741710  1.0
  O  O10  1  0.76258290  0.50000000  0.00000000  1.0
  O  O11  1  0.76258290  0.00000000  0.50000000  1.0
  O  O12  1  0.50000000  0.50000000  0.76673689  1.0
  O  O13  1  0.50000000  0.23326311  0.50000000  1.0
  O  O14  1  0.23326311  0.50000000  0.50000000  1.0
  O  O15  1  0.50000000  0.50000000  0.23326311  1.0
  O  O16  1  0.50000000  0.76673689  0.50000000  1.0
  O  O17  1  0.76673689  0.50000000  0.50000000  1.0
  Al  Al18  1  0.00000000  0.50000000  0.50000000  1.0
  Al  Al19  1  0.50000000  0.50000000  0.00000000  1.0
  Al  Al20  1  0.50000000  0.00000000  0.50000000  1.0
  Al  Al21  1  0.00000000  0.00000000  0.50000000  1.0
  Al  Al22  1  0.00000000  0.50000000  0.00000000  1.0
  Al  Al23  1  0.50000000  0.00000000  0.00000000  1.0
  Ca  Ca24  1  0.29279383  0.29279383  0.70720617  1.0
  Ca  Ca25  1  0.29279383  0.70720617  0.29279383  1.0
  Ca  Ca26  1  0.70720617  0.29279383  0.29279383  1.0
  Ca  Ca27  1  0.70720617  0.70720617  0.70720617  1.0
  Ca  Ca28  1  0.70720617  0.70720617  0.29279383  1.0
  Ca  Ca29  1  0.70720617  0.29279383  0.70720617  1.0
  Ca  Ca30  1  0.29279383  0.70720617  0.70720617  1.0
  Ca  Ca31  1  0.29279383  0.29279383  0.29279383  1.0
  Ca  Ca32  1  0.00000000  0.00000000  0.00000000  1.0
