# generated using pymatgen
data_Zr(Fe3Ge2)2
_symmetry_space_group_name_H-M   'P 1'
_cell_length_a   7.33066403
_cell_length_b   7.33066403
_cell_length_c   7.33066403
_cell_angle_alpha   40.28422738
_cell_angle_beta   40.28422738
_cell_angle_gamma   40.28422738
_symmetry_Int_Tables_number   1
_chemical_formula_structural   Zr(Fe3Ge2)2
_chemical_formula_sum   'Zr1 Fe6 Ge4'
_cell_volume   148.47386429
_cell_formula_units_Z   1
loop_
 _symmetry_equiv_pos_site_id
 _symmetry_equiv_pos_as_xyz
  1  'x, y, z'
loop_
 _atom_site_type_symbol
 _atom_site_label
 _atom_site_symmetry_multiplicity
 _atom_site_fract_x
 _atom_site_fract_y
 _atom_site_fract_z
 _atom_site_occupancy
  Zr  Zr0  1  0.00000000  0.00000000  0.00000000  1.0
  Fe  Fe1  1  1.40060611  1.40060611  -0.10806013  1.0
  Fe  Fe2  1  1.40060611  0.89193987  0.40060611  1.0
  Fe  Fe3  1  1.10806013  0.59939389  0.59939389  1.0
  Fe  Fe4  1  1.59939389  0.10806013  0.59939389  1.0
  Fe  Fe5  1  1.59939389  0.59939389  0.10806013  1.0
  Fe  Fe6  1  0.89193987  1.40060611  0.40060611  1.0
  Ge  Ge7  1  0.86737402  0.86737402  0.86737402  1.0
  Ge  Ge8  1  1.13262598  1.13262598  0.13262598  1.0
  Ge  Ge9  1  0.66716460  0.66716460  0.66716460  1.0
  Ge  Ge10  1  1.33283540  1.33283540  0.33283540  1.0
