# generated using pymatgen
data_LuMnB4
_symmetry_space_group_name_H-M   'P 1'
_cell_length_a   5.84944418
_cell_length_b   11.30391091
_cell_length_c   3.34030004
_cell_angle_alpha   90.00000000
_cell_angle_beta   90.00000000
_cell_angle_gamma   90.00000000
_symmetry_Int_Tables_number   1
_chemical_formula_structural   LuMnB4
_chemical_formula_sum   'Lu4 Mn4 B16'
_cell_volume   220.86596930
_cell_formula_units_Z   4
loop_
 _symmetry_equiv_pos_site_id
 _symmetry_equiv_pos_as_xyz
  1  'x, y, z'
loop_
 _atom_site_type_symbol
 _atom_site_label
 _atom_site_symmetry_multiplicity
 _atom_site_fract_x
 _atom_site_fract_y
 _atom_site_fract_z
 _atom_site_occupancy
  Lu  Lu0  1  0.12665560  0.65029289  0.50000000  1.0
  Lu  Lu1  1  0.62665560  0.84970711  0.50000000  1.0
  Lu  Lu2  1  0.87334440  0.34970711  0.50000000  1.0
  Lu  Lu3  1  0.37334440  0.15029289  0.50000000  1.0
  Mn  Mn4  1  0.12841906  0.91571027  0.50000000  1.0
  Mn  Mn5  1  0.62841906  0.58428973  0.50000000  1.0
  Mn  Mn6  1  0.87158094  0.08428973  0.50000000  1.0
  Mn  Mn7  1  0.37158094  0.41571027  0.50000000  1.0
  B  B8  1  0.47545224  0.69227267  0.00000000  1.0
  B  B9  1  0.97545224  0.80772733  0.00000000  1.0
  B  B10  1  0.52454776  0.30772733  0.00000000  1.0
  B  B11  1  0.02454776  0.19227267  0.00000000  1.0
  B  B12  1  0.38687426  0.54697380  0.00000000  1.0
  B  B13  1  0.88687426  0.95302620  0.00000000  1.0
  B  B14  1  0.61312574  0.45302620  0.00000000  1.0
  B  B15  1  0.11312574  0.04697380  0.00000000  1.0
  B  B16  1  0.36371314  0.96796818  0.00000000  1.0
  B  B17  1  0.86371314  0.53203182  -0.00000000  1.0
  B  B18  1  0.63628686  0.03203182  0.00000000  1.0
  B  B19  1  0.13628686  0.46796818  -0.00000000  1.0
  B  B20  1  0.28351347  0.81538728  -0.00000000  1.0
  B  B21  1  0.78351347  0.68461272  0.00000000  1.0
  B  B22  1  0.71648653  0.18461272  -0.00000000  1.0
  B  B23  1  0.21648653  0.31538728  0.00000000  1.0
