# generated using pymatgen
data_Fe2O3
_symmetry_space_group_name_H-M   'P 1'
_cell_length_a   5.67398450
_cell_length_b   5.67398450
_cell_length_c   9.27295678
_cell_angle_alpha   90.00000000
_cell_angle_beta   90.00000000
_cell_angle_gamma   120.00000000
_symmetry_Int_Tables_number   1
_chemical_formula_structural   Fe2O3
_chemical_formula_sum   'Fe4 O6'
_cell_volume   258.53845990
_cell_formula_units_Z   2
loop_
 _symmetry_equiv_pos_site_id
 _symmetry_equiv_pos_as_xyz
  1  'x, y, z'
loop_
 _atom_site_type_symbol
 _atom_site_label
 _atom_site_symmetry_multiplicity
 _atom_site_fract_x
 _atom_site_fract_y
 _atom_site_fract_z
 _atom_site_occupancy
  Fe  Fe0  1  0.00000000  0.00000000  0.35861101  1.0
  Fe  Fe1  1  0.00000000  0.00000000  0.64138899  1.0
  Fe  Fe2  1  0.00000000  0.00000000  0.12624218  1.0
  Fe  Fe3  1  0.00000000  0.00000000  0.87375782  1.0
  O  O4  1  0.73679610  0.73789822  0.21570669  1.0
  O  O5  1  0.73789822  1.00110211  0.78429331  1.0
  O  O6  1  1.00110211  0.26320390  0.21570669  1.0
  O  O7  1  0.26210178  -0.00110211  0.21570669  1.0
  O  O8  1  0.26320390  0.26210178  0.78429331  1.0
  O  O9  1  -0.00110211  0.73679610  0.78429331  1.0
