# generated using pymatgen
data_H6CSN2O
_symmetry_space_group_name_H-M   'P 1'
_cell_length_a   6.04128044
_cell_length_b   9.70450156
_cell_length_c   7.89865114
_cell_angle_alpha   90.00000000
_cell_angle_beta   97.61372179
_cell_angle_gamma   90.00000000
_symmetry_Int_Tables_number   1
_chemical_formula_structural   H6CSN2O
_chemical_formula_sum   'H24 C4 S4 N8 O4'
_cell_volume   458.99650157
_cell_formula_units_Z   4
loop_
 _symmetry_equiv_pos_site_id
 _symmetry_equiv_pos_as_xyz
  1  'x, y, z'
loop_
 _atom_site_type_symbol
 _atom_site_label
 _atom_site_symmetry_multiplicity
 _atom_site_fract_x
 _atom_site_fract_y
 _atom_site_fract_z
 _atom_site_occupancy
  H  H0  1  0.96785595  0.79862707  -0.00569117  1.0
  H  H1  1  0.96785595  0.70137293  0.49430883  1.0
  H  H2  1  0.03214405  0.29862707  0.50569117  1.0
  H  H3  1  0.03214405  0.20137293  1.00569117  1.0
  H  H4  1  0.83372748  0.95372629  0.37118682  1.0
  H  H5  1  0.83372748  0.54627371  0.87118682  1.0
  H  H6  1  0.16627252  0.45372629  0.12881318  1.0
  H  H7  1  0.16627252  0.04627371  0.62881318  1.0
  H  H8  1  0.74631205  0.34254299  0.47021176  1.0
  H  H9  1  0.74631205  0.15745701  0.97021176  1.0
  H  H10  1  0.25368795  0.84254299  0.02978824  1.0
  H  H11  1  0.25368795  0.65745701  0.52978824  1.0
  H  H12  1  0.72968257  0.87226844  0.17689620  1.0
  H  H13  1  0.72968257  0.62773156  0.67689620  1.0
  H  H14  1  0.27031743  0.37226844  0.32310380  1.0
  H  H15  1  0.27031743  0.12773156  0.82310380  1.0
  H  H16  1  0.50556596  0.26940468  0.09443588  1.0
  H  H17  1  0.50556596  0.23059532  0.59443588  1.0
  H  H18  1  0.49443404  0.76940468  0.40556412  1.0
  H  H19  1  0.49443404  0.73059532  0.90556412  1.0
  H  H20  1  0.42865527  0.12020611  0.14452297  1.0
  H  H21  1  0.42865527  0.37979389  0.64452297  1.0
  H  H22  1  0.57134473  0.62020611  0.35547703  1.0
  H  H23  1  0.57134473  0.87979389  0.85547703  1.0
  C  C24  1  0.93145552  0.40339637  0.28359446  1.0
  C  C25  1  0.93145552  0.09660363  0.78359446  1.0
  C  C26  1  0.06854448  0.90339637  0.21640554  1.0
  C  C27  1  0.06854448  0.59660363  0.71640554  1.0
  S  S28  1  0.70937468  0.47663724  0.15487490  1.0
  S  S29  1  0.70937468  0.02336276  0.65487490  1.0
  S  S30  1  0.29062532  0.97663724  0.34512510  1.0
  S  S31  1  0.29062532  0.52336276  0.84512510  1.0
  N  N32  1  0.90120943  0.34251179  0.43038284  1.0
  N  N33  1  0.90120943  0.15748821  0.93038284  1.0
  N  N34  1  0.09879057  0.84251179  0.06961716  1.0
  N  N35  1  0.09879057  0.65748821  0.56961716  1.0
  N  N36  1  0.86268360  0.90448136  0.26179540  1.0
  N  N37  1  0.86268360  0.59551864  0.76179540  1.0
  N  N38  1  0.13731640  0.40448136  0.23820460  1.0
  N  N39  1  0.13731640  0.09551864  0.73820460  1.0
  O  O40  1  0.46069196  0.17776469  0.04719196  1.0
  O  O41  1  0.46069196  0.32223531  0.54719196  1.0
  O  O42  1  0.53930804  0.67776469  0.45280804  1.0
  O  O43  1  0.53930804  0.82223531  0.95280804  1.0
