# generated using pymatgen
data_Sr3(SnAs2)2
_symmetry_space_group_name_H-M   'P 1'
_cell_length_a   7.79001580
_cell_length_b   19.46706959
_cell_length_c   7.80305349
_cell_angle_alpha   90.00000000
_cell_angle_beta   112.03826101
_cell_angle_gamma   90.00000000
_symmetry_Int_Tables_number   1
_chemical_formula_structural   Sr3(SnAs2)2
_chemical_formula_sum   'Sr12 Sn8 As16'
_cell_volume   1096.86222164
_cell_formula_units_Z   4
loop_
 _symmetry_equiv_pos_site_id
 _symmetry_equiv_pos_as_xyz
  1  'x, y, z'
loop_
 _atom_site_type_symbol
 _atom_site_label
 _atom_site_symmetry_multiplicity
 _atom_site_fract_x
 _atom_site_fract_y
 _atom_site_fract_z
 _atom_site_occupancy
  Sr  Sr0  1  0.21176785  0.68223916  0.50972554  1.0
  Sr  Sr1  1  0.78823215  0.18223916  0.99027446  1.0
  Sr  Sr2  1  0.78823215  0.31776084  0.49027446  1.0
  Sr  Sr3  1  0.21176785  0.81776084  0.00972554  1.0
  Sr  Sr4  1  0.25829127  0.94097988  0.51077227  1.0
  Sr  Sr5  1  0.74170873  0.44097988  0.98922773  1.0
  Sr  Sr6  1  0.74170873  0.05902012  0.48922773  1.0
  Sr  Sr7  1  0.25829127  0.55902012  0.01077227  1.0
  Sr  Sr8  1  0.26374725  0.43744464  0.50484268  1.0
  Sr  Sr9  1  0.73625275  0.93744464  0.99515732  1.0
  Sr  Sr10  1  0.73625275  0.56255536  0.49515732  1.0
  Sr  Sr11  1  0.26374725  0.06255536  0.00484268  1.0
  Sn  Sn12  1  0.20702443  0.12238913  0.52873467  1.0
  Sn  Sn13  1  0.79297557  0.62238913  0.97126533  1.0
  Sn  Sn14  1  0.79297557  0.87761087  0.47126533  1.0
  Sn  Sn15  1  0.20702443  0.37761087  0.02873467  1.0
  Sn  Sn16  1  0.32173220  0.25594182  0.91058510  1.0
  Sn  Sn17  1  0.67826780  0.75594182  0.58941490  1.0
  Sn  Sn18  1  0.67826780  0.74405818  0.08941490  1.0
  Sn  Sn19  1  0.32173220  0.24405818  0.41058510  1.0
  As  As20  1  0.00560491  0.94558659  0.76083247  1.0
  As  As21  1  0.99439509  0.44558659  0.73916753  1.0
  As  As22  1  0.99439509  0.05441341  0.23916753  1.0
  As  As23  1  0.00560491  0.55441341  0.26083247  1.0
  As  As24  1  0.02116986  0.18254368  0.72130482  1.0
  As  As25  1  0.97883014  0.68254368  0.77869518  1.0
  As  As26  1  0.97883014  0.81745632  0.27869518  1.0
  As  As27  1  0.02116986  0.31745632  0.22130482  1.0
  As  As28  1  0.51054565  0.06320499  0.75436979  1.0
  As  As29  1  0.48945435  0.56320499  0.74563021  1.0
  As  As30  1  0.48945435  0.93679501  0.24563021  1.0
  As  As31  1  0.51054565  0.43679501  0.25436979  1.0
  As  As32  1  0.52840013  0.30555424  0.72934381  1.0
  As  As33  1  0.47159987  0.80555424  0.77065619  1.0
  As  As34  1  0.47159987  0.69444576  0.27065619  1.0
  As  As35  1  0.52840013  0.19444576  0.22934381  1.0
