# generated using pymatgen
data_AlFe2CuSe4
_symmetry_space_group_name_H-M   'P 1'
_cell_length_a   6.93460423
_cell_length_b   6.93460423
_cell_length_c   6.93460423
_cell_angle_alpha   132.00786729
_cell_angle_beta   132.00786729
_cell_angle_gamma   70.21660164
_symmetry_Int_Tables_number   1
_chemical_formula_structural   AlFe2CuSe4
_chemical_formula_sum   'Al1 Fe2 Cu1 Se4'
_cell_volume   180.47050708
_cell_formula_units_Z   1
loop_
 _symmetry_equiv_pos_site_id
 _symmetry_equiv_pos_as_xyz
  1  'x, y, z'
loop_
 _atom_site_type_symbol
 _atom_site_label
 _atom_site_symmetry_multiplicity
 _atom_site_fract_x
 _atom_site_fract_y
 _atom_site_fract_z
 _atom_site_occupancy
  Al  Al0  1  0.00000000  0.00000000  0.00000000  1.0
  Fe  Fe1  1  0.25000000  0.75000000  0.50000000  1.0
  Fe  Fe2  1  0.75000000  0.25000000  0.50000000  1.0
  Cu  Cu3  1  0.50000000  0.50000000  1.00000000  1.0
  Se  Se4  1  0.37244176  0.87486411  1.00000000  1.0
  Se  Se5  1  1.12513589  1.12513589  1.49757765  1.0
  Se  Se6  1  0.62755824  0.62755824  0.50242235  1.0
  Se  Se7  1  0.87486411  0.37244176  1.00000000  1.0
