# generated using pymatgen
data_BaLaI4
_symmetry_space_group_name_H-M   'P 1'
_cell_length_a   9.28173124
_cell_length_b   9.28173124
_cell_length_c   7.58224878
_cell_angle_alpha   71.99592867
_cell_angle_beta   108.00407133
_cell_angle_gamma   68.96987622
_symmetry_Int_Tables_number   1
_chemical_formula_structural   BaLaI4
_chemical_formula_sum   'Ba2 La2 I8'
_cell_volume   510.84067567
_cell_formula_units_Z   2
loop_
 _symmetry_equiv_pos_site_id
 _symmetry_equiv_pos_as_xyz
  1  'x, y, z'
loop_
 _atom_site_type_symbol
 _atom_site_label
 _atom_site_symmetry_multiplicity
 _atom_site_fract_x
 _atom_site_fract_y
 _atom_site_fract_z
 _atom_site_occupancy
  Ba  Ba0  1  1.36517602  0.36517602  0.75000000  1.0
  Ba  Ba1  1  0.63482398  0.63482398  0.25000000  1.0
  La  La2  1  1.00028660  0.00028660  0.75000000  1.0
  La  La3  1  0.99971340  0.99971340  0.25000000  1.0
  I  I4  1  1.71086032  -0.05774961  0.91597620  1.0
  I  I5  1  1.05774961  0.28913968  0.41597620  1.0
  I  I6  1  0.94225039  0.71086032  0.58402380  1.0
  I  I7  1  1.28913968  0.05774961  0.08402380  1.0
  I  I8  1  1.35848751  -0.23438094  0.72364859  1.0
  I  I9  1  1.23438094  0.64151249  0.22364859  1.0
  I  I10  1  0.76561906  0.35848751  0.77635141  1.0
  I  I11  1  1.64151249  0.23438094  0.27635141  1.0
