# generated using pymatgen
data_Sb2Te2Se
_symmetry_space_group_name_H-M   'P 1'
_cell_length_a   11.65426155
_cell_length_b   11.65426155
_cell_length_c   11.65426155
_cell_angle_alpha   20.93480606
_cell_angle_beta   20.93480606
_cell_angle_gamma   20.93480606
_symmetry_Int_Tables_number   1
_chemical_formula_structural   Sb2Te2Se
_chemical_formula_sum   'Sb2 Te2 Se1'
_cell_volume   176.95692384
_cell_formula_units_Z   1
loop_
 _symmetry_equiv_pos_site_id
 _symmetry_equiv_pos_as_xyz
  1  'x, y, z'
loop_
 _atom_site_type_symbol
 _atom_site_label
 _atom_site_symmetry_multiplicity
 _atom_site_fract_x
 _atom_site_fract_y
 _atom_site_fract_z
 _atom_site_occupancy
  Sb  Sb0  1  0.71953934  0.71953934  0.71953934  1.0
  Sb  Sb1  1  1.28046066  1.28046066  0.28046066  1.0
  Te  Te2  1  1.56280980  0.56280980  0.56280980  1.0
  Te  Te3  1  1.43719020  0.43719020  0.43719020  1.0
  Se  Se4  1  0.00000000  0.00000000  0.00000000  1.0
