# generated using pymatgen
data_La3Cu4(P2O)2
_symmetry_space_group_name_H-M   'P 1'
_cell_length_a   13.79324743
_cell_length_b   13.79324743
_cell_length_c   13.79324743
_cell_angle_alpha   163.08453762
_cell_angle_beta   163.08453762
_cell_angle_gamma   24.01059979
_symmetry_Int_Tables_number   1
_chemical_formula_structural   La3Cu4(P2O)2
_chemical_formula_sum   'La3 Cu4 P4 O2'
_cell_volume   222.10644344
_cell_formula_units_Z   1
loop_
 _symmetry_equiv_pos_site_id
 _symmetry_equiv_pos_as_xyz
  1  'x, y, z'
loop_
 _atom_site_type_symbol
 _atom_site_label
 _atom_site_symmetry_multiplicity
 _atom_site_fract_x
 _atom_site_fract_y
 _atom_site_fract_z
 _atom_site_occupancy
  La  La0  1  0.00000000  0.00000000  0.00000000  1.0
  La  La1  1  0.70398866  0.70398866  1.00000000  1.0
  La  La2  1  0.29601134  0.29601134  -0.00000000  1.0
  Cu  Cu3  1  0.40623729  0.90623729  0.50000000  1.0
  Cu  Cu4  1  0.59376271  0.09376271  0.50000000  1.0
  Cu  Cu5  1  0.90623729  0.40623729  0.50000000  1.0
  Cu  Cu6  1  0.09376271  0.59376271  0.50000000  1.0
  P  P7  1  0.86217084  0.86217084  1.00000000  1.0
  P  P8  1  0.13782916  0.13782916  -0.00000000  1.0
  P  P9  1  0.54190572  0.54190572  1.00000000  1.0
  P  P10  1  0.45809428  0.45809428  -0.00000000  1.0
  O  O11  1  0.25000000  0.75000000  0.50000000  1.0
  O  O12  1  0.75000000  0.25000000  0.50000000  1.0
