# generated using pymatgen
data_SbAsPd16
_symmetry_space_group_name_H-M   'P 1'
_cell_length_a   10.72971292
_cell_length_b   10.72971288
_cell_length_c   10.72971280
_cell_angle_alpha   59.99999979
_cell_angle_beta   60.00000139
_cell_angle_gamma   60.00000171
_symmetry_Int_Tables_number   1
_chemical_formula_structural   SbAsPd16
_chemical_formula_sum   'Sb2 As2 Pd32'
_cell_volume   873.47265161
_cell_formula_units_Z   2
loop_
 _symmetry_equiv_pos_site_id
 _symmetry_equiv_pos_as_xyz
  1  'x, y, z'
loop_
 _atom_site_type_symbol
 _atom_site_label
 _atom_site_symmetry_multiplicity
 _atom_site_fract_x
 _atom_site_fract_y
 _atom_site_fract_z
 _atom_site_occupancy
  Sb  Sb0  1  0.50000000  0.50000000  -0.50000000  1.0
  Sb  Sb1  1  0.75000000  -0.25000000  0.75000000  1.0
  As  As2  1  -0.00000000  1.00000000  0.00000000  1.0
  As  As3  1  0.25000000  0.25000000  0.25000000  1.0
  Pd  Pd4  1  0.94788217  -0.57896373  0.68319939  1.0
  Pd  Pd5  1  -0.05211783  0.68319939  0.42103627  1.0
  Pd  Pd6  1  -0.17103627  0.30211783  0.30211783  1.0
  Pd  Pd7  1  0.56680061  0.30211783  0.30211783  1.0
  Pd  Pd8  1  -0.57896373  0.94788217  0.68319940  1.0
  Pd  Pd9  1  0.94788217  -0.05211783  0.68319939  1.0
  Pd  Pd10  1  0.94788217  -0.31680061  0.94788217  1.0
  Pd  Pd11  1  -0.57896373  0.68319940  0.94788217  1.0
  Pd  Pd12  1  0.30211783  -0.17103627  0.30211783  1.0
  Pd  Pd13  1  0.30211783  0.30211783  -0.17103627  1.0
  Pd  Pd14  1  0.56680061  0.30211783  -0.17103627  1.0
  Pd  Pd15  1  0.56680060  -0.17103627  0.30211783  1.0
  Pd  Pd16  1  0.68319939  -0.05211783  0.94788217  1.0
  Pd  Pd17  1  -0.57896373  0.94788217  0.94788217  1.0
  Pd  Pd18  1  0.30211783  0.56680061  -0.17103627  1.0
  Pd  Pd19  1  0.30211783  -0.17103627  0.56680061  1.0
  Pd  Pd20  1  -0.31680061  0.94788217  0.42103627  1.0
  Pd  Pd21  1  0.68319940  -0.57896373  0.94788217  1.0
  Pd  Pd22  1  0.94788217  -0.57896373  0.94788217  1.0
  Pd  Pd23  1  -0.05211783  0.94788217  0.42103627  1.0
  Pd  Pd24  1  0.30211783  0.56680061  0.30211783  1.0
  Pd  Pd25  1  -0.17103627  0.56680060  0.30211783  1.0
  Pd  Pd26  1  -0.17103627  0.30211783  0.56680060  1.0
  Pd  Pd27  1  0.30211783  0.30211783  0.56680061  1.0
  Pd  Pd28  1  0.66658335  -0.33341665  1.00024996  1.0
  Pd  Pd29  1  0.66658335  0.00024996  0.66658335  1.0
  Pd  Pd30  1  0.58341665  -0.41658335  0.58341665  1.0
  Pd  Pd31  1  1.24975004  -0.41658335  0.58341665  1.0
  Pd  Pd32  1  1.00024996  -0.33341665  0.66658335  1.0
  Pd  Pd33  1  0.66658335  -0.33341665  0.66658335  1.0
  Pd  Pd34  1  0.58341665  0.24975004  0.58341665  1.0
  Pd  Pd35  1  0.58341665  -0.41658335  1.24975004  1.0
