# generated using pymatgen
data_RbV(IO4)2
_symmetry_space_group_name_H-M   'P 1'
_cell_length_a   5.37142424
_cell_length_b   10.30105096
_cell_length_c   8.18639113
_cell_angle_alpha   110.18502337
_cell_angle_beta   90.15839500
_cell_angle_gamma   92.59279566
_symmetry_Int_Tables_number   1
_chemical_formula_structural   RbV(IO4)2
_chemical_formula_sum   'Rb2 V2 I4 O16'
_cell_volume   424.62743218
_cell_formula_units_Z   2
loop_
 _symmetry_equiv_pos_site_id
 _symmetry_equiv_pos_as_xyz
  1  'x, y, z'
loop_
 _atom_site_type_symbol
 _atom_site_label
 _atom_site_symmetry_multiplicity
 _atom_site_fract_x
 _atom_site_fract_y
 _atom_site_fract_z
 _atom_site_occupancy
  Rb  Rb0  1  0.24269793  0.58328147  -0.69369481  1.0
  Rb  Rb1  1  0.75730207  0.41671853  -0.30630519  1.0
  V  V2  1  0.78980256  0.80285857  -0.85872009  1.0
  V  V3  1  0.21019744  0.19714143  -0.14127991  1.0
  I  I4  1  0.71841879  0.26002944  -0.87501305  1.0
  I  I5  1  0.28158121  0.73997056  -0.12498695  1.0
  I  I6  1  0.65932300  0.94790798  -0.35799868  1.0
  I  I7  1  0.34067700  0.05209202  -0.64200132  1.0
  O  O8  1  1.02470736  0.67693000  0.01009239  1.0
  O  O9  1  -0.02470736  0.32307000  -1.01009239  1.0
  O  O10  1  0.95378907  0.94803664  -0.83826810  1.0
  O  O11  1  0.04621093  0.05196336  -0.16173190  1.0
  O  O12  1  0.79876760  0.77547540  -0.67213155  1.0
  O  O13  1  0.20123240  0.22452460  -0.32786845  1.0
  O  O14  1  0.78183660  0.40769760  -0.67128370  1.0
  O  O15  1  0.21816340  0.59230240  -0.32871630  1.0
  O  O16  1  0.63601972  0.81050010  -0.24994057  1.0
  O  O17  1  0.36398028  0.18949990  -0.75005943  1.0
  O  O18  1  0.44992705  0.33463564  -0.96456190  1.0
  O  O19  1  0.55007295  0.66536436  -0.03543810  1.0
  O  O20  1  0.46104003  0.89752586  -0.83481820  1.0
  O  O21  1  0.53895997  0.10247414  -0.16518180  1.0
  O  O22  1  0.34898442  0.89458549  -0.48296636  1.0
  O  O23  1  0.65101558  0.10541451  -0.51703364  1.0
