# generated using pymatgen
data_KTe2O9
_symmetry_space_group_name_H-M   'P 1'
_cell_length_a   5.19751992
_cell_length_b   9.51226565
_cell_length_c   15.62319835
_cell_angle_alpha   90.00000000
_cell_angle_beta   95.48427947
_cell_angle_gamma   90.00000000
_symmetry_Int_Tables_number   1
_chemical_formula_structural   KTe2O9
_chemical_formula_sum   'K4 Te8 O36'
_cell_volume   768.87814225
_cell_formula_units_Z   4
loop_
 _symmetry_equiv_pos_site_id
 _symmetry_equiv_pos_as_xyz
  1  'x, y, z'
loop_
 _atom_site_type_symbol
 _atom_site_label
 _atom_site_symmetry_multiplicity
 _atom_site_fract_x
 _atom_site_fract_y
 _atom_site_fract_z
 _atom_site_occupancy
  O  O0  1  0.15498983  0.49651659  0.90162642  1.0
  O  O1  1  0.15498983  1.00348341  0.40162642  1.0
  O  O2  1  0.84501017  -0.00348341  0.59837358  1.0
  O  O3  1  0.84501017  0.50348341  0.09837358  1.0
  O  O4  1  0.69353214  0.34423744  0.94324902  1.0
  O  O5  1  0.69353214  0.15576256  0.44324902  1.0
  O  O6  1  0.30646786  0.84423744  0.55675098  1.0
  O  O7  1  0.30646786  0.65576256  0.05675098  1.0
  O  O8  1  0.62972803  0.79573164  0.64987348  1.0
  O  O9  1  0.62972803  0.70426836  0.14987348  1.0
  O  O10  1  0.37027197  0.29573164  0.85012652  1.0
  O  O11  1  0.37027197  0.20426836  0.35012652  1.0
  O  O12  1  0.87457831  0.39300773  0.79018392  1.0
  O  O13  1  0.87457831  0.10699227  0.29018392  1.0
  O  O14  1  0.12542169  0.89300773  0.70981608  1.0
  O  O15  1  0.12542169  0.60699227  0.20981608  1.0
  O  O16  1  0.54956245  0.90379247  0.84833332  1.0
  O  O17  1  0.54956245  0.59620753  0.34833332  1.0
  O  O18  1  0.45043755  0.40379247  0.65166668  1.0
  O  O19  1  0.45043755  0.09620753  0.15166668  1.0
  O  O20  1  0.97893134  0.80555105  0.82447550  1.0
  O  O21  1  0.97893134  0.69444895  0.32447550  1.0
  O  O22  1  0.02106866  0.30555105  0.67552450  1.0
  O  O23  1  0.02106866  0.19444895  0.17552450  1.0
  O  O24  1  0.81006245  0.75005119  0.98275011  1.0
  O  O25  1  0.81006245  0.74994881  0.48275011  1.0
  O  O26  1  0.18993755  0.25005119  0.51724989  1.0
  O  O27  1  0.18993755  0.24994881  0.01724989  1.0
  O  O28  1  0.76980093  0.45191095  0.51584654  1.0
  O  O29  1  0.76980093  0.04808905  0.01584654  1.0
  O  O30  1  0.23019907  0.95191095  0.98415346  1.0
  O  O31  1  0.23019907  0.54808905  0.48415346  1.0
  O  O32  1  0.94067068  0.39236947  0.34838297  1.0
  O  O33  1  0.94067068  0.10763053  0.84838297  1.0
  O  O34  1  0.05932932  0.89236947  0.15161703  1.0
  O  O35  1  0.05932932  0.60763053  0.65161703  1.0
  K  K36  1  0.50726600  0.61212960  0.79865245  1.0
  K  K37  1  0.50726600  0.88787040  0.29865245  1.0
  K  K38  1  0.49273400  0.11212960  0.70134755  1.0
  K  K39  1  0.49273400  0.38787040  0.20134755  1.0
  Te  Te40  1  0.87729579  0.92934795  0.91678878  1.0
  Te  Te41  1  0.87729579  0.57065205  0.41678878  1.0
  Te  Te42  1  0.12270421  0.42934795  0.58321122  1.0
  Te  Te43  1  0.12270421  0.07065205  0.08321122  1.0
  Te  Te44  1  0.97420287  0.79817562  0.60049549  1.0
  Te  Te45  1  0.97420287  0.70182438  0.10049549  1.0
  Te  Te46  1  0.02579713  0.29817562  0.89950451  1.0
  Te  Te47  1  0.02579713  0.20182438  0.39950451  1.0
