# generated using pymatgen
data_CsB(CF4)2
_symmetry_space_group_name_H-M   'P 1'
_cell_length_a   6.23596169
_cell_length_b   7.73511880
_cell_length_c   8.40742434
_cell_angle_alpha   90.00000000
_cell_angle_beta   101.02932554
_cell_angle_gamma   90.00000000
_symmetry_Int_Tables_number   1
_chemical_formula_structural   CsB(CF4)2
_chemical_formula_sum   'Cs2 B2 C4 F16'
_cell_volume   398.04915321
_cell_formula_units_Z   2
loop_
 _symmetry_equiv_pos_site_id
 _symmetry_equiv_pos_as_xyz
  1  'x, y, z'
loop_
 _atom_site_type_symbol
 _atom_site_label
 _atom_site_symmetry_multiplicity
 _atom_site_fract_x
 _atom_site_fract_y
 _atom_site_fract_z
 _atom_site_occupancy
  Cs  Cs0  1  0.02190316  0.25000000  0.21884005  1.0
  Cs  Cs1  1  0.97809684  0.75000000  0.78115995  1.0
  B  B2  1  0.68354904  0.25000000  0.79480220  1.0
  B  B3  1  0.31645096  0.75000000  0.20519780  1.0
  C  C4  1  0.43476583  0.25000000  0.83444298  1.0
  C  C5  1  0.56523417  0.75000000  0.16555702  1.0
  C  C6  1  0.68747971  0.25000000  0.59678853  1.0
  C  C7  1  0.31252029  0.75000000  0.40321147  1.0
  F  F8  1  0.43992085  0.25000000  1.00026689  1.0
  F  F9  1  0.56007915  0.75000000  -0.00026689  1.0
  F  F10  1  0.31124089  0.10782961  0.77560043  1.0
  F  F11  1  0.68875911  0.60782961  0.22439957  1.0
  F  F12  1  0.68875911  0.89217039  0.22439957  1.0
  F  F13  1  0.31124089  0.39217039  0.77560043  1.0
  F  F14  1  0.48444503  0.25000000  0.49628311  1.0
  F  F15  1  0.51555497  0.75000000  0.50371689  1.0
  F  F16  1  0.79458541  0.10841525  0.54822487  1.0
  F  F17  1  0.20541459  0.60841525  0.45177513  1.0
  F  F18  1  0.20541459  0.89158475  0.45177513  1.0
  F  F19  1  0.79458541  0.39158475  0.54822487  1.0
  F  F20  1  0.79381827  0.10013327  0.86729924  1.0
  F  F21  1  0.20618173  0.60013327  0.13270076  1.0
  F  F22  1  0.20618173  0.89986673  0.13270076  1.0
  F  F23  1  0.79381827  0.39986673  0.86729924  1.0
