# generated using pymatgen
data_Mg2Rh
_symmetry_space_group_name_H-M   'P 1'
_cell_length_a   5.53475028
_cell_length_b   5.53475028
_cell_length_c   5.53475028
_cell_angle_alpha   146.33711294
_cell_angle_beta   146.33711294
_cell_angle_gamma   48.34630769
_symmetry_Int_Tables_number   1
_chemical_formula_structural   Mg2Rh
_chemical_formula_sum   'Mg2 Rh1'
_cell_volume   51.87594509
_cell_formula_units_Z   1
loop_
 _symmetry_equiv_pos_site_id
 _symmetry_equiv_pos_as_xyz
  1  'x, y, z'
loop_
 _atom_site_type_symbol
 _atom_site_label
 _atom_site_symmetry_multiplicity
 _atom_site_fract_x
 _atom_site_fract_y
 _atom_site_fract_z
 _atom_site_occupancy
  Mg  Mg0  1  0.64352024  0.64352024  1.00000000  1.0
  Mg  Mg1  1  0.35647976  0.35647976  0.00000000  1.0
  Rh  Rh2  1  0.00000000  0.00000000  0.00000000  1.0
