# generated using pymatgen
data_KAu(NO3)4
_symmetry_space_group_name_H-M   'P 1'
_cell_length_a   8.67725552
_cell_length_b   7.21870001
_cell_length_c   10.72150083
_cell_angle_alpha   90.00000000
_cell_angle_beta   120.70053222
_cell_angle_gamma   90.00000000
_symmetry_Int_Tables_number   1
_chemical_formula_structural   KAu(NO3)4
_chemical_formula_sum   'K2 Au2 N8 O24'
_cell_volume   577.45535303
_cell_formula_units_Z   2
loop_
 _symmetry_equiv_pos_site_id
 _symmetry_equiv_pos_as_xyz
  1  'x, y, z'
loop_
 _atom_site_type_symbol
 _atom_site_label
 _atom_site_symmetry_multiplicity
 _atom_site_fract_x
 _atom_site_fract_y
 _atom_site_fract_z
 _atom_site_occupancy
  K  K0  1  0.50000000  0.50000000  -0.00000000  1.0
  K  K1  1  0.50000000  0.00000000  0.50000000  1.0
  Au  Au2  1  -0.00000000  0.50000000  0.50000000  1.0
  Au  Au3  1  0.00000000  0.00000000  0.00000000  1.0
  N  N4  1  0.82468438  0.89509282  0.15711682  1.0
  N  N5  1  0.82468438  0.60490718  0.65711682  1.0
  N  N6  1  0.17531562  0.39509282  0.34288318  1.0
  N  N7  1  0.17531562  0.10490718  0.84288318  1.0
  N  N8  1  0.69321477  0.26435620  0.33125642  1.0
  N  N9  1  0.69321477  0.23564380  0.83125642  1.0
  N  N10  1  0.30678523  0.76435620  0.16874358  1.0
  N  N11  1  0.30678523  0.73564380  0.66874358  1.0
  O  O12  1  0.91929640  0.02093338  0.23435062  1.0
  O  O13  1  0.91929640  0.47906662  0.73435062  1.0
  O  O14  1  0.08070360  0.52093338  0.26564938  1.0
  O  O15  1  0.08070360  0.97906662  0.76564938  1.0
  O  O16  1  0.82921818  0.84878416  0.03560019  1.0
  O  O17  1  0.82921818  0.65121584  0.53560019  1.0
  O  O18  1  0.17078182  0.34878416  0.46439981  1.0
  O  O19  1  0.17078182  0.15121584  0.96439981  1.0
  O  O20  1  0.78690767  0.40229187  0.31394703  1.0
  O  O21  1  0.78690767  0.09770813  0.81394703  1.0
  O  O22  1  0.21309233  0.90229187  0.18605297  1.0
  O  O23  1  0.21309233  0.59770813  0.68605297  1.0
  O  O24  1  0.74323848  0.20701637  0.45401058  1.0
  O  O25  1  0.74323848  0.29298363  0.95401058  1.0
  O  O26  1  0.25676152  0.70701637  0.04598942  1.0
  O  O27  1  0.25676152  0.79298363  0.54598942  1.0
  O  O28  1  0.56351101  0.21078558  0.21754771  1.0
  O  O29  1  0.56351101  0.28921442  0.71754771  1.0
  O  O30  1  0.43648899  0.71078558  0.28245229  1.0
  O  O31  1  0.43648899  0.78921442  0.78245229  1.0
  O  O32  1  0.28001641  0.30032042  0.32497412  1.0
  O  O33  1  0.28001641  0.19967958  0.82497412  1.0
  O  O34  1  0.71998359  0.80032042  0.17502588  1.0
  O  O35  1  0.71998359  0.69967958  0.67502588  1.0
