# generated using pymatgen
data_TlPb2I5
_symmetry_space_group_name_H-M   'P 1'
_cell_length_a   10.09584543
_cell_length_b   10.09584543
_cell_length_c   10.09584543
_cell_angle_alpha   126.83938808
_cell_angle_beta   126.83938808
_cell_angle_gamma   78.51286842
_symmetry_Int_Tables_number   1
_chemical_formula_structural   TlPb2I5
_chemical_formula_sum   'Tl2 Pb4 I10'
_cell_volume   638.11917665
_cell_formula_units_Z   2
loop_
 _symmetry_equiv_pos_site_id
 _symmetry_equiv_pos_as_xyz
  1  'x, y, z'
loop_
 _atom_site_type_symbol
 _atom_site_label
 _atom_site_symmetry_multiplicity
 _atom_site_fract_x
 _atom_site_fract_y
 _atom_site_fract_z
 _atom_site_occupancy
  Tl  Tl0  1  0.75000000  0.75000000  1.00000000  1.0
  Tl  Tl1  1  0.25000000  0.25000000  -0.00000000  1.0
  Pb  Pb2  1  0.33606054  0.83606054  1.17212108  1.0
  Pb  Pb3  1  0.16393946  0.33606054  0.50000000  1.0
  Pb  Pb4  1  0.83606054  0.66393946  1.50000000  1.0
  Pb  Pb5  1  0.66393946  0.16393946  0.82787892  1.0
  I  I6  1  0.00000000  0.00000000  0.00000000  1.0
  I  I7  1  0.50000000  0.50000000  1.00000000  1.0
  I  I8  1  0.70569079  1.20569079  1.18767350  1.0
  I  I9  1  0.98198272  0.48198272  1.18767350  1.0
  I  I10  1  0.51801728  0.70569079  0.50000000  1.0
  I  I11  1  0.79430921  0.98198272  1.50000000  1.0
  I  I12  1  1.20569079  1.01801728  1.50000000  1.0
  I  I13  1  0.48198272  0.29430921  0.50000000  1.0
  I  I14  1  1.01801728  0.51801728  0.81232650  1.0
  I  I15  1  0.29430921  0.79430921  0.81232650  1.0
