# generated using pymatgen
data_Ba4Sb2O9
_symmetry_space_group_name_H-M   'P 1'
_cell_length_a   6.09470972
_cell_length_b   6.09470972
_cell_length_c   17.03181365
_cell_angle_alpha   90.00000000
_cell_angle_beta   90.00000000
_cell_angle_gamma   120.00000000
_symmetry_Int_Tables_number   1
_chemical_formula_structural   Ba4Sb2O9
_chemical_formula_sum   'Ba8 Sb4 O18'
_cell_volume   547.89530655
_cell_formula_units_Z   2
loop_
 _symmetry_equiv_pos_site_id
 _symmetry_equiv_pos_as_xyz
  1  'x, y, z'
loop_
 _atom_site_type_symbol
 _atom_site_label
 _atom_site_symmetry_multiplicity
 _atom_site_fract_x
 _atom_site_fract_y
 _atom_site_fract_z
 _atom_site_occupancy
  Ba  Ba0  1  0.33333333  0.66666667  0.36978099  1.0
  Ba  Ba1  1  0.33333333  0.66666667  0.13021901  1.0
  Ba  Ba2  1  0.66666667  0.33333333  0.86978099  1.0
  Ba  Ba3  1  0.66666667  0.33333333  0.63021901  1.0
  Ba  Ba4  1  -0.00000000  -0.00000000  0.25000000  1.0
  Ba  Ba5  1  0.00000000  -0.00000000  0.75000000  1.0
  Ba  Ba6  1  -0.00000000  -0.00000000  0.50000000  1.0
  Ba  Ba7  1  0.00000000  -0.00000000  0.00000000  1.0
  Sb  Sb8  1  0.33333333  0.66666667  0.83736974  1.0
  Sb  Sb9  1  0.33333333  0.66666667  0.66263026  1.0
  Sb  Sb10  1  0.66666667  0.33333333  0.33736974  1.0
  Sb  Sb11  1  0.66666667  0.33333333  0.16263026  1.0
  O  O12  1  0.17050315  0.82949685  0.89005294  1.0
  O  O13  1  0.17050315  0.82949685  0.60994706  1.0
  O  O14  1  0.17050315  0.34100630  0.89005294  1.0
  O  O15  1  0.17050315  0.34100630  0.60994706  1.0
  O  O16  1  0.82949685  0.17050315  0.39005294  1.0
  O  O17  1  0.82949685  0.17050315  0.10994706  1.0
  O  O18  1  0.82949685  0.65899370  0.39005294  1.0
  O  O19  1  0.82949685  0.65899370  0.10994706  1.0
  O  O20  1  0.65899370  0.82949685  0.89005294  1.0
  O  O21  1  0.65899370  0.82949685  0.60994706  1.0
  O  O22  1  0.34100630  0.17050315  0.39005294  1.0
  O  O23  1  0.34100630  0.17050315  0.10994706  1.0
  O  O24  1  0.51881475  0.48118525  0.25000000  1.0
  O  O25  1  0.51881475  0.03762950  0.25000000  1.0
  O  O26  1  0.48118525  0.51881475  0.75000000  1.0
  O  O27  1  0.48118525  0.96237050  0.75000000  1.0
  O  O28  1  0.96237050  0.48118525  0.25000000  1.0
  O  O29  1  0.03762950  0.51881475  0.75000000  1.0
