# generated using pymatgen
data_Nb12O29
_symmetry_space_group_name_H-M   'P 1'
_cell_length_a   10.66198064
_cell_length_b   10.66198064
_cell_length_c   15.90476828
_cell_angle_alpha   67.28663337
_cell_angle_beta   112.71336663
_cell_angle_gamma   159.26719831
_symmetry_Int_Tables_number   1
_chemical_formula_structural   Nb12O29
_chemical_formula_sum   'Nb12 O29'
_cell_volume   588.68648850
_cell_formula_units_Z   1
loop_
 _symmetry_equiv_pos_site_id
 _symmetry_equiv_pos_as_xyz
  1  'x, y, z'
loop_
 _atom_site_type_symbol
 _atom_site_label
 _atom_site_symmetry_multiplicity
 _atom_site_fract_x
 _atom_site_fract_y
 _atom_site_fract_z
 _atom_site_occupancy
  Nb  Nb0  1  0.96141700  -0.96141700  0.86955608  1.0
  Nb  Nb1  1  0.03858300  -0.03858300  0.13044392  1.0
  Nb  Nb2  1  0.93326324  -0.93326324  0.39805148  1.0
  Nb  Nb3  1  0.06673676  -0.06673676  0.60194852  1.0
  Nb  Nb4  1  0.88047158  -0.88047158  0.59679579  1.0
  Nb  Nb5  1  0.11952842  -0.11952842  0.40320421  1.0
  Nb  Nb6  1  0.77743511  0.22256489  0.86787459  1.0
  Nb  Nb7  1  1.22256489  -0.22256489  0.13212541  1.0
  Nb  Nb8  1  0.69881787  0.30118213  0.60053698  1.0
  Nb  Nb9  1  1.30118213  -0.30118213  0.39946302  1.0
  Nb  Nb10  1  0.14456837  -0.14456837  0.87100211  1.0
  Nb  Nb11  1  0.85543163  -0.85543163  0.12899789  1.0
  O  O12  1  0.96921309  -0.96921309  0.56248036  1.0
  O  O13  1  0.03078691  -0.03078691  0.43751964  1.0
  O  O14  1  0.94377822  -0.94377822  0.13327189  1.0
  O  O15  1  0.05622178  -0.05622178  0.86672811  1.0
  O  O16  1  0.92232221  -0.92232221  0.71697725  1.0
  O  O17  1  0.07767779  -0.07767779  0.28302275  1.0
  O  O18  1  0.90098930  -0.90098930  0.27617112  1.0
  O  O19  1  0.09901070  -0.09901070  0.72382888  1.0
  O  O20  1  0.86273436  0.13726564  0.86171447  1.0
  O  O21  1  1.13726564  -0.13726564  0.13828553  1.0
  O  O22  1  0.83374134  -0.83374134  0.42653822  1.0
  O  O23  1  0.16625866  -0.16625866  0.57346178  1.0
  O  O24  1  0.81161140  -0.81161140  -0.00114819  1.0
  O  O25  1  0.18838860  -0.18838860  1.00114819  1.0
  O  O26  1  0.78161384  0.21838616  0.58455495  1.0
  O  O27  1  1.21838616  -0.21838616  0.41544505  1.0
  O  O28  1  0.73042080  0.26957920  0.72310591  1.0
  O  O29  1  1.26957920  -0.26957920  0.27689409  1.0
  O  O30  1  0.66658790  0.33341210  0.86111948  1.0
  O  O31  1  1.33341210  -0.33341210  0.13888052  1.0
  O  O32  1  0.63344268  0.36655732  0.44309328  1.0
  O  O33  1  1.36655732  -0.36655732  0.55690672  1.0
  O  O34  1  0.58693604  0.41306396  0.58759586  1.0
  O  O35  1  1.41306396  -0.41306396  0.41240414  1.0
  O  O36  1  1.45508455  -0.45508455  0.85162559  1.0
  O  O37  1  0.54491545  0.45508455  0.14837441  1.0
  O  O38  1  0.24945106  -0.24945106  0.85953455  1.0
  O  O39  1  0.75054894  -0.75054894  0.14046545  1.0
  O  O40  1  0.00000000  0.00000000  0.00000000  1.0
