# generated using pymatgen
data_NaHF2
_symmetry_space_group_name_H-M   'P 1'
_cell_length_a   4.78686906
_cell_length_b   4.78686906
_cell_length_c   4.78686906
_cell_angle_alpha   113.05263307
_cell_angle_beta   113.05263307
_cell_angle_gamma   102.52390251
_symmetry_Int_Tables_number   1
_chemical_formula_structural   NaHF2
_chemical_formula_sum   'Na2 H2 F4'
_cell_volume   83.52162219
_cell_formula_units_Z   2
loop_
 _symmetry_equiv_pos_site_id
 _symmetry_equiv_pos_as_xyz
  1  'x, y, z'
loop_
 _atom_site_type_symbol
 _atom_site_label
 _atom_site_symmetry_multiplicity
 _atom_site_fract_x
 _atom_site_fract_y
 _atom_site_fract_z
 _atom_site_occupancy
  Na  Na0  1  0.25000000  0.25000000  0.00000000  1.0
  Na  Na1  1  0.75000000  0.75000000  0.00000000  1.0
  H  H2  1  1.00000000  0.50000000  0.50000000  1.0
  H  H3  1  0.50000000  1.00000000  0.50000000  1.0
  F  F4  1  0.84595638  0.34595638  1.19191275  1.0
  F  F5  1  0.65404362  0.84595638  0.50000000  1.0
  F  F6  1  0.34595638  0.15404362  0.50000000  1.0
  F  F7  1  1.15404362  0.65404362  0.80808725  1.0
