# generated using pymatgen
data_K4Cu3As4(HO8)2
_symmetry_space_group_name_H-M   'P 1'
_cell_length_a   9.49717172
_cell_length_b   10.59459510
_cell_length_c   9.77993081
_cell_angle_alpha   90.00000000
_cell_angle_beta   118.35537735
_cell_angle_gamma   90.00000000
_symmetry_Int_Tables_number   1
_chemical_formula_structural   K4Cu3As4(HO8)2
_chemical_formula_sum   'K8 Cu6 As8 H4 O32'
_cell_volume   865.97698733
_cell_formula_units_Z   2
loop_
 _symmetry_equiv_pos_site_id
 _symmetry_equiv_pos_as_xyz
  1  'x, y, z'
loop_
 _atom_site_type_symbol
 _atom_site_label
 _atom_site_symmetry_multiplicity
 _atom_site_fract_x
 _atom_site_fract_y
 _atom_site_fract_z
 _atom_site_occupancy
  O  O0  1  0.94869787  0.08305897  0.16178994  1.0
  O  O1  1  0.94869787  0.41694103  0.66178994  1.0
  O  O2  1  0.05130213  0.58305897  0.33821006  1.0
  O  O3  1  0.05130213  0.91694103  0.83821006  1.0
  O  O4  1  0.91859600  0.30028894  0.37566332  1.0
  O  O5  1  0.91859600  0.19971106  0.87566332  1.0
  O  O6  1  0.08140400  0.80028894  0.12433668  1.0
  O  O7  1  0.08140400  0.69971106  0.62433668  1.0
  O  O8  1  0.78203876  0.96358167  0.43513676  1.0
  O  O9  1  0.78203876  0.53641833  0.93513676  1.0
  O  O10  1  0.21796124  0.46358167  0.06486324  1.0
  O  O11  1  0.21796124  0.03641833  0.56486324  1.0
  O  O12  1  0.75099913  0.68729800  0.39157831  1.0
  O  O13  1  0.75099913  0.81270200  0.89157831  1.0
  O  O14  1  0.24900087  0.18729800  0.10842169  1.0
  O  O15  1  0.24900087  0.31270200  0.60842169  1.0
  O  O16  1  0.69885835  0.24549325  0.47775394  1.0
  O  O17  1  0.69885835  0.25450675  0.97775394  1.0
  O  O18  1  0.30114165  0.74549325  0.02224606  1.0
  O  O19  1  0.30114165  0.75450675  0.52224606  1.0
  O  O20  1  0.51443393  0.35947081  0.23000185  1.0
  O  O21  1  0.51443393  0.14052919  0.73000185  1.0
  O  O22  1  0.48556607  0.85947081  0.26999815  1.0
  O  O23  1  0.48556607  0.64052919  0.76999815  1.0
  O  O24  1  0.31985305  0.35017533  0.36882314  1.0
  O  O25  1  0.31985305  0.14982467  0.86882314  1.0
  O  O26  1  0.68014695  0.85017533  0.13117686  1.0
  O  O27  1  0.68014695  0.64982467  0.63117686  1.0
  O  O28  1  1.00050323  0.35380593  0.14544892  1.0
  O  O29  1  1.00050323  0.14619407  0.64544892  1.0
  O  O30  1  -0.00050323  0.85380593  0.35455108  1.0
  O  O31  1  -0.00050323  0.64619407  0.85455108  1.0
  K  K32  1  0.74459367  0.49495479  0.18822591  1.0
  K  K33  1  0.74459367  0.00504521  0.68822591  1.0
  K  K34  1  0.25540633  0.99495479  0.31177409  1.0
  K  K35  1  0.25540633  0.50504521  0.81177409  1.0
  K  K36  1  0.60514576  0.12750819  0.16336595  1.0
  K  K37  1  0.60514576  0.37249181  0.66336595  1.0
  K  K38  1  0.39485424  0.62750819  0.33663405  1.0
  K  K39  1  0.39485424  0.87249181  0.83663405  1.0
  H  H40  1  0.62405857  0.29848695  0.37832684  1.0
  H  H41  1  0.62405857  0.20151305  0.87832684  1.0
  H  H42  1  0.37594143  0.79848695  0.12167316  1.0
  H  H43  1  0.37594143  0.70151305  0.62167316  1.0
  As  As44  1  0.90433052  0.21193404  0.04652939  1.0
  As  As45  1  0.90433052  0.28806596  0.54652939  1.0
  As  As46  1  0.09566948  0.71193404  0.45347061  1.0
  As  As47  1  0.09566948  0.78806596  0.95347061  1.0
  As  As48  1  0.68272751  0.83690876  0.31153493  1.0
  As  As49  1  0.68272751  0.66309124  0.81153493  1.0
  As  As50  1  0.31727249  0.33690876  0.18846507  1.0
  As  As51  1  0.31727249  0.16309124  0.68846507  1.0
  Cu  Cu52  1  0.87830553  0.83349551  0.12114408  1.0
  Cu  Cu53  1  0.87830553  0.66650449  0.62114408  1.0
  Cu  Cu54  1  0.12169447  0.33349551  0.37885592  1.0
  Cu  Cu55  1  0.12169447  0.16650449  0.87885592  1.0
  Cu  Cu56  1  0.00000000  0.50000000  0.00000000  1.0
  Cu  Cu57  1  0.00000000  0.00000000  0.50000000  1.0
