# generated using pymatgen
data_VF3
_symmetry_space_group_name_H-M   'P 1'
_cell_length_a   5.43894603
_cell_length_b   5.43894603
_cell_length_c   5.43894603
_cell_angle_alpha   58.25880395
_cell_angle_beta   58.25880395
_cell_angle_gamma   58.25880395
_symmetry_Int_Tables_number   1
_chemical_formula_structural   VF3
_chemical_formula_sum   'V2 F6'
_cell_volume   109.23268293
_cell_formula_units_Z   2
loop_
 _symmetry_equiv_pos_site_id
 _symmetry_equiv_pos_as_xyz
  1  'x, y, z'
loop_
 _atom_site_type_symbol
 _atom_site_label
 _atom_site_symmetry_multiplicity
 _atom_site_fract_x
 _atom_site_fract_y
 _atom_site_fract_z
 _atom_site_occupancy
  V  V0  1  1.00000000  0.00000000  0.00000000  1.0
  V  V1  1  0.50000000  0.50000000  0.50000000  1.0
  F  F2  1  1.32864365  -0.25000000  0.17135635  1.0
  F  F3  1  0.82864365  -0.32864365  0.25000000  1.0
  F  F4  1  0.25000000  0.82864365  -0.32864365  1.0
  F  F5  1  0.75000000  0.17135635  0.32864365  1.0
  F  F6  1  0.67135635  0.25000000  -0.17135635  1.0
  F  F7  1  1.17135635  0.32864365  -0.25000000  1.0
