# generated using pymatgen
data_BaCuPClO4
_symmetry_space_group_name_H-M   'P 1'
_cell_length_a   7.38146264
_cell_length_b   8.00311776
_cell_length_c   8.85172635
_cell_angle_alpha   90.00000000
_cell_angle_beta   90.00000000
_cell_angle_gamma   90.00000000
_symmetry_Int_Tables_number   1
_chemical_formula_structural   BaCuPClO4
_chemical_formula_sum   'Ba4 Cu4 P4 Cl4 O16'
_cell_volume   522.91320872
_cell_formula_units_Z   4
loop_
 _symmetry_equiv_pos_site_id
 _symmetry_equiv_pos_as_xyz
  1  'x, y, z'
loop_
 _atom_site_type_symbol
 _atom_site_label
 _atom_site_symmetry_multiplicity
 _atom_site_fract_x
 _atom_site_fract_y
 _atom_site_fract_z
 _atom_site_occupancy
  Ba  Ba0  1  0.87369470  0.02080046  0.69883865  1.0
  Ba  Ba1  1  0.37369470  0.47919954  0.30116135  1.0
  Ba  Ba2  1  0.12630530  0.52080046  0.80116135  1.0
  Ba  Ba3  1  0.62630530  0.97919954  0.19883865  1.0
  Cu  Cu4  1  0.36426726  0.01689204  0.81835651  1.0
  Cu  Cu5  1  0.86426726  0.48310796  0.18164349  1.0
  Cu  Cu6  1  0.63573274  0.51689204  0.68164349  1.0
  Cu  Cu7  1  0.13573274  0.98310796  0.31835651  1.0
  P  P8  1  0.37369143  0.81815439  0.58301533  1.0
  P  P9  1  0.87369143  0.68184561  0.41698467  1.0
  P  P10  1  0.62630857  0.31815439  0.91698467  1.0
  P  P11  1  0.12630857  0.18184561  0.08301533  1.0
  Cl  Cl12  1  0.33091456  0.75629079  0.04694530  1.0
  Cl  Cl13  1  0.83091456  0.74370921  0.95305470  1.0
  Cl  Cl14  1  0.66908544  0.25629079  0.45305470  1.0
  Cl  Cl15  1  0.16908544  0.24370921  0.54694530  1.0
  O  O16  1  0.47460231  0.42431570  0.84125307  1.0
  O  O17  1  0.97460231  0.07568430  0.15874693  1.0
  O  O18  1  0.52539769  0.92431570  0.65874693  1.0
  O  O19  1  0.02539769  0.57568430  0.34125307  1.0
  O  O20  1  0.42255243  0.62753482  0.58519892  1.0
  O  O21  1  0.92255243  0.87246518  0.41480108  1.0
  O  O22  1  0.57744757  0.12753482  0.91480108  1.0
  O  O23  1  0.07744757  0.37246518  0.08519892  1.0
  O  O24  1  0.20666972  0.85129791  0.68912326  1.0
  O  O25  1  0.70666972  0.64870209  0.31087674  1.0
  O  O26  1  0.79333028  0.35129791  0.81087674  1.0
  O  O27  1  0.29333028  0.14870209  0.18912326  1.0
  O  O28  1  0.83797158  0.63582944  0.58494458  1.0
  O  O29  1  0.33797158  0.86417056  0.41505542  1.0
  O  O30  1  0.16202842  0.13582944  0.91505542  1.0
  O  O31  1  0.66202842  0.36417056  0.08494458  1.0
