# generated using pymatgen
data_Cs2Zn3S4
_symmetry_space_group_name_H-M   'P 1'
_cell_length_a   9.55848583
_cell_length_b   9.55848583
_cell_length_c   9.55848583
_cell_angle_alpha   144.01818207
_cell_angle_beta   106.26699237
_cell_angle_gamma   84.87567232
_symmetry_Int_Tables_number   1
_chemical_formula_structural   Cs2Zn3S4
_chemical_formula_sum   'Cs4 Zn6 S8'
_cell_volume   477.72355273
_cell_formula_units_Z   2
loop_
 _symmetry_equiv_pos_site_id
 _symmetry_equiv_pos_as_xyz
  1  'x, y, z'
loop_
 _atom_site_type_symbol
 _atom_site_label
 _atom_site_symmetry_multiplicity
 _atom_site_fract_x
 _atom_site_fract_y
 _atom_site_fract_z
 _atom_site_occupancy
  Cs  Cs0  1  1.37871521  1.23514362  1.61385884  1.0
  Cs  Cs1  1  1.12128479  0.73514362  0.85642841  1.0
  Cs  Cs2  1  0.87871521  1.26485638  1.14357159  1.0
  Cs  Cs3  1  0.62128479  0.76485638  0.38614116  1.0
  Zn  Zn4  1  0.97512211  0.25000000  0.72512211  1.0
  Zn  Zn5  1  1.47512211  0.75000000  0.72512211  1.0
  Zn  Zn6  1  1.02487789  0.75000000  0.27487789  1.0
  Zn  Zn7  1  0.52487789  0.25000000  0.27487789  1.0
  Zn  Zn8  1  1.25000000  1.25000000  1.00000000  1.0
  Zn  Zn9  1  0.75000000  0.75000000  1.00000000  1.0
  S  S10  1  1.02346536  0.93836773  0.64692610  1.0
  S  S11  1  0.70855837  0.62346073  0.64692610  1.0
  S  S12  1  0.79144163  0.43836773  0.91490236  1.0
  S  S13  1  1.47653464  1.12346073  0.91490236  1.0
  S  S14  1  0.52346536  0.87653927  1.08509764  1.0
  S  S15  1  1.20855837  1.56163227  1.08509764  1.0
  S  S16  1  1.29144163  1.37653927  1.35307390  1.0
  S  S17  1  0.97653464  1.06163227  1.35307390  1.0
