# generated using pymatgen
data_KVOF3
_symmetry_space_group_name_H-M   'P 1'
_cell_length_a   7.30777098
_cell_length_b   7.63493978
_cell_length_c   13.51315133
_cell_angle_alpha   90.00000000
_cell_angle_beta   90.00000000
_cell_angle_gamma   90.00000000
_symmetry_Int_Tables_number   1
_chemical_formula_structural   KVOF3
_chemical_formula_sum   'K8 V8 O8 F24'
_cell_volume   753.95805368
_cell_formula_units_Z   8
loop_
 _symmetry_equiv_pos_site_id
 _symmetry_equiv_pos_as_xyz
  1  'x, y, z'
loop_
 _atom_site_type_symbol
 _atom_site_label
 _atom_site_symmetry_multiplicity
 _atom_site_fract_x
 _atom_site_fract_y
 _atom_site_fract_z
 _atom_site_occupancy
  K  K0  1  0.40522922  0.75000000  0.89274057  1.0
  K  K1  1  0.90522922  0.75000000  0.60725943  1.0
  K  K2  1  0.59477078  0.25000000  0.10725943  1.0
  K  K3  1  0.09477078  0.25000000  0.39274057  1.0
  K  K4  1  0.16941545  0.75000000  0.36181975  1.0
  K  K5  1  0.66941545  0.75000000  0.13818025  1.0
  K  K6  1  0.83058455  0.25000000  0.63818025  1.0
  K  K7  1  0.33058455  0.25000000  0.86181975  1.0
  V  V8  1  0.36703699  0.99695777  0.60513876  1.0
  V  V9  1  0.36703699  0.50304223  0.60513876  1.0
  V  V10  1  0.86703699  0.99695777  0.89486124  1.0
  V  V11  1  0.86703699  0.50304223  0.89486124  1.0
  V  V12  1  0.63296301  0.49695777  0.39486124  1.0
  V  V13  1  0.63296301  0.00304223  0.39486124  1.0
  V  V14  1  0.13296301  0.49695777  0.10513876  1.0
  V  V15  1  0.13296301  0.00304223  0.10513876  1.0
  O  O16  1  0.37910288  0.96736821  0.72264505  1.0
  O  O17  1  0.37910288  0.53263179  0.72264505  1.0
  O  O18  1  0.87910288  0.96736821  0.77735495  1.0
  O  O19  1  0.87910288  0.53263179  0.77735495  1.0
  O  O20  1  0.62089712  0.46736821  0.27735495  1.0
  O  O21  1  0.62089712  0.03263179  0.27735495  1.0
  O  O22  1  0.12089712  0.46736821  0.22264505  1.0
  O  O23  1  0.12089712  0.03263179  0.22264505  1.0
  F  F24  1  0.38029260  0.94998219  0.08088160  1.0
  F  F25  1  0.38029260  0.55001781  0.08088160  1.0
  F  F26  1  0.88029260  0.94998219  0.41911840  1.0
  F  F27  1  0.88029260  0.55001781  0.41911840  1.0
  F  F28  1  0.61970740  0.44998219  0.91911840  1.0
  F  F29  1  0.61970740  0.05001781  0.91911840  1.0
  F  F30  1  0.11970740  0.44998219  0.58088160  1.0
  F  F31  1  0.11970740  0.05001781  0.58088160  1.0
  F  F32  1  0.12137157  0.96570258  0.93742183  1.0
  F  F33  1  0.12137157  0.53429742  0.93742183  1.0
  F  F34  1  0.62137157  0.96570258  0.56257817  1.0
  F  F35  1  0.62137157  0.53429742  0.56257817  1.0
  F  F36  1  0.87862843  0.46570258  0.06257817  1.0
  F  F37  1  0.87862843  0.03429742  0.06257817  1.0
  F  F38  1  0.37862843  0.46570258  0.43742183  1.0
  F  F39  1  0.37862843  0.03429742  0.43742183  1.0
  F  F40  1  0.30464623  0.75000000  0.56560945  1.0
  F  F41  1  0.80464623  0.75000000  0.93439055  1.0
  F  F42  1  0.69535377  0.25000000  0.43439055  1.0
  F  F43  1  0.19535377  0.25000000  0.06560945  1.0
  F  F44  1  0.07141977  0.75000000  0.10625305  1.0
  F  F45  1  0.57141977  0.75000000  0.39374695  1.0
  F  F46  1  0.92858023  0.25000000  0.89374695  1.0
  F  F47  1  0.42858023  0.25000000  0.60625305  1.0
