# generated using pymatgen
data_EuWO5
_symmetry_space_group_name_H-M   'P 1'
_cell_length_a   5.34740339
_cell_length_b   12.91704305
_cell_length_c   6.91829953
_cell_angle_alpha   90.00000000
_cell_angle_beta   115.28964391
_cell_angle_gamma   90.00000000
_symmetry_Int_Tables_number   1
_chemical_formula_structural   EuWO5
_chemical_formula_sum   'Eu4 W4 O20'
_cell_volume   432.06650430
_cell_formula_units_Z   4
loop_
 _symmetry_equiv_pos_site_id
 _symmetry_equiv_pos_as_xyz
  1  'x, y, z'
loop_
 _atom_site_type_symbol
 _atom_site_label
 _atom_site_symmetry_multiplicity
 _atom_site_fract_x
 _atom_site_fract_y
 _atom_site_fract_z
 _atom_site_occupancy
  W  W0  1  0.88842881  0.36133035  0.34906615  1.0
  W  W1  1  0.88842881  0.13866965  0.84906615  1.0
  W  W2  1  0.11157119  0.86133035  0.15093385  1.0
  W  W3  1  0.11157119  0.63866965  0.65093385  1.0
  O  O4  1  0.68853366  0.43292030  0.46805567  1.0
  O  O5  1  0.68853366  0.06707970  0.96805567  1.0
  O  O6  1  0.31146634  0.93292030  0.03194433  1.0
  O  O7  1  0.31146634  0.56707970  0.53194433  1.0
  O  O8  1  0.78786449  0.64460458  0.41984701  1.0
  O  O9  1  0.78786449  0.85539542  0.91984701  1.0
  O  O10  1  0.21213551  0.14460458  0.08015299  1.0
  O  O11  1  0.21213551  0.35539542  0.58015299  1.0
  O  O12  1  0.79287313  0.22896356  0.29076919  1.0
  O  O13  1  0.79287313  0.27103644  0.79076919  1.0
  O  O14  1  0.20712687  0.72896356  0.20923081  1.0
  O  O15  1  0.20712687  0.77103644  0.70923081  1.0
  O  O16  1  0.51628092  0.40855849  0.07075560  1.0
  O  O17  1  0.51628092  0.09144151  0.57075560  1.0
  O  O18  1  0.48371908  0.90855849  0.42924440  1.0
  O  O19  1  0.48371908  0.59144151  0.92924440  1.0
  O  O20  1  0.98935695  0.92765002  0.33593583  1.0
  O  O21  1  0.98935695  0.57234998  0.83593583  1.0
  O  O22  1  0.01064305  0.42765002  0.16406417  1.0
  O  O23  1  0.01064305  0.07234998  0.66406417  1.0
  Eu  Eu24  1  0.63460607  0.05717461  0.29564898  1.0
  Eu  Eu25  1  0.63460607  0.44282539  0.79564898  1.0
  Eu  Eu26  1  0.36539393  0.55717461  0.20435102  1.0
  Eu  Eu27  1  0.36539393  0.94282539  0.70435102  1.0
