# generated using pymatgen
data_Gd5Rh4
_symmetry_space_group_name_H-M   'P 1'
_cell_length_a   7.40484578
_cell_length_b   14.62366944
_cell_length_c   7.54644312
_cell_angle_alpha   90.00000000
_cell_angle_beta   90.00000000
_cell_angle_gamma   90.00000000
_symmetry_Int_Tables_number   1
_chemical_formula_structural   Gd5Rh4
_chemical_formula_sum   'Gd20 Rh16'
_cell_volume   817.17426760
_cell_formula_units_Z   4
loop_
 _symmetry_equiv_pos_site_id
 _symmetry_equiv_pos_as_xyz
  1  'x, y, z'
loop_
 _atom_site_type_symbol
 _atom_site_label
 _atom_site_symmetry_multiplicity
 _atom_site_fract_x
 _atom_site_fract_y
 _atom_site_fract_z
 _atom_site_occupancy
  Gd  Gd0  1  0.50551358  0.40740945  0.17999481  1.0
  Gd  Gd1  1  0.50551358  0.09259055  0.17999481  1.0
  Gd  Gd2  1  0.00551358  0.40740945  0.32000519  1.0
  Gd  Gd3  1  0.00551358  0.09259055  0.32000519  1.0
  Gd  Gd4  1  0.49448642  0.90740945  0.82000519  1.0
  Gd  Gd5  1  0.49448642  0.59259055  0.82000519  1.0
  Gd  Gd6  1  0.99448642  0.90740945  0.67999481  1.0
  Gd  Gd7  1  0.99448642  0.59259055  0.67999481  1.0
  Gd  Gd8  1  0.15962180  0.37800966  0.83317104  1.0
  Gd  Gd9  1  0.15962180  0.12199034  0.83317104  1.0
  Gd  Gd10  1  0.65962180  0.37800966  0.66682896  1.0
  Gd  Gd11  1  0.65962180  0.12199034  0.66682896  1.0
  Gd  Gd12  1  0.84037820  0.87800966  0.16682896  1.0
  Gd  Gd13  1  0.84037820  0.62199034  0.16682896  1.0
  Gd  Gd14  1  0.34037820  0.87800966  0.33317104  1.0
  Gd  Gd15  1  0.34037820  0.62199034  0.33317104  1.0
  Gd  Gd16  1  0.31992642  0.25000000  0.48887305  1.0
  Gd  Gd17  1  0.81992642  0.25000000  0.01112695  1.0
  Gd  Gd18  1  0.68007358  0.75000000  0.51112695  1.0
  Gd  Gd19  1  0.18007358  0.75000000  0.98887305  1.0
  Rh  Rh20  1  0.31830785  0.45997500  0.53286056  1.0
  Rh  Rh21  1  0.31830785  0.04002500  0.53286056  1.0
  Rh  Rh22  1  0.81830785  0.45997500  0.96713944  1.0
  Rh  Rh23  1  0.81830785  0.04002500  0.96713944  1.0
  Rh  Rh24  1  0.68169215  0.95997500  0.46713944  1.0
  Rh  Rh25  1  0.68169215  0.54002500  0.46713944  1.0
  Rh  Rh26  1  0.18169215  0.95997500  0.03286056  1.0
  Rh  Rh27  1  0.18169215  0.54002500  0.03286056  1.0
  Rh  Rh28  1  0.45602606  0.25000000  0.89848812  1.0
  Rh  Rh29  1  0.95602606  0.25000000  0.60151188  1.0
  Rh  Rh30  1  0.54397394  0.75000000  0.10151188  1.0
  Rh  Rh31  1  0.04397394  0.75000000  0.39848812  1.0
  Rh  Rh32  1  0.18980200  0.25000000  0.14747661  1.0
  Rh  Rh33  1  0.68980200  0.25000000  0.35252339  1.0
  Rh  Rh34  1  0.81019800  0.75000000  0.85252339  1.0
  Rh  Rh35  1  0.31019800  0.75000000  0.64747661  1.0
