# generated using pymatgen
data_LaSi2Ni9
_symmetry_space_group_name_H-M   'P 1'
_cell_length_a   7.64922760
_cell_length_b   7.64922760
_cell_length_c   7.64922760
_cell_angle_alpha   99.58576287
_cell_angle_beta   99.58576287
_cell_angle_gamma   131.83229283
_symmetry_Int_Tables_number   1
_chemical_formula_structural   LaSi2Ni9
_chemical_formula_sum   'La2 Si4 Ni18'
_cell_volume   304.44865181
_cell_formula_units_Z   2
loop_
 _symmetry_equiv_pos_site_id
 _symmetry_equiv_pos_as_xyz
  1  'x, y, z'
loop_
 _atom_site_type_symbol
 _atom_site_label
 _atom_site_symmetry_multiplicity
 _atom_site_fract_x
 _atom_site_fract_y
 _atom_site_fract_z
 _atom_site_occupancy
  La  La0  1  0.50000000  0.50000000  1.00000000  1.0
  La  La1  1  0.25000000  0.75000000  0.50000000  1.0
  Si  Si2  1  0.87500000  0.62500000  0.75000000  1.0
  Si  Si3  1  1.37500000  1.12500000  1.25000000  1.0
  Si  Si4  1  0.87500000  0.12500000  0.75000000  1.0
  Si  Si5  1  0.87500000  1.12500000  0.25000000  1.0
  Ni  Ni6  1  0.75000000  1.25000000  0.50000000  1.0
  Ni  Ni7  1  1.00000000  1.00000000  1.00000000  1.0
  Ni  Ni8  1  1.01833495  0.68955215  1.07889236  1.0
  Ni  Ni9  1  1.61065979  1.68955215  1.67121719  1.0
  Ni  Ni10  1  1.43955215  1.26833495  1.57889236  1.0
  Ni  Ni11  1  0.68944259  0.26833495  0.82878281  1.0
  Ni  Ni12  1  1.01833495  0.93944259  1.32878281  1.0
  Ni  Ni13  1  1.61065979  0.93944259  0.92110764  1.0
  Ni  Ni14  1  1.43955215  0.86065979  1.17121719  1.0
  Ni  Ni15  1  0.68944259  0.86065979  1.42110764  1.0
  Ni  Ni16  1  1.73166505  1.56044785  1.42110764  1.0
  Ni  Ni17  1  1.13934021  0.56044785  0.82878281  1.0
  Ni  Ni18  1  1.31044785  0.98166505  0.92110764  1.0
  Ni  Ni19  1  1.06055741  0.98166505  1.67121719  1.0
  Ni  Ni20  1  1.73166505  1.31055741  1.17121719  1.0
  Ni  Ni21  1  1.13934021  1.31055741  1.57889236  1.0
  Ni  Ni22  1  1.31044785  1.38934021  1.32878281  1.0
  Ni  Ni23  1  1.06055741  0.38934021  1.07889236  1.0
