# generated using pymatgen
data_Nb5SiSn2
_symmetry_space_group_name_H-M   'P 1'
_cell_length_a   7.96524746
_cell_length_b   7.96524746
_cell_length_c   7.96524746
_cell_angle_alpha   95.98778800
_cell_angle_beta   95.98778800
_cell_angle_gamma   142.31344597
_symmetry_Int_Tables_number   1
_chemical_formula_structural   Nb5SiSn2
_chemical_formula_sum   'Nb10 Si2 Sn4'
_cell_volume   292.38754859
_cell_formula_units_Z   2
loop_
 _symmetry_equiv_pos_site_id
 _symmetry_equiv_pos_as_xyz
  1  'x, y, z'
loop_
 _atom_site_type_symbol
 _atom_site_label
 _atom_site_symmetry_multiplicity
 _atom_site_fract_x
 _atom_site_fract_y
 _atom_site_fract_z
 _atom_site_occupancy
  Nb  Nb0  1  0.28955081  0.43023401  0.71978482  1.0
  Nb  Nb1  1  1.21044919  0.93023401  1.14068320  1.0
  Nb  Nb2  1  0.93023401  0.78955081  1.71978482  1.0
  Nb  Nb3  1  0.56976599  1.28955081  0.85931680  1.0
  Nb  Nb4  1  0.78955081  1.06976599  0.85931680  1.0
  Nb  Nb5  1  0.71044919  0.56976599  1.28021518  1.0
  Nb  Nb6  1  1.43023401  0.71044919  1.14068320  1.0
  Nb  Nb7  1  0.06976599  0.21044919  0.28021518  1.0
  Nb  Nb8  1  0.75000000  1.25000000  0.50000000  1.0
  Nb  Nb9  1  0.25000000  0.75000000  0.50000000  1.0
  Si  Si10  1  0.25000000  0.25000000  -0.00000000  1.0
  Si  Si11  1  0.75000000  0.75000000  -0.00000000  1.0
  Sn  Sn12  1  0.83115660  0.33115660  1.16231320  1.0
  Sn  Sn13  1  0.66884340  0.83115660  0.50000000  1.0
  Sn  Sn14  1  1.33115660  1.16884340  1.50000000  1.0
  Sn  Sn15  1  0.16884340  0.66884340  0.83768680  1.0
