# generated using pymatgen
data_CaSbPt
_symmetry_space_group_name_H-M   'P 1'
_cell_length_a   7.39240437
_cell_length_b   4.63201624
_cell_length_c   7.96684749
_cell_angle_alpha   90.00000000
_cell_angle_beta   90.00000000
_cell_angle_gamma   90.00000000
_symmetry_Int_Tables_number   1
_chemical_formula_structural   CaSbPt
_chemical_formula_sum   'Ca4 Sb4 Pt4'
_cell_volume   272.79869741
_cell_formula_units_Z   4
loop_
 _symmetry_equiv_pos_site_id
 _symmetry_equiv_pos_as_xyz
  1  'x, y, z'
loop_
 _atom_site_type_symbol
 _atom_site_label
 _atom_site_symmetry_multiplicity
 _atom_site_fract_x
 _atom_site_fract_y
 _atom_site_fract_z
 _atom_site_occupancy
  Ca  Ca0  1  0.99236697  0.75000000  0.69794764  1.0
  Ca  Ca1  1  0.49236697  0.75000000  0.80205236  1.0
  Ca  Ca2  1  0.00763303  0.25000000  0.30205236  1.0
  Ca  Ca3  1  0.50763303  0.25000000  0.19794764  1.0
  Sb  Sb4  1  0.81315359  0.75000000  0.09058500  1.0
  Sb  Sb5  1  0.31315359  0.75000000  0.40941500  1.0
  Sb  Sb6  1  0.18684641  0.25000000  0.90941500  1.0
  Sb  Sb7  1  0.68684641  0.25000000  0.59058500  1.0
  Pt  Pt8  1  0.69763092  0.75000000  0.41502833  1.0
  Pt  Pt9  1  0.19763092  0.75000000  0.08497167  1.0
  Pt  Pt10  1  0.30236908  0.25000000  0.58497167  1.0
  Pt  Pt11  1  0.80236908  0.25000000  0.91502833  1.0
