# generated using pymatgen
data_KN3
_symmetry_space_group_name_H-M   'P 1'
_cell_length_a   7.46680786
_cell_length_b   7.46680786
_cell_length_c   7.46680786
_cell_angle_alpha   121.83681858
_cell_angle_beta   121.83681858
_cell_angle_gamma   86.84693091
_symmetry_Int_Tables_number   1
_chemical_formula_structural   KN3
_chemical_formula_sum   'K2 N6'
_cell_volume   285.72420851
_cell_formula_units_Z   2
loop_
 _symmetry_equiv_pos_site_id
 _symmetry_equiv_pos_as_xyz
  1  'x, y, z'
loop_
 _atom_site_type_symbol
 _atom_site_label
 _atom_site_symmetry_multiplicity
 _atom_site_fract_x
 _atom_site_fract_y
 _atom_site_fract_z
 _atom_site_occupancy
  N  N0  1  1.05425797  0.55425797  0.60851593  1.0
  N  N1  1  0.94574203  0.44574203  1.39148407  1.0
  N  N2  1  0.55425797  0.94574203  0.50000000  1.0
  N  N3  1  0.44574203  0.05425797  0.50000000  1.0
  N  N4  1  0.75000000  0.75000000  0.00000000  1.0
  N  N5  1  0.25000000  0.25000000  0.00000000  1.0
  K  K6  1  0.50000000  0.50000000  0.00000000  1.0
  K  K7  1  0.00000000  0.00000000  0.00000000  1.0
