# generated using pymatgen
data_Ca2Si3PbO9
_symmetry_space_group_name_H-M   'P 1'
_cell_length_a   9.68114318
_cell_length_b   6.84073629
_cell_length_c   6.78310330
_cell_angle_alpha   76.77967694
_cell_angle_beta   69.33030786
_cell_angle_gamma   82.92297793
_symmetry_Int_Tables_number   1
_chemical_formula_structural   Ca2Si3PbO9
_chemical_formula_sum   'Ca4 Si6 Pb2 O18'
_cell_volume   408.71884049
_cell_formula_units_Z   2
loop_
 _symmetry_equiv_pos_site_id
 _symmetry_equiv_pos_as_xyz
  1  'x, y, z'
loop_
 _atom_site_type_symbol
 _atom_site_label
 _atom_site_symmetry_multiplicity
 _atom_site_fract_x
 _atom_site_fract_y
 _atom_site_fract_z
 _atom_site_occupancy
  Ca  Ca0  1  -0.99254016  -0.27401434  -0.73465269  1.0
  Ca  Ca1  1  -0.00745984  -0.72598566  -0.26534731  1.0
  Ca  Ca2  1  -0.66942064  -0.44354062  -0.56806372  1.0
  Ca  Ca3  1  -0.33057936  -0.55645938  -0.43193628  1.0
  Si  Si4  1  -0.29945381  -0.43949402  -0.98508220  1.0
  Si  Si5  1  -0.70054619  -0.56050598  -0.01491780  1.0
  Si  Si6  1  -0.98345326  -0.76364977  -0.78347823  1.0
  Si  Si7  1  -0.01654674  -0.23635023  -0.21652177  1.0
  Si  Si8  1  -0.72112111  -0.90378170  -0.65993746  1.0
  Si  Si9  1  -0.27887889  -0.09621830  -0.34006254  1.0
  Pb  Pb10  1  -0.34109847  -0.90508614  -0.77867874  1.0
  Pb  Pb11  1  -0.65890153  -0.09491386  -0.22132126  1.0
  O  O12  1  -0.86129088  -0.63659076  -0.00801161  1.0
  O  O13  1  -0.13870912  -0.36340924  -0.99198839  1.0
  O  O14  1  -0.08924178  -0.86463860  -0.86702694  1.0
  O  O15  1  -0.91075822  -0.13536140  -0.13297306  1.0
  O  O16  1  -0.62398127  -0.76623290  -0.89747152  1.0
  O  O17  1  -0.37601873  -0.23376710  -0.10252848  1.0
  O  O18  1  -0.73877095  -0.38703042  -0.87157078  1.0
  O  O19  1  -0.26122905  -0.61296958  -0.12842922  1.0
  O  O20  1  -0.40285003  -0.52437942  -0.73924623  1.0
  O  O21  1  -0.59714997  -0.47562058  -0.26075377  1.0
  O  O22  1  -0.87477045  -0.95290536  -0.69780525  1.0
  O  O23  1  -0.12522955  -0.04709464  -0.30219475  1.0
  O  O24  1  -0.75959882  -0.77040760  -0.47526518  1.0
  O  O25  1  -0.24040118  -0.22959240  -0.52473482  1.0
  O  O26  1  -0.94036623  -0.37464628  -0.39452143  1.0
  O  O27  1  -0.05963377  -0.62535372  -0.60547857  1.0
  O  O28  1  -0.37036199  -0.89152243  -0.40452561  1.0
  O  O29  1  -0.62963801  -0.10847757  -0.59547439  1.0
