# generated using pymatgen
data_Ca5(IrO4)3
_symmetry_space_group_name_H-M   'P 1'
_cell_length_a   9.44661533
_cell_length_b   9.44661533
_cell_length_c   3.22528883
_cell_angle_alpha   90.00000000
_cell_angle_beta   90.00000000
_cell_angle_gamma   120.00000000
_symmetry_Int_Tables_number   1
_chemical_formula_structural   Ca5(IrO4)3
_chemical_formula_sum   'Ca5 Ir3 O12'
_cell_volume   249.25949235
_cell_formula_units_Z   1
loop_
 _symmetry_equiv_pos_site_id
 _symmetry_equiv_pos_as_xyz
  1  'x, y, z'
loop_
 _atom_site_type_symbol
 _atom_site_label
 _atom_site_symmetry_multiplicity
 _atom_site_fract_x
 _atom_site_fract_y
 _atom_site_fract_z
 _atom_site_occupancy
  Ca  Ca0  1  0.28721554  0.28721554  -0.00000000  1.0
  Ca  Ca1  1  -0.00000000  0.71278446  -0.00000000  1.0
  Ca  Ca2  1  0.71278446  -0.00000000  -0.00000000  1.0
  Ca  Ca3  1  0.33333333  0.66666667  -0.00000000  1.0
  Ca  Ca4  1  0.66666667  0.33333333  0.00000000  1.0
  Ir  Ir5  1  0.66871320  0.66871320  0.50000000  1.0
  Ir  Ir6  1  -0.00000000  0.33128680  0.50000000  1.0
  Ir  Ir7  1  0.33128680  0.00000000  0.50000000  1.0
  O  O8  1  0.20241142  0.75678581  0.50000000  1.0
  O  O9  1  0.75678581  0.20241142  0.50000000  1.0
  O  O10  1  0.55437439  0.79758858  0.50000000  1.0
  O  O11  1  0.24321419  0.44562561  0.50000000  1.0
  O  O12  1  0.79758858  0.55437439  0.50000000  1.0
  O  O13  1  0.44562561  0.24321419  0.50000000  1.0
  O  O14  1  0.79975600  0.79975600  -0.00000000  1.0
  O  O15  1  -0.00000000  0.20024400  -0.00000000  1.0
  O  O16  1  0.20024400  -0.00000000  -0.00000000  1.0
  O  O17  1  0.54224053  0.54224053  -0.00000000  1.0
  O  O18  1  0.00000000  0.45775947  -0.00000000  1.0
  O  O19  1  0.45775947  0.00000000  0.00000000  1.0
