# generated using pymatgen
data_Li12Mg3Si4
_symmetry_space_group_name_H-M   'P 1'
_cell_length_a   9.24407673
_cell_length_b   9.24407673
_cell_length_c   9.24407673
_cell_angle_alpha   109.47122063
_cell_angle_beta   109.47122063
_cell_angle_gamma   109.47122063
_symmetry_Int_Tables_number   1
_chemical_formula_structural   Li12Mg3Si4
_chemical_formula_sum   'Li24 Mg6 Si8'
_cell_volume   608.09122102
_cell_formula_units_Z   2
loop_
 _symmetry_equiv_pos_site_id
 _symmetry_equiv_pos_as_xyz
  1  'x, y, z'
loop_
 _atom_site_type_symbol
 _atom_site_label
 _atom_site_symmetry_multiplicity
 _atom_site_fract_x
 _atom_site_fract_y
 _atom_site_fract_z
 _atom_site_occupancy
  Li  Li0  1  1.08256348  0.31267555  0.96928943  1.0
  Li  Li1  1  0.84338612  1.11327404  0.53071057  1.0
  Li  Li2  1  0.81267555  0.58256348  0.46928943  1.0
  Li  Li3  1  1.61327404  1.34338612  1.03071057  1.0
  Li  Li4  1  0.96928943  1.08256348  0.31267555  1.0
  Li  Li5  1  1.26988792  0.65661388  1.18732445  1.0
  Li  Li6  1  1.58256348  1.46928943  1.81267555  1.0
  Li  Li7  1  0.15661388  0.76988792  0.68732445  1.0
  Li  Li8  1  1.31267555  0.96928943  1.08256348  1.0
  Li  Li9  1  1.38672596  1.23011208  1.41743652  1.0
  Li  Li10  1  0.46928943  0.81267555  0.58256348  1.0
  Li  Li11  1  0.73011208  0.88672596  0.91743652  1.0
  Li  Li12  1  1.65661388  1.18732445  1.26988792  1.0
  Li  Li13  1  1.41743652  1.38672596  1.23011208  1.0
  Li  Li14  1  0.88672596  0.91743652  0.73011208  1.0
  Li  Li15  1  0.68732445  1.15661388  0.76988792  1.0
  Li  Li16  1  1.23011208  1.41743652  1.38672596  1.0
  Li  Li17  1  1.53071057  0.84338612  1.11327404  1.0
  Li  Li18  1  1.34338612  1.03071057  1.61327404  1.0
  Li  Li19  1  0.91743652  0.73011208  0.88672596  1.0
  Li  Li20  1  1.11327404  1.53071057  0.84338612  1.0
  Li  Li21  1  1.18732445  1.26988792  1.65661388  1.0
  Li  Li22  1  0.76988792  0.68732445  0.15661388  1.0
  Li  Li23  1  1.03071057  0.61327404  1.34338612  1.0
  Mg  Mg24  1  1.12500000  0.87500000  1.25000000  1.0
  Mg  Mg25  1  0.37500000  0.62500000  0.75000000  1.0
  Mg  Mg26  1  0.25000000  1.12500000  0.87500000  1.0
  Mg  Mg27  1  0.75000000  1.37500000  0.62500000  1.0
  Mg  Mg28  1  0.62500000  0.75000000  0.37500000  1.0
  Mg  Mg29  1  0.87500000  0.25000000  1.12500000  1.0
  Si  Si30  1  1.09299464  1.09299464  1.09299464  1.0
  Si  Si31  1  1.50000000  1.00000000  1.40700536  1.0
  Si  Si32  1  0.59299464  0.59299464  0.59299464  1.0
  Si  Si33  1  0.50000000  1.00000000  0.90700536  1.0
  Si  Si34  1  1.00000000  1.40700536  1.50000000  1.0
  Si  Si35  1  1.40700536  0.50000000  1.00000000  1.0
  Si  Si36  1  1.00000000  0.90700536  1.50000000  1.0
  Si  Si37  1  0.90700536  1.50000000  1.00000000  1.0
