# generated using pymatgen
data_C3N4
_symmetry_space_group_name_H-M   'P 1'
_cell_length_a   6.50320690
_cell_length_b   6.50320690
_cell_length_c   4.73838853
_cell_angle_alpha   90.00000000
_cell_angle_beta   90.00000000
_cell_angle_gamma   120.00000000
_symmetry_Int_Tables_number   1
_chemical_formula_structural   C3N4
_chemical_formula_sum   'C12 N16'
_cell_volume   173.54673335
_cell_formula_units_Z   4
loop_
 _symmetry_equiv_pos_site_id
 _symmetry_equiv_pos_as_xyz
  1  'x, y, z'
loop_
 _atom_site_type_symbol
 _atom_site_label
 _atom_site_symmetry_multiplicity
 _atom_site_fract_x
 _atom_site_fract_y
 _atom_site_fract_z
 _atom_site_occupancy
  C  C0  1  0.48283211  0.56394050  0.70425792  1.0
  C  C1  1  0.43605950  0.91889161  0.70425792  1.0
  C  C2  1  0.08110839  0.51716789  0.70425792  1.0
  C  C3  1  0.56394050  0.48283211  0.20425792  1.0
  C  C4  1  0.91889161  0.43605950  0.20425792  1.0
  C  C5  1  0.51716789  0.08110839  0.20425792  1.0
  C  C6  1  0.83417207  0.08903865  0.49278791  1.0
  C  C7  1  0.91096135  0.74513342  0.49278791  1.0
  C  C8  1  0.25486658  0.16582793  0.49278791  1.0
  C  C9  1  0.08903865  0.83417207  0.99278791  1.0
  C  C10  1  0.74513342  0.91096135  0.99278791  1.0
  C  C11  1  0.16582793  0.25486658  0.99278791  1.0
  N  N12  1  0.00000000  0.00000000  0.49310668  1.0
  N  N13  1  0.00000000  0.00000000  -0.00689332  1.0
  N  N14  1  0.66666667  0.33333333  0.12873855  1.0
  N  N15  1  0.33333333  0.66666667  0.62873855  1.0
  N  N16  1  0.65326007  0.60331564  0.47325737  1.0
  N  N17  1  0.39668436  0.04994443  0.47325737  1.0
  N  N18  1  0.95005557  0.34673993  0.47325737  1.0
  N  N19  1  0.60331564  0.65326007  0.97325737  1.0
  N  N20  1  0.04994443  0.39668436  0.97325737  1.0
  N  N21  1  0.34673993  0.95005557  0.97325737  1.0
  N  N22  1  0.68530539  0.00498189  0.74528172  1.0
  N  N23  1  0.99501811  0.68032350  0.74528172  1.0
  N  N24  1  0.31967650  0.31469461  0.74528172  1.0
  N  N25  1  0.00498189  0.68530539  0.24528172  1.0
  N  N26  1  0.68032350  0.99501811  0.24528172  1.0
  N  N27  1  0.31469461  0.31967650  0.24528172  1.0
