# generated using pymatgen
data_NaNiH4SO6F
_symmetry_space_group_name_H-M   'P 1'
_cell_length_a   5.77985215
_cell_length_b   7.32127528
_cell_length_c   7.20927896
_cell_angle_alpha   90.00000000
_cell_angle_beta   113.83514199
_cell_angle_gamma   90.00000000
_symmetry_Int_Tables_number   1
_chemical_formula_structural   NaNiH4SO6F
_chemical_formula_sum   'Na2 Ni2 H8 S2 O12 F2'
_cell_volume   279.04848255
_cell_formula_units_Z   2
loop_
 _symmetry_equiv_pos_site_id
 _symmetry_equiv_pos_as_xyz
  1  'x, y, z'
loop_
 _atom_site_type_symbol
 _atom_site_label
 _atom_site_symmetry_multiplicity
 _atom_site_fract_x
 _atom_site_fract_y
 _atom_site_fract_z
 _atom_site_occupancy
  Na  Na0  1  0.92754665  0.25000000  0.30833583  1.0
  Na  Na1  1  0.07245335  0.75000000  0.69166417  1.0
  Ni  Ni2  1  0.50000000  0.00000000  0.50000000  1.0
  Ni  Ni3  1  0.50000000  0.50000000  0.50000000  1.0
  H  H4  1  0.41666252  0.08872538  0.12690016  1.0
  H  H5  1  0.41666252  0.41127462  0.12690016  1.0
  H  H6  1  0.58333748  0.58872538  0.87309984  1.0
  H  H7  1  0.58333748  0.91127462  0.87309984  1.0
  H  H8  1  0.38484483  0.07373071  0.80252690  1.0
  H  H9  1  0.38484483  0.42626929  0.80252690  1.0
  H  H10  1  0.61515517  0.57373071  0.19747310  1.0
  H  H11  1  0.61515517  0.92626929  0.19747310  1.0
  S  S12  1  0.95242436  0.25000000  0.80315873  1.0
  S  S13  1  0.04757564  0.75000000  0.19684127  1.0
  O  O14  1  0.87660230  0.08244860  0.67028808  1.0
  O  O15  1  0.87660230  0.41755140  0.67028808  1.0
  O  O16  1  0.12339770  0.58244860  0.32971192  1.0
  O  O17  1  0.12339770  0.91755140  0.32971192  1.0
  O  O18  1  0.56742362  0.04324296  0.24170623  1.0
  O  O19  1  0.56742362  0.45675704  0.24170623  1.0
  O  O20  1  0.43257638  0.54324296  0.75829377  1.0
  O  O21  1  0.43257638  0.95675704  0.75829377  1.0
  O  O22  1  0.24098341  0.25000000  0.90485143  1.0
  O  O23  1  0.75901659  0.75000000  0.09514857  1.0
  O  O24  1  0.84536334  0.25000000  0.95639333  1.0
  O  O25  1  0.15463666  0.75000000  0.04360667  1.0
  F  F26  1  0.35191756  0.25000000  0.48204075  1.0
  F  F27  1  0.64808244  0.75000000  0.51795925  1.0
