# generated using pymatgen
data_LaHC
_symmetry_space_group_name_H-M   'P 1'
_cell_length_a   4.12762248
_cell_length_b   4.12762248
_cell_length_c   6.89853008
_cell_angle_alpha   82.86035135
_cell_angle_beta   97.13964865
_cell_angle_gamma   121.86717655
_symmetry_Int_Tables_number   1
_chemical_formula_structural   LaHC
_chemical_formula_sum   'La2 H2 C2'
_cell_volume   98.80269048
_cell_formula_units_Z   2
loop_
 _symmetry_equiv_pos_site_id
 _symmetry_equiv_pos_as_xyz
  1  'x, y, z'
loop_
 _atom_site_type_symbol
 _atom_site_label
 _atom_site_symmetry_multiplicity
 _atom_site_fract_x
 _atom_site_fract_y
 _atom_site_fract_z
 _atom_site_occupancy
  La  La0  1  0.31247927  -0.31247927  0.75769133  1.0
  La  La1  1  0.68752073  0.31247927  0.24230867  1.0
  H  H2  1  0.66374268  0.33625732  0.88484829  1.0
  H  H3  1  0.33625732  -0.33625732  0.11515171  1.0
  C  C4  1  0.94685833  0.05314167  0.56905248  1.0
  C  C5  1  0.05314167  -0.05314167  0.43094752  1.0
