# generated using pymatgen
data_Cs4Sb2O5
_symmetry_space_group_name_H-M   'P 1'
_cell_length_a   6.49603020
_cell_length_b   6.49603020
_cell_length_c   8.29815479
_cell_angle_alpha   82.84790923
_cell_angle_beta   97.15209077
_cell_angle_gamma   114.01121893
_symmetry_Int_Tables_number   1
_chemical_formula_structural   Cs4Sb2O5
_chemical_formula_sum   'Cs4 Sb2 O5'
_cell_volume   316.32346173
_cell_formula_units_Z   1
loop_
 _symmetry_equiv_pos_site_id
 _symmetry_equiv_pos_as_xyz
  1  'x, y, z'
loop_
 _atom_site_type_symbol
 _atom_site_label
 _atom_site_symmetry_multiplicity
 _atom_site_fract_x
 _atom_site_fract_y
 _atom_site_fract_z
 _atom_site_occupancy
  Cs  Cs0  1  0.85030077  -0.85030077  0.32104961  1.0
  Cs  Cs1  1  0.51903777  -0.51903777  0.97038974  1.0
  Cs  Cs2  1  0.51367104  -0.51367104  0.46683244  1.0
  Cs  Cs3  1  0.18574785  -0.18574785  0.62070628  1.0
  Sb  Sb4  1  0.87157030  -0.87157030  0.79302281  1.0
  Sb  Sb5  1  0.15389853  -0.15389853  0.13710925  1.0
  O  O6  1  0.72759919  -0.15544467  0.69096255  1.0
  O  O7  1  1.15544467  0.27240081  0.69096255  1.0
  O  O8  1  1.35092003  0.07512154  0.28014604  1.0
  O  O9  1  0.92487846  -0.35092003  0.28014604  1.0
  O  O10  1  -0.02626860  0.02626860  0.01977270  1.0
