# generated using pymatgen
data_CdTe(Pb3O5)2
_symmetry_space_group_name_H-M   'P 1'
_cell_length_a   7.55252825
_cell_length_b   7.55252825
_cell_length_c   11.56215357
_cell_angle_alpha   90.00000000
_cell_angle_beta   90.00000000
_cell_angle_gamma   102.70572218
_symmetry_Int_Tables_number   1
_chemical_formula_structural   CdTe(Pb3O5)2
_chemical_formula_sum   'Cd2 Te2 Pb12 O20'
_cell_volume   643.36336364
_cell_formula_units_Z   2
loop_
 _symmetry_equiv_pos_site_id
 _symmetry_equiv_pos_as_xyz
  1  'x, y, z'
loop_
 _atom_site_type_symbol
 _atom_site_label
 _atom_site_symmetry_multiplicity
 _atom_site_fract_x
 _atom_site_fract_y
 _atom_site_fract_z
 _atom_site_occupancy
  Cd  Cd0  1  0.07679523  0.92320477  0.25000000  1.0
  Cd  Cd1  1  -0.07679523  1.07679523  0.75000000  1.0
  Te  Te2  1  0.17709153  0.17709153  0.00000000  1.0
  Te  Te3  1  0.82290847  0.82290847  0.50000000  1.0
  Pb  Pb4  1  0.27730561  0.71952026  0.01661194  1.0
  Pb  Pb5  1  -0.28047974  1.27730561  0.98338806  1.0
  Pb  Pb6  1  0.28047974  0.72269439  0.48338806  1.0
  Pb  Pb7  1  -0.27730561  1.28047974  0.51661194  1.0
  Pb  Pb8  1  0.00020232  1.42656023  0.23867441  1.0
  Pb  Pb9  1  0.42656023  1.00020232  0.76132559  1.0
  Pb  Pb10  1  -0.42656023  0.99979768  0.26132559  1.0
  Pb  Pb11  1  -0.00020232  0.57343977  0.73867441  1.0
  Pb  Pb12  1  -0.49215092  1.49215092  0.25000000  1.0
  Pb  Pb13  1  0.49215092  0.50784908  0.75000000  1.0
  Pb  Pb14  1  0.80318228  0.80318228  0.00000000  1.0
  Pb  Pb15  1  0.19681772  0.19681772  0.50000000  1.0
  O  O16  1  0.04258826  0.91704869  0.60433581  1.0
  O  O17  1  -0.08295131  1.04258826  0.39566419  1.0
  O  O18  1  0.08295131  0.95741174  0.89566419  1.0
  O  O19  1  -0.04258826  1.08295131  0.10433581  1.0
  O  O20  1  0.25407893  0.48757011  0.35042292  1.0
  O  O21  1  -0.51242989  1.25407893  0.64957708  1.0
  O  O22  1  0.51242989  0.74592107  0.14957708  1.0
  O  O23  1  -0.25407893  1.51242989  0.85042292  1.0
  O  O24  1  0.02618408  0.68254429  0.12921810  1.0
  O  O25  1  -0.31745571  1.02618408  0.87078190  1.0
  O  O26  1  0.31745571  0.97381592  0.37078190  1.0
  O  O27  1  -0.02618408  1.31745571  0.62921810  1.0
  O  O28  1  -0.02774573  1.68666688  0.40507088  1.0
  O  O29  1  0.68666688  0.97225427  0.59492912  1.0
  O  O30  1  -0.68666688  1.02774573  0.09492912  1.0
  O  O31  1  0.02774573  0.31333312  0.90507088  1.0
  O  O32  1  0.25057936  0.39213534  0.10623421  1.0
  O  O33  1  -0.60786466  1.25057936  0.89376579  1.0
  O  O34  1  0.60786466  0.74942064  0.39376579  1.0
  O  O35  1  -0.25057936  1.60786466  0.60623421  1.0
