# generated using pymatgen
data_SnTePd
_symmetry_space_group_name_H-M   'P 1'
_cell_length_a   6.67691800
_cell_length_b   6.72967582
_cell_length_c   13.10420277
_cell_angle_alpha   90.00000000
_cell_angle_beta   90.00000000
_cell_angle_gamma   90.00000000
_symmetry_Int_Tables_number   1
_chemical_formula_structural   SnTePd
_chemical_formula_sum   'Sn8 Te8 Pd8'
_cell_volume   588.81761129
_cell_formula_units_Z   8
loop_
 _symmetry_equiv_pos_site_id
 _symmetry_equiv_pos_as_xyz
  1  'x, y, z'
loop_
 _atom_site_type_symbol
 _atom_site_label
 _atom_site_symmetry_multiplicity
 _atom_site_fract_x
 _atom_site_fract_y
 _atom_site_fract_z
 _atom_site_occupancy
  Sn  Sn0  1  0.14217135  0.68291744  0.56460131  1.0
  Sn  Sn1  1  0.14217135  0.81708256  0.06460131  1.0
  Sn  Sn2  1  0.64217135  0.68291744  0.93539869  1.0
  Sn  Sn3  1  0.64217135  0.81708256  0.43539869  1.0
  Sn  Sn4  1  0.85782865  0.18291744  0.93539869  1.0
  Sn  Sn5  1  0.85782865  0.31708256  0.43539869  1.0
  Sn  Sn6  1  0.35782865  0.18291744  0.56460131  1.0
  Sn  Sn7  1  0.35782865  0.31708256  0.06460131  1.0
  Te  Te8  1  0.37343773  0.94947251  0.82182584  1.0
  Te  Te9  1  0.37343773  0.55052749  0.32182584  1.0
  Te  Te10  1  0.87343773  0.94947251  0.67817416  1.0
  Te  Te11  1  0.87343773  0.55052749  0.17817416  1.0
  Te  Te12  1  0.62656227  0.44947251  0.67817416  1.0
  Te  Te13  1  0.62656227  0.05052749  0.17817416  1.0
  Te  Te14  1  0.12656227  0.44947251  0.82182584  1.0
  Te  Te15  1  0.12656227  0.05052749  0.32182584  1.0
  Pd  Pd16  1  0.49692370  0.82485890  0.62796394  1.0
  Pd  Pd17  1  0.49692370  0.67514110  0.12796394  1.0
  Pd  Pd18  1  0.99692370  0.82485890  0.87203606  1.0
  Pd  Pd19  1  0.99692370  0.67514110  0.37203606  1.0
  Pd  Pd20  1  0.50307630  0.32485890  0.87203606  1.0
  Pd  Pd21  1  0.50307630  0.17514110  0.37203606  1.0
  Pd  Pd22  1  0.00307630  0.32485890  0.62796394  1.0
  Pd  Pd23  1  0.00307630  0.17514110  0.12796394  1.0
