# generated using pymatgen
data_Ca(GePt)2
_symmetry_space_group_name_H-M   'P 1'
_cell_length_a   4.32433180
_cell_length_b   4.32421584
_cell_length_c   10.28177159
_cell_angle_alpha   90.00000000
_cell_angle_beta   89.99810081
_cell_angle_gamma   90.00000000
_symmetry_Int_Tables_number   1
_chemical_formula_structural   Ca(GePt)2
_chemical_formula_sum   'Ca2 Ge4 Pt4'
_cell_volume   192.26238442
_cell_formula_units_Z   2
loop_
 _symmetry_equiv_pos_site_id
 _symmetry_equiv_pos_as_xyz
  1  'x, y, z'
loop_
 _atom_site_type_symbol
 _atom_site_label
 _atom_site_symmetry_multiplicity
 _atom_site_fract_x
 _atom_site_fract_y
 _atom_site_fract_z
 _atom_site_occupancy
  Ca  Ca0  1  0.74990462  0.51943073  0.25163834  1.0
  Ca  Ca1  1  0.25009538  0.01943073  0.74836166  1.0
  Ge  Ge2  1  0.75021648  0.51941679  0.86978264  1.0
  Ge  Ge3  1  0.24978352  0.01941679  0.13021736  1.0
  Ge  Ge4  1  0.74995871  0.01942754  0.49999444  1.0
  Ge  Ge5  1  0.25004129  0.51942754  0.50000556  1.0
  Pt  Pt6  1  0.75004657  0.51940405  0.62945601  1.0
  Pt  Pt7  1  0.24995343  0.01940405  0.37054399  1.0
  Pt  Pt8  1  0.74981291  1.01942089  0.99999289  1.0
  Pt  Pt9  1  0.25018709  0.51942089  0.00000711  1.0
