# generated using pymatgen
data_TlBi(MoO4)2
_symmetry_space_group_name_H-M   'P 1'
_cell_length_a   7.63986624
_cell_length_b   7.63986624
_cell_length_c   8.01136908
_cell_angle_alpha   61.26222764
_cell_angle_beta   118.73777236
_cell_angle_gamma   92.57836163
_symmetry_Int_Tables_number   1
_chemical_formula_structural   TlBi(MoO4)2
_chemical_formula_sum   'Tl2 Bi2 Mo4 O16'
_cell_volume   348.80707887
_cell_formula_units_Z   2
loop_
 _symmetry_equiv_pos_site_id
 _symmetry_equiv_pos_as_xyz
  1  'x, y, z'
loop_
 _atom_site_type_symbol
 _atom_site_label
 _atom_site_symmetry_multiplicity
 _atom_site_fract_x
 _atom_site_fract_y
 _atom_site_fract_z
 _atom_site_occupancy
  Tl  Tl0  1  0.19792626  0.19792626  0.25000000  1.0
  Tl  Tl1  1  0.80207374  0.80207374  0.75000000  1.0
  Bi  Bi2  1  0.76858799  0.76858799  0.25000000  1.0
  Bi  Bi3  1  0.23141201  0.23141201  0.75000000  1.0
  Mo  Mo4  1  0.68874296  0.30322394  0.24039469  1.0
  Mo  Mo5  1  0.69677606  0.31125704  0.74039469  1.0
  Mo  Mo6  1  1.30322394  -0.31125704  0.25960531  1.0
  Mo  Mo7  1  1.31125704  -0.30322394  0.75960531  1.0
  O  O8  1  1.57853103  -0.37028554  0.02861305  1.0
  O  O9  1  1.37028554  -0.57853103  0.52861305  1.0
  O  O10  1  0.62971446  0.57853103  0.47138695  1.0
  O  O11  1  0.42146897  0.37028554  0.97138695  1.0
  O  O12  1  0.79437419  0.06150302  0.30377174  1.0
  O  O13  1  0.93849698  0.20562581  0.80377174  1.0
  O  O14  1  1.06150302  -0.20562581  0.19622826  1.0
  O  O15  1  1.20562581  -0.06150302  0.69622826  1.0
  O  O16  1  1.39089841  -0.08257484  0.13104877  1.0
  O  O17  1  1.08257484  -0.39089841  0.63104877  1.0
  O  O18  1  0.91742516  0.39089841  0.36895123  1.0
  O  O19  1  0.60910159  0.08257484  0.86895123  1.0
  O  O20  1  0.60551958  0.22883703  0.42949716  1.0
  O  O21  1  0.77116297  0.39448042  0.92949716  1.0
  O  O22  1  1.22883703  -0.39448042  0.07050284  1.0
  O  O23  1  1.39448042  -0.22883703  0.57050284  1.0
