# generated using pymatgen
data_PbI2
_symmetry_space_group_name_H-M   'P 1'
_cell_length_a   4.66027794
_cell_length_b   4.66027794
_cell_length_c   82.67185133
_cell_angle_alpha   90.00000000
_cell_angle_beta   90.00000000
_cell_angle_gamma   120.00000000
_symmetry_Int_Tables_number   1
_chemical_formula_structural   PbI2
_chemical_formula_sum   'Pb11 I22'
_cell_volume   1554.93390127
_cell_formula_units_Z   11
loop_
 _symmetry_equiv_pos_site_id
 _symmetry_equiv_pos_as_xyz
  1  'x, y, z'
loop_
 _atom_site_type_symbol
 _atom_site_label
 _atom_site_symmetry_multiplicity
 _atom_site_fract_x
 _atom_site_fract_y
 _atom_site_fract_z
 _atom_site_occupancy
  Pb  Pb0  1  0.00000000  0.00000000  0.02277211  1.0
  Pb  Pb1  1  0.00000000  0.00000000  0.11359656  1.0
  Pb  Pb2  1  0.00000000  0.00000000  0.29546381  1.0
  Pb  Pb3  1  0.00000000  0.00000000  0.47728544  1.0
  Pb  Pb4  1  0.00000000  0.00000000  0.65909363  1.0
  Pb  Pb5  1  0.00000000  0.00000000  0.84090395  1.0
  Pb  Pb6  1  0.66666667  0.33333333  0.20455294  1.0
  Pb  Pb7  1  0.66666667  0.33333333  0.38637078  1.0
  Pb  Pb8  1  0.66666667  0.33333333  0.56817880  1.0
  Pb  Pb9  1  0.66666667  0.33333333  0.74999886  1.0
  Pb  Pb10  1  0.66666667  0.33333333  0.93182770  1.0
  I  I11  1  0.00000000  0.00000000  0.22708284  1.0
  I  I12  1  0.00000000  0.00000000  0.40890089  1.0
  I  I13  1  0.00000000  0.00000000  0.59070724  1.0
  I  I14  1  0.00000000  0.00000000  0.77252916  1.0
  I  I15  1  0.00000000  0.00000000  0.95435768  1.0
  I  I16  1  0.66666667  0.33333333  0.04530662  1.0
  I  I17  1  0.66666667  0.33333333  0.13612465  1.0
  I  I18  1  0.66666667  0.33333333  0.31799326  1.0
  I  I19  1  0.66666667  0.33333333  0.49981807  1.0
  I  I20  1  0.66666667  0.33333333  0.68162479  1.0
  I  I21  1  0.66666667  0.33333333  0.86343459  1.0
  I  I22  1  0.33333333  0.66666667  0.00024903  1.0
  I  I23  1  0.33333333  0.66666667  0.09106864  1.0
  I  I24  1  0.33333333  0.66666667  0.18202950  1.0
  I  I25  1  0.33333333  0.66666667  0.27294123  1.0
  I  I26  1  0.33333333  0.66666667  0.36384905  1.0
  I  I27  1  0.33333333  0.66666667  0.45475740  1.0
  I  I28  1  0.33333333  0.66666667  0.54565684  1.0
  I  I29  1  0.33333333  0.66666667  0.63656753  1.0
  I  I30  1  0.33333333  0.66666667  0.72747365  1.0
  I  I31  1  0.33333333  0.66666667  0.81837837  1.0
  I  I32  1  0.33333333  0.66666667  0.90930438  1.0
