# generated using pymatgen
data_KH2Au(Cl2O)2
_symmetry_space_group_name_H-M   'P 1'
_cell_length_a   12.52005145
_cell_length_b   9.52133777
_cell_length_c   7.49103948
_cell_angle_alpha   90.00000000
_cell_angle_beta   90.00000000
_cell_angle_gamma   90.00000000
_symmetry_Int_Tables_number   1
_chemical_formula_structural   KH2Au(Cl2O)2
_chemical_formula_sum   'K4 H8 Au4 Cl16 O8'
_cell_volume   892.98912867
_cell_formula_units_Z   4
loop_
 _symmetry_equiv_pos_site_id
 _symmetry_equiv_pos_as_xyz
  1  'x, y, z'
loop_
 _atom_site_type_symbol
 _atom_site_label
 _atom_site_symmetry_multiplicity
 _atom_site_fract_x
 _atom_site_fract_y
 _atom_site_fract_z
 _atom_site_occupancy
  K  K0  1  0.00000000  0.38347135  0.75000000  1.0
  K  K1  1  0.00000000  0.61652865  0.25000000  1.0
  K  K2  1  0.50000000  0.88347135  0.75000000  1.0
  K  K3  1  0.50000000  0.11652865  0.25000000  1.0
  Cl  Cl4  1  0.62516631  0.57173658  0.68969021  1.0
  Cl  Cl5  1  0.62516631  0.42826342  0.18969021  1.0
  Cl  Cl6  1  0.12516631  0.07173658  0.81030979  1.0
  Cl  Cl7  1  0.12516631  0.92826342  0.31030979  1.0
  Cl  Cl8  1  0.37483369  0.57173658  0.81030979  1.0
  Cl  Cl9  1  0.37483369  0.42826342  0.31030979  1.0
  Cl  Cl10  1  0.87483369  0.07173658  0.68969021  1.0
  Cl  Cl11  1  0.87483369  0.92826342  0.18969021  1.0
  Cl  Cl12  1  0.87395921  0.72823721  0.68928995  1.0
  Cl  Cl13  1  0.87395921  0.27176279  0.18928995  1.0
  Cl  Cl14  1  0.37395921  0.22823721  0.81071005  1.0
  Cl  Cl15  1  0.37395921  0.77176279  0.31071005  1.0
  Cl  Cl16  1  0.12604079  0.72823721  0.81071005  1.0
  Cl  Cl17  1  0.12604079  0.27176279  0.31071005  1.0
  Cl  Cl18  1  0.62604079  0.22823721  0.68928995  1.0
  Cl  Cl19  1  0.62604079  0.77176279  0.18928995  1.0
  Au  Au20  1  0.00000000  0.89997145  0.75000000  1.0
  Au  Au21  1  0.00000000  0.10002855  0.25000000  1.0
  Au  Au22  1  0.50000000  0.39997145  0.75000000  1.0
  Au  Au23  1  0.50000000  0.60002855  0.25000000  1.0
  O  O24  1  0.87206707  0.56193755  0.94624504  1.0
  O  O25  1  0.87206707  0.43806245  0.44624504  1.0
  O  O26  1  0.37206707  0.06193755  0.55375496  1.0
  O  O27  1  0.37206707  0.93806245  0.05375496  1.0
  O  O28  1  0.12793293  0.56193755  0.55375496  1.0
  O  O29  1  0.12793293  0.43806245  0.05375496  1.0
  O  O30  1  0.62793293  0.06193755  0.94624504  1.0
  O  O31  1  0.62793293  0.93806245  0.44624504  1.0
  H  H32  1  0.79382799  0.56766741  0.94172838  1.0
  H  H33  1  0.79382799  0.43233259  0.44172838  1.0
  H  H34  1  0.29382799  0.06766741  0.55827162  1.0
  H  H35  1  0.29382799  0.93233259  0.05827162  1.0
  H  H36  1  0.20617201  0.56766741  0.55827162  1.0
  H  H37  1  0.20617201  0.43233259  0.05827162  1.0
  H  H38  1  0.70617201  0.06766741  0.94172838  1.0
  H  H39  1  0.70617201  0.93233259  0.44172838  1.0
