# generated using pymatgen
data_K2RuN3Cl3O5
_symmetry_space_group_name_H-M   'P 1'
_cell_length_a   10.64272193
_cell_length_b   7.69259424
_cell_length_c   7.06220615
_cell_angle_alpha   90.16856226
_cell_angle_beta   100.87691324
_cell_angle_gamma   90.10392574
_symmetry_Int_Tables_number   1
_chemical_formula_structural   K2RuN3Cl3O5
_chemical_formula_sum   'K4 Ru2 N6 Cl6 O10'
_cell_volume   567.79253456
_cell_formula_units_Z   2
loop_
 _symmetry_equiv_pos_site_id
 _symmetry_equiv_pos_as_xyz
  1  'x, y, z'
loop_
 _atom_site_type_symbol
 _atom_site_label
 _atom_site_symmetry_multiplicity
 _atom_site_fract_x
 _atom_site_fract_y
 _atom_site_fract_z
 _atom_site_occupancy
  K  K0  1  -0.36644526  -0.74782701  -0.88022646  1.0
  K  K1  1  -0.63355474  -0.25217299  -0.11977354  1.0
  K  K2  1  -0.97006717  -0.24867258  -0.71902647  1.0
  K  K3  1  -0.02993283  -0.75132742  -0.28097353  1.0
  Ru  Ru4  1  -0.74022068  -0.75169676  -0.62506856  1.0
  Ru  Ru5  1  -0.25977932  -0.24830324  -0.37493144  1.0
  N  N6  1  -0.70144236  -0.55976115  -0.81532716  1.0
  N  N7  1  -0.29855764  -0.44023885  -0.18467284  1.0
  N  N8  1  -0.69773424  -0.94668310  -0.80990645  1.0
  N  N9  1  -0.30226576  -0.05331690  -0.19009355  1.0
  N  N10  1  -0.58082510  -0.74792678  -0.50810653  1.0
  N  N11  1  -0.41917490  -0.25207322  -0.49189347  1.0
  Cl  Cl12  1  -0.95193364  -0.75746982  -0.79245428  1.0
  Cl  Cl13  1  -0.04806636  -0.24253018  -0.20754572  1.0
  Cl  Cl14  1  -0.80114678  -0.52571837  -0.41587679  1.0
  Cl  Cl15  1  -0.19885322  -0.47428163  -0.58412321  1.0
  Cl  Cl16  1  -0.79785530  -0.97428144  -0.41021997  1.0
  Cl  Cl17  1  -0.20214470  -0.02571856  -0.58978003  1.0
  O  O18  1  -0.78345391  -0.45187690  -0.88307448  1.0
  O  O19  1  -0.21654609  -0.54812310  -0.11692552  1.0
  O  O20  1  -0.77756262  -0.05928075  -0.87442973  1.0
  O  O21  1  -0.22243738  -0.94071925  -0.12557027  1.0
  O  O22  1  -0.59204768  -0.55317663  -0.85537696  1.0
  O  O23  1  -0.40795232  -0.44682337  -0.14462304  1.0
  O  O24  1  -0.58843570  -0.95016257  -0.85024395  1.0
  O  O25  1  -0.41156430  -0.04983743  -0.14975605  1.0
  O  O26  1  -0.47324212  -0.74573909  -0.43858138  1.0
  O  O27  1  -0.52675788  -0.25426091  -0.56141862  1.0
