# generated using pymatgen
data_SrGe4O9
_symmetry_space_group_name_H-M   'P 1'
_cell_length_a   11.50109268
_cell_length_b   11.50109268
_cell_length_c   4.83757978
_cell_angle_alpha   90.00000000
_cell_angle_beta   90.00000000
_cell_angle_gamma   120.00000000
_symmetry_Int_Tables_number   1
_chemical_formula_structural   SrGe4O9
_chemical_formula_sum   'Sr3 Ge12 O27'
_cell_volume   554.16230173
_cell_formula_units_Z   3
loop_
 _symmetry_equiv_pos_site_id
 _symmetry_equiv_pos_as_xyz
  1  'x, y, z'
loop_
 _atom_site_type_symbol
 _atom_site_label
 _atom_site_symmetry_multiplicity
 _atom_site_fract_x
 _atom_site_fract_y
 _atom_site_fract_z
 _atom_site_occupancy
  Sr  Sr0  1  0.32704181  0.32704181  0.00000000  1.0
  Sr  Sr1  1  0.00000000  0.67295819  0.00000000  1.0
  Sr  Sr2  1  0.67295819  0.00000000  0.00000000  1.0
  Ge  Ge3  1  0.65889489  0.50869040  0.40128407  1.0
  Ge  Ge4  1  0.50869040  0.65889489  0.59871593  1.0
  Ge  Ge5  1  0.84979551  0.34110511  0.40128407  1.0
  Ge  Ge6  1  0.49130960  0.15020449  0.40128407  1.0
  Ge  Ge7  1  0.34110511  0.84979551  0.59871593  1.0
  Ge  Ge8  1  0.15020449  0.49130960  0.59871593  1.0
  Ge  Ge9  1  0.82030433  0.82030433  0.50000000  1.0
  Ge  Ge10  1  -0.00000000  0.17969567  0.50000000  1.0
  Ge  Ge11  1  0.17969567  0.00000000  0.50000000  1.0
  Ge  Ge12  1  0.33333333  0.66666667  0.10547206  1.0
  Ge  Ge13  1  0.66666667  0.33333333  0.89452794  1.0
  Ge  Ge14  1  0.00000000  0.00000000  0.00000000  1.0
  O  O15  1  0.06072453  0.90550501  0.23692623  1.0
  O  O16  1  0.90550501  0.06072453  0.76307377  1.0
  O  O17  1  0.84478048  0.93927547  0.23692623  1.0
  O  O18  1  0.09449499  0.15521952  0.23692623  1.0
  O  O19  1  0.93927547  0.84478048  0.76307377  1.0
  O  O20  1  0.15521952  0.09449499  0.76307377  1.0
  O  O21  1  0.24949927  0.73948707  0.32614229  1.0
  O  O22  1  0.73948707  0.24949927  0.67385771  1.0
  O  O23  1  0.48998780  0.75050073  0.32614229  1.0
  O  O24  1  0.26051293  0.51001220  0.32614229  1.0
  O  O25  1  0.75050073  0.48998780  0.67385771  1.0
  O  O26  1  0.51001220  0.26051293  0.67385771  1.0
  O  O27  1  0.78566185  0.67459539  0.29499292  1.0
  O  O28  1  0.67459539  0.78566185  0.70500708  1.0
  O  O29  1  0.88893354  0.21433815  0.29499292  1.0
  O  O30  1  0.32540461  0.11106646  0.29499292  1.0
  O  O31  1  0.21433815  0.88893354  0.70500708  1.0
  O  O32  1  0.11106646  0.32540461  0.70500708  1.0
  O  O33  1  0.57622324  0.39685138  0.12377809  1.0
  O  O34  1  0.39685138  0.57622324  0.87622191  1.0
  O  O35  1  0.82062814  0.42377676  0.12377809  1.0
  O  O36  1  0.60314862  0.17937186  0.12377809  1.0
  O  O37  1  0.42377676  0.82062814  0.87622191  1.0
  O  O38  1  0.17937186  0.60314862  0.87622191  1.0
  O  O39  1  0.51024035  0.51024035  0.50000000  1.0
  O  O40  1  0.00000000  0.48975965  0.50000000  1.0
  O  O41  1  0.48975965  0.00000000  0.50000000  1.0
