# generated using pymatgen
data_TaTl(PO4)2
_symmetry_space_group_name_H-M   'P 1'
_cell_length_a   5.25478919
_cell_length_b   5.25478919
_cell_length_c   8.61245364
_cell_angle_alpha   90.00000000
_cell_angle_beta   90.00000000
_cell_angle_gamma   120.00000000
_symmetry_Int_Tables_number   1
_chemical_formula_structural   TaTl(PO4)2
_chemical_formula_sum   'Ta1 Tl1 P2 O8'
_cell_volume   205.95300090
_cell_formula_units_Z   1
loop_
 _symmetry_equiv_pos_site_id
 _symmetry_equiv_pos_as_xyz
  1  'x, y, z'
loop_
 _atom_site_type_symbol
 _atom_site_label
 _atom_site_symmetry_multiplicity
 _atom_site_fract_x
 _atom_site_fract_y
 _atom_site_fract_z
 _atom_site_occupancy
  P  P0  1  0.33333333  0.66666667  0.20577444  1.0
  P  P1  1  0.66666667  0.33333333  0.79422556  1.0
  O  O2  1  0.82540045  0.65077056  0.86527945  1.0
  O  O3  1  0.82537010  0.17459955  0.86527945  1.0
  O  O4  1  0.34922944  0.17462990  0.86527945  1.0
  O  O5  1  0.17459955  0.82537010  0.13472055  1.0
  O  O6  1  0.65077056  0.82540045  0.13472055  1.0
  O  O7  1  0.17462990  0.34922944  0.13472055  1.0
  O  O8  1  0.33333333  0.66666667  0.37993682  1.0
  O  O9  1  0.66666667  0.33333333  0.62006318  1.0
  Ta  Ta10  1  0.00000000  0.00000000  0.00000000  1.0
  Tl  Tl11  1  0.00000000  0.00000000  0.50000000  1.0
