# generated using pymatgen
data_Sn3PO6
_symmetry_space_group_name_H-M   'P 1'
_cell_length_a   5.17843113
_cell_length_b   11.08377282
_cell_length_c   12.62726947
_cell_angle_alpha   90.00000000
_cell_angle_beta   111.51329959
_cell_angle_gamma   90.00000000
_symmetry_Int_Tables_number   1
_chemical_formula_structural   Sn3PO6
_chemical_formula_sum   'Sn12 P4 O24'
_cell_volume   674.26939498
_cell_formula_units_Z   4
loop_
 _symmetry_equiv_pos_site_id
 _symmetry_equiv_pos_as_xyz
  1  'x, y, z'
loop_
 _atom_site_type_symbol
 _atom_site_label
 _atom_site_symmetry_multiplicity
 _atom_site_fract_x
 _atom_site_fract_y
 _atom_site_fract_z
 _atom_site_occupancy
  Sn  Sn0  1  0.88518599  0.36942656  0.42003790  1.0
  Sn  Sn1  1  0.88518599  0.13057344  0.92003790  1.0
  Sn  Sn2  1  0.11481401  0.86942656  0.07996210  1.0
  Sn  Sn3  1  0.11481401  0.63057344  0.57996210  1.0
  Sn  Sn4  1  0.55191942  0.14498103  0.18635247  1.0
  Sn  Sn5  1  0.55191942  0.35501897  0.68635247  1.0
  Sn  Sn6  1  0.44808058  0.64498103  0.31364753  1.0
  Sn  Sn7  1  0.44808058  0.85501897  0.81364753  1.0
  Sn  Sn8  1  0.23094116  0.11161237  0.45784627  1.0
  Sn  Sn9  1  0.23094116  0.38838763  0.95784627  1.0
  Sn  Sn10  1  0.76905884  0.61161237  0.04215373  1.0
  Sn  Sn11  1  0.76905884  0.88838763  0.54215373  1.0
  P  P12  1  0.93900131  0.84662162  0.30934913  1.0
  P  P13  1  0.93900131  0.65337838  0.80934913  1.0
  P  P14  1  0.06099869  0.34662162  0.19065087  1.0
  P  P15  1  0.06099869  0.15337838  0.69065087  1.0
  O  O16  1  0.99360393  0.42942119  0.27686665  1.0
  O  O17  1  0.99360393  0.07057881  0.77686665  1.0
  O  O18  1  0.00639607  0.92942119  0.22313335  1.0
  O  O19  1  0.00639607  0.57057881  0.72313335  1.0
  O  O20  1  0.90965385  0.93419244  0.40270216  1.0
  O  O21  1  0.90965385  0.56580756  0.90270216  1.0
  O  O22  1  0.09034615  0.43419244  0.09729784  1.0
  O  O23  1  0.09034615  0.06580756  0.59729784  1.0
  O  O24  1  0.81974369  0.25744710  0.12915277  1.0
  O  O25  1  0.81974369  0.24255290  0.62915277  1.0
  O  O26  1  0.18025631  0.75744710  0.37084723  1.0
  O  O27  1  0.18025631  0.74255290  0.87084723  1.0
  O  O28  1  0.85262475  0.19210352  0.35657679  1.0
  O  O29  1  0.85262475  0.30789648  0.85657679  1.0
  O  O30  1  0.14737525  0.69210352  0.14342321  1.0
  O  O31  1  0.14737525  0.80789648  0.64342321  1.0
  O  O32  1  0.34084478  0.27982052  0.25183913  1.0
  O  O33  1  0.34084478  0.22017948  0.75183913  1.0
  O  O34  1  0.65915522  0.77982052  0.24816087  1.0
  O  O35  1  0.65915522  0.72017948  0.74816087  1.0
  O  O36  1  0.27641924  0.29418372  0.51757144  1.0
  O  O37  1  0.27641924  0.20581628  1.01757144  1.0
  O  O38  1  0.72358076  0.79418372  -0.01757144  1.0
  O  O39  1  0.72358076  0.70581628  0.48242856  1.0
