# generated using pymatgen
data_BaGe4O9
_symmetry_space_group_name_H-M   'P 1'
_cell_length_a   11.77844223
_cell_length_b   11.77844223
_cell_length_c   4.82634466
_cell_angle_alpha   90.00000000
_cell_angle_beta   90.00000000
_cell_angle_gamma   120.00000000
_symmetry_Int_Tables_number   1
_chemical_formula_structural   BaGe4O9
_chemical_formula_sum   'Ba3 Ge12 O27'
_cell_volume   579.86203610
_cell_formula_units_Z   3
loop_
 _symmetry_equiv_pos_site_id
 _symmetry_equiv_pos_as_xyz
  1  'x, y, z'
loop_
 _atom_site_type_symbol
 _atom_site_label
 _atom_site_symmetry_multiplicity
 _atom_site_fract_x
 _atom_site_fract_y
 _atom_site_fract_z
 _atom_site_occupancy
  Ba  Ba0  1  0.33159522  0.33159522  0.00000000  1.0
  Ba  Ba1  1  -0.00000000  0.66840478  0.00000000  1.0
  Ba  Ba2  1  0.66840478  0.00000000  0.00000000  1.0
  Ge  Ge3  1  0.66237651  0.51226770  0.41119675  1.0
  Ge  Ge4  1  0.51226770  0.66237651  0.58880325  1.0
  Ge  Ge5  1  0.84989119  0.33762349  0.41119675  1.0
  Ge  Ge6  1  0.48773230  0.15010881  0.41119675  1.0
  Ge  Ge7  1  0.33762349  0.84989119  0.58880325  1.0
  Ge  Ge8  1  0.15010881  0.48773230  0.58880325  1.0
  Ge  Ge9  1  0.82072540  0.82072540  0.50000000  1.0
  Ge  Ge10  1  -0.00000000  0.17927460  0.50000000  1.0
  Ge  Ge11  1  0.17927460  0.00000000  0.50000000  1.0
  Ge  Ge12  1  0.33333333  0.66666667  0.09733243  1.0
  Ge  Ge13  1  0.66666667  0.33333333  0.90266757  1.0
  Ge  Ge14  1  0.00000000  0.00000000  0.00000000  1.0
  O  O15  1  0.06382757  0.91117168  0.23499416  1.0
  O  O16  1  0.91117168  0.06382757  0.76500584  1.0
  O  O17  1  0.84734411  0.93617243  0.23499416  1.0
  O  O18  1  0.08882832  0.15265589  0.23499416  1.0
  O  O19  1  0.93617243  0.84734411  0.76500584  1.0
  O  O20  1  0.15265589  0.08882832  0.76500584  1.0
  O  O21  1  0.25015503  0.73712968  0.32122941  1.0
  O  O22  1  0.73712968  0.25015503  0.67877059  1.0
  O  O23  1  0.48697465  0.74984497  0.32122941  1.0
  O  O24  1  0.26287032  0.51302535  0.32122941  1.0
  O  O25  1  0.74984497  0.48697465  0.67877059  1.0
  O  O26  1  0.51302535  0.26287032  0.67877059  1.0
  O  O27  1  0.78754922  0.67471803  0.30970964  1.0
  O  O28  1  0.67471803  0.78754922  0.69029036  1.0
  O  O29  1  0.88716881  0.21245078  0.30970964  1.0
  O  O30  1  0.32528197  0.11283119  0.30970964  1.0
  O  O31  1  0.21245078  0.88716881  0.69029036  1.0
  O  O32  1  0.11283119  0.32528197  0.69029036  1.0
  O  O33  1  0.58685886  0.40540973  0.12865438  1.0
  O  O34  1  0.40540973  0.58685886  0.87134562  1.0
  O  O35  1  0.81855087  0.41314114  0.12865438  1.0
  O  O36  1  0.59459027  0.18144913  0.12865438  1.0
  O  O37  1  0.41314114  0.81855087  0.87134562  1.0
  O  O38  1  0.18144913  0.59459027  0.87134562  1.0
  O  O39  1  0.51685744  0.51685744  0.50000000  1.0
  O  O40  1  0.00000000  0.48314256  0.50000000  1.0
  O  O41  1  0.48314256  0.00000000  0.50000000  1.0
