# generated using pymatgen
data_Sr(GeRh)2
_symmetry_space_group_name_H-M   'P 1'
_cell_length_a   6.21162243
_cell_length_b   6.21162243
_cell_length_c   6.21162243
_cell_angle_alpha   140.28923453
_cell_angle_beta   140.28923453
_cell_angle_gamma   57.41439956
_symmetry_Int_Tables_number   1
_chemical_formula_structural   Sr(GeRh)2
_chemical_formula_sum   'Sr1 Ge2 Rh2'
_cell_volume   97.00036606
_cell_formula_units_Z   1
loop_
 _symmetry_equiv_pos_site_id
 _symmetry_equiv_pos_as_xyz
  1  'x, y, z'
loop_
 _atom_site_type_symbol
 _atom_site_label
 _atom_site_symmetry_multiplicity
 _atom_site_fract_x
 _atom_site_fract_y
 _atom_site_fract_z
 _atom_site_occupancy
  Sr  Sr0  1  0.00000000  0.00000000  0.00000000  1.0
  Ge  Ge1  1  0.63241927  0.63241927  1.00000000  1.0
  Ge  Ge2  1  0.36758073  0.36758073  0.00000000  1.0
  Rh  Rh3  1  0.25000000  0.75000000  0.50000000  1.0
  Rh  Rh4  1  0.75000000  0.25000000  0.50000000  1.0
