# generated using pymatgen
data_Ba2Co4ClO7
_symmetry_space_group_name_H-M   'P 1'
_cell_length_a   15.57854270
_cell_length_b   15.57854270
_cell_length_c   15.57854270
_cell_angle_alpha   21.33525717
_cell_angle_beta   21.33525717
_cell_angle_gamma   21.33525717
_symmetry_Int_Tables_number   1
_chemical_formula_structural   Ba2Co4ClO7
_chemical_formula_sum   'Ba4 Co8 Cl2 O14'
_cell_volume   438.41223153
_cell_formula_units_Z   2
loop_
 _symmetry_equiv_pos_site_id
 _symmetry_equiv_pos_as_xyz
  1  'x, y, z'
loop_
 _atom_site_type_symbol
 _atom_site_label
 _atom_site_symmetry_multiplicity
 _atom_site_fract_x
 _atom_site_fract_y
 _atom_site_fract_z
 _atom_site_occupancy
  Cl  Cl0  1  0.86011762  0.86011762  0.86011762  1.0
  Cl  Cl1  1  1.13988238  1.13988238  0.13988238  1.0
  O  O2  1  1.15792464  1.15792464  0.61451870  1.0
  O  O3  1  1.15792464  1.61451870  0.15792464  1.0
  O  O4  1  1.38548130  0.84207536  -0.15792464  1.0
  O  O5  1  0.84207536  1.38548130  -0.15792464  1.0
  O  O6  1  0.84207536  0.84207536  0.38548130  1.0
  O  O7  1  1.61451870  1.15792464  0.15792464  1.0
  O  O8  1  1.41256394  1.41256394  -0.05576729  1.0
  O  O9  1  1.41256394  0.94423271  0.41256394  1.0
  O  O10  1  1.05576729  0.58743606  0.58743606  1.0
  O  O11  1  1.58743606  0.05576729  0.58743606  1.0
  O  O12  1  1.58743606  0.58743606  0.05576729  1.0
  O  O13  1  0.94423271  1.41256394  0.41256394  1.0
  O  O14  1  1.64469417  0.64469417  0.64469417  1.0
  O  O15  1  1.35530583  0.35530583  0.35530583  1.0
  Ba  Ba16  1  0.93106928  0.93106928  0.93106928  1.0
  Ba  Ba17  1  1.06893072  1.06893072  0.06893072  1.0
  Ba  Ba18  1  0.78820304  0.78820304  0.78820304  1.0
  Ba  Ba19  1  1.21179696  1.21179696  0.21179696  1.0
  Co  Co20  1  0.50000000  0.00000000  -0.50000000  1.0
  Co  Co21  1  0.50000000  -0.50000000  0.00000000  1.0
  Co  Co22  1  0.00000000  0.50000000  -0.50000000  1.0
  Co  Co23  1  0.71876655  0.71876655  0.71876655  1.0
  Co  Co24  1  1.28123345  1.28123345  0.28123345  1.0
  Co  Co25  1  1.60202436  0.60202436  0.60202436  1.0
  Co  Co26  1  1.39797564  0.39797564  0.39797564  1.0
  Co  Co27  1  0.00000000  0.00000000  0.00000000  1.0
