# generated using pymatgen
data_CsMnF3
_symmetry_space_group_name_H-M   'P 1'
_cell_length_a   6.31946179
_cell_length_b   6.31946179
_cell_length_c   15.31513630
_cell_angle_alpha   90.00000000
_cell_angle_beta   90.00000000
_cell_angle_gamma   120.00000000
_symmetry_Int_Tables_number   1
_chemical_formula_structural   CsMnF3
_chemical_formula_sum   'Cs6 Mn6 F18'
_cell_volume   529.67769251
_cell_formula_units_Z   6
loop_
 _symmetry_equiv_pos_site_id
 _symmetry_equiv_pos_as_xyz
  1  'x, y, z'
loop_
 _atom_site_type_symbol
 _atom_site_label
 _atom_site_symmetry_multiplicity
 _atom_site_fract_x
 _atom_site_fract_y
 _atom_site_fract_z
 _atom_site_occupancy
  Cs  Cs0  1  0.33333333  0.66666667  0.40257119  1.0
  Cs  Cs1  1  0.33333333  0.66666667  0.09742881  1.0
  Cs  Cs2  1  0.66666667  0.33333333  0.90257119  1.0
  Cs  Cs3  1  0.66666667  0.33333333  0.59742881  1.0
  Cs  Cs4  1  -0.00000000  -0.00000000  0.25000000  1.0
  Cs  Cs5  1  0.00000000  0.00000000  0.75000000  1.0
  Mn  Mn6  1  0.33333333  0.66666667  0.84840079  1.0
  Mn  Mn7  1  0.33333333  0.66666667  0.65159921  1.0
  Mn  Mn8  1  0.66666667  0.33333333  0.34840079  1.0
  Mn  Mn9  1  0.66666667  0.33333333  0.15159921  1.0
  Mn  Mn10  1  0.00000000  -0.00000000  0.50000000  1.0
  Mn  Mn11  1  0.00000000  0.00000000  -0.00000000  1.0
  F  F12  1  0.16541970  0.83458030  0.92078111  1.0
  F  F13  1  0.16541970  0.83458030  0.57921889  1.0
  F  F14  1  0.16541970  0.33083940  0.92078111  1.0
  F  F15  1  0.16541970  0.33083940  0.57921889  1.0
  F  F16  1  0.83458030  0.16541970  0.42078111  1.0
  F  F17  1  0.83458030  0.16541970  0.07921889  1.0
  F  F18  1  0.83458030  0.66916060  0.42078111  1.0
  F  F19  1  0.83458030  0.66916060  0.07921889  1.0
  F  F20  1  0.66916060  0.83458030  0.92078111  1.0
  F  F21  1  0.66916060  0.83458030  0.57921889  1.0
  F  F22  1  0.33083940  0.16541970  0.42078111  1.0
  F  F23  1  0.33083940  0.16541970  0.07921889  1.0
  F  F24  1  0.52336323  0.47663677  0.25000000  1.0
  F  F25  1  0.52336323  0.04672647  0.25000000  1.0
  F  F26  1  0.47663677  0.52336323  0.75000000  1.0
  F  F27  1  0.47663677  0.95327353  0.75000000  1.0
  F  F28  1  0.95327353  0.47663677  0.25000000  1.0
  F  F29  1  0.04672647  0.52336323  0.75000000  1.0
