# generated using pymatgen
data_MnTe6O13
_symmetry_space_group_name_H-M   'P 1'
_cell_length_a   8.87152342
_cell_length_b   8.87152342
_cell_length_c   8.87152342
_cell_angle_alpha   71.59198206
_cell_angle_beta   71.59198206
_cell_angle_gamma   71.59198206
_symmetry_Int_Tables_number   1
_chemical_formula_structural   MnTe6O13
_chemical_formula_sum   'Mn2 Te12 O26'
_cell_volume   610.22673197
_cell_formula_units_Z   2
loop_
 _symmetry_equiv_pos_site_id
 _symmetry_equiv_pos_as_xyz
  1  'x, y, z'
loop_
 _atom_site_type_symbol
 _atom_site_label
 _atom_site_symmetry_multiplicity
 _atom_site_fract_x
 _atom_site_fract_y
 _atom_site_fract_z
 _atom_site_occupancy
  Mn  Mn0  1  0.74543827  0.74543827  -0.25456173  1.0
  Mn  Mn1  1  1.25456173  1.25456173  0.25456173  1.0
  Te  Te2  1  0.53089298  0.41890410  -0.17246222  1.0
  Te  Te3  1  0.58109590  0.17246222  -0.53089298  1.0
  Te  Te4  1  0.17246222  0.46910702  -0.41890410  1.0
  Te  Te5  1  0.46910702  0.58109590  -0.82753778  1.0
  Te  Te6  1  0.41890410  0.82753778  -0.46910702  1.0
  Te  Te7  1  0.82753778  0.53089298  -0.58109590  1.0
  Te  Te8  1  0.66566793  -0.01179263  0.06343095  1.0
  Te  Te9  1  1.01179263  -0.06343095  -0.66566793  1.0
  Te  Te10  1  0.93656905  -0.66566793  0.01179263  1.0
  Te  Te11  1  0.33433207  0.01179263  -0.06343095  1.0
  Te  Te12  1  0.98820737  0.06343095  -0.33433207  1.0
  Te  Te13  1  1.06343095  -0.33433207  -0.01179263  1.0
  O  O14  1  0.63727985  0.54702009  -0.11305326  1.0
  O  O15  1  1.45297991  1.11305326  0.36272015  1.0
  O  O16  1  1.11305326  1.36272015  0.45297991  1.0
  O  O17  1  1.36272015  1.45297991  0.11305326  1.0
  O  O18  1  0.54702009  0.88694674  -0.36272015  1.0
  O  O19  1  0.88694674  0.63727985  -0.45297991  1.0
  O  O20  1  0.38135131  0.62472898  -0.29397290  1.0
  O  O21  1  0.37527102  0.29397290  -0.38135131  1.0
  O  O22  1  0.29397290  0.61864869  -0.62472898  1.0
  O  O23  1  0.61864869  0.37527102  -0.70602710  1.0
  O  O24  1  0.62472898  0.70602710  -0.61864869  1.0
  O  O25  1  0.70602710  0.38135131  -0.37527102  1.0
  O  O26  1  0.60285292  0.91776167  -0.10089297  1.0
  O  O27  1  1.08223833  1.10089297  0.39714708  1.0
  O  O28  1  1.10089297  1.39714708  0.08223833  1.0
  O  O29  1  1.39714708  1.08223833  0.10089297  1.0
  O  O30  1  0.91776167  0.89910703  -0.39714708  1.0
  O  O31  1  0.89910703  0.60285292  -0.08223833  1.0
  O  O32  1  0.70132865  0.20496085  -0.05110779  1.0
  O  O33  1  0.79503915  0.05110779  -0.70132865  1.0
  O  O34  1  1.05110779  -0.70132865  -0.20496085  1.0
  O  O35  1  0.29867135  -0.20496085  0.05110779  1.0
  O  O36  1  1.20496085  -0.05110779  -0.29867135  1.0
  O  O37  1  0.94889221  -0.29867135  0.20496085  1.0
  O  O38  1  0.91367236  0.91367236  -0.08632764  1.0
  O  O39  1  1.08632764  1.08632764  0.08632764  1.0
