# generated using pymatgen
data_Cd(N2Cl3)2
_symmetry_space_group_name_H-M   'P 1'
_cell_length_a   10.15690787
_cell_length_b   10.15690787
_cell_length_c   10.15690787
_cell_angle_alpha   113.48099991
_cell_angle_beta   113.48099991
_cell_angle_gamma   113.48099992
_symmetry_Int_Tables_number   1
_chemical_formula_structural   Cd(N2Cl3)2
_chemical_formula_sum   'Cd2 N8 Cl12'
_cell_volume   660.38271614
_cell_formula_units_Z   2
loop_
 _symmetry_equiv_pos_site_id
 _symmetry_equiv_pos_as_xyz
  1  'x, y, z'
loop_
 _atom_site_type_symbol
 _atom_site_label
 _atom_site_symmetry_multiplicity
 _atom_site_fract_x
 _atom_site_fract_y
 _atom_site_fract_z
 _atom_site_occupancy
  Cd  Cd0  1  0.50000000  0.50000000  -0.50000000  1.0
  Cd  Cd1  1  0.00000000  0.00000000  0.00000000  1.0
  N  N2  1  0.80721710  0.25000000  -0.30721710  1.0
  N  N3  1  0.30721710  0.19278290  -0.25000000  1.0
  N  N4  1  0.75000000  0.30721710  -0.80721710  1.0
  N  N5  1  0.25000000  0.69278290  -0.19278290  1.0
  N  N6  1  0.19278290  0.75000000  -0.69278290  1.0
  N  N7  1  0.69278290  -0.19278290  0.25000000  1.0
  N  N8  1  1.25000000  1.25000000  0.25000000  1.0
  N  N9  1  0.75000000  0.75000000  -0.25000000  1.0
  Cl  Cl10  1  0.23333164  0.23267009  -0.40235819  1.0
  Cl  Cl11  1  0.73333164  0.09764181  -0.26732991  1.0
  Cl  Cl12  1  0.90235819  0.26732991  -0.73333164  1.0
  Cl  Cl13  1  0.40235819  0.76666836  -0.23267009  1.0
  Cl  Cl14  1  0.76732991  0.40235819  -0.23333164  1.0
  Cl  Cl15  1  1.26732991  -0.73333164  -0.09764181  1.0
  Cl  Cl16  1  0.76666836  0.76732991  -0.59764181  1.0
  Cl  Cl17  1  0.26666836  -0.09764181  0.26732991  1.0
  Cl  Cl18  1  0.59764181  0.23333164  -0.76732991  1.0
  Cl  Cl19  1  1.09764181  -0.26732991  -0.26666836  1.0
  Cl  Cl20  1  0.73267009  -0.26666836  0.09764181  1.0
  Cl  Cl21  1  0.23267009  0.59764181  -0.76666836  1.0
