# generated using pymatgen
data_La3(CuSn)4
_symmetry_space_group_name_H-M   'P 1'
_cell_length_a   8.76885908
_cell_length_b   8.76885908
_cell_length_c   8.76885908
_cell_angle_alpha   149.01541268
_cell_angle_beta   132.18460300
_cell_angle_gamma   58.07374520
_symmetry_Int_Tables_number   1
_chemical_formula_structural   La3(CuSn)4
_chemical_formula_sum   'La3 Cu4 Sn4'
_cell_volume   255.25843582
_cell_formula_units_Z   1
loop_
 _symmetry_equiv_pos_site_id
 _symmetry_equiv_pos_as_xyz
  1  'x, y, z'
loop_
 _atom_site_type_symbol
 _atom_site_label
 _atom_site_symmetry_multiplicity
 _atom_site_fract_x
 _atom_site_fract_y
 _atom_site_fract_z
 _atom_site_occupancy
  La  La0  1  0.63491567  0.13491567  0.50000000  1.0
  La  La1  1  0.36508433  0.86508433  0.50000000  1.0
  La  La2  1  0.00000000  0.00000000  0.00000000  1.0
  Cu  Cu3  1  0.34623370  0.66589328  0.68034042  1.0
  Cu  Cu4  1  1.01444714  0.33410672  0.68034042  1.0
  Cu  Cu5  1  0.98555286  0.66589328  1.31965958  1.0
  Cu  Cu6  1  0.65376630  0.33410672  0.31965958  1.0
  Sn  Sn7  1  0.78300788  0.78300788  1.00000000  1.0
  Sn  Sn8  1  0.21699212  0.21699212  -0.00000000  1.0
  Sn  Sn9  1  0.30130714  0.50000000  0.80130714  1.0
  Sn  Sn10  1  0.69869286  0.50000000  1.19869286  1.0
