# generated using pymatgen
data_LaMgAg5
_symmetry_space_group_name_H-M   'P 1'
_cell_length_a   7.27974713
_cell_length_b   7.27974713
_cell_length_c   5.49390273
_cell_angle_alpha   90.00000000
_cell_angle_beta   90.00000000
_cell_angle_gamma   90.00000000
_symmetry_Int_Tables_number   1
_chemical_formula_structural   LaMgAg5
_chemical_formula_sum   'La2 Mg2 Ag10'
_cell_volume   291.14782718
_cell_formula_units_Z   2
loop_
 _symmetry_equiv_pos_site_id
 _symmetry_equiv_pos_as_xyz
  1  'x, y, z'
loop_
 _atom_site_type_symbol
 _atom_site_label
 _atom_site_symmetry_multiplicity
 _atom_site_fract_x
 _atom_site_fract_y
 _atom_site_fract_z
 _atom_site_occupancy
  La  La0  1  0.50000000  0.00000000  0.75279816  1.0
  La  La1  1  0.00000000  0.50000000  0.24720184  1.0
  Mg  Mg2  1  0.00000000  0.00000000  0.50000000  1.0
  Mg  Mg3  1  0.50000000  0.50000000  0.50000000  1.0
  Ag  Ag4  1  0.69383727  0.19383727  0.25227476  1.0
  Ag  Ag5  1  0.69383727  0.80616273  0.25227476  1.0
  Ag  Ag6  1  0.19383727  0.69383727  0.74772524  1.0
  Ag  Ag7  1  0.19383727  0.30616273  0.74772524  1.0
  Ag  Ag8  1  0.80616273  0.69383727  0.74772524  1.0
  Ag  Ag9  1  0.80616273  0.30616273  0.74772524  1.0
  Ag  Ag10  1  0.30616273  0.19383727  0.25227476  1.0
  Ag  Ag11  1  0.30616273  0.80616273  0.25227476  1.0
  Ag  Ag12  1  0.00000000  0.00000000  0.00000000  1.0
  Ag  Ag13  1  0.50000000  0.50000000  0.00000000  1.0
