# generated using pymatgen
data_Ni2Ge
_symmetry_space_group_name_H-M   'P 1'
_cell_length_a   5.14682549
_cell_length_b   3.83445916
_cell_length_c   7.27539326
_cell_angle_alpha   90.00000000
_cell_angle_beta   90.00000000
_cell_angle_gamma   90.00000000
_symmetry_Int_Tables_number   1
_chemical_formula_structural   Ni2Ge
_chemical_formula_sum   'Ni8 Ge4'
_cell_volume   143.58201136
_cell_formula_units_Z   4
loop_
 _symmetry_equiv_pos_site_id
 _symmetry_equiv_pos_as_xyz
  1  'x, y, z'
loop_
 _atom_site_type_symbol
 _atom_site_label
 _atom_site_symmetry_multiplicity
 _atom_site_fract_x
 _atom_site_fract_y
 _atom_site_fract_z
 _atom_site_occupancy
  Ni  Ni0  1  0.82871655  0.75000000  0.06035786  1.0
  Ni  Ni1  1  0.32871655  0.75000000  0.43964214  1.0
  Ni  Ni2  1  0.17128345  0.25000000  0.93964214  1.0
  Ni  Ni3  1  0.67128345  0.25000000  0.56035786  1.0
  Ni  Ni4  1  0.95606411  0.75000000  0.70768823  1.0
  Ni  Ni5  1  0.45606411  0.75000000  0.79231177  1.0
  Ni  Ni6  1  0.04393589  0.25000000  0.29231177  1.0
  Ni  Ni7  1  0.54393589  0.25000000  0.20768823  1.0
  Ge  Ge8  1  0.78863656  0.75000000  0.38678530  1.0
  Ge  Ge9  1  0.28863656  0.75000000  0.11321470  1.0
  Ge  Ge10  1  0.21136344  0.25000000  0.61321470  1.0
  Ge  Ge11  1  0.71136344  0.25000000  0.88678530  1.0
