# generated using pymatgen
data_CaCu(GeO3)2
_symmetry_space_group_name_H-M   'P 1'
_cell_length_a   10.24446177
_cell_length_b   9.36893024
_cell_length_c   5.27375063
_cell_angle_alpha   90.00000000
_cell_angle_beta   103.99809287
_cell_angle_gamma   90.00000000
_symmetry_Int_Tables_number   1
_chemical_formula_structural   CaCu(GeO3)2
_chemical_formula_sum   'Ca4 Cu4 Ge8 O24'
_cell_volume   491.14131017
_cell_formula_units_Z   4
loop_
 _symmetry_equiv_pos_site_id
 _symmetry_equiv_pos_as_xyz
  1  'x, y, z'
loop_
 _atom_site_type_symbol
 _atom_site_label
 _atom_site_symmetry_multiplicity
 _atom_site_fract_x
 _atom_site_fract_y
 _atom_site_fract_z
 _atom_site_occupancy
  Cu  Cu0  1  0.22734238  0.15567191  0.47629793  1.0
  Cu  Cu1  1  0.22734238  0.34432809  0.97629793  1.0
  Cu  Cu2  1  0.77265762  0.65567191  0.02370207  1.0
  Cu  Cu3  1  0.77265762  0.84432809  0.52370207  1.0
  Ca  Ca4  1  0.71557580  0.04455628  0.02770922  1.0
  Ca  Ca5  1  0.71557580  0.45544372  0.52770922  1.0
  Ca  Ca6  1  0.28442420  0.54455628  0.47229078  1.0
  Ca  Ca7  1  0.28442420  0.95544372  0.97229078  1.0
  O  O8  1  0.89648841  0.19110178  0.30446375  1.0
  O  O9  1  0.89648841  0.30889822  0.80446375  1.0
  O  O10  1  0.10351159  0.69110178  0.19553625  1.0
  O  O11  1  0.10351159  0.80889822  0.69553625  1.0
  O  O12  1  0.87432289  0.86569271  0.26189189  1.0
  O  O13  1  0.87432289  0.63430729  0.76189189  1.0
  O  O14  1  0.12567711  0.36569271  0.23810811  1.0
  O  O15  1  0.12567711  0.13430729  0.73810811  1.0
  O  O16  1  0.84874883  0.48383044  0.22618876  1.0
  O  O17  1  0.84874883  0.01616956  0.72618876  1.0
  O  O18  1  0.15125117  0.98383044  0.27381124  1.0
  O  O19  1  0.15125117  0.51616956  0.77381124  1.0
  O  O20  1  0.59899797  0.24673246  0.18968263  1.0
  O  O21  1  0.59899797  0.25326754  0.68968263  1.0
  O  O22  1  0.40100203  0.74673246  0.31031737  1.0
  O  O23  1  0.40100203  0.75326754  0.81031737  1.0
  O  O24  1  0.43840696  0.47771121  0.17829836  1.0
  O  O25  1  0.43840696  0.02228879  0.67829836  1.0
  O  O26  1  0.56159304  0.97771121  0.32170164  1.0
  O  O27  1  0.56159304  0.52228879  0.82170164  1.0
  O  O28  1  0.33660995  0.18255930  0.22968291  1.0
  O  O29  1  0.33660995  0.31744070  0.72968291  1.0
  O  O30  1  0.66339005  0.68255930  0.27031709  1.0
  O  O31  1  0.66339005  0.81744070  0.77031709  1.0
  Ge  Ge32  1  0.94938231  0.34841221  0.15116326  1.0
  Ge  Ge33  1  0.94938231  0.15158779  0.65116326  1.0
  Ge  Ge34  1  0.05061769  0.84841221  0.34883674  1.0
  Ge  Ge35  1  0.05061769  0.65158779  0.84883674  1.0
  Ge  Ge36  1  0.50703910  0.14893115  0.41660261  1.0
  Ge  Ge37  1  0.50703910  0.35106885  0.91660261  1.0
  Ge  Ge38  1  0.49296090  0.64893115  0.08339739  1.0
  Ge  Ge39  1  0.49296090  0.85106885  0.58339739  1.0
