# generated using pymatgen
data_ZnTeO3
_symmetry_space_group_name_H-M   'P 1'
_cell_length_a   6.43661037
_cell_length_b   12.51528195
_cell_length_c   7.51643280
_cell_angle_alpha   90.00000000
_cell_angle_beta   90.00000000
_cell_angle_gamma   90.00000000
_symmetry_Int_Tables_number   1
_chemical_formula_structural   ZnTeO3
_chemical_formula_sum   'Zn8 Te8 O24'
_cell_volume   605.49371270
_cell_formula_units_Z   8
loop_
 _symmetry_equiv_pos_site_id
 _symmetry_equiv_pos_as_xyz
  1  'x, y, z'
loop_
 _atom_site_type_symbol
 _atom_site_label
 _atom_site_symmetry_multiplicity
 _atom_site_fract_x
 _atom_site_fract_y
 _atom_site_fract_z
 _atom_site_occupancy
  Zn  Zn0  1  0.37795729  0.08874106  0.10898917  1.0
  Zn  Zn1  1  0.37795729  0.41125894  0.60898917  1.0
  Zn  Zn2  1  0.87795729  0.08874106  0.39101083  1.0
  Zn  Zn3  1  0.87795729  0.41125894  0.89101083  1.0
  Zn  Zn4  1  0.62204271  0.58874106  0.39101083  1.0
  Zn  Zn5  1  0.62204271  0.91125894  0.89101083  1.0
  Zn  Zn6  1  0.12204271  0.58874106  0.10898917  1.0
  Zn  Zn7  1  0.12204271  0.91125894  0.60898917  1.0
  Te  Te8  1  0.41008770  0.35457162  0.06082824  1.0
  Te  Te9  1  0.41008770  0.14542838  0.56082824  1.0
  Te  Te10  1  0.91008770  0.35457162  0.43917176  1.0
  Te  Te11  1  0.91008770  0.14542838  0.93917176  1.0
  Te  Te12  1  0.58991230  0.85457162  0.43917176  1.0
  Te  Te13  1  0.58991230  0.64542838  0.93917176  1.0
  Te  Te14  1  0.08991230  0.85457162  0.06082824  1.0
  Te  Te15  1  0.08991230  0.64542838  0.56082824  1.0
  O  O16  1  0.29491564  0.27973633  0.46893476  1.0
  O  O17  1  0.29491564  0.22026367  0.96893476  1.0
  O  O18  1  0.79491564  0.27973633  0.03106524  1.0
  O  O19  1  0.79491564  0.22026367  0.53106524  1.0
  O  O20  1  0.70508436  0.77973633  0.03106524  1.0
  O  O21  1  0.70508436  0.72026367  0.53106524  1.0
  O  O22  1  0.20508436  0.77973633  0.46893476  1.0
  O  O23  1  0.20508436  0.72026367  0.96893476  1.0
  O  O24  1  0.14738257  0.43297031  0.04683017  1.0
  O  O25  1  0.14738257  0.06702969  0.54683017  1.0
  O  O26  1  0.64738257  0.43297031  0.45316983  1.0
  O  O27  1  0.64738257  0.06702969  0.95316983  1.0
  O  O28  1  0.85261743  0.93297031  0.45316983  1.0
  O  O29  1  0.85261743  0.56702969  0.95316983  1.0
  O  O30  1  0.35261743  0.93297031  0.04683017  1.0
  O  O31  1  0.35261743  0.56702969  0.54683017  1.0
  O  O32  1  0.02915554  0.08555849  0.15975689  1.0
  O  O33  1  0.02915554  0.41444151  0.65975689  1.0
  O  O34  1  0.52915554  0.08555849  0.34024311  1.0
  O  O35  1  0.52915554  0.41444151  0.84024311  1.0
  O  O36  1  0.97084446  0.58555849  0.34024311  1.0
  O  O37  1  0.97084446  0.91444151  0.84024311  1.0
  O  O38  1  0.47084446  0.58555849  0.15975689  1.0
  O  O39  1  0.47084446  0.91444151  0.65975689  1.0
