# generated using pymatgen
data_Sr4Mn3BO10
_symmetry_space_group_name_H-M   'P 1'
_cell_length_a   8.89537444
_cell_length_b   8.89537444
_cell_length_c   3.77047634
_cell_angle_alpha   90.00000000
_cell_angle_beta   90.00000000
_cell_angle_gamma   51.64099131
_symmetry_Int_Tables_number   1
_chemical_formula_structural   Sr4Mn3BO10
_chemical_formula_sum   'Sr4 Mn3 B1 O10'
_cell_volume   233.94673721
_cell_formula_units_Z   1
loop_
 _symmetry_equiv_pos_site_id
 _symmetry_equiv_pos_as_xyz
  1  'x, y, z'
loop_
 _atom_site_type_symbol
 _atom_site_label
 _atom_site_symmetry_multiplicity
 _atom_site_fract_x
 _atom_site_fract_y
 _atom_site_fract_z
 _atom_site_occupancy
  O  O0  1  -0.77414859  0.77414859  0.00000000  1.0
  O  O1  1  -0.36518284  0.60596383  0.00000000  1.0
  O  O2  1  0.39403617  0.36518284  0.00000000  1.0
  O  O3  1  -0.43982672  0.43982672  0.50000000  1.0
  O  O4  1  0.01506732  0.49702378  0.00000000  1.0
  O  O5  1  -0.49702378  0.98493268  0.00000000  1.0
  O  O6  1  -0.22435948  0.75371135  0.50000000  1.0
  O  O7  1  0.24628865  0.22435948  0.50000000  1.0
  O  O8  1  -0.11690278  0.96397194  0.00000000  1.0
  O  O9  1  -0.96397194  1.11690278  0.00000000  1.0
  B  B10  1  0.04267834  -0.04267834  0.00000000  1.0
  Mn  Mn11  1  -0.24432735  0.73606089  0.00000000  1.0
  Mn  Mn12  1  0.26393911  0.24432735  0.00000000  1.0
  Mn  Mn13  1  -0.49015221  0.49015221  0.00000000  1.0
  Sr  Sr14  1  0.13648748  0.60518926  0.50000000  1.0
  Sr  Sr15  1  -0.60518926  0.86351252  0.50000000  1.0
  Sr  Sr16  1  -0.11274652  0.37636561  0.50000000  1.0
  Sr  Sr17  1  -0.37636561  1.11274652  0.50000000  1.0
