# generated using pymatgen
data_H2O
_symmetry_space_group_name_H-M   'P 1'
_cell_length_a   7.64181903
_cell_length_b   7.64181903
_cell_length_c   7.64181903
_cell_angle_alpha   112.84136038
_cell_angle_beta   112.84136038
_cell_angle_gamma   112.84136038
_symmetry_Int_Tables_number   1
_chemical_formula_structural   H2O
_chemical_formula_sum   'H24 O12'
_cell_volume   292.96059875
_cell_formula_units_Z   12
loop_
 _symmetry_equiv_pos_site_id
 _symmetry_equiv_pos_as_xyz
  1  'x, y, z'
loop_
 _atom_site_type_symbol
 _atom_site_label
 _atom_site_symmetry_multiplicity
 _atom_site_fract_x
 _atom_site_fract_y
 _atom_site_fract_z
 _atom_site_occupancy
  H  H0  1  1.07540370  0.51148969  0.30761037  1.0
  H  H1  1  0.69238963  0.92459630  -0.51148969  1.0
  H  H2  1  0.48851031  -0.30761037  -0.07540370  1.0
  H  H3  1  0.92459630  0.48851031  0.69238963  1.0
  H  H4  1  1.30761037  1.07540370  0.51148969  1.0
  H  H5  1  0.51148969  0.30761037  0.07540370  1.0
  H  H6  1  0.70530829  0.45935219  0.35658116  1.0
  H  H7  1  0.64341884  1.29469171  -0.45935219  1.0
  H  H8  1  0.54064781  0.64341884  -0.70530829  1.0
  H  H9  1  1.29469171  0.54064781  0.64341884  1.0
  H  H10  1  1.35658116  0.70530829  0.45935219  1.0
  H  H11  1  0.45935219  0.35658116  -0.29469171  1.0
  H  H12  1  0.90952701  -0.08585019  0.22998547  1.0
  H  H13  1  0.77001453  0.09047299  0.08585019  1.0
  H  H14  1  1.08585019  0.77001453  0.09047299  1.0
  H  H15  1  1.09047299  1.08585019  0.77001453  1.0
  H  H16  1  0.22998547  -0.09047299  -0.08585019  1.0
  H  H17  1  0.91414981  1.22998547  -0.09047299  1.0
  H  H18  1  0.75402169  0.12447405  0.29559419  1.0
  H  H19  1  0.70440581  0.24597831  -0.12447405  1.0
  H  H20  1  0.87552595  0.70440581  0.24597831  1.0
  H  H21  1  1.24597831  0.87552595  0.70440581  1.0
  H  H22  1  0.29559419  0.75402169  -0.87552595  1.0
  H  H23  1  1.12447405  1.29559419  -0.24597831  1.0
  O  O24  1  0.64351673  0.48003790  0.23049295  1.0
  O  O25  1  0.76950705  0.35648327  0.51996210  1.0
  O  O26  1  0.51996210  0.76950705  -0.64351673  1.0
  O  O27  1  1.35648327  0.51996210  0.76950705  1.0
  O  O28  1  1.23049295  0.64351673  0.48003790  1.0
  O  O29  1  0.48003790  0.23049295  -0.35648327  1.0
  O  O30  1  0.98526113  0.83579578  0.25314390  1.0
  O  O31  1  0.74685610  0.01473887  0.16420422  1.0
  O  O32  1  1.16420422  1.74685610  0.01473887  1.0
  O  O33  1  1.01473887  1.16420422  -0.25314390  1.0
  O  O34  1  0.25314390  -0.01473887  -0.16420422  1.0
  O  O35  1  0.83579578  0.25314390  -0.01473887  1.0
