# generated using pymatgen
data_La2Ti2O7
_symmetry_space_group_name_H-M   'P 1'
_cell_length_a   7.79124559
_cell_length_b   5.61566769
_cell_length_c   13.26478276
_cell_angle_alpha   90.00000000
_cell_angle_beta   98.49661810
_cell_angle_gamma   90.00000000
_symmetry_Int_Tables_number   1
_chemical_formula_structural   La2Ti2O7
_chemical_formula_sum   'La8 Ti8 O28'
_cell_volume   574.00479938
_cell_formula_units_Z   4
loop_
 _symmetry_equiv_pos_site_id
 _symmetry_equiv_pos_as_xyz
  1  'x, y, z'
loop_
 _atom_site_type_symbol
 _atom_site_label
 _atom_site_symmetry_multiplicity
 _atom_site_fract_x
 _atom_site_fract_y
 _atom_site_fract_z
 _atom_site_occupancy
  La  La0  1  0.85235152  0.66336333  0.42230783  1.0
  La  La1  1  0.14764848  0.16336333  0.57769217  1.0
  La  La2  1  0.77213791  0.06064302  0.09392495  1.0
  La  La3  1  0.22786209  0.56064302  0.90607505  1.0
  La  La4  1  0.72024239  0.55388890  0.88350478  1.0
  La  La5  1  0.27975761  0.05388890  0.11649522  1.0
  La  La6  1  0.65017730  0.11250189  0.61474623  1.0
  La  La7  1  0.34982270  0.61250189  0.38525377  1.0
  Ti  Ti8  1  0.96789265  0.06832133  0.87942705  1.0
  Ti  Ti9  1  0.03210735  0.56832133  0.12057295  1.0
  Ti  Ti10  1  0.92714062  0.60360526  0.67847178  1.0
  Ti  Ti11  1  0.07285938  0.10360526  0.32152822  1.0
  Ti  Ti12  1  0.58202681  0.11028641  0.32572735  1.0
  Ti  Ti13  1  0.41797319  0.61028641  0.67427265  1.0
  Ti  Ti14  1  0.47216526  0.06642013  0.87754751  1.0
  Ti  Ti15  1  0.52783474  0.56642013  0.12245249  1.0
  O  O16  1  0.96196689  0.31605264  0.98048793  1.0
  O  O17  1  0.03803311  0.81605264  0.01951207  1.0
  O  O18  1  0.97240574  0.75227482  0.81545561  1.0
  O  O19  1  0.02759426  0.25227482  0.18454439  1.0
  O  O20  1  0.91733947  0.86444019  0.59468605  1.0
  O  O21  1  0.08266053  0.36444019  0.40531395  1.0
  O  O22  1  0.89153682  0.26113836  0.77324404  1.0
  O  O23  1  0.10846318  0.76113836  0.22675596  1.0
  O  O24  1  0.87580565  0.38484115  0.57107645  1.0
  O  O25  1  0.12419435  0.88484115  0.42892355  1.0
  O  O26  1  0.82652445  0.01737962  0.30540658  1.0
  O  O27  1  0.17347555  0.51737962  0.69459342  1.0
  O  O28  1  0.72678183  -0.01804115  0.90727690  1.0
  O  O29  1  0.27321817  0.48195885  0.09272310  1.0
  O  O30  1  0.67211572  0.63831830  0.69288614  1.0
  O  O31  1  0.32788428  0.13831830  0.30711386  1.0
  O  O32  1  0.61856522  0.38434369  0.39212768  1.0
  O  O33  1  0.38143478  0.88434369  0.60787232  1.0
  O  O34  1  0.56383863  0.24849858  0.18297649  1.0
  O  O35  1  0.43616137  0.74849858  0.81702351  1.0
  O  O36  1  0.52759914  0.31647978  0.97866035  1.0
  O  O37  1  0.47240086  0.81647978  0.02133965  1.0
  O  O38  1  0.49499498  0.25614523  0.77063665  1.0
  O  O39  1  0.50500502  0.75614523  0.22936335  1.0
  O  O40  1  0.40560825  0.39752509  0.56137848  1.0
  O  O41  1  0.59439175  0.89752509  0.43862152  1.0
  O  O42  1  0.22271541  0.10517343  0.89098208  1.0
  O  O43  1  0.77728459  0.60517343  0.10901792  1.0
