# generated using pymatgen
data_Ba3As14
_symmetry_space_group_name_H-M   'P 1'
_cell_length_a   6.91109395
_cell_length_b   13.92701457
_cell_length_c   12.43003048
_cell_angle_alpha   90.00000000
_cell_angle_beta   123.56869464
_cell_angle_gamma   90.00000000
_symmetry_Int_Tables_number   1
_chemical_formula_structural   Ba3As14
_chemical_formula_sum   'Ba6 As28'
_cell_volume   996.86998338
_cell_formula_units_Z   2
loop_
 _symmetry_equiv_pos_site_id
 _symmetry_equiv_pos_as_xyz
  1  'x, y, z'
loop_
 _atom_site_type_symbol
 _atom_site_label
 _atom_site_symmetry_multiplicity
 _atom_site_fract_x
 _atom_site_fract_y
 _atom_site_fract_z
 _atom_site_occupancy
  Ba  Ba0  1  0.19867150  0.34155693  0.88442376  1.0
  Ba  Ba1  1  0.19867150  0.15844307  0.38442376  1.0
  Ba  Ba2  1  0.80132850  0.84155693  0.61557624  1.0
  Ba  Ba3  1  0.80132850  0.65844307  0.11557624  1.0
  Ba  Ba4  1  0.00000000  0.00000000  0.00000000  1.0
  Ba  Ba5  1  -0.00000000  0.50000000  0.50000000  1.0
  As  As6  1  0.74539088  0.78008256  0.86550346  1.0
  As  As7  1  0.74539088  0.71991744  0.36550346  1.0
  As  As8  1  0.25460912  0.28008256  0.63449654  1.0
  As  As9  1  0.25460912  0.21991744  0.13449654  1.0
  As  As10  1  0.65447282  0.21972123  0.77685274  1.0
  As  As11  1  0.65447282  0.28027877  0.27685274  1.0
  As  As12  1  0.34552718  0.71972123  0.72314726  1.0
  As  As13  1  0.34552718  0.78027877  0.22314726  1.0
  As  As14  1  0.71068572  0.49949113  0.81395170  1.0
  As  As15  1  0.71068572  0.00050887  0.31395170  1.0
  As  As16  1  0.28931428  0.99949113  0.68604830  1.0
  As  As17  1  0.28931428  0.50050887  0.18604830  1.0
  As  As18  1  0.61217037  0.05999030  0.67887440  1.0
  As  As19  1  0.61217037  0.44000970  0.17887440  1.0
  As  As20  1  0.38782963  0.55999030  0.82112560  1.0
  As  As21  1  0.38782963  0.94000970  0.32112560  1.0
  As  As22  1  0.96078880  0.64552451  0.85596123  1.0
  As  As23  1  0.96078880  0.85447549  0.35596123  1.0
  As  As24  1  0.03921120  0.14552451  0.64403877  1.0
  As  As25  1  0.03921120  0.35447549  0.14403877  1.0
  As  As26  1  0.31809702  0.08030710  0.87396211  1.0
  As  As27  1  0.31809702  0.41969290  0.37396211  1.0
  As  As28  1  0.68190298  0.58030710  0.62603789  1.0
  As  As29  1  0.68190298  0.91969290  0.12603789  1.0
  As  As30  1  0.65033957  0.18641472  0.97032060  1.0
  As  As31  1  0.65033957  0.31358528  0.47032060  1.0
  As  As32  1  0.34966043  0.68641472  0.52967940  1.0
  As  As33  1  0.34966043  0.81358528  0.02967940  1.0
