# generated using pymatgen
data_Mg(C2O3)2
_symmetry_space_group_name_H-M   'P 1'
_cell_length_a   8.48839518
_cell_length_b   8.48839518
_cell_length_c   7.00503765
_cell_angle_alpha   63.62488632
_cell_angle_beta   116.37511368
_cell_angle_gamma   133.59010838
_symmetry_Int_Tables_number   1
_chemical_formula_structural   Mg(C2O3)2
_chemical_formula_sum   'Mg2 C8 O12'
_cell_volume   320.03330871
_cell_formula_units_Z   2
loop_
 _symmetry_equiv_pos_site_id
 _symmetry_equiv_pos_as_xyz
  1  'x, y, z'
loop_
 _atom_site_type_symbol
 _atom_site_label
 _atom_site_symmetry_multiplicity
 _atom_site_fract_x
 _atom_site_fract_y
 _atom_site_fract_z
 _atom_site_occupancy
  C  C0  1  1.09479494  -0.82729156  0.66591916  1.0
  C  C1  1  0.17270844  0.09479494  0.83408084  1.0
  C  C2  1  0.90520506  0.82729156  0.33408084  1.0
  C  C3  1  1.82729156  -0.09479494  0.16591916  1.0
  C  C4  1  1.00996964  -0.72953425  0.46418483  1.0
  C  C5  1  0.27046575  0.00996964  0.03581517  1.0
  C  C6  1  0.99003036  0.72953425  0.53581517  1.0
  C  C7  1  1.72953425  -0.00996964  0.96418483  1.0
  O  O8  1  1.46896240  -0.19255755  0.35129538  1.0
  O  O9  1  0.80744245  0.46896240  1.14870462  1.0
  O  O10  1  0.53103760  0.19255755  0.64870462  1.0
  O  O11  1  1.19255755  -0.46896240  -0.14870462  1.0
  O  O12  1  0.82544306  -0.77665809  0.44850469  1.0
  O  O13  1  0.22334191  -0.17455694  0.05149531  1.0
  O  O14  1  1.17455694  0.77665809  0.55149531  1.0
  O  O15  1  1.77665809  0.17455694  0.94850469  1.0
  O  O16  1  1.12114031  -0.60573319  0.31797777  1.0
  O  O17  1  0.39426681  0.12114031  0.18202223  1.0
  O  O18  1  0.87885969  0.60573319  0.68202223  1.0
  O  O19  1  1.60573319  -0.12114031  0.81797777  1.0
  Mg  Mg20  1  0.50000000  -0.00000000  0.50000000  1.0
  Mg  Mg21  1  1.00000000  0.50000000  -0.00000000  1.0
