# generated using pymatgen
data_LaCo13
_symmetry_space_group_name_H-M   'P 1'
_cell_length_a   7.96583519
_cell_length_b   7.96583519
_cell_length_c   7.96583519
_cell_angle_alpha   60.00000000
_cell_angle_beta   60.00000000
_cell_angle_gamma   60.00000000
_symmetry_Int_Tables_number   1
_chemical_formula_structural   LaCo13
_chemical_formula_sum   'La2 Co26'
_cell_volume   357.42008331
_cell_formula_units_Z   2
loop_
 _symmetry_equiv_pos_site_id
 _symmetry_equiv_pos_as_xyz
  1  'x, y, z'
loop_
 _atom_site_type_symbol
 _atom_site_label
 _atom_site_symmetry_multiplicity
 _atom_site_fract_x
 _atom_site_fract_y
 _atom_site_fract_z
 _atom_site_occupancy
  La  La0  1  0.25000000  0.25000000  0.25000000  1.0
  La  La1  1  0.75000000  -0.25000000  0.75000000  1.0
  Co  Co2  1  1.20457505  -0.55969411  0.55969411  1.0
  Co  Co3  1  0.55969411  -0.20457505  1.20457505  1.0
  Co  Co4  1  0.70457505  0.05969411  0.94030589  1.0
  Co  Co5  1  0.94030589  -0.70457505  0.70457505  1.0
  Co  Co6  1  0.44030589  0.20457505  -0.20457505  1.0
  Co  Co7  1  -0.20457505  0.55969411  0.44030589  1.0
  Co  Co8  1  0.05969411  0.70457505  0.29542495  1.0
  Co  Co9  1  0.29542495  -0.05969411  0.05969411  1.0
  Co  Co10  1  -0.05969411  0.70457505  0.05969411  1.0
  Co  Co11  1  -0.70457505  1.05969411  0.70457505  1.0
  Co  Co12  1  0.44030589  0.55969411  0.20457505  1.0
  Co  Co13  1  0.79542495  0.20457505  0.55969411  1.0
  Co  Co14  1  -0.44030589  1.20457505  0.44030589  1.0
  Co  Co15  1  -0.20457505  0.44030589  0.20457505  1.0
  Co  Co16  1  1.05969411  -0.05969411  0.70457505  1.0
  Co  Co17  1  0.29542495  0.70457505  -0.05969411  1.0
  Co  Co18  1  -0.29542495  0.94030589  0.29542495  1.0
  Co  Co19  1  0.05969411  0.29542495  -0.05969411  1.0
  Co  Co20  1  0.20457505  0.79542495  0.44030589  1.0
  Co  Co21  1  0.55969411  0.44030589  0.79542495  1.0
  Co  Co22  1  0.20457505  0.55969411  -0.20457505  1.0
  Co  Co23  1  -0.55969411  0.79542495  0.55969411  1.0
  Co  Co24  1  0.70457505  0.29542495  1.05969411  1.0
  Co  Co25  1  -0.05969411  1.05969411  0.29542495  1.0
  Co  Co26  1  0.50000000  0.50000000  -0.50000000  1.0
  Co  Co27  1  0.00000000  1.00000000  -0.00000000  1.0
