# generated using pymatgen
data_Ca3Au
_symmetry_space_group_name_H-M   'P 1'
_cell_length_a   7.84406860
_cell_length_b   9.86145305
_cell_length_c   6.80344606
_cell_angle_alpha   90.00000000
_cell_angle_beta   90.00000000
_cell_angle_gamma   90.00000000
_symmetry_Int_Tables_number   1
_chemical_formula_structural   Ca3Au
_chemical_formula_sum   'Ca12 Au4'
_cell_volume   526.27318272
_cell_formula_units_Z   4
loop_
 _symmetry_equiv_pos_site_id
 _symmetry_equiv_pos_as_xyz
  1  'x, y, z'
loop_
 _atom_site_type_symbol
 _atom_site_label
 _atom_site_symmetry_multiplicity
 _atom_site_fract_x
 _atom_site_fract_y
 _atom_site_fract_z
 _atom_site_occupancy
  Ca  Ca0  1  0.32503014  0.93643541  0.66188442  1.0
  Ca  Ca1  1  0.32503014  0.56356459  0.66188442  1.0
  Ca  Ca2  1  0.82503014  0.93643541  0.83811558  1.0
  Ca  Ca3  1  0.82503014  0.56356459  0.83811558  1.0
  Ca  Ca4  1  0.67496986  0.43643541  0.33811558  1.0
  Ca  Ca5  1  0.67496986  0.06356459  0.33811558  1.0
  Ca  Ca6  1  0.17496986  0.43643541  0.16188442  1.0
  Ca  Ca7  1  0.17496986  0.06356459  0.16188442  1.0
  Ca  Ca8  1  0.46470384  0.75000000  0.14166300  1.0
  Ca  Ca9  1  0.96470384  0.75000000  0.35833700  1.0
  Ca  Ca10  1  0.53529616  0.25000000  0.85833700  1.0
  Ca  Ca11  1  0.03529616  0.25000000  0.64166300  1.0
  Au  Au12  1  0.12246524  0.75000000  0.95128214  1.0
  Au  Au13  1  0.62246524  0.75000000  0.54871786  1.0
  Au  Au14  1  0.87753476  0.25000000  0.04871786  1.0
  Au  Au15  1  0.37753476  0.25000000  0.45128214  1.0
