# generated using pymatgen
data_Zn3P2
_symmetry_space_group_name_H-M   'P 1'
_cell_length_a   8.11757337
_cell_length_b   8.11757337
_cell_length_c   11.45606891
_cell_angle_alpha   90.00000000
_cell_angle_beta   90.00000000
_cell_angle_gamma   90.00000000
_symmetry_Int_Tables_number   1
_chemical_formula_structural   Zn3P2
_chemical_formula_sum   'Zn24 P16'
_cell_volume   754.89763080
_cell_formula_units_Z   8
loop_
 _symmetry_equiv_pos_site_id
 _symmetry_equiv_pos_as_xyz
  1  'x, y, z'
loop_
 _atom_site_type_symbol
 _atom_site_label
 _atom_site_symmetry_multiplicity
 _atom_site_fract_x
 _atom_site_fract_y
 _atom_site_fract_z
 _atom_site_occupancy
  Zn  Zn0  1  0.28390453  0.50000000  0.60630929  1.0
  Zn  Zn1  1  0.71609547  0.50000000  0.60630929  1.0
  Zn  Zn2  1  0.78390453  0.00000000  0.89369071  1.0
  Zn  Zn3  1  0.21609547  0.00000000  0.89369071  1.0
  Zn  Zn4  1  0.50000000  0.28390453  0.39369071  1.0
  Zn  Zn5  1  0.50000000  0.71609547  0.39369071  1.0
  Zn  Zn6  1  0.00000000  0.78390453  0.10630929  1.0
  Zn  Zn7  1  0.00000000  0.21609547  0.10630929  1.0
  Zn  Zn8  1  0.21596072  0.50000000  0.88598932  1.0
  Zn  Zn9  1  0.78403928  0.50000000  0.88598932  1.0
  Zn  Zn10  1  0.71596072  0.00000000  0.61401068  1.0
  Zn  Zn11  1  0.28403928  0.00000000  0.61401068  1.0
  Zn  Zn12  1  0.50000000  0.21596072  0.11401068  1.0
  Zn  Zn13  1  0.50000000  0.78403928  0.11401068  1.0
  Zn  Zn14  1  0.00000000  0.71596072  0.38598932  1.0
  Zn  Zn15  1  0.00000000  0.28403928  0.38598932  1.0
  Zn  Zn16  1  0.25294864  0.50000000  0.14868906  1.0
  Zn  Zn17  1  0.74705136  0.50000000  0.14868906  1.0
  Zn  Zn18  1  0.75294864  0.00000000  0.35131094  1.0
  Zn  Zn19  1  0.24705136  0.00000000  0.35131094  1.0
  Zn  Zn20  1  0.50000000  0.25294864  0.85131094  1.0
  Zn  Zn21  1  0.50000000  0.74705136  0.85131094  1.0
  Zn  Zn22  1  0.00000000  0.75294864  0.64868906  1.0
  Zn  Zn23  1  0.00000000  0.24705136  0.64868906  1.0
  P  P24  1  0.50000000  0.50000000  0.74639678  1.0
  P  P25  1  0.00000000  0.00000000  0.75360322  1.0
  P  P26  1  0.50000000  0.50000000  0.25360322  1.0
  P  P27  1  0.00000000  0.00000000  0.24639678  1.0
  P  P28  1  0.00000000  0.50000000  0.74618180  1.0
  P  P29  1  0.50000000  0.00000000  0.75381820  1.0
  P  P30  1  0.50000000  0.00000000  0.25381820  1.0
  P  P31  1  0.00000000  0.50000000  0.24618180  1.0
  P  P32  1  0.24590492  0.24590492  0.50000000  1.0
  P  P33  1  0.75409508  0.75409508  0.50000000  1.0
  P  P34  1  0.74590492  0.74590492  0.00000000  1.0
  P  P35  1  0.25409508  0.25409508  0.00000000  1.0
  P  P36  1  0.75409508  0.24590492  0.50000000  1.0
  P  P37  1  0.24590492  0.75409508  0.50000000  1.0
  P  P38  1  0.25409508  0.74590492  0.00000000  1.0
  P  P39  1  0.74590492  0.25409508  0.00000000  1.0
