# generated using pymatgen
data_Bi2O3
_symmetry_space_group_name_H-M   'P 1'
_cell_length_a   5.93257384
_cell_length_b   8.34377164
_cell_length_c   7.56352604
_cell_angle_alpha   90.00000000
_cell_angle_beta   112.63525092
_cell_angle_gamma   90.00000000
_symmetry_Int_Tables_number   1
_chemical_formula_structural   Bi2O3
_chemical_formula_sum   'Bi8 O12'
_cell_volume   345.55656675
_cell_formula_units_Z   4
loop_
 _symmetry_equiv_pos_site_id
 _symmetry_equiv_pos_as_xyz
  1  'x, y, z'
loop_
 _atom_site_type_symbol
 _atom_site_label
 _atom_site_symmetry_multiplicity
 _atom_site_fract_x
 _atom_site_fract_y
 _atom_site_fract_z
 _atom_site_occupancy
  Bi  Bi0  1  0.47522240  0.18188086  0.13527956  1.0
  Bi  Bi1  1  0.47522240  0.31811914  0.63527956  1.0
  Bi  Bi2  1  0.52477760  0.68188086  0.36472044  1.0
  Bi  Bi3  1  0.52477760  0.81811914  0.86472044  1.0
  Bi  Bi4  1  0.96003123  0.46115033  0.22327069  1.0
  Bi  Bi5  1  0.96003123  0.03884967  0.72327069  1.0
  Bi  Bi6  1  0.03996877  0.96115033  0.27672931  1.0
  Bi  Bi7  1  0.03996877  0.53884967  0.77672931  1.0
  O  O8  1  0.22266233  0.19977368  0.29241408  1.0
  O  O9  1  0.22266233  0.30022632  0.79241408  1.0
  O  O10  1  0.77733767  0.69977368  0.20758592  1.0
  O  O11  1  0.77733767  0.80022632  0.70758592  1.0
  O  O12  1  0.73127165  0.46975185  0.48828846  1.0
  O  O13  1  0.73127165  0.03024815  0.98828846  1.0
  O  O14  1  0.26872835  0.96975185  0.01171154  1.0
  O  O15  1  0.26872835  0.53024815  0.51171154  1.0
  O  O16  1  0.76528057  0.05156720  0.37468147  1.0
  O  O17  1  0.76528057  0.44843280  0.87468147  1.0
  O  O18  1  0.23471943  0.55156720  0.12531853  1.0
  O  O19  1  0.23471943  0.94843280  0.62531853  1.0
