# generated using pymatgen
data_CaSiN2
_symmetry_space_group_name_H-M   'P 1'
_cell_length_a   5.13924863
_cell_length_b   5.13924863
_cell_length_c   5.13924863
_cell_angle_alpha   118.61301959
_cell_angle_beta   118.61301959
_cell_angle_gamma   92.41959177
_symmetry_Int_Tables_number   1
_chemical_formula_structural   CaSiN2
_chemical_formula_sum   'Ca2 Si2 N4'
_cell_volume   97.89841474
_cell_formula_units_Z   2
loop_
 _symmetry_equiv_pos_site_id
 _symmetry_equiv_pos_as_xyz
  1  'x, y, z'
loop_
 _atom_site_type_symbol
 _atom_site_label
 _atom_site_symmetry_multiplicity
 _atom_site_fract_x
 _atom_site_fract_y
 _atom_site_fract_z
 _atom_site_occupancy
  Ca  Ca0  1  0.50000000  0.50000000  0.00000000  1.0
  Ca  Ca1  1  1.25000000  0.75000000  0.50000000  1.0
  Si  Si2  1  0.00000000  0.00000000  0.00000000  1.0
  Si  Si3  1  0.75000000  1.25000000  0.50000000  1.0
  N  N4  1  0.37500000  0.27332684  0.39832684  1.0
  N  N5  1  1.02332684  1.62500000  0.89832684  1.0
  N  N6  1  0.87500000  0.97667316  0.60167316  1.0
  N  N7  1  0.72667316  1.12500000  1.10167316  1.0
