# generated using pymatgen
data_Ta3CrS6
_symmetry_space_group_name_H-M   'P 1'
_cell_length_a   5.73265070
_cell_length_b   5.73265070
_cell_length_c   11.88698144
_cell_angle_alpha   90.00000000
_cell_angle_beta   90.00000000
_cell_angle_gamma   120.00000000
_symmetry_Int_Tables_number   1
_chemical_formula_structural   Ta3CrS6
_chemical_formula_sum   'Ta6 Cr2 S12'
_cell_volume   338.30870887
_cell_formula_units_Z   2
loop_
 _symmetry_equiv_pos_site_id
 _symmetry_equiv_pos_as_xyz
  1  'x, y, z'
loop_
 _atom_site_type_symbol
 _atom_site_label
 _atom_site_symmetry_multiplicity
 _atom_site_fract_x
 _atom_site_fract_y
 _atom_site_fract_z
 _atom_site_occupancy
  Ta  Ta0  1  0.33333333  0.66666667  0.50408812  1.0
  Ta  Ta1  1  0.33333333  0.66666667  0.99591188  1.0
  Ta  Ta2  1  0.66666667  0.33333333  0.49591188  1.0
  Ta  Ta3  1  0.66666667  0.33333333  0.00408812  1.0
  Ta  Ta4  1  -0.00000000  -0.00000000  0.00000000  1.0
  Ta  Ta5  1  -0.00000000  -0.00000000  0.50000000  1.0
  Cr  Cr6  1  0.33333333  0.66666667  0.25000000  1.0
  Cr  Cr7  1  0.66666667  0.33333333  0.75000000  1.0
  S  S8  1  0.66242784  0.66905427  0.13334130  1.0
  S  S9  1  0.66242784  -0.00662643  0.36665870  1.0
  S  S10  1  0.66905427  0.66242784  0.86665870  1.0
  S  S11  1  0.66905427  1.00662643  0.63334130  1.0
  S  S12  1  1.00662643  0.66905427  0.36665870  1.0
  S  S13  1  1.00662643  0.33757216  0.13334130  1.0
  S  S14  1  0.33094573  0.33757216  0.36665870  1.0
  S  S15  1  0.33094573  -0.00662643  0.13334130  1.0
  S  S16  1  0.33757216  1.00662643  0.86665870  1.0
  S  S17  1  0.33757216  0.33094573  0.63334130  1.0
  S  S18  1  -0.00662643  0.66242784  0.63334130  1.0
  S  S19  1  -0.00662643  0.33094573  0.86665870  1.0
