# generated using pymatgen
data_ZnPt(CN)4
_symmetry_space_group_name_H-M   'P 1'
_cell_length_a   5.45522984
_cell_length_b   5.45522984
_cell_length_c   13.33893066
_cell_angle_alpha   90.00000000
_cell_angle_beta   90.00000000
_cell_angle_gamma   90.00000000
_symmetry_Int_Tables_number   1
_chemical_formula_structural   ZnPt(CN)4
_chemical_formula_sum   'Zn2 Pt2 C8 N8'
_cell_volume   396.96034175
_cell_formula_units_Z   2
loop_
 _symmetry_equiv_pos_site_id
 _symmetry_equiv_pos_as_xyz
  1  'x, y, z'
loop_
 _atom_site_type_symbol
 _atom_site_label
 _atom_site_symmetry_multiplicity
 _atom_site_fract_x
 _atom_site_fract_y
 _atom_site_fract_z
 _atom_site_occupancy
  Zn  Zn0  1  0.50000000  0.50000000  0.75000000  1.0
  Zn  Zn1  1  0.50000000  0.50000000  0.25000000  1.0
  Pt  Pt2  1  0.00000000  0.00000000  0.00000000  1.0
  Pt  Pt3  1  0.00000000  0.00000000  0.50000000  1.0
  C  C4  1  0.81631460  0.81631460  0.89650084  1.0
  C  C5  1  0.81631460  0.81631460  0.10349916  1.0
  C  C6  1  0.81631460  0.18368540  0.39650084  1.0
  C  C7  1  0.81631460  0.18368540  0.60349916  1.0
  C  C8  1  0.18368540  0.81631460  0.39650084  1.0
  C  C9  1  0.18368540  0.81631460  0.60349916  1.0
  C  C10  1  0.18368540  0.18368540  0.89650084  1.0
  C  C11  1  0.18368540  0.18368540  0.10349916  1.0
  N  N12  1  0.70481077  0.70481077  0.83758310  1.0
  N  N13  1  0.70481077  0.70481077  0.16241690  1.0
  N  N14  1  0.70481077  0.29518923  0.33758310  1.0
  N  N15  1  0.70481077  0.29518923  0.66241690  1.0
  N  N16  1  0.29518923  0.70481077  0.33758310  1.0
  N  N17  1  0.29518923  0.70481077  0.66241690  1.0
  N  N18  1  0.29518923  0.29518923  0.83758310  1.0
  N  N19  1  0.29518923  0.29518923  0.16241690  1.0
