# generated using pymatgen
data_Y2CdS4
_symmetry_space_group_name_H-M   'P 1'
_cell_length_a   7.98268828
_cell_length_b   7.98268828
_cell_length_c   7.98268828
_cell_angle_alpha   60.00000000
_cell_angle_beta   60.00000000
_cell_angle_gamma   60.00000000
_symmetry_Int_Tables_number   1
_chemical_formula_structural   Y2CdS4
_chemical_formula_sum   'Y4 Cd2 S8'
_cell_volume   359.69343686
_cell_formula_units_Z   2
loop_
 _symmetry_equiv_pos_site_id
 _symmetry_equiv_pos_as_xyz
  1  'x, y, z'
loop_
 _atom_site_type_symbol
 _atom_site_label
 _atom_site_symmetry_multiplicity
 _atom_site_fract_x
 _atom_site_fract_y
 _atom_site_fract_z
 _atom_site_occupancy
  Y  Y0  1  1.12500000  -0.37500000  0.62500000  1.0
  Y  Y1  1  0.62500000  1.12500000  -0.37500000  1.0
  Y  Y2  1  0.62500000  0.62500000  0.12500000  1.0
  Y  Y3  1  0.62500000  0.62500000  -0.37500000  1.0
  Cd  Cd4  1  0.25000000  0.25000000  0.25000000  1.0
  Cd  Cd5  1  0.00000000  1.00000000  -0.00000000  1.0
  S  S6  1  -0.14703349  0.38234450  0.38234450  1.0
  S  S7  1  0.38234450  0.85296651  0.38234450  1.0
  S  S8  1  0.38234450  1.38234450  -0.14703349  1.0
  S  S9  1  0.38234450  0.38234450  0.38234450  1.0
  S  S10  1  0.39703349  0.86765550  -0.13234450  1.0
  S  S11  1  0.86765550  -0.60296651  0.86765550  1.0
  S  S12  1  0.86765550  0.86765550  -0.60296651  1.0
  S  S13  1  0.86765550  -0.13234450  0.86765550  1.0
