# generated using pymatgen
data_Na3Bi
_symmetry_space_group_name_H-M   'P 1'
_cell_length_a   5.47436671
_cell_length_b   5.47436671
_cell_length_c   9.73703180
_cell_angle_alpha   90.00000000
_cell_angle_beta   90.00000000
_cell_angle_gamma   120.06229587
_symmetry_Int_Tables_number   1
_chemical_formula_structural   Na3Bi
_chemical_formula_sum   'Na6 Bi2'
_cell_volume   252.55270723
_cell_formula_units_Z   2
loop_
 _symmetry_equiv_pos_site_id
 _symmetry_equiv_pos_as_xyz
  1  'x, y, z'
loop_
 _atom_site_type_symbol
 _atom_site_label
 _atom_site_symmetry_multiplicity
 _atom_site_fract_x
 _atom_site_fract_y
 _atom_site_fract_z
 _atom_site_occupancy
  Na  Na0  1  0.49974864  0.50025136  0.25000000  1.0
  Na  Na1  1  -0.49974864  0.49974864  0.75000000  1.0
  Na  Na2  1  -0.16659935  0.16659935  0.58248059  1.0
  Na  Na3  1  0.16659935  0.83340065  0.41751941  1.0
  Na  Na4  1  -0.16659935  0.16659935  -0.08248059  1.0
  Na  Na5  1  0.16659935  0.83340065  1.08248059  1.0
  Bi  Bi6  1  -0.16708730  0.16708730  0.25000000  1.0
  Bi  Bi7  1  0.16708730  0.83291270  0.75000000  1.0
