# generated using pymatgen
data_VIr
_symmetry_space_group_name_H-M   'P 1'
_cell_length_a   8.64655864
_cell_length_b   8.64655864
_cell_length_c   6.63705243
_cell_angle_alpha   71.37305388
_cell_angle_beta   108.62694612
_cell_angle_gamma   100.09996674
_symmetry_Int_Tables_number   1
_chemical_formula_structural   VIr
_chemical_formula_sum   'V16 Ir16'
_cell_volume   444.09424743
_cell_formula_units_Z   16
loop_
 _symmetry_equiv_pos_site_id
 _symmetry_equiv_pos_as_xyz
  1  'x, y, z'
loop_
 _atom_site_type_symbol
 _atom_site_label
 _atom_site_symmetry_multiplicity
 _atom_site_fract_x
 _atom_site_fract_y
 _atom_site_fract_z
 _atom_site_occupancy
  V  V0  1  1.30775026  -0.04841784  0.65530907  1.0
  V  V1  1  1.04841784  -0.30775026  0.65530907  1.0
  V  V2  1  0.55440097  0.20533924  0.63778535  1.0
  V  V3  1  0.79466076  0.44559903  0.63778535  1.0
  V  V4  1  1.44628579  -0.17847010  0.37507076  1.0
  V  V5  1  1.17847010  -0.44628579  0.37507076  1.0
  V  V6  1  0.69797072  0.07321977  0.37506730  1.0
  V  V7  1  0.92678023  0.30202928  0.37506730  1.0
  V  V8  1  0.18956575  0.06068808  0.88334929  1.0
  V  V9  1  0.93931192  0.81043425  0.88334929  1.0
  V  V10  1  0.43517383  0.31456443  0.86675269  1.0
  V  V11  1  0.68543557  0.56482617  0.86675269  1.0
  V  V12  1  1.57633567  -0.31700205  0.09480485  1.0
  V  V13  1  1.31700205  -0.57633567  0.09480485  1.0
  V  V14  1  1.83008505  -0.07035795  0.11233466  1.0
  V  V15  1  1.07035795  -0.83008505  0.11233466  1.0
  Ir  Ir16  1  0.99888297  0.00111703  0.49527648  1.0
  Ir  Ir17  1  1.26450155  -0.26450155  0.02525318  1.0
  Ir  Ir18  1  1.48520170  -0.48520170  0.46570509  1.0
  Ir  Ir19  1  0.75487613  0.24512387  0.00614348  1.0
  Ir  Ir20  1  0.86987313  0.13012687  0.74398743  1.0
  Ir  Ir21  1  1.13954209  -0.13954209  0.28440376  1.0
  Ir  Ir22  1  1.36023951  -0.36023951  0.72486926  1.0
  Ir  Ir23  1  0.62587211  0.37412789  0.25485647  1.0
  Ir  Ir24  1  1.24024691  -0.74302804  0.47959124  1.0
  Ir  Ir25  1  1.74302804  -0.24024691  0.47959124  1.0
  Ir  Ir26  1  1.51236421  -0.00777049  0.01642275  1.0
  Ir  Ir27  1  1.00777049  -0.51236421  0.01642275  1.0
  Ir  Ir28  1  1.11237337  -0.61697802  0.73371296  1.0
  Ir  Ir29  1  1.61697802  -0.11237337  0.73371296  1.0
  Ir  Ir30  1  0.38451440  0.11826906  0.27055151  1.0
  Ir  Ir31  1  0.88173094  0.61548560  0.27055151  1.0
