# generated using pymatgen
data_Sr2ScCoAsO3
_symmetry_space_group_name_H-M   'P 1'
_cell_length_a   4.07587332
_cell_length_b   4.07587332
_cell_length_c   15.57806977
_cell_angle_alpha   90.00000000
_cell_angle_beta   90.00000000
_cell_angle_gamma   90.00000000
_symmetry_Int_Tables_number   1
_chemical_formula_structural   Sr2ScCoAsO3
_chemical_formula_sum   'Sr4 Sc2 Co2 As2 O6'
_cell_volume   258.79447469
_cell_formula_units_Z   2
loop_
 _symmetry_equiv_pos_site_id
 _symmetry_equiv_pos_as_xyz
  1  'x, y, z'
loop_
 _atom_site_type_symbol
 _atom_site_label
 _atom_site_symmetry_multiplicity
 _atom_site_fract_x
 _atom_site_fract_y
 _atom_site_fract_z
 _atom_site_occupancy
  Sr  Sr0  1  0.50000000  0.00000000  0.58715887  1.0
  Sr  Sr1  1  0.00000000  0.50000000  0.41284113  1.0
  Sr  Sr2  1  0.50000000  0.00000000  0.81765182  1.0
  Sr  Sr3  1  0.00000000  0.50000000  0.18234818  1.0
  Sc  Sc4  1  0.50000000  0.00000000  0.30444332  1.0
  Sc  Sc5  1  0.00000000  0.50000000  0.69555668  1.0
  Co  Co6  1  0.00000000  0.00000000  0.00000000  1.0
  Co  Co7  1  0.50000000  0.50000000  0.00000000  1.0
  As  As8  1  0.50000000  0.00000000  0.07580818  1.0
  As  As9  1  0.00000000  0.50000000  0.92419182  1.0
  O  O10  1  0.00000000  0.00000000  0.28281503  1.0
  O  O11  1  0.50000000  0.50000000  0.71718497  1.0
  O  O12  1  0.50000000  0.50000000  0.28281503  1.0
  O  O13  1  0.00000000  0.00000000  0.71718497  1.0
  O  O14  1  0.50000000  0.00000000  0.43236831  1.0
  O  O15  1  0.00000000  0.50000000  0.56763169  1.0
