# generated using pymatgen
data_Ta2Ni3S8
_symmetry_space_group_name_H-M   'P 1'
_cell_length_a   10.43122774
_cell_length_b   14.35745385
_cell_length_c   3.34465042
_cell_angle_alpha   90.00000000
_cell_angle_beta   90.00000000
_cell_angle_gamma   90.00000000
_symmetry_Int_Tables_number   1
_chemical_formula_structural   Ta2Ni3S8
_chemical_formula_sum   'Ta4 Ni6 S16'
_cell_volume   500.91448272
_cell_formula_units_Z   2
loop_
 _symmetry_equiv_pos_site_id
 _symmetry_equiv_pos_as_xyz
  1  'x, y, z'
loop_
 _atom_site_type_symbol
 _atom_site_label
 _atom_site_symmetry_multiplicity
 _atom_site_fract_x
 _atom_site_fract_y
 _atom_site_fract_z
 _atom_site_occupancy
  Ta  Ta0  1  0.31550300  0.62655624  0.50000000  1.0
  Ta  Ta1  1  0.81550300  0.87344376  0.50000000  1.0
  Ta  Ta2  1  0.68449700  0.37344376  0.50000000  1.0
  Ta  Ta3  1  0.18449700  0.12655624  0.50000000  1.0
  Ni  Ni4  1  0.15365221  0.73351121  0.00000000  1.0
  Ni  Ni5  1  0.65365221  0.76648879  0.00000000  1.0
  Ni  Ni6  1  0.84634779  0.26648879  0.00000000  1.0
  Ni  Ni7  1  0.34634779  0.23351121  0.00000000  1.0
  Ni  Ni8  1  0.50000000  0.50000000  0.00000000  1.0
  Ni  Ni9  1  0.00000000  0.00000000  0.00000000  1.0
  S  S10  1  0.27373398  0.79228280  0.50000000  1.0
  S  S11  1  0.77373398  0.70771720  0.50000000  1.0
  S  S12  1  0.72626602  0.20771720  0.50000000  1.0
  S  S13  1  0.22626602  0.29228280  0.50000000  1.0
  S  S14  1  0.08362319  0.64166844  0.50000000  1.0
  S  S15  1  0.58362319  0.85833156  0.50000000  1.0
  S  S16  1  0.91637681  0.35833156  0.50000000  1.0
  S  S17  1  0.41637681  0.14166844  0.50000000  1.0
  S  S18  1  0.48871261  0.65472137  0.00000000  1.0
  S  S19  1  0.98871261  0.84527863  0.00000000  1.0
  S  S20  1  0.51128739  0.34527863  0.00000000  1.0
  S  S21  1  0.01128739  0.15472137  0.00000000  1.0
  S  S22  1  0.21169292  1.00184956  0.00000000  1.0
  S  S23  1  0.71169292  0.49815044  0.00000000  1.0
  S  S24  1  0.78830708  -0.00184956  0.00000000  1.0
  S  S25  1  0.28830708  0.50184956  0.00000000  1.0
