# generated using pymatgen
data_Ba2LuCl7
_symmetry_space_group_name_H-M   'P 1'
_cell_length_a   6.93197310
_cell_length_b   15.59661587
_cell_length_c   10.60488307
_cell_angle_alpha   90.00000000
_cell_angle_beta   90.45543076
_cell_angle_gamma   90.00000000
_symmetry_Int_Tables_number   1
_chemical_formula_structural   Ba2LuCl7
_chemical_formula_sum   'Ba8 Lu4 Cl28'
_cell_volume   1146.51412361
_cell_formula_units_Z   4
loop_
 _symmetry_equiv_pos_site_id
 _symmetry_equiv_pos_as_xyz
  1  'x, y, z'
loop_
 _atom_site_type_symbol
 _atom_site_label
 _atom_site_symmetry_multiplicity
 _atom_site_fract_x
 _atom_site_fract_y
 _atom_site_fract_z
 _atom_site_occupancy
  Ba  Ba0  1  0.76717084  0.44072829  0.17743719  1.0
  Ba  Ba1  1  0.76717084  0.05927171  0.67743719  1.0
  Ba  Ba2  1  0.23282916  0.94072829  0.32256281  1.0
  Ba  Ba3  1  0.23282916  0.55927171  0.82256281  1.0
  Ba  Ba4  1  0.23250276  0.28021171  0.45502195  1.0
  Ba  Ba5  1  0.23250276  0.21978829  0.95502195  1.0
  Ba  Ba6  1  0.76749724  0.78021171  0.04497805  1.0
  Ba  Ba7  1  0.76749724  0.71978829  0.54497805  1.0
  Lu  Lu8  1  0.71942309  0.12800320  0.22134154  1.0
  Lu  Lu9  1  0.71942309  0.37199680  0.72134154  1.0
  Lu  Lu10  1  0.28057691  0.62800320  0.27865846  1.0
  Lu  Lu11  1  0.28057691  0.87199680  0.77865846  1.0
  Cl  Cl12  1  0.98777243  0.25830938  0.20303131  1.0
  Cl  Cl13  1  0.98777243  0.24169062  0.70303131  1.0
  Cl  Cl14  1  0.01222757  0.75830938  0.29696869  1.0
  Cl  Cl15  1  0.01222757  0.74169062  0.79696869  1.0
  Cl  Cl16  1  0.98582949  0.10596977  0.41537410  1.0
  Cl  Cl17  1  0.98582949  0.39403023  0.91537410  1.0
  Cl  Cl18  1  0.01417051  0.60596977  0.08462590  1.0
  Cl  Cl19  1  0.01417051  0.89403023  0.58462590  1.0
  Cl  Cl20  1  0.80067136  0.96285475  0.21340225  1.0
  Cl  Cl21  1  0.80067136  0.53714525  0.71340225  1.0
  Cl  Cl22  1  0.19932864  0.46285475  0.28659775  1.0
  Cl  Cl23  1  0.19932864  0.03714525  0.78659775  1.0
  Cl  Cl24  1  0.80471960  0.36391947  0.48029699  1.0
  Cl  Cl25  1  0.80471960  0.13608053  0.98029699  1.0
  Cl  Cl26  1  0.19528040  0.86391947  0.01970301  1.0
  Cl  Cl27  1  0.19528040  0.63608053  0.51970301  1.0
  Cl  Cl28  1  0.50617360  0.27275155  0.21101121  1.0
  Cl  Cl29  1  0.50617360  0.22724845  0.71101121  1.0
  Cl  Cl30  1  0.49382640  0.77275155  0.28898879  1.0
  Cl  Cl31  1  0.49382640  0.72724845  0.78898879  1.0
  Cl  Cl32  1  0.50362961  0.10487991  0.42924632  1.0
  Cl  Cl33  1  0.50362961  0.39512009  0.92924632  1.0
  Cl  Cl34  1  0.49637039  0.60487991  0.07075368  1.0
  Cl  Cl35  1  0.49637039  0.89512009  0.57075368  1.0
  Cl  Cl36  1  0.38380613  0.07148973  0.12473250  1.0
  Cl  Cl37  1  0.38380613  0.42851027  0.62473250  1.0
  Cl  Cl38  1  0.61619387  0.57148973  0.37526750  1.0
  Cl  Cl39  1  0.61619387  0.92851027  0.87526750  1.0
