# generated using pymatgen
data_Gd2MgGe2
_symmetry_space_group_name_H-M   'P 1'
_cell_length_a   7.34872954
_cell_length_b   7.34872954
_cell_length_c   4.29157321
_cell_angle_alpha   90.00000000
_cell_angle_beta   90.00000000
_cell_angle_gamma   90.00000000
_symmetry_Int_Tables_number   1
_chemical_formula_structural   Gd2MgGe2
_chemical_formula_sum   'Gd4 Mg2 Ge4'
_cell_volume   231.76137215
_cell_formula_units_Z   2
loop_
 _symmetry_equiv_pos_site_id
 _symmetry_equiv_pos_as_xyz
  1  'x, y, z'
loop_
 _atom_site_type_symbol
 _atom_site_label
 _atom_site_symmetry_multiplicity
 _atom_site_fract_x
 _atom_site_fract_y
 _atom_site_fract_z
 _atom_site_occupancy
  Gd  Gd0  1  0.32274022  0.17725978  0.50000000  1.0
  Gd  Gd1  1  0.82274022  0.32274022  0.50000000  1.0
  Gd  Gd2  1  0.67725978  0.82274022  0.50000000  1.0
  Gd  Gd3  1  0.17725978  0.67725978  0.50000000  1.0
  Mg  Mg4  1  0.50000000  0.50000000  0.00000000  1.0
  Mg  Mg5  1  0.00000000  0.00000000  0.00000000  1.0
  Ge  Ge6  1  0.87715168  0.62284832  0.00000000  1.0
  Ge  Ge7  1  0.37715168  0.87715168  0.00000000  1.0
  Ge  Ge8  1  0.12284832  0.37715168  0.00000000  1.0
  Ge  Ge9  1  0.62284832  0.12284832  0.00000000  1.0
