# generated using pymatgen
data_AgClO4
_symmetry_space_group_name_H-M   'P 1'
_cell_length_a   5.03312630
_cell_length_b   5.03312630
_cell_length_c   5.03312630
_cell_angle_alpha   120.32518207
_cell_angle_beta   120.32518207
_cell_angle_gamma   89.43768492
_symmetry_Int_Tables_number   1
_chemical_formula_structural   AgClO4
_chemical_formula_sum   'Ag1 Cl1 O4'
_cell_volume   89.70898486
_cell_formula_units_Z   1
loop_
 _symmetry_equiv_pos_site_id
 _symmetry_equiv_pos_as_xyz
  1  'x, y, z'
loop_
 _atom_site_type_symbol
 _atom_site_label
 _atom_site_symmetry_multiplicity
 _atom_site_fract_x
 _atom_site_fract_y
 _atom_site_fract_z
 _atom_site_occupancy
  Ag  Ag0  1  0.50000000  0.50000000  0.00000000  1.0
  Cl  Cl1  1  -0.00000000  -0.00000000  -0.00000000  1.0
  O  O2  1  0.95270638  0.95270638  0.66323098  1.0
  O  O3  1  1.04729362  0.71052459  1.00000000  1.0
  O  O4  1  0.71052459  1.04729362  1.00000000  1.0
  O  O5  1  0.28947541  0.28947541  0.33676902  1.0
