# generated using pymatgen
data_KHCO3
_symmetry_space_group_name_H-M   'P 1'
_cell_length_a   5.71808936
_cell_length_b   3.78797664
_cell_length_c   8.11969579
_cell_angle_alpha   105.17557778
_cell_angle_beta   107.28701787
_cell_angle_gamma   91.03890880
_symmetry_Int_Tables_number   1
_chemical_formula_structural   KHCO3
_chemical_formula_sum   'K2 H2 C2 O6'
_cell_volume   161.19170546
_cell_formula_units_Z   2
loop_
 _symmetry_equiv_pos_site_id
 _symmetry_equiv_pos_as_xyz
  1  'x, y, z'
loop_
 _atom_site_type_symbol
 _atom_site_label
 _atom_site_symmetry_multiplicity
 _atom_site_fract_x
 _atom_site_fract_y
 _atom_site_fract_z
 _atom_site_occupancy
  K  K0  1  -0.67544378  -0.78703624  -0.33043942  1.0
  K  K1  1  -0.32455622  -0.21296376  -0.66956058  1.0
  H  H2  1  -0.79819242  -0.95902884  -0.97076888  1.0
  H  H3  1  -0.20180758  -0.04097116  -0.02923112  1.0
  C  C4  1  -0.87601954  -0.65341174  -0.75970113  1.0
  C  C5  1  -0.12398046  -0.34658826  -0.24029887  1.0
  O  O6  1  -0.70978919  -0.78443226  -0.84526672  1.0
  O  O7  1  -0.29021081  -0.21556774  -0.15473328  1.0
  O  O8  1  -0.10229587  -0.78285029  -0.83481246  1.0
  O  O9  1  -0.89770413  -0.21714971  -0.16518754  1.0
  O  O10  1  -0.79147080  -0.41195562  -0.61096155  1.0
  O  O11  1  -0.20852920  -0.58804438  -0.38903845  1.0
