# generated using pymatgen
data_LiTi2O4
_symmetry_space_group_name_H-M   'P 1'
_cell_length_a   3.85993620
_cell_length_b   8.22038347
_cell_length_c   8.95957100
_cell_angle_alpha   90.00000000
_cell_angle_beta   90.00000000
_cell_angle_gamma   90.00000000
_symmetry_Int_Tables_number   1
_chemical_formula_structural   LiTi2O4
_chemical_formula_sum   'Li4 Ti8 O16'
_cell_volume   284.28858300
_cell_formula_units_Z   4
loop_
 _symmetry_equiv_pos_site_id
 _symmetry_equiv_pos_as_xyz
  1  'x, y, z'
loop_
 _atom_site_type_symbol
 _atom_site_label
 _atom_site_symmetry_multiplicity
 _atom_site_fract_x
 _atom_site_fract_y
 _atom_site_fract_z
 _atom_site_occupancy
  Ti  Ti0  1  -0.00000000  0.11128336  0.50966791  1.0
  Ti  Ti1  1  0.50000000  0.88871664  0.00966791  1.0
  Ti  Ti2  1  0.50000000  0.64795834  0.23906286  1.0
  Ti  Ti3  1  -0.00000000  0.35204166  0.73906286  1.0
  Ti  Ti4  1  -0.00000000  0.64797401  0.51092638  1.0
  Ti  Ti5  1  0.50000000  0.35202599  1.01092638  1.0
  Ti  Ti6  1  0.50000000  0.11128381  0.24032143  1.0
  Ti  Ti7  1  -0.00000000  0.88871619  0.74032143  1.0
  O  O8  1  -0.00000000  0.62373315  0.72781514  1.0
  O  O9  1  0.00000000  0.12406560  0.73406463  1.0
  O  O10  1  0.50000000  0.37626685  0.22781514  1.0
  O  O11  1  0.50000000  0.87593440  0.23406463  1.0
  O  O12  1  0.50000000  0.61949446  0.47460393  1.0
  O  O13  1  0.50000000  0.13304650  0.47371455  1.0
  O  O14  1  0.00000000  0.38050554  0.97460393  1.0
  O  O15  1  0.00000000  0.86695350  0.97371455  1.0
  O  O16  1  -0.00000000  0.37628742  0.52216753  1.0
  O  O17  1  -0.00000000  0.87594717  0.51591810  1.0
  O  O18  1  0.50000000  0.62371258  0.02216753  1.0
  O  O19  1  0.50000000  0.12405283  0.01591810  1.0
  O  O20  1  0.50000000  0.38050975  0.77535027  1.0
  O  O21  1  0.50000000  0.86697564  0.77627352  1.0
  O  O22  1  0.00000000  0.61949025  0.27535027  1.0
  O  O23  1  0.00000000  0.13302436  0.27627352  1.0
  Li  Li24  1  0.00000000  0.62404961  -0.02310890  1.0
  Li  Li25  1  0.50000000  0.37595039  0.47689110  1.0
  Li  Li26  1  0.50000000  0.62406110  0.77322264  1.0
  Li  Li27  1  0.00000000  0.37593890  0.27322264  1.0
