# generated using pymatgen
data_CuPb2(ClO2)2
_symmetry_space_group_name_H-M   'P 1'
_cell_length_a   5.59245174
_cell_length_b   5.59245174
_cell_length_c   5.83735043
_cell_angle_alpha   90.00000000
_cell_angle_beta   90.00000000
_cell_angle_gamma   90.00000000
_symmetry_Int_Tables_number   1
_chemical_formula_structural   CuPb2(ClO2)2
_chemical_formula_sum   'Cu1 Pb2 Cl2 O4'
_cell_volume   182.56614918
_cell_formula_units_Z   1
loop_
 _symmetry_equiv_pos_site_id
 _symmetry_equiv_pos_as_xyz
  1  'x, y, z'
loop_
 _atom_site_type_symbol
 _atom_site_label
 _atom_site_symmetry_multiplicity
 _atom_site_fract_x
 _atom_site_fract_y
 _atom_site_fract_z
 _atom_site_occupancy
  Cu  Cu0  1  0.00000000  0.00000000  -0.01415116  1.0
  Pb  Pb1  1  0.50000000  0.00000000  0.20951096  1.0
  Pb  Pb2  1  0.00000000  0.50000000  0.20951096  1.0
  Cl  Cl3  1  0.50000000  0.50000000  0.45534176  1.0
  Cl  Cl4  1  0.00000000  0.00000000  0.51398132  1.0
  O  O5  1  0.76987952  0.76987952  0.02120154  1.0
  O  O6  1  0.76987952  0.23012048  0.02120154  1.0
  O  O7  1  0.23012048  0.76987952  0.02120154  1.0
  O  O8  1  0.23012048  0.23012048  0.02120154  1.0
