# generated using pymatgen
data_Co(BMo)2
_symmetry_space_group_name_H-M   'P 1'
_cell_length_a   4.51081545
_cell_length_b   4.51081545
_cell_length_c   4.51081545
_cell_angle_alpha   138.90961825
_cell_angle_beta   119.28694749
_cell_angle_gamma   75.94474556
_symmetry_Int_Tables_number   1
_chemical_formula_structural   Co(BMo)2
_chemical_formula_sum   'Co1 B2 Mo2'
_cell_volume   51.33086103
_cell_formula_units_Z   1
loop_
 _symmetry_equiv_pos_site_id
 _symmetry_equiv_pos_as_xyz
  1  'x, y, z'
loop_
 _atom_site_type_symbol
 _atom_site_label
 _atom_site_symmetry_multiplicity
 _atom_site_fract_x
 _atom_site_fract_y
 _atom_site_fract_z
 _atom_site_occupancy
  Co  Co0  1  0.00000000  0.00000000  0.00000000  1.0
  B  B1  1  0.29564117  0.50000000  0.79564117  1.0
  B  B2  1  0.70435883  0.50000000  1.20435883  1.0
  Mo  Mo3  1  0.70031697  0.20031697  0.50000000  1.0
  Mo  Mo4  1  1.29968303  0.79968303  0.50000000  1.0
