# generated using pymatgen
data_RbCaBO3
_symmetry_space_group_name_H-M   'P 1'
_cell_length_a   7.49704481
_cell_length_b   7.49704481
_cell_length_c   7.49704481
_cell_angle_alpha   90.00000000
_cell_angle_beta   90.00000000
_cell_angle_gamma   90.00000000
_symmetry_Int_Tables_number   1
_chemical_formula_structural   RbCaBO3
_chemical_formula_sum   'Rb4 Ca4 B4 O12'
_cell_volume   421.37650871
_cell_formula_units_Z   4
loop_
 _symmetry_equiv_pos_site_id
 _symmetry_equiv_pos_as_xyz
  1  'x, y, z'
loop_
 _atom_site_type_symbol
 _atom_site_label
 _atom_site_symmetry_multiplicity
 _atom_site_fract_x
 _atom_site_fract_y
 _atom_site_fract_z
 _atom_site_occupancy
  Rb  Rb0  1  0.37915356  0.37915356  0.37915356  1.0
  Rb  Rb1  1  0.62084644  0.87915356  0.12084644  1.0
  Rb  Rb2  1  0.87915356  0.12084644  0.62084644  1.0
  Rb  Rb3  1  0.12084644  0.62084644  0.87915356  1.0
  Ca  Ca4  1  0.39925921  0.89925921  0.60074079  1.0
  Ca  Ca5  1  0.89925921  0.60074079  0.39925921  1.0
  Ca  Ca6  1  0.60074079  0.39925921  0.89925921  1.0
  Ca  Ca7  1  0.10074079  0.10074079  0.10074079  1.0
  B  B8  1  0.17050087  0.82949913  0.32949913  1.0
  B  B9  1  0.67050087  0.67050087  0.67050087  1.0
  B  B10  1  0.32949913  0.17050087  0.82949913  1.0
  B  B11  1  0.82949913  0.32949913  0.17050087  1.0
  O  O12  1  0.29166577  0.97024624  0.31498989  1.0
  O  O13  1  0.68501011  0.79166577  0.52975376  1.0
  O  O14  1  0.47024624  0.18501011  0.70833423  1.0
  O  O15  1  0.79166577  0.52975376  0.68501011  1.0
  O  O16  1  0.18501011  0.70833423  0.47024624  1.0
  O  O17  1  0.97024624  0.31498989  0.29166577  1.0
  O  O18  1  0.70833423  0.47024624  0.18501011  1.0
  O  O19  1  0.31498989  0.29166577  0.97024624  1.0
  O  O20  1  0.52975376  0.68501011  0.79166577  1.0
  O  O21  1  0.20833423  0.02975376  0.81498989  1.0
  O  O22  1  0.81498989  0.20833423  0.02975376  1.0
  O  O23  1  0.02975376  0.81498989  0.20833423  1.0
