# generated using pymatgen
data_Cr2CoS4
_symmetry_space_group_name_H-M   'P 1'
_cell_length_a   6.92331345
_cell_length_b   6.92331345
_cell_length_c   6.92331345
_cell_angle_alpha   60.00000000
_cell_angle_beta   60.00000000
_cell_angle_gamma   60.00000000
_symmetry_Int_Tables_number   1
_chemical_formula_structural   Cr2CoS4
_chemical_formula_sum   'Cr4 Co2 S8'
_cell_volume   234.65347292
_cell_formula_units_Z   2
loop_
 _symmetry_equiv_pos_site_id
 _symmetry_equiv_pos_as_xyz
  1  'x, y, z'
loop_
 _atom_site_type_symbol
 _atom_site_label
 _atom_site_symmetry_multiplicity
 _atom_site_fract_x
 _atom_site_fract_y
 _atom_site_fract_z
 _atom_site_occupancy
  Cr  Cr0  1  1.12500000  -0.37500000  0.62500000  1.0
  Cr  Cr1  1  0.62500000  1.12500000  -0.37500000  1.0
  Cr  Cr2  1  0.62500000  0.62500000  0.12500000  1.0
  Cr  Cr3  1  0.62500000  0.62500000  -0.37500000  1.0
  Co  Co4  1  0.25000000  0.25000000  0.25000000  1.0
  Co  Co5  1  -0.00000000  1.00000000  0.00000000  1.0
  S  S6  1  -0.14372514  0.38124171  0.38124171  1.0
  S  S7  1  0.38124171  0.85627486  0.38124171  1.0
  S  S8  1  0.38124171  1.38124171  -0.14372514  1.0
  S  S9  1  0.38124171  0.38124171  0.38124171  1.0
  S  S10  1  0.39372514  0.86875829  -0.13124171  1.0
  S  S11  1  0.86875829  -0.60627486  0.86875829  1.0
  S  S12  1  0.86875829  0.86875829  -0.60627486  1.0
  S  S13  1  0.86875829  -0.13124171  0.86875829  1.0
