# generated using pymatgen
data_Eu2SiClO7
_symmetry_space_group_name_H-M   'P 1'
_cell_length_a   7.51648059
_cell_length_b   12.49726801
_cell_length_c   7.06103510
_cell_angle_alpha   90.00000000
_cell_angle_beta   90.00000000
_cell_angle_gamma   90.00000000
_symmetry_Int_Tables_number   1
_chemical_formula_structural   Eu2SiClO7
_chemical_formula_sum   'Eu8 Si4 Cl4 O28'
_cell_volume   663.28166850
_cell_formula_units_Z   4
loop_
 _symmetry_equiv_pos_site_id
 _symmetry_equiv_pos_as_xyz
  1  'x, y, z'
loop_
 _atom_site_type_symbol
 _atom_site_label
 _atom_site_symmetry_multiplicity
 _atom_site_fract_x
 _atom_site_fract_y
 _atom_site_fract_z
 _atom_site_occupancy
  Si  Si0  1  0.32222467  0.15219169  0.75000000  1.0
  Si  Si1  1  0.67777533  0.84780831  0.25000000  1.0
  Si  Si2  1  0.32222467  0.34780831  0.25000000  1.0
  Si  Si3  1  0.67777533  0.65219169  0.75000000  1.0
  O  O4  1  0.41007025  0.27214539  0.75000000  1.0
  O  O5  1  0.58992975  0.72785461  0.25000000  1.0
  O  O6  1  0.41007025  0.22785461  0.25000000  1.0
  O  O7  1  0.58992975  0.77214539  0.75000000  1.0
  O  O8  1  1.00652288  0.25000000  0.50000000  1.0
  O  O9  1  -0.00652288  0.75000000  0.00000000  1.0
  O  O10  1  -0.00652288  0.75000000  0.50000000  1.0
  O  O11  1  1.00652288  0.25000000  0.00000000  1.0
  O  O12  1  0.10115360  0.15634324  0.75000000  1.0
  O  O13  1  0.89884640  0.84365676  0.25000000  1.0
  O  O14  1  0.10115360  0.34365676  0.25000000  1.0
  O  O15  1  0.89884640  0.65634324  0.75000000  1.0
  O  O16  1  0.67970450  0.13121342  0.25000000  1.0
  O  O17  1  0.32029550  0.86878658  0.75000000  1.0
  O  O18  1  0.67970450  0.36878658  0.75000000  1.0
  O  O19  1  0.32029550  0.63121342  0.25000000  1.0
  O  O20  1  0.71859611  0.13747521  0.75000000  1.0
  O  O21  1  0.28140389  0.86252479  0.25000000  1.0
  O  O22  1  0.71859611  0.36252479  0.25000000  1.0
  O  O23  1  0.28140389  0.63747521  0.75000000  1.0
  O  O24  1  0.40331835  0.08684036  0.56749628  1.0
  O  O25  1  0.59668165  0.91315964  0.06749628  1.0
  O  O26  1  0.40331835  0.41315964  0.43250372  1.0
  O  O27  1  0.59668165  0.58684036  0.93250372  1.0
  O  O28  1  0.59668165  0.91315964  0.43250372  1.0
  O  O29  1  0.40331835  0.08684036  0.93250372  1.0
  O  O30  1  0.59668165  0.58684036  0.56749628  1.0
  O  O31  1  0.40331835  0.41315964  0.06749628  1.0
  Cl  Cl32  1  0.98204846  0.91173999  0.75000000  1.0
  Cl  Cl33  1  0.01795154  0.08826001  0.25000000  1.0
  Cl  Cl34  1  0.98204846  0.58826001  0.25000000  1.0
  Cl  Cl35  1  0.01795154  0.41173999  0.75000000  1.0
  Eu  Eu36  1  0.60600077  0.96473978  0.75000000  1.0
  Eu  Eu37  1  0.39399923  0.03526022  0.25000000  1.0
  Eu  Eu38  1  0.60600077  0.53526022  0.25000000  1.0
  Eu  Eu39  1  0.39399923  0.46473978  0.75000000  1.0
  Eu  Eu40  1  0.66665257  0.25000000  0.50000000  1.0
  Eu  Eu41  1  0.33334743  0.75000000  0.00000000  1.0
  Eu  Eu42  1  0.33334743  0.75000000  0.50000000  1.0
  Eu  Eu43  1  0.66665257  0.25000000  0.00000000  1.0
