# generated using pymatgen
data_Li2V2P2O11
_symmetry_space_group_name_H-M   'P 1'
_cell_length_a   7.90692416
_cell_length_b   10.66491566
_cell_length_c   5.45212570
_cell_angle_alpha   90.00000000
_cell_angle_beta   90.00000000
_cell_angle_gamma   90.00000000
_symmetry_Int_Tables_number   1
_chemical_formula_structural   Li2V2P2O11
_chemical_formula_sum   'Li4 V4 P4 O22'
_cell_volume   459.75965516
_cell_formula_units_Z   2
loop_
 _symmetry_equiv_pos_site_id
 _symmetry_equiv_pos_as_xyz
  1  'x, y, z'
loop_
 _atom_site_type_symbol
 _atom_site_label
 _atom_site_symmetry_multiplicity
 _atom_site_fract_x
 _atom_site_fract_y
 _atom_site_fract_z
 _atom_site_occupancy
  Li  Li0  1  0.38518514  0.62137520  0.54184573  1.0
  Li  Li1  1  0.88518514  0.87862480  0.45815427  1.0
  Li  Li2  1  0.61481486  0.37862480  0.54184573  1.0
  Li  Li3  1  0.11481486  0.12137520  0.45815427  1.0
  V  V4  1  0.30278053  0.45163873  0.97221797  1.0
  V  V5  1  0.80278053  1.04836127  0.02778203  1.0
  V  V6  1  0.69721947  0.54836127  0.97221797  1.0
  V  V7  1  0.19721947  -0.04836127  0.02778203  1.0
  P  P8  1  1.05371322  0.68731441  0.81846924  1.0
  P  P9  1  0.55371322  0.81268559  0.18153076  1.0
  P  P10  1  -0.05371322  0.31268559  0.81846924  1.0
  P  P11  1  0.44628678  0.18731441  0.18153076  1.0
  O  O12  1  0.18202583  1.00661083  0.75657071  1.0
  O  O13  1  0.68202583  0.49338917  0.24342929  1.0
  O  O14  1  0.81797417  -0.00661083  0.75657071  1.0
  O  O15  1  0.31797417  0.50661083  0.24342929  1.0
  O  O16  1  0.20840524  0.59639007  0.78416198  1.0
  O  O17  1  0.70840524  0.90360993  0.21583802  1.0
  O  O18  1  0.79159476  0.40360993  0.78416198  1.0
  O  O19  1  0.29159476  0.09639007  0.21583802  1.0
  O  O20  1  -0.00360236  0.74133950  0.57846289  1.0
  O  O21  1  0.49639764  0.75866050  0.42153711  1.0
  O  O22  1  1.00360236  0.25866050  0.57846289  1.0
  O  O23  1  0.50360236  0.24133950  0.42153711  1.0
  O  O24  1  0.11091996  0.79096985  1.00779570  1.0
  O  O25  1  0.61091996  0.70903015  -0.00779570  1.0
  O  O26  1  0.88908004  0.20903015  1.00779570  1.0
  O  O27  1  0.38908004  0.29096985  -0.00779570  1.0
  O  O28  1  0.91352347  0.61323342  0.96152953  1.0
  O  O29  1  0.41352347  0.88676658  0.03847047  1.0
  O  O30  1  0.08647653  0.38676658  0.96152953  1.0
  O  O31  1  0.58647653  0.11323342  0.03847047  1.0
  O  O32  1  0.50000000  0.50000000  0.80512127  1.0
  O  O33  1  0.00000000  0.00000000  0.19487873  1.0
