# generated using pymatgen
data_MgP2(H8O5)2
_symmetry_space_group_name_H-M   'P 1'
_cell_length_a   7.28965590
_cell_length_b   7.28965590
_cell_length_c   10.55018571
_cell_angle_alpha   90.00000000
_cell_angle_beta   90.00000000
_cell_angle_gamma   90.00000000
_symmetry_Int_Tables_number   1
_chemical_formula_structural   MgP2(H8O5)2
_chemical_formula_sum   'Mg2 P4 H32 O20'
_cell_volume   560.62719609
_cell_formula_units_Z   2
loop_
 _symmetry_equiv_pos_site_id
 _symmetry_equiv_pos_as_xyz
  1  'x, y, z'
loop_
 _atom_site_type_symbol
 _atom_site_label
 _atom_site_symmetry_multiplicity
 _atom_site_fract_x
 _atom_site_fract_y
 _atom_site_fract_z
 _atom_site_occupancy
  Mg  Mg0  1  0.50000000  0.50000000  0.00000000  1.0
  Mg  Mg1  1  0.00000000  0.00000000  0.50000000  1.0
  P  P2  1  0.00000000  0.50000000  0.73652212  1.0
  P  P3  1  0.00000000  0.50000000  0.23652212  1.0
  P  P4  1  0.50000000  0.00000000  0.76347788  1.0
  P  P5  1  0.50000000  0.00000000  0.26347788  1.0
  H  H6  1  0.50000000  0.61085820  0.25156527  1.0
  H  H7  1  0.50000000  0.38914180  0.25156527  1.0
  H  H8  1  0.11085820  0.00000000  0.75156527  1.0
  H  H9  1  0.88914180  0.00000000  0.75156527  1.0
  H  H10  1  0.00000000  0.88914180  0.24843473  1.0
  H  H11  1  0.00000000  0.11085820  0.24843473  1.0
  H  H12  1  0.38914180  0.50000000  0.74843473  1.0
  H  H13  1  0.61085820  0.50000000  0.74843473  1.0
  H  H14  1  0.18730347  0.29671793  0.05523757  1.0
  H  H15  1  0.81269653  0.29671793  0.05523757  1.0
  H  H16  1  0.18730347  0.70328207  0.05523757  1.0
  H  H17  1  0.81269653  0.70328207  0.05523757  1.0
  H  H18  1  0.79671793  0.68730347  0.55523757  1.0
  H  H19  1  0.20328207  0.68730347  0.55523757  1.0
  H  H20  1  0.79671793  0.31269653  0.55523757  1.0
  H  H21  1  0.20328207  0.31269653  0.55523757  1.0
  H  H22  1  0.31269653  0.20328207  0.44476243  1.0
  H  H23  1  0.68730347  0.20328207  0.44476243  1.0
  H  H24  1  0.31269653  0.79671793  0.44476243  1.0
  H  H25  1  0.68730347  0.79671793  0.44476243  1.0
  H  H26  1  0.70328207  0.81269653  0.94476243  1.0
  H  H27  1  0.29671793  0.81269653  0.94476243  1.0
  H  H28  1  0.70328207  0.18730347  0.94476243  1.0
  H  H29  1  0.29671793  0.18730347  0.94476243  1.0
  H  H30  1  0.00000000  0.34663070  0.81880302  1.0
  H  H31  1  0.00000000  0.65336930  0.81880302  1.0
  H  H32  1  0.84663070  0.50000000  0.31880302  1.0
  H  H33  1  0.15336930  0.50000000  0.31880302  1.0
  H  H34  1  0.50000000  0.15336930  0.68119698  1.0
  H  H35  1  0.50000000  0.84663070  0.68119698  1.0
  H  H36  1  0.65336930  0.00000000  0.18119698  1.0
  H  H37  1  0.34663070  0.00000000  0.18119698  1.0
  O  O38  1  0.17955402  0.50000000  0.65937724  1.0
  O  O39  1  0.82044598  0.50000000  0.65937724  1.0
  O  O40  1  0.00000000  0.67955402  0.15937724  1.0
  O  O41  1  0.00000000  0.32044598  0.15937724  1.0
  O  O42  1  0.32044598  0.00000000  0.84062276  1.0
  O  O43  1  0.67955402  0.00000000  0.84062276  1.0
  O  O44  1  0.50000000  0.82044598  0.34062276  1.0
  O  O45  1  0.50000000  0.17955402  0.34062276  1.0
  O  O46  1  0.50000000  0.50000000  0.19746930  1.0
  O  O47  1  0.00000000  0.00000000  0.69746930  1.0
  O  O48  1  0.00000000  0.00000000  0.30253070  1.0
  O  O49  1  0.50000000  0.50000000  0.80253070  1.0
  O  O50  1  0.29729360  0.29729360  -0.00000000  1.0
  O  O51  1  0.70270640  0.29729360  0.00000000  1.0
  O  O52  1  0.29729360  0.70270640  0.00000000  1.0
  O  O53  1  0.70270640  0.70270640  -0.00000000  1.0
  O  O54  1  0.79729360  0.79729360  0.50000000  1.0
  O  O55  1  0.20270640  0.79729360  0.50000000  1.0
  O  O56  1  0.79729360  0.20270640  0.50000000  1.0
  O  O57  1  0.20270640  0.20270640  0.50000000  1.0
