# generated using pymatgen
data_V4As3
_symmetry_space_group_name_H-M   'P 1'
_cell_length_a   7.10417002
_cell_length_b   7.10417002
_cell_length_c   17.77717521
_cell_angle_alpha   90.00000000
_cell_angle_beta   90.00000000
_cell_angle_gamma   152.41774579
_symmetry_Int_Tables_number   1
_chemical_formula_structural   V4As3
_chemical_formula_sum   'V16 As12'
_cell_volume   415.42309549
_cell_formula_units_Z   4
loop_
 _symmetry_equiv_pos_site_id
 _symmetry_equiv_pos_as_xyz
  1  'x, y, z'
loop_
 _atom_site_type_symbol
 _atom_site_label
 _atom_site_symmetry_multiplicity
 _atom_site_fract_x
 _atom_site_fract_y
 _atom_site_fract_z
 _atom_site_occupancy
  V  V0  1  0.00000000  0.00000000  -0.00000000  1.0
  V  V1  1  0.00000000  0.00000000  0.50000000  1.0
  V  V2  1  0.26657193  0.73342807  0.83911590  1.0
  V  V3  1  0.26657193  0.73342807  0.66088410  1.0
  V  V4  1  -0.26657193  0.26657193  0.33911590  1.0
  V  V5  1  -0.26657193  0.26657193  0.16088410  1.0
  V  V6  1  0.33071501  0.66928499  0.47381442  1.0
  V  V7  1  0.33071501  0.66928499  0.02618558  1.0
  V  V8  1  -0.33071501  0.33071501  0.97381442  1.0
  V  V9  1  -0.33071501  0.33071501  0.52618558  1.0
  V  V10  1  0.46836501  0.53163499  0.88422016  1.0
  V  V11  1  0.46836501  0.53163499  0.61577984  1.0
  V  V12  1  -0.46836501  0.46836501  0.38422016  1.0
  V  V13  1  -0.46836501  0.46836501  0.11577984  1.0
  V  V14  1  0.05934771  0.94065229  0.75000000  1.0
  V  V15  1  -0.05934771  0.05934771  0.25000000  1.0
  As  As16  1  0.10032956  0.89967044  0.88342663  1.0
  As  As17  1  0.10032956  0.89967044  0.61657337  1.0
  As  As18  1  -0.10032956  0.10032956  0.38342663  1.0
  As  As19  1  -0.10032956  0.10032956  0.11657337  1.0
  As  As20  1  0.15683888  0.84316112  0.42262033  1.0
  As  As21  1  0.15683888  0.84316112  0.07737967  1.0
  As  As22  1  -0.15683888  0.15683888  0.92262033  1.0
  As  As23  1  -0.15683888  0.15683888  0.57737967  1.0
  As  As24  1  0.41952733  0.58047267  0.75000000  1.0
  As  As25  1  -0.41952733  0.41952733  0.25000000  1.0
  As  As26  1  -0.30195356  0.30195356  0.75000000  1.0
  As  As27  1  0.30195356  0.69804644  0.25000000  1.0
