# generated using pymatgen
data_Ba2Zn3F10
_symmetry_space_group_name_H-M   'P 1'
_cell_length_a   9.94334244
_cell_length_b   9.94334244
_cell_length_c   8.00390566
_cell_angle_alpha   69.77655426
_cell_angle_beta   110.22344574
_cell_angle_gamma   144.23479439
_symmetry_Int_Tables_number   1
_chemical_formula_structural   Ba2Zn3F10
_chemical_formula_sum   'Ba4 Zn6 F20'
_cell_volume   430.92433086
_cell_formula_units_Z   2
loop_
 _symmetry_equiv_pos_site_id
 _symmetry_equiv_pos_as_xyz
  1  'x, y, z'
loop_
 _atom_site_type_symbol
 _atom_site_label
 _atom_site_symmetry_multiplicity
 _atom_site_fract_x
 _atom_site_fract_y
 _atom_site_fract_z
 _atom_site_occupancy
  Ba  Ba0  1  0.71853972  -0.71853972  0.31346284  1.0
  Ba  Ba1  1  1.28146028  -0.28146028  0.68653716  1.0
  Ba  Ba2  1  0.61526764  -0.61526764  0.72022679  1.0
  Ba  Ba3  1  1.38473236  -0.38473236  0.27977321  1.0
  Zn  Zn4  1  0.92521299  -0.92521299  0.54697245  1.0
  Zn  Zn5  1  1.07478701  -0.07478701  0.45302755  1.0
  Zn  Zn6  1  0.82350515  -0.82350515  0.97979023  1.0
  Zn  Zn7  1  1.17649485  -0.17649485  0.02020977  1.0
  Zn  Zn8  1  0.74289488  0.74289488  -0.00000000  1.0
  Zn  Zn9  1  0.25710512  0.25710512  -0.00000000  1.0
  F  F10  1  1.62290830  -0.15179511  0.96918424  1.0
  F  F11  1  1.15179511  -0.62290830  0.96918424  1.0
  F  F12  1  0.84820489  -0.37709170  0.03081576  1.0
  F  F13  1  1.37709170  0.15179511  0.03081576  1.0
  F  F14  1  1.60911325  -0.09004250  0.52294524  1.0
  F  F15  1  1.09004250  -0.60911325  0.52294524  1.0
  F  F16  1  0.90995750  -0.39088675  0.47705476  1.0
  F  F17  1  1.39088675  0.09004250  0.47705476  1.0
  F  F18  1  0.97885361  -0.97885361  0.81870797  1.0
  F  F19  1  1.02114639  -0.02114639  0.18129203  1.0
  F  F20  1  0.86372315  -0.86372315  0.25256658  1.0
  F  F21  1  1.13627685  -0.13627685  0.74743342  1.0
  F  F22  1  0.76210226  -0.76210226  0.71750015  1.0
  F  F23  1  1.23789774  -0.23789774  0.28249985  1.0
  F  F24  1  1.48593266  -0.48593266  0.81538385  1.0
  F  F25  1  0.51406734  -0.51406734  0.18461615  1.0
  F  F26  1  0.77594909  0.77594909  0.50000000  1.0
  F  F27  1  0.22405091  0.22405091  0.50000000  1.0
  F  F28  1  1.50000000  -0.00000000  0.00000000  1.0
  F  F29  1  1.00000000  -0.50000000  0.00000000  1.0
