# generated using pymatgen
data_CdI2
_symmetry_space_group_name_H-M   'P 1'
_cell_length_a   4.32781111
_cell_length_b   4.32781111
_cell_length_c   75.88246124
_cell_angle_alpha   90.00000000
_cell_angle_beta   90.00000000
_cell_angle_gamma   120.00000000
_symmetry_Int_Tables_number   1
_chemical_formula_structural   CdI2
_chemical_formula_sum   'Cd10 I20'
_cell_volume   1230.85993310
_cell_formula_units_Z   10
loop_
 _symmetry_equiv_pos_site_id
 _symmetry_equiv_pos_as_xyz
  1  'x, y, z'
loop_
 _atom_site_type_symbol
 _atom_site_label
 _atom_site_symmetry_multiplicity
 _atom_site_fract_x
 _atom_site_fract_y
 _atom_site_fract_z
 _atom_site_occupancy
  Cd  Cd0  1  0.00000000  0.00000000  0.02499733  1.0
  Cd  Cd1  1  0.00000000  0.00000000  0.22499709  1.0
  Cd  Cd2  1  0.00000000  0.00000000  0.42499698  1.0
  Cd  Cd3  1  0.00000000  0.00000000  0.62499855  1.0
  Cd  Cd4  1  0.00000000  0.00000000  0.82500106  1.0
  Cd  Cd5  1  0.66666667  0.33333333  0.12499864  1.0
  Cd  Cd6  1  0.66666667  0.33333333  0.32499759  1.0
  Cd  Cd7  1  0.66666667  0.33333333  0.52499824  1.0
  Cd  Cd8  1  0.33333333  0.66666667  0.72499881  1.0
  Cd  Cd9  1  0.33333333  0.66666667  0.92499837  1.0
  I  I10  1  0.00000000  0.00000000  0.14765926  1.0
  I  I11  1  0.00000000  0.00000000  0.34765797  1.0
  I  I12  1  0.00000000  0.00000000  0.54765837  1.0
  I  I13  1  0.00000000  0.00000000  0.70234254  1.0
  I  I14  1  0.00000000  0.00000000  0.90234194  1.0
  I  I15  1  0.66666667  0.33333333  0.04765963  1.0
  I  I16  1  0.66666667  0.33333333  0.24765732  1.0
  I  I17  1  0.66666667  0.33333333  0.44765724  1.0
  I  I18  1  0.66666667  0.33333333  0.64765201  1.0
  I  I19  1  0.66666667  0.33333333  0.74765337  1.0
  I  I20  1  0.66666667  0.33333333  0.84765629  1.0
  I  I21  1  0.66666667  0.33333333  0.94765386  1.0
  I  I22  1  0.33333333  0.66666667  0.00233884  1.0
  I  I23  1  0.33333333  0.66666667  0.10234743  1.0
  I  I24  1  0.33333333  0.66666667  0.20234630  1.0
  I  I25  1  0.33333333  0.66666667  0.30234690  1.0
  I  I26  1  0.33333333  0.66666667  0.40234632  1.0
  I  I27  1  0.33333333  0.66666667  0.50234767  1.0
  I  I28  1  0.33333333  0.66666667  0.60234881  1.0
  I  I29  1  0.33333333  0.66666667  0.80234529  1.0
