# generated using pymatgen
data_MgO
_symmetry_space_group_name_H-M   'P 1'
_cell_length_a   12.88993361
_cell_length_b   12.88993361
_cell_length_c   7.57247358
_cell_angle_alpha   85.97355833
_cell_angle_beta   94.02644167
_cell_angle_gamma   164.54629268
_symmetry_Int_Tables_number   1
_chemical_formula_structural   MgO
_chemical_formula_sum   'Mg12 O12'
_cell_volume   334.40872955
_cell_formula_units_Z   12
loop_
 _symmetry_equiv_pos_site_id
 _symmetry_equiv_pos_as_xyz
  1  'x, y, z'
loop_
 _atom_site_type_symbol
 _atom_site_label
 _atom_site_symmetry_multiplicity
 _atom_site_fract_x
 _atom_site_fract_y
 _atom_site_fract_z
 _atom_site_occupancy
  Mg  Mg0  1  0.96784274  0.03215726  0.84556438  1.0
  Mg  Mg1  1  0.68632182  0.31367818  0.92496057  1.0
  Mg  Mg2  1  0.85183270  0.14816730  0.46493357  1.0
  Mg  Mg3  1  0.71404286  0.28595714  0.37128868  1.0
  Mg  Mg4  1  0.55120946  0.44879054  0.55750963  1.0
  Mg  Mg5  1  0.01205194  -0.01205194  0.26119738  1.0
  Mg  Mg6  1  0.12774642  -0.12774642  0.24750213  1.0
  Mg  Mg7  1  0.42246320  -0.42246320  0.18232482  1.0
  Mg  Mg8  1  0.25596157  -0.25596157  0.63901448  1.0
  Mg  Mg9  1  0.43661885  -0.43661885  0.55719583  1.0
  Mg  Mg10  1  0.14111918  -0.14111918  0.64950951  1.0
  Mg  Mg11  1  0.56717516  0.43282484  0.94410809  1.0
  O  O12  1  0.50297925  0.49702075  0.76724602  1.0
  O  O13  1  0.77940755  0.22059245  0.54133311  1.0
  O  O14  1  0.61839747  0.38160253  0.75547034  1.0
  O  O15  1  0.91337804  0.08662196  0.64703410  1.0
  O  O16  1  0.94389437  0.05610563  0.08473761  1.0
  O  O17  1  0.66195440  0.33804560  0.16415350  1.0
  O  O18  1  0.21101929  -0.21101929  0.83713676  1.0
  O  O19  1  0.07864437  -0.07864437  0.45755175  1.0
  O  O20  1  0.37149996  -0.37149996  0.36181197  1.0
  O  O21  1  0.06314220  -0.06314220  0.07084371  1.0
  O  O22  1  0.19089103  -0.19089103  0.45708185  1.0
  O  O23  1  0.48859616  -0.48859616  0.36795019  1.0
