# generated using pymatgen
data_Na3GdBr6
_symmetry_space_group_name_H-M   'P 1'
_cell_length_a   7.34447157
_cell_length_b   7.80867015
_cell_length_c   13.07996282
_cell_angle_alpha   90.00000000
_cell_angle_beta   123.38402069
_cell_angle_gamma   90.00000000
_symmetry_Int_Tables_number   1
_chemical_formula_structural   Na3GdBr6
_chemical_formula_sum   'Na6 Gd2 Br12'
_cell_volume   626.37053790
_cell_formula_units_Z   2
loop_
 _symmetry_equiv_pos_site_id
 _symmetry_equiv_pos_as_xyz
  1  'x, y, z'
loop_
 _atom_site_type_symbol
 _atom_site_label
 _atom_site_symmetry_multiplicity
 _atom_site_fract_x
 _atom_site_fract_y
 _atom_site_fract_z
 _atom_site_occupancy
  Na  Na0  1  0.70628457  0.08078632  0.23362745  1.0
  Na  Na1  1  0.70628457  0.41921368  0.73362745  1.0
  Na  Na2  1  0.29371543  0.58078632  0.26637255  1.0
  Na  Na3  1  0.29371543  0.91921368  0.76637255  1.0
  Na  Na4  1  0.50000000  0.50000000  -0.00000000  1.0
  Na  Na5  1  0.50000000  0.00000000  0.50000000  1.0
  Gd  Gd6  1  -0.00000000  0.50000000  0.50000000  1.0
  Gd  Gd7  1  0.00000000  0.00000000  0.00000000  1.0
  Br  Br8  1  0.90623558  0.42996912  0.26142294  1.0
  Br  Br9  1  0.90623558  0.07003088  0.76142294  1.0
  Br  Br10  1  0.09376442  0.92996912  0.23857706  1.0
  Br  Br11  1  0.09376442  0.57003088  0.73857706  1.0
  Br  Br12  1  0.74341990  0.80429896  0.41486058  1.0
  Br  Br13  1  0.74341990  0.69570104  0.91486058  1.0
  Br  Br14  1  0.25658010  0.30429896  0.08513942  1.0
  Br  Br15  1  0.25658010  0.19570104  0.58513942  1.0
  Br  Br16  1  0.61917721  0.31838882  0.43611510  1.0
  Br  Br17  1  0.61917721  0.18161118  0.93611510  1.0
  Br  Br18  1  0.38082279  0.81838882  0.06388490  1.0
  Br  Br19  1  0.38082279  0.68161118  0.56388490  1.0
