# generated using pymatgen
data_BaBOF3
_symmetry_space_group_name_H-M   'P 1'
_cell_length_a   9.34423518
_cell_length_b   5.17258369
_cell_length_c   6.94473186
_cell_angle_alpha   90.00000000
_cell_angle_beta   90.00000000
_cell_angle_gamma   90.00000000
_symmetry_Int_Tables_number   1
_chemical_formula_structural   BaBOF3
_chemical_formula_sum   'Ba4 B4 O4 F12'
_cell_volume   335.66554780
_cell_formula_units_Z   4
loop_
 _symmetry_equiv_pos_site_id
 _symmetry_equiv_pos_as_xyz
  1  'x, y, z'
loop_
 _atom_site_type_symbol
 _atom_site_label
 _atom_site_symmetry_multiplicity
 _atom_site_fract_x
 _atom_site_fract_y
 _atom_site_fract_z
 _atom_site_occupancy
  Ba  Ba0  1  0.30823924  0.75000000  0.17752496  1.0
  Ba  Ba1  1  0.80823924  0.75000000  0.32247504  1.0
  Ba  Ba2  1  0.69176076  0.25000000  0.82247504  1.0
  Ba  Ba3  1  0.19176076  0.25000000  0.67752496  1.0
  B  B4  1  0.42093536  0.75000000  0.67579494  1.0
  B  B5  1  0.92093536  0.75000000  0.82420506  1.0
  B  B6  1  0.57906464  0.25000000  0.32420506  1.0
  B  B7  1  0.07906464  0.25000000  0.17579494  1.0
  O  O8  1  0.30325082  0.75000000  0.56347913  1.0
  O  O9  1  0.80325082  0.75000000  0.93652087  1.0
  O  O10  1  0.69674918  0.25000000  0.43652087  1.0
  O  O11  1  0.19674918  0.25000000  0.06347913  1.0
  F  F12  1  0.42813811  0.97378670  0.81526287  1.0
  F  F13  1  0.42813811  0.52621330  0.81526287  1.0
  F  F14  1  0.92813811  0.97378670  0.68473713  1.0
  F  F15  1  0.92813811  0.52621330  0.68473713  1.0
  F  F16  1  0.57186189  0.47378670  0.18473713  1.0
  F  F17  1  0.57186189  0.02621330  0.18473713  1.0
  F  F18  1  0.07186189  0.47378670  0.31526287  1.0
  F  F19  1  0.07186189  0.02621330  0.31526287  1.0
  F  F20  1  0.06263741  0.75000000  0.91068108  1.0
  F  F21  1  0.56263741  0.75000000  0.58931892  1.0
  F  F22  1  0.93736259  0.25000000  0.08931892  1.0
  F  F23  1  0.43736259  0.25000000  0.41068108  1.0
