# generated using pymatgen
data_Nb2Co4O9
_symmetry_space_group_name_H-M   'P 1'
_cell_length_a   5.10734498
_cell_length_b   5.10734498
_cell_length_c   14.33531933
_cell_angle_alpha   90.00000000
_cell_angle_beta   90.00000000
_cell_angle_gamma   120.00000000
_symmetry_Int_Tables_number   1
_chemical_formula_structural   Nb2Co4O9
_chemical_formula_sum   'Nb4 Co8 O18'
_cell_volume   323.83843433
_cell_formula_units_Z   2
loop_
 _symmetry_equiv_pos_site_id
 _symmetry_equiv_pos_as_xyz
  1  'x, y, z'
loop_
 _atom_site_type_symbol
 _atom_site_label
 _atom_site_symmetry_multiplicity
 _atom_site_fract_x
 _atom_site_fract_y
 _atom_site_fract_z
 _atom_site_occupancy
  Nb  Nb0  1  0.00000000  0.00000000  0.14414121  1.0
  Nb  Nb1  1  0.00000000  0.00000000  0.64414121  1.0
  Nb  Nb2  1  0.00000000  0.00000000  0.35585879  1.0
  Nb  Nb3  1  0.00000000  0.00000000  0.85585879  1.0
  Co  Co4  1  0.33333333  0.66666667  0.00756664  1.0
  Co  Co5  1  0.33333333  0.66666667  0.50756664  1.0
  Co  Co6  1  0.66666667  0.33333333  0.49243336  1.0
  Co  Co7  1  0.66666667  0.33333333  0.99243336  1.0
  Co  Co8  1  0.33333333  0.66666667  0.31369109  1.0
  Co  Co9  1  0.33333333  0.66666667  0.81369109  1.0
  Co  Co10  1  0.66666667  0.33333333  0.18630891  1.0
  Co  Co11  1  0.66666667  0.33333333  0.68630891  1.0
  O  O12  1  0.98691001  0.66029746  0.08276138  1.0
  O  O13  1  0.98691001  0.32661254  0.58276138  1.0
  O  O14  1  0.66029746  0.98691001  0.41723862  1.0
  O  O15  1  0.66029746  0.67338746  0.91723862  1.0
  O  O16  1  0.67338746  0.66029746  0.58276138  1.0
  O  O17  1  0.67338746  0.01308999  0.08276138  1.0
  O  O18  1  0.33970254  0.01308999  0.58276138  1.0
  O  O19  1  0.33970254  0.32661254  0.08276138  1.0
  O  O20  1  0.01308999  0.67338746  0.41723862  1.0
  O  O21  1  0.01308999  0.33970254  0.91723862  1.0
  O  O22  1  0.32661254  0.98691001  0.91723862  1.0
  O  O23  1  0.32661254  0.33970254  0.41723862  1.0
  O  O24  1  0.70150314  0.70150314  0.25000000  1.0
  O  O25  1  0.70150314  0.00000000  0.75000000  1.0
  O  O26  1  -0.00000000  0.70150314  0.75000000  1.0
  O  O27  1  0.00000000  0.29849686  0.25000000  1.0
  O  O28  1  0.29849686  0.29849686  0.75000000  1.0
  O  O29  1  0.29849686  0.00000000  0.25000000  1.0
