# generated using pymatgen
data_Sc5Ru3
_symmetry_space_group_name_H-M   'P 1'
_cell_length_a   7.75051892
_cell_length_b   7.75051892
_cell_length_c   5.85690979
_cell_angle_alpha   90.00000000
_cell_angle_beta   90.00000000
_cell_angle_gamma   120.00000000
_symmetry_Int_Tables_number   1
_chemical_formula_structural   Sc5Ru3
_chemical_formula_sum   'Sc10 Ru6'
_cell_volume   304.69177348
_cell_formula_units_Z   2
loop_
 _symmetry_equiv_pos_site_id
 _symmetry_equiv_pos_as_xyz
  1  'x, y, z'
loop_
 _atom_site_type_symbol
 _atom_site_label
 _atom_site_symmetry_multiplicity
 _atom_site_fract_x
 _atom_site_fract_y
 _atom_site_fract_z
 _atom_site_occupancy
  Sc  Sc0  1  0.74125001  0.74125001  0.25000000  1.0
  Sc  Sc1  1  0.74125001  -0.00000000  0.75000000  1.0
  Sc  Sc2  1  -0.00000000  0.74125001  0.75000000  1.0
  Sc  Sc3  1  -0.00000000  0.25874999  0.25000000  1.0
  Sc  Sc4  1  0.25874999  0.25874999  0.75000000  1.0
  Sc  Sc5  1  0.25874999  0.00000000  0.25000000  1.0
  Sc  Sc6  1  0.33333333  0.66666667  0.50000000  1.0
  Sc  Sc7  1  0.33333333  0.66666667  0.00000000  1.0
  Sc  Sc8  1  0.66666667  0.33333333  0.50000000  1.0
  Sc  Sc9  1  0.66666667  0.33333333  0.00000000  1.0
  Ru  Ru10  1  0.39681038  0.39681038  0.25000000  1.0
  Ru  Ru11  1  0.39681038  -0.00000000  0.75000000  1.0
  Ru  Ru12  1  0.00000000  0.39681038  0.75000000  1.0
  Ru  Ru13  1  0.00000000  0.60318962  0.25000000  1.0
  Ru  Ru14  1  0.60318962  0.60318962  0.75000000  1.0
  Ru  Ru15  1  0.60318962  0.00000000  0.25000000  1.0
