# generated using pymatgen
data_TaF5
_symmetry_space_group_name_H-M   'P 1'
_cell_length_a   9.06315681
_cell_length_b   9.06315681
_cell_length_c   5.51485917
_cell_angle_alpha   87.83127840
_cell_angle_beta   92.16872160
_cell_angle_gamma   67.86797559
_symmetry_Int_Tables_number   1
_chemical_formula_structural   TaF5
_chemical_formula_sum   'Ta4 F20'
_cell_volume   418.65226937
_cell_formula_units_Z   4
loop_
 _symmetry_equiv_pos_site_id
 _symmetry_equiv_pos_as_xyz
  1  'x, y, z'
loop_
 _atom_site_type_symbol
 _atom_site_label
 _atom_site_symmetry_multiplicity
 _atom_site_fract_x
 _atom_site_fract_y
 _atom_site_fract_z
 _atom_site_occupancy
  Ta  Ta0  1  0.74688716  -0.74688716  0.73985454  1.0
  Ta  Ta1  1  0.25311284  -0.25311284  0.26014546  1.0
  Ta  Ta2  1  0.80357711  -0.19642289  0.50000000  1.0
  Ta  Ta3  1  1.19642289  0.19642289  0.50000000  1.0
  F  F4  1  1.78838888  0.02561600  0.61655976  1.0
  F  F5  1  0.97438400  -0.78838888  0.61655976  1.0
  F  F6  1  1.02561600  0.78838888  0.38344024  1.0
  F  F7  1  0.21161112  -0.02561600  0.38344024  1.0
  F  F8  1  0.60533450  -0.16216586  0.61972183  1.0
  F  F9  1  1.16216586  0.39466550  0.61972183  1.0
  F  F10  1  0.83783414  -0.39466550  0.38027817  1.0
  F  F11  1  1.39466550  0.16216586  0.38027817  1.0
  F  F12  1  1.54777440  0.26723042  0.83370109  1.0
  F  F13  1  0.73276958  -0.54777440  0.83370109  1.0
  F  F14  1  1.26723042  0.54777440  0.16629891  1.0
  F  F15  1  0.45222560  -0.26723042  0.16629891  1.0
  F  F16  1  1.27524936  0.08018849  0.79850354  1.0
  F  F17  1  0.91981151  -0.27524936  0.79850354  1.0
  F  F18  1  1.08018849  0.27524936  0.20149646  1.0
  F  F19  1  0.72475064  -0.08018849  0.20149646  1.0
  F  F20  1  0.86315114  -0.86315114  0.01928126  1.0
  F  F21  1  0.13684886  -0.13684886  0.98071874  1.0
  F  F22  1  0.68083669  -0.68083669  0.41137368  1.0
  F  F23  1  0.31916331  -0.31916331  0.58862632  1.0
