# generated using pymatgen
data_Sc5Si4
_symmetry_space_group_name_H-M   'P 1'
_cell_length_a   6.92406023
_cell_length_b   13.65614302
_cell_length_c   7.22367792
_cell_angle_alpha   90.00000000
_cell_angle_beta   90.00000000
_cell_angle_gamma   90.00000000
_symmetry_Int_Tables_number   1
_chemical_formula_structural   Sc5Si4
_chemical_formula_sum   'Sc20 Si16'
_cell_volume   683.04177689
_cell_formula_units_Z   4
loop_
 _symmetry_equiv_pos_site_id
 _symmetry_equiv_pos_as_xyz
  1  'x, y, z'
loop_
 _atom_site_type_symbol
 _atom_site_label
 _atom_site_symmetry_multiplicity
 _atom_site_fract_x
 _atom_site_fract_y
 _atom_site_fract_z
 _atom_site_occupancy
  Sc  Sc0  1  0.51439989  0.40329040  0.18021556  1.0
  Sc  Sc1  1  0.51439989  0.09670960  0.18021556  1.0
  Sc  Sc2  1  1.01439989  0.40329040  0.31978444  1.0
  Sc  Sc3  1  1.01439989  0.09670960  0.31978444  1.0
  Sc  Sc4  1  0.48560011  0.90329040  0.81978444  1.0
  Sc  Sc5  1  0.48560011  0.59670960  0.81978444  1.0
  Sc  Sc6  1  -0.01439989  0.90329040  0.68021556  1.0
  Sc  Sc7  1  -0.01439989  0.59670960  0.68021556  1.0
  Sc  Sc8  1  0.17133866  0.37474450  0.82313179  1.0
  Sc  Sc9  1  0.17133866  0.12525550  0.82313179  1.0
  Sc  Sc10  1  0.67133866  0.37474450  0.67686821  1.0
  Sc  Sc11  1  0.67133866  0.12525550  0.67686821  1.0
  Sc  Sc12  1  0.82866134  0.87474450  0.17686821  1.0
  Sc  Sc13  1  0.82866134  0.62525550  0.17686821  1.0
  Sc  Sc14  1  0.32866134  0.87474450  0.32313179  1.0
  Sc  Sc15  1  0.32866134  0.62525550  0.32313179  1.0
  Sc  Sc16  1  0.34091685  0.25000000  0.49401667  1.0
  Sc  Sc17  1  0.84091685  0.25000000  1.00598333  1.0
  Sc  Sc18  1  0.65908315  0.75000000  0.50598333  1.0
  Sc  Sc19  1  0.15908315  0.75000000  -0.00598333  1.0
  Si  Si20  1  0.33959018  0.46115572  0.53167598  1.0
  Si  Si21  1  0.33959018  0.03884428  0.53167598  1.0
  Si  Si22  1  0.83959018  0.46115572  0.96832402  1.0
  Si  Si23  1  0.83959018  0.03884428  0.96832402  1.0
  Si  Si24  1  0.66040982  0.96115572  0.46832402  1.0
  Si  Si25  1  0.66040982  0.53884428  0.46832402  1.0
  Si  Si26  1  0.16040982  0.96115572  0.03167598  1.0
  Si  Si27  1  0.16040982  0.53884428  0.03167598  1.0
  Si  Si28  1  0.47035629  0.25000000  0.89595005  1.0
  Si  Si29  1  0.97035629  0.25000000  0.60404995  1.0
  Si  Si30  1  0.52964371  0.75000000  0.10404995  1.0
  Si  Si31  1  0.02964371  0.75000000  0.39595005  1.0
  Si  Si32  1  0.21725834  0.25000000  0.13532193  1.0
  Si  Si33  1  0.71725834  0.25000000  0.36467807  1.0
  Si  Si34  1  0.78274166  0.75000000  0.86467807  1.0
  Si  Si35  1  0.28274166  0.75000000  0.63532193  1.0
