# generated using pymatgen
data_K3Sb7(SO3)3
_symmetry_space_group_name_H-M   'P 1'
_cell_length_a   14.66747886
_cell_length_b   14.66747886
_cell_length_c   5.73685434
_cell_angle_alpha   90.00000000
_cell_angle_beta   90.00000000
_cell_angle_gamma   120.00000000
_symmetry_Int_Tables_number   1
_chemical_formula_structural   K3Sb7(SO3)3
_chemical_formula_sum   'K6 Sb14 S6 O18'
_cell_volume   1068.84664138
_cell_formula_units_Z   2
loop_
 _symmetry_equiv_pos_site_id
 _symmetry_equiv_pos_as_xyz
  1  'x, y, z'
loop_
 _atom_site_type_symbol
 _atom_site_label
 _atom_site_symmetry_multiplicity
 _atom_site_fract_x
 _atom_site_fract_y
 _atom_site_fract_z
 _atom_site_occupancy
  K  K0  1  0.09651717  0.80255481  0.10250832  1.0
  K  K1  1  0.80255481  0.70603764  0.60250832  1.0
  K  K2  1  0.70603764  0.90348283  0.10250832  1.0
  K  K3  1  0.19744519  0.29396236  0.10250832  1.0
  K  K4  1  0.90348283  0.19744519  0.60250832  1.0
  K  K5  1  0.29396236  0.09651717  0.60250832  1.0
  Sb  Sb6  1  0.61066573  0.60666747  0.10853093  1.0
  Sb  Sb7  1  0.60666747  0.99600174  0.60853093  1.0
  Sb  Sb8  1  0.99600174  0.38933427  0.10853093  1.0
  Sb  Sb9  1  0.39333253  0.00399826  0.10853093  1.0
  Sb  Sb10  1  0.38933427  0.39333253  0.60853093  1.0
  Sb  Sb11  1  0.00399826  0.61066573  0.60853093  1.0
  Sb  Sb12  1  0.82265483  0.55232993  0.09527226  1.0
  Sb  Sb13  1  0.55232993  0.72967510  0.59527226  1.0
  Sb  Sb14  1  0.72967510  0.17734517  0.09527226  1.0
  Sb  Sb15  1  0.44767007  0.27032490  0.09527226  1.0
  Sb  Sb16  1  0.17734517  0.44767007  0.59527226  1.0
  Sb  Sb17  1  0.27032490  0.82265483  0.59527226  1.0
  Sb  Sb18  1  0.33333333  0.66666667  0.02512899  1.0
  Sb  Sb19  1  0.66666667  0.33333333  0.52512899  1.0
  S  S20  1  0.16826791  0.63226383  0.20795209  1.0
  S  S21  1  0.63226383  0.46399592  0.70795209  1.0
  S  S22  1  0.46399592  0.83173209  0.20795209  1.0
  S  S23  1  0.36773617  0.53600408  0.20795209  1.0
  S  S24  1  0.83173209  0.36773617  0.70795209  1.0
  S  S25  1  0.53600408  0.16826791  0.70795209  1.0
  O  O26  1  0.28011772  0.92575525  0.35341300  1.0
  O  O27  1  0.92575525  0.64563753  0.85341300  1.0
  O  O28  1  0.64563753  0.71988228  0.35341300  1.0
  O  O29  1  0.07424475  0.35436247  0.35341300  1.0
  O  O30  1  0.71988228  0.07424475  0.85341300  1.0
  O  O31  1  0.35436247  0.28011772  0.85341300  1.0
  O  O32  1  0.76755918  0.65290726  0.12329772  1.0
  O  O33  1  0.65290726  0.88534809  0.62329772  1.0
  O  O34  1  0.88534809  0.23244082  0.12329772  1.0
  O  O35  1  0.34709274  0.11465191  0.12329772  1.0
  O  O36  1  0.23244082  0.34709274  0.62329772  1.0
  O  O37  1  0.11465191  0.76755918  0.62329772  1.0
  O  O38  1  0.92882116  0.63891407  0.35294935  1.0
  O  O39  1  0.63891407  0.71009291  0.85294935  1.0
  O  O40  1  0.71009291  0.07117884  0.35294935  1.0
  O  O41  1  0.36108593  0.28990709  0.35294935  1.0
  O  O42  1  0.07117884  0.36108593  0.85294935  1.0
  O  O43  1  0.28990709  0.92882116  0.85294935  1.0
