# generated using pymatgen
data_Cr2WO6
_symmetry_space_group_name_H-M   'P 1'
_cell_length_a   4.61588998
_cell_length_b   4.61588998
_cell_length_c   8.91375571
_cell_angle_alpha   90.00000000
_cell_angle_beta   90.00000000
_cell_angle_gamma   90.00000000
_symmetry_Int_Tables_number   1
_chemical_formula_structural   Cr2WO6
_chemical_formula_sum   'Cr4 W2 O12'
_cell_volume   189.92040434
_cell_formula_units_Z   2
loop_
 _symmetry_equiv_pos_site_id
 _symmetry_equiv_pos_as_xyz
  1  'x, y, z'
loop_
 _atom_site_type_symbol
 _atom_site_label
 _atom_site_symmetry_multiplicity
 _atom_site_fract_x
 _atom_site_fract_y
 _atom_site_fract_z
 _atom_site_occupancy
  Cr  Cr0  1  0.50000000  0.50000000  0.16659913  1.0
  Cr  Cr1  1  0.50000000  0.50000000  0.83340087  1.0
  Cr  Cr2  1  0.00000000  0.00000000  0.66659913  1.0
  Cr  Cr3  1  0.00000000  0.00000000  0.33340087  1.0
  W  W4  1  0.50000000  0.50000000  0.50000000  1.0
  W  W5  1  0.00000000  0.00000000  0.00000000  1.0
  O  O6  1  0.19722670  0.80277330  0.16071313  1.0
  O  O7  1  0.19722670  0.80277330  0.83928687  1.0
  O  O8  1  0.69722670  0.69722670  0.66071313  1.0
  O  O9  1  0.69722670  0.69722670  0.33928687  1.0
  O  O10  1  0.80277330  0.19722670  0.16071313  1.0
  O  O11  1  0.80277330  0.19722670  0.83928687  1.0
  O  O12  1  0.30277330  0.30277330  0.66071313  1.0
  O  O13  1  0.30277330  0.30277330  0.33928687  1.0
  O  O14  1  0.19817691  0.80182309  0.50000000  1.0
  O  O15  1  0.69817691  0.69817691  0.00000000  1.0
  O  O16  1  0.80182309  0.19817691  0.50000000  1.0
  O  O17  1  0.30182309  0.30182309  0.00000000  1.0
