# generated using pymatgen
data_Fe4O13
_symmetry_space_group_name_H-M   'P 1'
_cell_length_a   5.87877818
_cell_length_b   5.87877818
_cell_length_c   5.87877818
_cell_angle_alpha   109.39329550
_cell_angle_beta   109.53630915
_cell_angle_gamma   109.48408957
_symmetry_Int_Tables_number   1
_chemical_formula_structural   Fe4O13
_chemical_formula_sum   'Fe4 O13'
_cell_volume   156.40067999
_cell_formula_units_Z   1
loop_
 _symmetry_equiv_pos_site_id
 _symmetry_equiv_pos_as_xyz
  1  'x, y, z'
loop_
 _atom_site_type_symbol
 _atom_site_label
 _atom_site_symmetry_multiplicity
 _atom_site_fract_x
 _atom_site_fract_y
 _atom_site_fract_z
 _atom_site_occupancy
  Fe  Fe0  1  0.50000000  0.50000000  0.50000000  1.0
  Fe  Fe1  1  1.00000000  1.00000000  0.50000000  1.0
  Fe  Fe2  1  1.00000000  1.50000000  1.00000000  1.0
  Fe  Fe3  1  1.50000000  1.00000000  1.00000000  1.0
  O  O4  1  -0.00000000  -0.00000000  -0.00000000  1.0
  O  O5  1  1.51485412  0.82804611  0.68680801  1.0
  O  O6  1  0.85876190  1.17195389  0.68680801  1.0
  O  O7  1  1.14123810  0.82804611  0.31319199  1.0
  O  O8  1  1.48514588  1.17195389  1.31319199  1.0
  O  O9  1  0.68584992  0.51399419  0.82814427  1.0
  O  O10  1  1.31415008  1.14229436  0.82814427  1.0
  O  O11  1  0.68584992  0.85770564  0.17185573  1.0
  O  O12  1  0.31415008  0.48600581  0.17185573  1.0
  O  O13  1  0.82900961  0.68717999  0.51618959  1.0
  O  O14  1  0.17099039  0.68717999  0.85817038  1.0
  O  O15  1  0.82900961  1.31282001  1.14182962  1.0
  O  O16  1  0.17099039  0.31282001  0.48381041  1.0
