# generated using pymatgen
data_CaMoO4
_symmetry_space_group_name_H-M   'P 1'
_cell_length_a   6.88759881
_cell_length_b   6.88759881
_cell_length_c   5.28159830
_cell_angle_alpha   67.45251241
_cell_angle_beta   112.54748759
_cell_angle_gamma   65.67237675
_symmetry_Int_Tables_number   1
_chemical_formula_structural   CaMoO4
_chemical_formula_sum   'Ca2 Mo2 O8'
_cell_volume   161.42476264
_cell_formula_units_Z   2
loop_
 _symmetry_equiv_pos_site_id
 _symmetry_equiv_pos_as_xyz
  1  'x, y, z'
loop_
 _atom_site_type_symbol
 _atom_site_label
 _atom_site_symmetry_multiplicity
 _atom_site_fract_x
 _atom_site_fract_y
 _atom_site_fract_z
 _atom_site_occupancy
  Ca  Ca0  1  0.37501186  0.37501186  0.75000000  1.0
  Ca  Ca1  1  0.62498814  0.62498814  0.25000000  1.0
  Mo  Mo2  1  0.87498743  -0.12501257  0.75000000  1.0
  Mo  Mo3  1  1.12501257  0.12501257  0.25000000  1.0
  O  O4  1  1.20274844  -0.28458813  0.84759167  1.0
  O  O5  1  1.28458813  -0.20274844  0.34759167  1.0
  O  O6  1  0.71541187  0.20274844  0.65240833  1.0
  O  O7  1  0.79725156  0.28458813  0.15240833  1.0
  O  O8  1  1.35524820  0.06297453  0.63977786  1.0
  O  O9  1  0.93702547  -0.35524820  0.13977786  1.0
  O  O10  1  1.06297453  0.35524820  0.86022214  1.0
  O  O11  1  0.64475180  -0.06297453  0.36022214  1.0
