# generated using pymatgen
data_Al2Te2Cl7
_symmetry_space_group_name_H-M   'P 1'
_cell_length_a   9.83532927
_cell_length_b   11.70641289
_cell_length_c   13.64161874
_cell_angle_alpha   90.00000000
_cell_angle_beta   95.73508533
_cell_angle_gamma   90.00000000
_symmetry_Int_Tables_number   1
_chemical_formula_structural   Al2Te2Cl7
_chemical_formula_sum   'Al8 Te8 Cl28'
_cell_volume   1562.78544526
_cell_formula_units_Z   4
loop_
 _symmetry_equiv_pos_site_id
 _symmetry_equiv_pos_as_xyz
  1  'x, y, z'
loop_
 _atom_site_type_symbol
 _atom_site_label
 _atom_site_symmetry_multiplicity
 _atom_site_fract_x
 _atom_site_fract_y
 _atom_site_fract_z
 _atom_site_occupancy
  Al  Al0  1  0.76449439  0.41663667  0.83914373  1.0
  Al  Al1  1  0.76449439  0.08336333  0.33914373  1.0
  Al  Al2  1  0.23550561  0.91663667  0.66085627  1.0
  Al  Al3  1  0.23550561  0.58336333  0.16085627  1.0
  Al  Al4  1  0.60846444  0.82666661  0.69666744  1.0
  Al  Al5  1  0.60846444  0.67333339  0.19666744  1.0
  Al  Al6  1  0.39153556  0.32666661  0.80333256  1.0
  Al  Al7  1  0.39153556  0.17333339  0.30333256  1.0
  Te  Te8  1  0.92696331  0.85180922  0.96198739  1.0
  Te  Te9  1  0.92696331  0.64819078  0.46198739  1.0
  Te  Te10  1  0.07303669  0.35180922  0.53801261  1.0
  Te  Te11  1  0.07303669  0.14819078  0.03801261  1.0
  Te  Te12  1  0.83336709  0.43027768  0.44182204  1.0
  Te  Te13  1  0.83336709  0.06972232  0.94182204  1.0
  Te  Te14  1  0.16663291  0.93027768  0.05817796  1.0
  Te  Te15  1  0.16663291  0.56972232  0.55817796  1.0
  Cl  Cl16  1  0.86442586  0.57208130  0.81081886  1.0
  Cl  Cl17  1  0.86442586  0.92791870  0.31081886  1.0
  Cl  Cl18  1  0.13557414  0.07208130  0.68918114  1.0
  Cl  Cl19  1  0.13557414  0.42791870  0.18918114  1.0
  Cl  Cl20  1  0.79369631  0.88045891  0.64354999  1.0
  Cl  Cl21  1  0.79369631  0.61954109  0.14354999  1.0
  Cl  Cl22  1  0.20630369  0.38045891  0.85645001  1.0
  Cl  Cl23  1  0.20630369  0.11954109  0.35645001  1.0
  Cl  Cl24  1  0.82938699  0.34468070  0.98240271  1.0
  Cl  Cl25  1  0.82938699  0.15531930  0.48240271  1.0
  Cl  Cl26  1  0.17061301  0.84468070  0.51759729  1.0
  Cl  Cl27  1  0.17061301  0.65531930  0.01759729  1.0
  Cl  Cl28  1  0.76666289  0.29129730  0.72660598  1.0
  Cl  Cl29  1  0.76666289  0.20870270  0.22660598  1.0
  Cl  Cl30  1  0.23333711  0.79129730  0.77339402  1.0
  Cl  Cl31  1  0.23333711  0.70870270  0.27339402  1.0
  Cl  Cl32  1  0.62067176  0.83703304  0.85621374  1.0
  Cl  Cl33  1  0.62067176  0.66296696  0.35621374  1.0
  Cl  Cl34  1  0.37932824  0.33703304  0.64378626  1.0
  Cl  Cl35  1  0.37932824  0.16296696  0.14378626  1.0
  Cl  Cl36  1  0.52735136  0.67158120  0.63500929  1.0
  Cl  Cl37  1  0.52735136  0.82841880  0.13500929  1.0
  Cl  Cl38  1  0.47264864  0.17158120  0.86499071  1.0
  Cl  Cl39  1  0.47264864  0.32841880  0.36499071  1.0
  Cl  Cl40  1  0.45683314  0.96853047  0.64553357  1.0
  Cl  Cl41  1  0.45683314  0.53146953  0.14553357  1.0
  Cl  Cl42  1  0.54316686  0.46853047  0.85446643  1.0
  Cl  Cl43  1  0.54316686  0.03146953  0.35446643  1.0
