# generated using pymatgen
data_Zn2P2O7
_symmetry_space_group_name_H-M   'P 1'
_cell_length_a   5.36166188
_cell_length_b   5.36166188
_cell_length_c   4.57659359
_cell_angle_alpha   80.45619206
_cell_angle_beta   99.54380794
_cell_angle_gamma   77.17151798
_symmetry_Int_Tables_number   1
_chemical_formula_structural   Zn2P2O7
_chemical_formula_sum   'Zn2 P2 O7'
_cell_volume   123.66527334
_cell_formula_units_Z   1
loop_
 _symmetry_equiv_pos_site_id
 _symmetry_equiv_pos_as_xyz
  1  'x, y, z'
loop_
 _atom_site_type_symbol
 _atom_site_label
 _atom_site_symmetry_multiplicity
 _atom_site_fract_x
 _atom_site_fract_y
 _atom_site_fract_z
 _atom_site_occupancy
  Zn  Zn0  1  0.69053279  -0.30946721  -0.00000000  1.0
  Zn  Zn1  1  1.30946721  0.30946721  -0.00000000  1.0
  P  P2  1  0.78643789  -0.78643789  0.59308877  1.0
  P  P3  1  0.21356211  -0.21356211  0.40691123  1.0
  O  O4  1  0.00000000  -0.00000000  0.50000000  1.0
  O  O5  1  0.38177584  -0.38177584  0.71350904  1.0
  O  O6  1  0.61822416  -0.61822416  0.28649096  1.0
  O  O7  1  1.62717805  0.06745806  0.77714142  1.0
  O  O8  1  0.93254194  -0.62717805  0.77714142  1.0
  O  O9  1  1.06745806  0.62717805  0.22285858  1.0
  O  O10  1  0.37282195  -0.06745806  0.22285858  1.0
