# generated using pymatgen
data_Na2BeSiO4
_symmetry_space_group_name_H-M   'P 1'
_cell_length_a   7.09921693
_cell_length_b   5.02465450
_cell_length_c   10.05010330
_cell_angle_alpha   90.00000000
_cell_angle_beta   89.91751321
_cell_angle_gamma   90.00000000
_symmetry_Int_Tables_number   1
_chemical_formula_structural   Na2BeSiO4
_chemical_formula_sum   'Na8 Be4 Si4 O16'
_cell_volume   358.49799176
_cell_formula_units_Z   4
loop_
 _symmetry_equiv_pos_site_id
 _symmetry_equiv_pos_as_xyz
  1  'x, y, z'
loop_
 _atom_site_type_symbol
 _atom_site_label
 _atom_site_symmetry_multiplicity
 _atom_site_fract_x
 _atom_site_fract_y
 _atom_site_fract_z
 _atom_site_occupancy
  Na  Na0  1  0.99842453  0.29207569  0.39015243  1.0
  Na  Na1  1  0.99842453  0.20792431  0.89015243  1.0
  Na  Na2  1  0.00157547  0.79207569  0.10984757  1.0
  Na  Na3  1  0.00157547  0.70792431  0.60984757  1.0
  Na  Na4  1  0.73446905  0.81884836  0.35894912  1.0
  Na  Na5  1  0.73446905  0.68115164  0.85894912  1.0
  Na  Na6  1  0.26553095  0.31884836  0.14105088  1.0
  Na  Na7  1  0.26553095  0.18115164  0.64105088  1.0
  Be  Be8  1  0.49890747  0.34175326  0.41203347  1.0
  Be  Be9  1  0.49890747  0.15824674  0.91203347  1.0
  Be  Be10  1  0.50109253  0.84175326  0.08796653  1.0
  Be  Be11  1  0.50109253  0.65824674  0.58796653  1.0
  Si  Si12  1  0.72109867  0.34383757  0.15721783  1.0
  Si  Si13  1  0.72109867  0.15616243  0.65721783  1.0
  Si  Si14  1  0.27890133  0.84383757  0.34278217  1.0
  Si  Si15  1  0.27890133  0.65616243  0.84278217  1.0
  O  O16  1  0.93889057  0.26541755  0.12459963  1.0
  O  O17  1  0.93889057  0.23458245  0.62459963  1.0
  O  O18  1  0.06110943  0.76541755  0.37540037  1.0
  O  O19  1  0.06110943  0.73458245  0.87540037  1.0
  O  O20  1  0.68046480  0.29491345  0.31775693  1.0
  O  O21  1  0.68046480  0.20508655  0.81775693  1.0
  O  O22  1  0.31953520  0.79491345  0.18224307  1.0
  O  O23  1  0.31953520  0.70508655  0.68224307  1.0
  O  O24  1  0.56325822  0.16474549  0.07360068  1.0
  O  O25  1  0.56325822  0.33525451  0.57360068  1.0
  O  O26  1  0.43674178  0.66474549  0.42639932  1.0
  O  O27  1  0.43674178  0.83525451  0.92639932  1.0
  O  O28  1  0.31612510  0.16019657  0.38085309  1.0
  O  O29  1  0.31612510  0.33980343  0.88085309  1.0
  O  O30  1  0.68387490  0.66019657  0.11914691  1.0
  O  O31  1  0.68387490  0.83980343  0.61914691  1.0
