# generated using pymatgen
data_Al4Re12B
_symmetry_space_group_name_H-M   'P 1'
_cell_length_a   10.14097032
_cell_length_b   10.14097032
_cell_length_c   10.14097032
_cell_angle_alpha   60.00000000
_cell_angle_beta   60.00000000
_cell_angle_gamma   60.00000000
_symmetry_Int_Tables_number   1
_chemical_formula_structural   Al4Re12B
_chemical_formula_sum   'Al8 Re24 B2'
_cell_volume   737.43464470
_cell_formula_units_Z   2
loop_
 _symmetry_equiv_pos_site_id
 _symmetry_equiv_pos_as_xyz
  1  'x, y, z'
loop_
 _atom_site_type_symbol
 _atom_site_label
 _atom_site_symmetry_multiplicity
 _atom_site_fract_x
 _atom_site_fract_y
 _atom_site_fract_z
 _atom_site_occupancy
  Al  Al0  1  0.67198111  -0.32801889  0.98405666  1.0
  Al  Al1  1  0.67198111  -0.01594334  0.67198111  1.0
  Al  Al2  1  0.57801889  -0.42198111  0.57801889  1.0
  Al  Al3  1  1.26594334  -0.42198111  0.57801889  1.0
  Al  Al4  1  0.98405666  -0.32801889  0.67198111  1.0
  Al  Al5  1  0.67198111  -0.32801889  0.67198111  1.0
  Al  Al6  1  0.57801889  0.26594334  0.57801889  1.0
  Al  Al7  1  0.57801889  -0.42198111  1.26594334  1.0
  Re  Re8  1  0.99794818  -0.74104897  0.74515261  1.0
  Re  Re9  1  -0.00205182  0.74515261  0.25895103  1.0
  Re  Re10  1  -0.00895103  0.25205182  0.25205182  1.0
  Re  Re11  1  0.50484739  0.25205182  0.25205182  1.0
  Re  Re12  1  -0.74104897  0.99794818  0.74515261  1.0
  Re  Re13  1  0.99794818  -0.00205182  0.74515261  1.0
  Re  Re14  1  0.99794818  -0.25484739  0.99794818  1.0
  Re  Re15  1  -0.74104897  0.74515261  0.99794818  1.0
  Re  Re16  1  0.25205182  -0.00895103  0.25205182  1.0
  Re  Re17  1  0.25205182  0.25205182  -0.00895103  1.0
  Re  Re18  1  0.50484739  0.25205182  -0.00895103  1.0
  Re  Re19  1  0.50484739  -0.00895103  0.25205182  1.0
  Re  Re20  1  0.74515261  -0.00205182  0.99794818  1.0
  Re  Re21  1  -0.74104897  0.99794818  0.99794818  1.0
  Re  Re22  1  0.25205182  0.50484739  -0.00895103  1.0
  Re  Re23  1  0.25205182  -0.00895103  0.50484739  1.0
  Re  Re24  1  -0.25484739  0.99794818  0.25895103  1.0
  Re  Re25  1  0.74515261  -0.74104897  0.99794818  1.0
  Re  Re26  1  0.99794818  -0.74104897  0.99794818  1.0
  Re  Re27  1  -0.00205182  0.99794818  0.25895103  1.0
  Re  Re28  1  0.25205182  0.50484739  0.25205182  1.0
  Re  Re29  1  -0.00895103  0.50484739  0.25205182  1.0
  Re  Re30  1  -0.00895103  0.25205182  0.50484739  1.0
  Re  Re31  1  0.25205182  0.25205182  0.50484739  1.0
  B  B32  1  0.50000000  0.50000000  -0.50000000  1.0
  B  B33  1  0.75000000  -0.25000000  0.75000000  1.0
