# generated using pymatgen
data_LiAl(Si2O5)2
_symmetry_space_group_name_H-M   'P 1'
_cell_length_a   7.73935370
_cell_length_b   5.22806539
_cell_length_c   11.95674357
_cell_angle_alpha   90.00000000
_cell_angle_beta   113.12399137
_cell_angle_gamma   90.00000000
_symmetry_Int_Tables_number   1
_chemical_formula_structural   LiAl(Si2O5)2
_chemical_formula_sum   'Li2 Al2 Si8 O20'
_cell_volume   444.92270097
_cell_formula_units_Z   2
loop_
 _symmetry_equiv_pos_site_id
 _symmetry_equiv_pos_as_xyz
  1  'x, y, z'
loop_
 _atom_site_type_symbol
 _atom_site_label
 _atom_site_symmetry_multiplicity
 _atom_site_fract_x
 _atom_site_fract_y
 _atom_site_fract_z
 _atom_site_occupancy
  Li  Li0  1  -0.00000000  0.25736610  0.25000000  1.0
  Li  Li1  1  0.00000000  0.74263390  0.75000000  1.0
  Al  Al2  1  -0.00000000  0.75767609  0.25000000  1.0
  Al  Al3  1  0.00000000  0.24232391  0.75000000  1.0
  Si  Si4  1  0.71072614  0.99755942  0.85212495  1.0
  Si  Si5  1  0.71072614  0.00244058  0.35212495  1.0
  Si  Si6  1  0.28927386  0.99755942  0.64787505  1.0
  Si  Si7  1  0.28927386  0.00244058  0.14787505  1.0
  Si  Si8  1  0.71078912  0.49378039  0.00205327  1.0
  Si  Si9  1  0.71078912  0.50621961  0.50205327  1.0
  Si  Si10  1  0.28921088  0.49378039  0.49794673  1.0
  Si  Si11  1  0.28921088  0.50621961  0.99794673  1.0
  O  O12  1  0.86640221  0.53644071  0.13903342  1.0
  O  O13  1  0.86640221  0.46355929  0.63903342  1.0
  O  O14  1  0.13359779  0.53644071  0.36096658  1.0
  O  O15  1  0.13359779  0.46355929  0.86096658  1.0
  O  O16  1  0.86509610  0.97917934  0.29190249  1.0
  O  O17  1  0.86509610  0.02082066  0.79190249  1.0
  O  O18  1  0.13490390  0.97917934  0.20809751  1.0
  O  O19  1  0.13490390  0.02082066  0.70809751  1.0
  O  O20  1  0.75074528  0.78922439  0.45926285  1.0
  O  O21  1  0.75074528  0.21077561  0.95926285  1.0
  O  O22  1  0.24925472  0.78922439  0.04073715  1.0
  O  O23  1  0.24925472  0.21077561  0.54073715  1.0
  O  O24  1  0.72909879  0.71041971  0.90908046  1.0
  O  O25  1  0.72909879  0.28958029  0.40908046  1.0
  O  O26  1  0.27090121  0.71041971  0.59091954  1.0
  O  O27  1  0.27090121  0.28958029  0.09091954  1.0
  O  O28  1  0.50000000  0.95768172  0.25000000  1.0
  O  O29  1  0.50000000  0.04231828  0.75000000  1.0
  O  O30  1  0.50000000  0.50000000  0.50000000  1.0
  O  O31  1  0.50000000  0.50000000  -0.00000000  1.0
