# generated using pymatgen
data_H2C3N2O3
_symmetry_space_group_name_H-M   'P 1'
_cell_length_a   5.22620492
_cell_length_b   8.67873239
_cell_length_c   11.72398708
_cell_angle_alpha   90.00000000
_cell_angle_beta   115.15635757
_cell_angle_gamma   90.00000000
_symmetry_Int_Tables_number   1
_chemical_formula_structural   H2C3N2O3
_chemical_formula_sum   'H8 C12 N8 O12'
_cell_volume   481.32580924
_cell_formula_units_Z   4
loop_
 _symmetry_equiv_pos_site_id
 _symmetry_equiv_pos_as_xyz
  1  'x, y, z'
loop_
 _atom_site_type_symbol
 _atom_site_label
 _atom_site_symmetry_multiplicity
 _atom_site_fract_x
 _atom_site_fract_y
 _atom_site_fract_z
 _atom_site_occupancy
  H  H0  1  0.92217007  0.81172846  0.02629711  1.0
  H  H1  1  0.92217007  0.68827154  0.52629711  1.0
  H  H2  1  0.07782993  0.31172846  0.47370289  1.0
  H  H3  1  0.07782993  0.18827154  0.97370289  1.0
  H  H4  1  0.67859625  0.33581462  0.07978770  1.0
  H  H5  1  0.67859625  0.16418538  0.57978770  1.0
  H  H6  1  0.32140375  0.83581462  0.42021230  1.0
  H  H7  1  0.32140375  0.66418538  0.92021230  1.0
  C  C8  1  0.94844495  0.35606790  0.27691270  1.0
  C  C9  1  0.94844495  0.14393210  0.77691270  1.0
  C  C10  1  0.05155505  0.85606790  0.22308730  1.0
  C  C11  1  0.05155505  0.64393210  0.72308730  1.0
  C  C12  1  0.68345776  0.21046682  0.34891028  1.0
  C  C13  1  0.68345776  0.28953318  0.84891028  1.0
  C  C14  1  0.31654224  0.71046682  0.15108972  1.0
  C  C15  1  0.31654224  0.78953318  0.65108972  1.0
  C  C16  1  0.53514344  0.22011549  0.20299219  1.0
  C  C17  1  0.53514344  0.27988451  0.70299219  1.0
  C  C18  1  0.46485656  0.72011549  0.29700781  1.0
  C  C19  1  0.46485656  0.77988451  0.79700781  1.0
  N  N20  1  0.92524719  0.29410765  0.38244298  1.0
  N  N21  1  0.92524719  0.20589235  0.88244298  1.0
  N  N22  1  0.07475281  0.79410765  0.11755702  1.0
  N  N23  1  0.07475281  0.70589235  0.61755702  1.0
  N  N24  1  0.70939118  0.30861169  0.17085152  1.0
  N  N25  1  0.70939118  0.19138831  0.67085152  1.0
  N  N26  1  0.29060882  0.80861169  0.32914848  1.0
  N  N27  1  0.29060882  0.69138831  0.82914848  1.0
  O  O28  1  0.85955429  0.93530981  0.22237426  1.0
  O  O29  1  0.85955429  0.56469019  0.72237426  1.0
  O  O30  1  0.14044571  0.43530981  0.27762574  1.0
  O  O31  1  0.14044571  0.06469019  0.77762574  1.0
  O  O32  1  0.59392307  0.14241150  0.41588918  1.0
  O  O33  1  0.59392307  0.35758850  0.91588918  1.0
  O  O34  1  0.40607693  0.64241150  0.08411082  1.0
  O  O35  1  0.40607693  0.85758850  0.58411082  1.0
  O  O36  1  0.30902956  0.16056443  0.13529025  1.0
  O  O37  1  0.30902956  0.33943557  0.63529025  1.0
  O  O38  1  0.69097044  0.66056443  0.36470975  1.0
  O  O39  1  0.69097044  0.83943557  0.86470975  1.0
