# generated using pymatgen
data_TiCuNi2
_symmetry_space_group_name_H-M   'P 1'
_cell_length_a   4.23516868
_cell_length_b   5.18615727
_cell_length_c   4.43458104
_cell_angle_alpha   90.00000000
_cell_angle_beta   90.00000000
_cell_angle_gamma   90.00000000
_symmetry_Int_Tables_number   1
_chemical_formula_structural   TiCuNi2
_chemical_formula_sum   'Ti2 Cu2 Ni4'
_cell_volume   97.40225030
_cell_formula_units_Z   2
loop_
 _symmetry_equiv_pos_site_id
 _symmetry_equiv_pos_as_xyz
  1  'x, y, z'
loop_
 _atom_site_type_symbol
 _atom_site_label
 _atom_site_symmetry_multiplicity
 _atom_site_fract_x
 _atom_site_fract_y
 _atom_site_fract_z
 _atom_site_occupancy
  Ti  Ti0  1  0.50000000  0.50000000  0.66834939  1.0
  Ti  Ti1  1  0.00000000  0.00000000  0.33165061  1.0
  Cu  Cu2  1  0.00000000  0.50000000  0.31061270  1.0
  Cu  Cu3  1  0.50000000  0.00000000  0.68938730  1.0
  Ni  Ni4  1  0.50000000  0.74911708  0.17323604  1.0
  Ni  Ni5  1  0.50000000  0.25088292  0.17323604  1.0
  Ni  Ni6  1  0.00000000  0.75088292  0.82676396  1.0
  Ni  Ni7  1  0.00000000  0.24911708  0.82676396  1.0
