# generated using pymatgen
data_Ca2Ge
_symmetry_space_group_name_H-M   'P 1'
_cell_length_a   7.66553433
_cell_length_b   4.85700338
_cell_length_c   9.08328906
_cell_angle_alpha   90.00000000
_cell_angle_beta   90.00000000
_cell_angle_gamma   90.00000000
_symmetry_Int_Tables_number   1
_chemical_formula_structural   Ca2Ge
_chemical_formula_sum   'Ca8 Ge4'
_cell_volume   338.18471415
_cell_formula_units_Z   4
loop_
 _symmetry_equiv_pos_site_id
 _symmetry_equiv_pos_as_xyz
  1  'x, y, z'
loop_
 _atom_site_type_symbol
 _atom_site_label
 _atom_site_symmetry_multiplicity
 _atom_site_fract_x
 _atom_site_fract_y
 _atom_site_fract_z
 _atom_site_occupancy
  Ca  Ca0  1  0.98063916  0.75000000  0.67752884  1.0
  Ca  Ca1  1  0.48063916  0.75000000  0.82247116  1.0
  Ca  Ca2  1  0.01936084  0.25000000  0.32247116  1.0
  Ca  Ca3  1  0.51936084  0.25000000  0.17752884  1.0
  Ca  Ca4  1  0.84617475  0.75000000  0.07451515  1.0
  Ca  Ca5  1  0.34617475  0.75000000  0.42548485  1.0
  Ca  Ca6  1  0.15382525  0.25000000  0.92548485  1.0
  Ca  Ca7  1  0.65382525  0.25000000  0.57451515  1.0
  Ge  Ge8  1  0.74766912  0.75000000  0.39530566  1.0
  Ge  Ge9  1  0.24766912  0.75000000  0.10469434  1.0
  Ge  Ge10  1  0.25233088  0.25000000  0.60469434  1.0
  Ge  Ge11  1  0.75233088  0.25000000  0.89530566  1.0
