# generated using pymatgen
data_CdBiS2Br
_symmetry_space_group_name_H-M   'P 1'
_cell_length_a   6.93690854
_cell_length_b   6.93690854
_cell_length_c   9.66381158
_cell_angle_alpha   88.40745143
_cell_angle_beta   91.59254857
_cell_angle_gamma   145.94642201
_symmetry_Int_Tables_number   1
_chemical_formula_structural   CdBiS2Br
_chemical_formula_sum   'Cd2 Bi2 S4 Br2'
_cell_volume   260.29150723
_cell_formula_units_Z   2
loop_
 _symmetry_equiv_pos_site_id
 _symmetry_equiv_pos_as_xyz
  1  'x, y, z'
loop_
 _atom_site_type_symbol
 _atom_site_label
 _atom_site_symmetry_multiplicity
 _atom_site_fract_x
 _atom_site_fract_y
 _atom_site_fract_z
 _atom_site_occupancy
  Cd  Cd0  1  0.00000000  -0.00000000  0.50000000  1.0
  Cd  Cd1  1  0.00000000  0.00000000  0.00000000  1.0
  Bi  Bi2  1  0.71740773  0.28259227  0.30721018  1.0
  Bi  Bi3  1  0.28259227  -0.28259227  0.69278982  1.0
  S  S4  1  0.91812713  0.08187287  0.74154018  1.0
  S  S5  1  0.08187287  -0.08187287  0.25845982  1.0
  S  S6  1  0.64483796  0.35516204  0.55607421  1.0
  S  S7  1  0.35516204  -0.35516204  0.44392579  1.0
  Br  Br8  1  0.63722905  0.36277095  0.93155085  1.0
  Br  Br9  1  0.36277095  -0.36277095  0.06844915  1.0
