# generated using pymatgen
data_BaMnF6
_symmetry_space_group_name_H-M   'P 1'
_cell_length_a   4.93843199
_cell_length_b   4.93843199
_cell_length_c   4.93843199
_cell_angle_alpha   98.53167575
_cell_angle_beta   98.53167575
_cell_angle_gamma   98.53167575
_symmetry_Int_Tables_number   1
_chemical_formula_structural   BaMnF6
_chemical_formula_sum   'Ba1 Mn1 F6'
_cell_volume   115.98727398
_cell_formula_units_Z   1
loop_
 _symmetry_equiv_pos_site_id
 _symmetry_equiv_pos_as_xyz
  1  'x, y, z'
loop_
 _atom_site_type_symbol
 _atom_site_label
 _atom_site_symmetry_multiplicity
 _atom_site_fract_x
 _atom_site_fract_y
 _atom_site_fract_z
 _atom_site_occupancy
  Ba  Ba0  1  0.50000000  0.50000000  0.50000000  1.0
  Mn  Mn1  1  0.00000000  0.00000000  0.00000000  1.0
  F  F2  1  1.26588909  0.26588909  -0.07344118  1.0
  F  F3  1  1.26588909  -0.07344118  0.26588909  1.0
  F  F4  1  1.07344118  0.73411091  -0.26588909  1.0
  F  F5  1  0.73411091  1.07344118  -0.26588909  1.0
  F  F6  1  0.73411091  0.73411091  0.07344118  1.0
  F  F7  1  0.92655882  0.26588909  0.26588909  1.0
