# generated using pymatgen
data_RbZr2(PO4)3
_symmetry_space_group_name_H-M   'P 1'
_cell_length_a   9.65991986
_cell_length_b   9.65991986
_cell_length_c   9.65991986
_cell_angle_alpha   54.16518755
_cell_angle_beta   54.16518755
_cell_angle_gamma   54.16518755
_symmetry_Int_Tables_number   1
_chemical_formula_structural   RbZr2(PO4)3
_chemical_formula_sum   'Rb2 Zr4 P6 O24'
_cell_volume   550.57576621
_cell_formula_units_Z   2
loop_
 _symmetry_equiv_pos_site_id
 _symmetry_equiv_pos_as_xyz
  1  'x, y, z'
loop_
 _atom_site_type_symbol
 _atom_site_label
 _atom_site_symmetry_multiplicity
 _atom_site_fract_x
 _atom_site_fract_y
 _atom_site_fract_z
 _atom_site_occupancy
  Rb  Rb0  1  1.00000000  0.00000000  0.00000000  1.0
  Rb  Rb1  1  0.50000000  0.50000000  0.50000000  1.0
  Zr  Zr2  1  0.84918290  -0.15081710  -0.15081710  1.0
  Zr  Zr3  1  0.34918290  0.34918290  0.34918290  1.0
  Zr  Zr4  1  0.65081710  0.65081710  -0.34918290  1.0
  Zr  Zr5  1  1.15081710  0.15081710  0.15081710  1.0
  P  P6  1  0.46540453  0.75000000  0.03459547  1.0
  P  P7  1  0.96540453  -0.46540453  0.25000000  1.0
  P  P8  1  0.25000000  0.96540453  -0.46540453  1.0
  P  P9  1  0.75000000  1.03459547  -0.53459547  1.0
  P  P10  1  0.53459547  0.25000000  -0.03459547  1.0
  P  P11  1  1.03459547  0.46540453  -0.25000000  1.0
  O  O12  1  0.74705360  1.01223268  -0.36045944  1.0
  O  O13  1  1.24705360  0.13954056  -0.48776732  1.0
  O  O14  1  0.86045944  0.48776732  -0.24705360  1.0
  O  O15  1  0.36045944  0.25294640  -0.01223268  1.0
  O  O16  1  0.98776732  0.36045944  -0.74705360  1.0
  O  O17  1  0.48776732  0.75294640  -0.13954056  1.0
  O  O18  1  0.25294640  0.98776732  -0.63954056  1.0
  O  O19  1  0.75294640  0.86045944  -0.51223268  1.0
  O  O20  1  0.63954056  0.74705360  0.01223268  1.0
  O  O21  1  1.13954056  -0.48776732  0.24705360  1.0
  O  O22  1  0.51223268  0.24705360  0.13954056  1.0
  O  O23  1  1.01223268  0.63954056  -0.25294640  1.0
  O  O24  1  0.69949450  0.07551784  -0.07269650  1.0
  O  O25  1  1.19949450  0.42730350  -0.42448216  1.0
  O  O26  1  0.57269650  0.42448216  -0.19949450  1.0
  O  O27  1  1.07269650  0.30050550  -0.07551784  1.0
  O  O28  1  0.92448216  0.07269650  0.30050550  1.0
  O  O29  1  0.42448216  0.80050550  -0.42730350  1.0
  O  O30  1  1.30050550  -0.07551784  0.07269650  1.0
  O  O31  1  0.80050550  0.57269650  -0.57551784  1.0
  O  O32  1  0.92730350  -0.30050550  0.07551784  1.0
  O  O33  1  0.42730350  0.57551784  0.19949450  1.0
  O  O34  1  0.57551784  1.19949450  -0.57269650  1.0
  O  O35  1  1.07551784  -0.07269650  -0.30050550  1.0
