# generated using pymatgen
data_K2NiO2
_symmetry_space_group_name_H-M   'P 1'
_cell_length_a   6.99948818
_cell_length_b   6.99948818
_cell_length_c   6.99948818
_cell_angle_alpha   146.73317006
_cell_angle_beta   146.73317006
_cell_angle_gamma   47.75903059
_symmetry_Int_Tables_number   1
_chemical_formula_structural   K2NiO2
_chemical_formula_sum   'K2 Ni1 O2'
_cell_volume   102.77251924
_cell_formula_units_Z   1
loop_
 _symmetry_equiv_pos_site_id
 _symmetry_equiv_pos_as_xyz
  1  'x, y, z'
loop_
 _atom_site_type_symbol
 _atom_site_label
 _atom_site_symmetry_multiplicity
 _atom_site_fract_x
 _atom_site_fract_y
 _atom_site_fract_z
 _atom_site_occupancy
  K  K0  1  0.65272080  0.65272080  1.00000000  1.0
  K  K1  1  0.34727920  0.34727920  0.00000000  1.0
  Ni  Ni2  1  0.00000000  0.00000000  0.00000000  1.0
  O  O3  1  0.86705714  0.86705714  1.00000000  1.0
  O  O4  1  0.13294286  0.13294286  0.00000000  1.0
