# generated using pymatgen
data_LiZnAsO4
_symmetry_space_group_name_H-M   'P 1'
_cell_length_a   8.86635822
_cell_length_b   8.86635822
_cell_length_c   8.86635822
_cell_angle_alpha   107.89854464
_cell_angle_beta   107.89854464
_cell_angle_gamma   107.89854464
_symmetry_Int_Tables_number   1
_chemical_formula_structural   LiZnAsO4
_chemical_formula_sum   'Li6 Zn6 As6 O24'
_cell_volume   565.64135077
_cell_formula_units_Z   6
loop_
 _symmetry_equiv_pos_site_id
 _symmetry_equiv_pos_as_xyz
  1  'x, y, z'
loop_
 _atom_site_type_symbol
 _atom_site_label
 _atom_site_symmetry_multiplicity
 _atom_site_fract_x
 _atom_site_fract_y
 _atom_site_fract_z
 _atom_site_occupancy
  Li  Li0  1  0.52376164  1.29951458  -0.29945008  1.0
  Li  Li1  1  1.29951458  0.70054992  -0.47623836  1.0
  Li  Li2  1  0.70054992  0.52376164  0.29951458  1.0
  Li  Li3  1  0.81514716  0.98570133  0.21972053  1.0
  Li  Li4  1  0.98570133  1.21972053  -0.18485284  1.0
  Li  Li5  1  1.21972053  0.81514716  -0.01429867  1.0
  Zn  Zn6  1  1.03111038  0.86087381  -0.37367335  1.0
  Zn  Zn7  1  0.86087381  0.62632665  0.03111038  1.0
  Zn  Zn8  1  0.62632665  1.03111038  -0.13912619  1.0
  Zn  Zn9  1  1.14623081  0.32223642  -0.45214685  1.0
  Zn  Zn10  1  1.32223642  -0.45214685  0.14623081  1.0
  Zn  Zn11  1  0.54785315  0.14623081  0.32223642  1.0
  As  As12  1  1.65785069  -0.11463002  0.47806099  1.0
  As  As13  1  0.88536998  0.47806099  0.65785069  1.0
  As  As14  1  1.47806099  0.65785069  -0.11463002  1.0
  As  As15  1  1.18816863  -0.03716593  0.37116448  1.0
  As  As16  1  0.96283407  0.37116448  0.18816863  1.0
  As  As17  1  1.37116448  0.18816863  -0.03716593  1.0
  O  O18  1  1.10702563  -0.18209730  0.14991183  1.0
  O  O19  1  0.81790270  0.14991183  0.10702563  1.0
  O  O20  1  1.14991183  0.10702563  -0.18209730  1.0
  O  O21  1  1.44017505  -0.26928927  0.39457034  1.0
  O  O22  1  0.73071073  0.39457034  0.44017505  1.0
  O  O23  1  1.39457034  0.44017505  -0.26928927  1.0
  O  O24  1  1.17664047  -0.15439445  0.49608810  1.0
  O  O25  1  0.84560555  0.49608810  0.17664047  1.0
  O  O26  1  1.49608810  0.17664047  -0.15439445  1.0
  O  O27  1  1.67519937  0.00170693  0.35286931  1.0
  O  O28  1  1.00170693  0.35286931  0.67519937  1.0
  O  O29  1  1.35286931  0.67519937  0.00170693  1.0
  O  O30  1  0.78436282  0.77141330  0.45784645  1.0
  O  O31  1  0.77141330  1.45784645  -0.21563718  1.0
  O  O32  1  1.45784645  0.78436282  -0.22858670  1.0
  O  O33  1  0.74029267  1.03171734  -0.30145714  1.0
  O  O34  1  1.03171734  0.69854286  -0.25970733  1.0
  O  O35  1  0.69854286  0.74029267  0.03171734  1.0
  O  O36  1  1.05651566  0.07157583  -0.60936477  1.0
  O  O37  1  1.07157583  -0.60936477  0.05651566  1.0
  O  O38  1  0.39063523  0.05651566  0.07157583  1.0
  O  O39  1  0.40386410  1.11958024  -0.54612772  1.0
  O  O40  1  1.11958024  0.45387228  -0.59613590  1.0
  O  O41  1  0.45387228  0.40386410  0.11958024  1.0
