# generated using pymatgen
data_Cs9Tl4O3
_symmetry_space_group_name_H-M   'P 1'
_cell_length_a   11.92771583
_cell_length_b   11.92771583
_cell_length_c   11.92771583
_cell_angle_alpha   109.47122063
_cell_angle_beta   109.47122063
_cell_angle_gamma   109.47122063
_symmetry_Int_Tables_number   1
_chemical_formula_structural   Cs9Tl4O3
_chemical_formula_sum   'Cs18 Tl8 O6'
_cell_volume   1306.32115646
_cell_formula_units_Z   2
loop_
 _symmetry_equiv_pos_site_id
 _symmetry_equiv_pos_as_xyz
  1  'x, y, z'
loop_
 _atom_site_type_symbol
 _atom_site_label
 _atom_site_symmetry_multiplicity
 _atom_site_fract_x
 _atom_site_fract_y
 _atom_site_fract_z
 _atom_site_occupancy
  Cs  Cs0  1  0.67444442  0.62188811  0.38281671  1.0
  Cs  Cs1  1  1.23907140  1.29162772  0.61718329  1.0
  Cs  Cs2  1  0.38281671  0.67444442  0.62188811  1.0
  Cs  Cs3  1  1.05255632  0.76092860  1.37811189  1.0
  Cs  Cs4  1  0.62188811  0.38281671  0.67444442  1.0
  Cs  Cs5  1  0.70837228  0.94744368  0.32555558  1.0
  Cs  Cs6  1  0.76092860  1.37811189  1.05255632  1.0
  Cs  Cs7  1  0.32555558  0.70837228  0.94744368  1.0
  Cs  Cs8  1  0.94744368  0.32555558  0.70837228  1.0
  Cs  Cs9  1  0.61718329  1.23907140  1.29162772  1.0
  Cs  Cs10  1  1.29162772  0.61718329  1.23907140  1.0
  Cs  Cs11  1  1.37811189  1.05255632  0.76092860  1.0
  Cs  Cs12  1  0.63495274  0.63495274  0.00000000  1.0
  Cs  Cs13  1  0.00000000  0.63495274  0.63495274  1.0
  Cs  Cs14  1  0.00000000  0.36504726  0.36504726  1.0
  Cs  Cs15  1  0.63495274  -0.00000000  0.63495274  1.0
  Cs  Cs16  1  0.36504726  0.00000000  0.36504726  1.0
  Cs  Cs17  1  0.36504726  0.36504726  -0.00000000  1.0
  Tl  Tl18  1  0.82484957  0.82484957  0.82484957  1.0
  Tl  Tl19  1  1.00000000  1.00000000  0.17515043  1.0
  Tl  Tl20  1  1.00000000  0.17515043  1.00000000  1.0
  Tl  Tl21  1  0.17515043  1.00000000  1.00000000  1.0
  Tl  Tl22  1  0.27270811  0.27270811  0.27270811  1.0
  Tl  Tl23  1  1.00000000  1.00000000  0.72729189  1.0
  Tl  Tl24  1  1.00000000  0.72729189  1.00000000  1.0
  Tl  Tl25  1  0.72729189  1.00000000  1.00000000  1.0
  O  O26  1  0.33603333  0.83603333  0.50000000  1.0
  O  O27  1  0.50000000  0.33603333  0.83603333  1.0
  O  O28  1  0.50000000  0.66396667  0.16396667  1.0
  O  O29  1  0.83603333  0.50000000  0.33603333  1.0
  O  O30  1  0.16396667  0.50000000  0.66396667  1.0
  O  O31  1  0.66396667  0.16396667  0.50000000  1.0
