# generated using pymatgen
data_KLu(WO4)2
_symmetry_space_group_name_H-M   'P 1'
_cell_length_a   5.99357719
_cell_length_b   5.99357719
_cell_length_c   7.48988706
_cell_angle_alpha   90.00000000
_cell_angle_beta   90.00000000
_cell_angle_gamma   120.00000000
_symmetry_Int_Tables_number   1
_chemical_formula_structural   KLu(WO4)2
_chemical_formula_sum   'K1 Lu1 W2 O8'
_cell_volume   233.01190257
_cell_formula_units_Z   1
loop_
 _symmetry_equiv_pos_site_id
 _symmetry_equiv_pos_as_xyz
  1  'x, y, z'
loop_
 _atom_site_type_symbol
 _atom_site_label
 _atom_site_symmetry_multiplicity
 _atom_site_fract_x
 _atom_site_fract_y
 _atom_site_fract_z
 _atom_site_occupancy
  K  K0  1  -0.00000000  -0.00000000  -0.00000000  1.0
  Lu  Lu1  1  0.00000000  0.00000000  0.50000000  1.0
  W  W2  1  0.33333333  0.66666667  0.24205387  1.0
  W  W3  1  0.66666667  0.33333333  0.75794613  1.0
  O  O4  1  0.66367540  0.83183770  0.31879925  1.0
  O  O5  1  0.83183770  0.66367540  0.68120075  1.0
  O  O6  1  0.83183770  0.16816230  0.68120075  1.0
  O  O7  1  0.16816230  0.83183770  0.31879925  1.0
  O  O8  1  0.16816230  0.33632460  0.31879925  1.0
  O  O9  1  0.33632460  0.16816230  0.68120075  1.0
  O  O10  1  0.33333333  0.66666667  0.00773016  1.0
  O  O11  1  0.66666667  0.33333333  0.99226984  1.0
