# generated using pymatgen
data_Rb2MnV2O7
_symmetry_space_group_name_H-M   'P 1'
_cell_length_a   8.63259355
_cell_length_b   8.63259355
_cell_length_c   12.02393097
_cell_angle_alpha   90.00000000
_cell_angle_beta   90.00000000
_cell_angle_gamma   90.00000000
_symmetry_Int_Tables_number   1
_chemical_formula_structural   Rb2MnV2O7
_chemical_formula_sum   'Rb8 Mn4 V8 O28'
_cell_volume   896.04343271
_cell_formula_units_Z   4
loop_
 _symmetry_equiv_pos_site_id
 _symmetry_equiv_pos_as_xyz
  1  'x, y, z'
loop_
 _atom_site_type_symbol
 _atom_site_label
 _atom_site_symmetry_multiplicity
 _atom_site_fract_x
 _atom_site_fract_y
 _atom_site_fract_z
 _atom_site_occupancy
  Rb  Rb0  1  0.32055022  0.32055022  0.50000000  1.0
  Rb  Rb1  1  0.82055022  0.17944978  0.00000000  1.0
  Rb  Rb2  1  0.67944978  0.67944978  0.50000000  1.0
  Rb  Rb3  1  0.17944978  0.82055022  0.00000000  1.0
  Rb  Rb4  1  0.15110932  0.84889068  0.50000000  1.0
  Rb  Rb5  1  0.65110932  0.65110932  0.00000000  1.0
  Rb  Rb6  1  0.84889068  0.15110932  0.50000000  1.0
  Rb  Rb7  1  0.34889068  0.34889068  0.00000000  1.0
  Mn  Mn8  1  0.50000000  0.00000000  0.25000000  1.0
  Mn  Mn9  1  0.50000000  0.00000000  0.75000000  1.0
  Mn  Mn10  1  0.00000000  0.50000000  0.75000000  1.0
  Mn  Mn11  1  0.00000000  0.50000000  0.25000000  1.0
  V  V12  1  0.36062365  0.63937635  0.28197337  1.0
  V  V13  1  0.36062365  0.63937635  0.71802663  1.0
  V  V14  1  0.86062365  0.86062365  0.78197337  1.0
  V  V15  1  0.86062365  0.86062365  0.21802663  1.0
  V  V16  1  0.63937635  0.36062365  0.28197337  1.0
  V  V17  1  0.63937635  0.36062365  0.71802663  1.0
  V  V18  1  0.13937635  0.13937635  0.78197337  1.0
  V  V19  1  0.13937635  0.13937635  0.21802663  1.0
  O  O20  1  0.41317401  0.81852081  0.33393058  1.0
  O  O21  1  0.41317401  0.81852081  0.66606942  1.0
  O  O22  1  0.91317401  0.68147919  0.83393058  1.0
  O  O23  1  0.91317401  0.68147919  0.16606942  1.0
  O  O24  1  0.18147919  0.58682599  0.33393058  1.0
  O  O25  1  0.18147919  0.58682599  0.66606942  1.0
  O  O26  1  0.68147919  0.91317401  0.83393058  1.0
  O  O27  1  0.68147919  0.91317401  0.16606942  1.0
  O  O28  1  0.58682599  0.18147919  0.33393058  1.0
  O  O29  1  0.58682599  0.18147919  0.66606942  1.0
  O  O30  1  0.08682599  0.31852081  0.83393058  1.0
  O  O31  1  0.08682599  0.31852081  0.16606942  1.0
  O  O32  1  0.81852081  0.41317401  0.33393058  1.0
  O  O33  1  0.81852081  0.41317401  0.66606942  1.0
  O  O34  1  0.31852081  0.08682599  0.83393058  1.0
  O  O35  1  0.31852081  0.08682599  0.16606942  1.0
  O  O36  1  0.36073859  0.63926141  0.14408250  1.0
  O  O37  1  0.36073859  0.63926141  0.85591750  1.0
  O  O38  1  0.86073859  0.86073859  0.64408250  1.0
  O  O39  1  0.86073859  0.86073859  0.35591750  1.0
  O  O40  1  0.63926141  0.36073859  0.14408250  1.0
  O  O41  1  0.63926141  0.36073859  0.85591750  1.0
  O  O42  1  0.13926141  0.13926141  0.64408250  1.0
  O  O43  1  0.13926141  0.13926141  0.35591750  1.0
  O  O44  1  0.50000000  0.50000000  0.33505064  1.0
  O  O45  1  0.50000000  0.50000000  0.66494936  1.0
  O  O46  1  0.00000000  0.00000000  0.83505064  1.0
  O  O47  1  0.00000000  0.00000000  0.16494936  1.0
