# generated using pymatgen
data_Ca2Mg5(SiO3)8
_symmetry_space_group_name_H-M   'P 1'
_cell_length_a   10.51470900
_cell_length_b   10.51470900
_cell_length_c   5.27578051
_cell_angle_alpha   82.92849794
_cell_angle_beta   97.07150206
_cell_angle_gamma   57.57657539
_symmetry_Int_Tables_number   1
_chemical_formula_structural   Ca2Mg5(SiO3)8
_chemical_formula_sum   'Ca2 Mg5 Si8 O24'
_cell_volume   475.99697332
_cell_formula_units_Z   1
loop_
 _symmetry_equiv_pos_site_id
 _symmetry_equiv_pos_as_xyz
  1  'x, y, z'
loop_
 _atom_site_type_symbol
 _atom_site_label
 _atom_site_symmetry_multiplicity
 _atom_site_fract_x
 _atom_site_fract_y
 _atom_site_fract_z
 _atom_site_occupancy
  Mg  Mg0  1  0.89986580  -0.10013420  0.50000000  1.0
  Mg  Mg1  1  0.10013420  0.10013420  0.50000000  1.0
  Mg  Mg2  1  0.81958245  -0.18041755  -0.00000000  1.0
  Mg  Mg3  1  0.18041755  0.18041755  0.00000000  1.0
  Mg  Mg4  1  0.00000000  0.00000000  0.00000000  1.0
  Ca  Ca5  1  0.71567052  -0.28432948  0.50000000  1.0
  Ca  Ca6  1  0.28432948  0.28432948  0.50000000  1.0
  O  O7  1  0.80158838  0.01937011  0.79781537  1.0
  O  O8  1  0.98062989  -0.80158838  0.79781537  1.0
  O  O9  1  1.01937011  -0.19841162  0.20218463  1.0
  O  O10  1  0.19841162  -0.01937011  0.20218463  1.0
  O  O11  1  0.61491814  -0.12507788  0.78923642  1.0
  O  O12  1  1.12507788  -0.61491814  0.78923642  1.0
  O  O13  1  0.87492212  -0.38508186  0.21076358  1.0
  O  O14  1  0.38508186  0.12507788  0.21076358  1.0
  O  O15  1  0.45411657  -0.22108401  0.58935407  1.0
  O  O16  1  1.22108401  -0.45411657  0.58935407  1.0
  O  O17  1  0.77891599  -0.54588343  0.41064593  1.0
  O  O18  1  0.54588343  0.22108401  0.41064593  1.0
  O  O19  1  0.52108583  0.20895389  0.89666854  1.0
  O  O20  1  0.79104611  -0.52108583  0.89666854  1.0
  O  O21  1  1.20895389  -0.47891417  0.10333146  1.0
  O  O22  1  0.47891417  -0.20895389  0.10333146  1.0
  O  O23  1  0.29616948  0.05534919  0.72506709  1.0
  O  O24  1  0.94465081  -0.29616948  0.72506709  1.0
  O  O25  1  1.05534919  -0.70383052  0.27493291  1.0
  O  O26  1  0.70383052  -0.05534919  0.27493291  1.0
  O  O27  1  0.67508363  -0.67508363  0.72251722  1.0
  O  O28  1  0.32491637  -0.32491637  0.27748278  1.0
  O  O29  1  0.93461499  -0.93461499  0.38064135  1.0
  O  O30  1  0.06538501  -0.06538501  0.61935865  1.0
  Si  Si31  1  0.45881004  -0.11627872  0.80375933  1.0
  Si  Si32  1  1.11627872  -0.45881004  0.80375933  1.0
  Si  Si33  1  0.88372128  -0.54118996  0.19624067  1.0
  Si  Si34  1  0.54118996  0.11627872  0.19624067  1.0
  Si  Si35  1  0.64239106  0.18998302  0.70771653  1.0
  Si  Si36  1  0.81001698  -0.64239106  0.70771653  1.0
  Si  Si37  1  1.18998302  -0.35760894  0.29228347  1.0
  Si  Si38  1  0.35760894  -0.18998302  0.29228347  1.0
