# generated using pymatgen
data_CaMnF6
_symmetry_space_group_name_H-M   'P 1'
_cell_length_a   5.72214893
_cell_length_b   5.72214893
_cell_length_c   5.72214893
_cell_angle_alpha   58.18889438
_cell_angle_beta   58.18889438
_cell_angle_gamma   58.18889438
_symmetry_Int_Tables_number   1
_chemical_formula_structural   CaMnF6
_chemical_formula_sum   'Ca1 Mn1 F6'
_cell_volume   126.98535577
_cell_formula_units_Z   1
loop_
 _symmetry_equiv_pos_site_id
 _symmetry_equiv_pos_as_xyz
  1  'x, y, z'
loop_
 _atom_site_type_symbol
 _atom_site_label
 _atom_site_symmetry_multiplicity
 _atom_site_fract_x
 _atom_site_fract_y
 _atom_site_fract_z
 _atom_site_occupancy
  Ca  Ca0  1  0.50000000  0.50000000  -0.50000000  1.0
  Mn  Mn1  1  0.00000000  0.00000000  0.00000000  1.0
  F  F2  1  0.13583190  0.78095576  -0.69387317  1.0
  F  F3  1  0.69387317  -0.13583190  0.21904424  1.0
  F  F4  1  1.21904424  -0.30612683  -0.13583190  1.0
  F  F5  1  0.86416810  0.21904424  -0.30612683  1.0
  F  F6  1  0.30612683  0.13583190  -0.21904424  1.0
  F  F7  1  0.78095576  0.30612683  -0.86416810  1.0
