# generated using pymatgen
data_Cs4Bi
_symmetry_space_group_name_H-M   'P 1'
_cell_length_a   11.37565128
_cell_length_b   11.37565128
_cell_length_c   11.37565128
_cell_angle_alpha   60.00000000
_cell_angle_beta   60.00000000
_cell_angle_gamma   60.00000000
_symmetry_Int_Tables_number   1
_chemical_formula_structural   Cs4Bi
_chemical_formula_sum   'Cs8 Bi2'
_cell_volume   1040.91151432
_cell_formula_units_Z   2
loop_
 _symmetry_equiv_pos_site_id
 _symmetry_equiv_pos_as_xyz
  1  'x, y, z'
loop_
 _atom_site_type_symbol
 _atom_site_label
 _atom_site_symmetry_multiplicity
 _atom_site_fract_x
 _atom_site_fract_y
 _atom_site_fract_z
 _atom_site_occupancy
  Cs  Cs0  1  -0.12173698  0.87826302  0.36521093  1.0
  Cs  Cs1  1  0.87826302  -0.63478907  0.87826302  1.0
  Cs  Cs2  1  0.37173698  0.37173698  0.37173698  1.0
  Cs  Cs3  1  -0.11521093  0.37173698  0.37173698  1.0
  Cs  Cs4  1  -0.63478907  0.87826302  0.87826302  1.0
  Cs  Cs5  1  0.87826302  -0.12173698  0.87826302  1.0
  Cs  Cs6  1  0.37173698  -0.11521093  0.37173698  1.0
  Cs  Cs7  1  0.37173698  0.37173698  -0.11521093  1.0
  Bi  Bi8  1  0.50000000  0.50000000  -0.50000000  1.0
  Bi  Bi9  1  0.75000000  -0.25000000  0.75000000  1.0
