# generated using pymatgen
data_RbV2I3O13
_symmetry_space_group_name_H-M   'P 1'
_cell_length_a   9.66744907
_cell_length_b   9.66744907
_cell_length_c   9.66744907
_cell_angle_alpha   87.71756068
_cell_angle_beta   112.72682128
_cell_angle_gamma   130.80507765
_symmetry_Int_Tables_number   1
_chemical_formula_structural   RbV2I3O13
_chemical_formula_sum   'Rb2 V4 I6 O26'
_cell_volume   600.83457776
_cell_formula_units_Z   2
loop_
 _symmetry_equiv_pos_site_id
 _symmetry_equiv_pos_as_xyz
  1  'x, y, z'
loop_
 _atom_site_type_symbol
 _atom_site_label
 _atom_site_symmetry_multiplicity
 _atom_site_fract_x
 _atom_site_fract_y
 _atom_site_fract_z
 _atom_site_occupancy
  Rb  Rb0  1  0.63722611  0.78348091  1.35374519  1.0
  Rb  Rb1  1  0.42973572  0.28348091  0.64625481  1.0
  V  V2  1  1.02931301  0.92114281  0.85107559  1.0
  V  V3  1  1.07006722  1.42114281  1.39182980  1.0
  V  V4  1  1.02931301  0.67823742  0.60817020  1.0
  V  V5  1  1.07006722  1.17823742  1.14892441  1.0
  I  I6  1  1.03538142  1.27425831  1.74615823  1.0
  I  I7  1  1.52810008  1.77425831  1.73887689  1.0
  I  I8  1  1.03538142  0.78922319  0.26112311  1.0
  I  I9  1  0.52810008  0.28922319  0.25384177  1.0
  I  I10  1  0.58302691  1.06105333  1.02197358  1.0
  I  I11  1  1.03907976  0.56105333  0.97802642  1.0
  O  O12  1  0.74865852  1.05941385  1.63869619  1.0
  O  O13  1  1.42071766  1.55941385  1.81075533  1.0
  O  O14  1  0.74865852  0.60996233  0.18924467  1.0
  O  O15  1  0.42071766  0.10996233  0.36130381  1.0
  O  O16  1  1.13020875  1.14184800  1.77645377  1.0
  O  O17  1  1.36539423  1.64184800  1.51163925  1.0
  O  O18  1  1.13020875  0.85375498  0.48836075  1.0
  O  O19  1  0.36539423  0.35375498  0.22354623  1.0
  O  O20  1  0.76333627  1.24173251  1.23344247  1.0
  O  O21  1  1.00829004  0.74173251  0.97839623  1.0
  O  O22  1  0.76333627  1.02989380  1.02160377  1.0
  O  O23  1  1.00829004  0.52989380  0.76655753  1.0
  O  O24  1  1.04999583  1.26773757  1.48227059  1.0
  O  O25  1  0.78546697  0.76773757  0.71774173  1.0
  O  O26  1  1.04999583  1.06772524  1.28225827  1.0
  O  O27  1  0.78546697  0.56772524  0.51772941  1.0
  O  O28  1  1.08991895  1.63409144  1.25106069  1.0
  O  O29  1  0.38303076  1.13409144  1.04417249  1.0
  O  O30  1  1.08991895  0.33885826  0.95582751  1.0
  O  O31  1  1.38303076  0.83885826  0.74893931  1.0
  O  O32  1  1.10967690  1.37408342  1.23559348  1.0
  O  O33  1  1.13848994  0.87408342  0.76440652  1.0
  O  O34  1  0.42706555  0.84282331  1.08424224  1.0
  O  O35  1  0.75858106  0.34282331  0.91575776  1.0
  O  O36  1  0.01287931  0.01287931  0.00000000  1.0
  O  O37  1  1.01287931  0.51287931  0.50000000  1.0
