# generated using pymatgen
data_CoP3
_symmetry_space_group_name_H-M   'P 1'
_cell_length_a   6.68901746
_cell_length_b   6.68901746
_cell_length_c   6.68901746
_cell_angle_alpha   109.47122063
_cell_angle_beta   109.47122063
_cell_angle_gamma   109.47122063
_symmetry_Int_Tables_number   1
_chemical_formula_structural   CoP3
_chemical_formula_sum   'Co4 P12'
_cell_volume   230.39078123
_cell_formula_units_Z   4
loop_
 _symmetry_equiv_pos_site_id
 _symmetry_equiv_pos_as_xyz
  1  'x, y, z'
loop_
 _atom_site_type_symbol
 _atom_site_label
 _atom_site_symmetry_multiplicity
 _atom_site_fract_x
 _atom_site_fract_y
 _atom_site_fract_z
 _atom_site_occupancy
  Co  Co0  1  0.50000000  1.00000000  1.00000000  1.0
  Co  Co1  1  0.50000000  0.50000000  0.50000000  1.0
  Co  Co2  1  1.00000000  1.00000000  0.50000000  1.0
  Co  Co3  1  1.00000000  0.50000000  1.00000000  1.0
  P  P4  1  0.85380600  1.34797800  1.20178400  1.0
  P  P5  1  0.85380600  0.65202200  0.50582801  1.0
  P  P6  1  0.14619400  0.34797800  0.49417199  1.0
  P  P7  1  0.14619400  0.65202200  0.79821600  1.0
  P  P8  1  0.50582801  0.85380600  0.65202200  1.0
  P  P9  1  1.20178400  0.85380600  1.34797800  1.0
  P  P10  1  0.65202200  0.79821600  0.14619400  1.0
  P  P11  1  0.65202200  0.50582801  0.85380600  1.0
  P  P12  1  0.79821600  0.14619400  0.65202200  1.0
  P  P13  1  0.49417199  0.14619400  0.34797800  1.0
  P  P14  1  0.34797800  0.49417199  0.14619400  1.0
  P  P15  1  1.34797800  1.20178400  0.85380600  1.0
