# generated using pymatgen
data_ZnS
_symmetry_space_group_name_H-M   'P 1'
_cell_length_a   3.84957866
_cell_length_b   3.84957866
_cell_length_c   31.46125914
_cell_angle_alpha   90.00000000
_cell_angle_beta   90.00000000
_cell_angle_gamma   120.00000000
_symmetry_Int_Tables_number   1
_chemical_formula_structural   ZnS
_chemical_formula_sum   'Zn10 S10'
_cell_volume   403.76914421
_cell_formula_units_Z   10
loop_
 _symmetry_equiv_pos_site_id
 _symmetry_equiv_pos_as_xyz
  1  'x, y, z'
loop_
 _atom_site_type_symbol
 _atom_site_label
 _atom_site_symmetry_multiplicity
 _atom_site_fract_x
 _atom_site_fract_y
 _atom_site_fract_z
 _atom_site_occupancy
  Zn  Zn0  1  0.00000000  0.00000000  0.42493263  1.0
  Zn  Zn1  1  0.00000000  0.00000000  0.92493263  1.0
  Zn  Zn2  1  0.00000000  0.00000000  0.12510027  1.0
  Zn  Zn3  1  0.00000000  0.00000000  0.62510027  1.0
  Zn  Zn4  1  0.33333333  0.66666667  0.72502473  1.0
  Zn  Zn5  1  0.66666667  0.33333333  0.22502473  1.0
  Zn  Zn6  1  0.33333333  0.66666667  0.32499525  1.0
  Zn  Zn7  1  0.66666667  0.33333333  0.82499525  1.0
  Zn  Zn8  1  0.33333333  0.66666667  0.02501528  1.0
  Zn  Zn9  1  0.66666667  0.33333333  0.52501528  1.0
  S  S10  1  0.33333333  0.66666667  0.39994768  1.0
  S  S11  1  0.66666667  0.33333333  0.89994768  1.0
  S  S12  1  0.00000000  0.00000000  0.20002929  1.0
  S  S13  1  0.00000000  0.00000000  0.70002929  1.0
  S  S14  1  0.00000000  0.00000000  -0.00012141  1.0
  S  S15  1  0.00000000  0.00000000  0.49987859  1.0
  S  S16  1  0.33333333  0.66666667  0.79998527  1.0
  S  S17  1  0.66666667  0.33333333  0.29998527  1.0
  S  S18  1  0.33333333  0.66666667  0.10009102  1.0
  S  S19  1  0.66666667  0.33333333  0.60009102  1.0
