# generated using pymatgen
data_ZrBr4
_symmetry_space_group_name_H-M   'P 1'
_cell_length_a   12.62565549
_cell_length_b   12.62565549
_cell_length_c   12.62565549
_cell_angle_alpha   90.00000000
_cell_angle_beta   90.00000000
_cell_angle_gamma   90.00000000
_symmetry_Int_Tables_number   1
_chemical_formula_structural   ZrBr4
_chemical_formula_sum   'Zr8 Br32'
_cell_volume   2012.62009569
_cell_formula_units_Z   8
loop_
 _symmetry_equiv_pos_site_id
 _symmetry_equiv_pos_as_xyz
  1  'x, y, z'
loop_
 _atom_site_type_symbol
 _atom_site_label
 _atom_site_symmetry_multiplicity
 _atom_site_fract_x
 _atom_site_fract_y
 _atom_site_fract_z
 _atom_site_occupancy
  Zr  Zr0  1  0.36726528  0.86726528  0.63273472  1.0
  Zr  Zr1  1  0.36726528  0.63273472  0.13273472  1.0
  Zr  Zr2  1  0.86726528  0.86726528  0.86726528  1.0
  Zr  Zr3  1  0.86726528  0.63273472  0.36726528  1.0
  Zr  Zr4  1  0.63273472  0.36726528  0.86726528  1.0
  Zr  Zr5  1  0.63273472  0.13273472  0.36726528  1.0
  Zr  Zr6  1  0.13273472  0.36726528  0.63273472  1.0
  Zr  Zr7  1  0.13273472  0.13273472  0.13273472  1.0
  Br  Br8  1  0.52331923  0.48488311  0.75421432  1.0
  Br  Br9  1  0.52331923  1.01511689  0.25421432  1.0
  Br  Br10  1  1.02331923  0.48488311  0.74578568  1.0
  Br  Br11  1  1.02331923  1.01511689  0.24578568  1.0
  Br  Br12  1  -0.01511689  0.74578568  0.47668077  1.0
  Br  Br13  1  -0.01511689  0.75421432  -0.02331923  1.0
  Br  Br14  1  0.48488311  0.74578568  1.02331923  1.0
  Br  Br15  1  0.48488311  0.75421432  0.52331923  1.0
  Br  Br16  1  0.24578568  1.02331923  1.01511689  1.0
  Br  Br17  1  0.24578568  0.47668077  0.51511689  1.0
  Br  Br18  1  0.74578568  1.02331923  0.48488311  1.0
  Br  Br19  1  0.74578568  0.47668077  -0.01511689  1.0
  Br  Br20  1  0.47668077  -0.01511689  0.74578568  1.0
  Br  Br21  1  0.47668077  0.51511689  0.24578568  1.0
  Br  Br22  1  -0.02331923  -0.01511689  0.75421432  1.0
  Br  Br23  1  -0.02331923  0.51511689  0.25421432  1.0
  Br  Br24  1  1.01511689  0.24578568  1.02331923  1.0
  Br  Br25  1  1.01511689  0.25421432  0.52331923  1.0
  Br  Br26  1  0.51511689  0.24578568  0.47668077  1.0
  Br  Br27  1  0.51511689  0.25421432  -0.02331923  1.0
  Br  Br28  1  0.75421432  0.52331923  0.48488311  1.0
  Br  Br29  1  0.75421432  -0.02331923  -0.01511689  1.0
  Br  Br30  1  0.25421432  0.52331923  1.01511689  1.0
  Br  Br31  1  0.25421432  -0.02331923  0.51511689  1.0
  Br  Br32  1  0.25389558  0.75389558  0.74610442  1.0
  Br  Br33  1  0.25389558  0.74610442  0.24610442  1.0
  Br  Br34  1  0.75389558  0.75389558  0.75389558  1.0
  Br  Br35  1  0.75389558  0.74610442  0.25389558  1.0
  Br  Br36  1  0.74610442  0.25389558  0.75389558  1.0
  Br  Br37  1  0.74610442  0.24610442  0.25389558  1.0
  Br  Br38  1  0.24610442  0.25389558  0.74610442  1.0
  Br  Br39  1  0.24610442  0.24610442  0.24610442  1.0
