# generated using pymatgen
data_Ba3In4(CuO4)3
_symmetry_space_group_name_H-M   'P 1'
_cell_length_a   9.71831213
_cell_length_b   9.71831213
_cell_length_c   9.71831213
_cell_angle_alpha   101.34309872
_cell_angle_beta   101.34309872
_cell_angle_gamma   127.34641119
_symmetry_Int_Tables_number   1
_chemical_formula_structural   Ba3In4(CuO4)3
_chemical_formula_sum   'Ba6 In8 Cu6 O24'
_cell_volume   653.99330572
_cell_formula_units_Z   2
loop_
 _symmetry_equiv_pos_site_id
 _symmetry_equiv_pos_as_xyz
  1  'x, y, z'
loop_
 _atom_site_type_symbol
 _atom_site_label
 _atom_site_symmetry_multiplicity
 _atom_site_fract_x
 _atom_site_fract_y
 _atom_site_fract_z
 _atom_site_occupancy
  Ba  Ba0  1  1.27974239  0.77974239  1.05948478  1.0
  Ba  Ba1  1  0.22025761  0.27974239  0.50000000  1.0
  Ba  Ba2  1  0.77974239  0.72025761  1.50000000  1.0
  Ba  Ba3  1  0.72025761  1.22025761  0.94051522  1.0
  Ba  Ba4  1  0.50000000  0.50000000  0.00000000  1.0
  Ba  Ba5  1  0.00000000  0.00000000  0.00000000  1.0
  O  O6  1  1.12056552  1.12056552  0.74113103  1.0
  O  O7  1  0.62056552  0.62056552  0.74113103  1.0
  O  O8  1  0.87943448  0.62056552  1.00000000  1.0
  O  O9  1  1.37943448  1.12056552  1.00000000  1.0
  O  O10  1  1.62056552  0.87943448  1.00000000  1.0
  O  O11  1  1.12056552  0.37943448  1.00000000  1.0
  O  O12  1  0.37943448  0.37943448  0.25886897  1.0
  O  O13  1  0.87943448  0.87943448  0.25886897  1.0
  O  O14  1  1.11351699  0.61351699  1.27441900  1.0
  O  O15  1  0.88648301  1.38648301  0.72558100  1.0
  O  O16  1  1.66090202  1.16090202  1.27441900  1.0
  O  O17  1  0.33909798  0.83909798  0.72558100  1.0
  O  O18  1  0.38648301  0.66090202  0.50000000  1.0
  O  O19  1  0.83909798  1.11351699  0.50000000  1.0
  O  O20  1  1.16090202  0.88648301  1.50000000  1.0
  O  O21  1  1.61351699  1.33909798  1.50000000  1.0
  O  O22  1  1.49954713  1.22928293  1.72883006  1.0
  O  O23  1  0.00045287  0.72928293  0.72973581  1.0
  O  O24  1  0.72928293  0.99954713  0.72883006  1.0
  O  O25  1  0.77071707  0.49954713  1.27026419  1.0
  O  O26  1  0.99954713  0.27071707  1.27026419  1.0
  O  O27  1  0.50045287  0.77071707  0.27116994  1.0
  O  O28  1  0.22928293  0.50045287  0.72973581  1.0
  O  O29  1  1.27071707  1.00045287  1.27116994  1.0
  Cu  Cu30  1  0.60317676  0.89682324  0.50000000  1.0
  Cu  Cu31  1  1.39682324  1.10317676  1.50000000  1.0
  Cu  Cu32  1  0.89682324  0.39682324  1.29364647  1.0
  Cu  Cu33  1  0.10317676  0.60317676  0.70635353  1.0
  Cu  Cu34  1  0.75000000  1.25000000  0.50000000  1.0
  Cu  Cu35  1  0.25000000  0.75000000  0.50000000  1.0
  In  In36  1  0.25000000  1.00703154  0.75703154  1.0
  In  In37  1  0.75000000  1.50703154  0.75703154  1.0
  In  In38  1  0.50703154  0.75000000  0.75703154  1.0
  In  In39  1  1.00703154  1.25000000  0.75703154  1.0
  In  In40  1  1.49296846  1.25000000  1.24296846  1.0
  In  In41  1  0.99296846  0.75000000  1.24296846  1.0
  In  In42  1  0.75000000  0.99296846  0.24296846  1.0
  In  In43  1  0.25000000  0.49296846  0.24296846  1.0
