# generated using pymatgen
data_PCN(OF)2
_symmetry_space_group_name_H-M   'P 1'
_cell_length_a   10.12563743
_cell_length_b   10.12563743
_cell_length_c   10.12563743
_cell_angle_alpha   93.80645599
_cell_angle_beta   93.80645599
_cell_angle_gamma   150.13801971
_symmetry_Int_Tables_number   1
_chemical_formula_structural   PCN(OF)2
_chemical_formula_sum   'P4 C4 N4 O8 F8'
_cell_volume   499.46337479
_cell_formula_units_Z   4
loop_
 _symmetry_equiv_pos_site_id
 _symmetry_equiv_pos_as_xyz
  1  'x, y, z'
loop_
 _atom_site_type_symbol
 _atom_site_label
 _atom_site_symmetry_multiplicity
 _atom_site_fract_x
 _atom_site_fract_y
 _atom_site_fract_z
 _atom_site_occupancy
  P  P0  1  0.56467989  0.39772761  0.50601163  1.0
  P  P1  1  0.94133175  0.43532011  0.83304772  1.0
  P  P2  1  0.89171597  1.05866825  1.49398837  1.0
  P  P3  1  0.60227239  1.10828403  1.16695228  1.0
  C  C4  1  0.64189148  0.60135427  0.74612213  1.0
  C  C5  1  1.10423065  0.35810852  0.95946279  1.0
  C  C6  1  0.85523214  0.89576935  1.25387787  1.0
  C  C7  1  0.39864573  1.14476786  1.04053721  1.0
  N  N8  1  0.65543326  0.51556454  0.67042050  1.0
  N  N9  1  1.01498724  0.34456674  0.86013127  1.0
  N  N10  1  0.84514403  0.98501276  1.32957950  1.0
  N  N11  1  0.48443546  1.15485597  1.13986873  1.0
  O  O12  1  1.64053462  1.68746431  1.82689827  1.0
  O  O13  1  1.18636365  1.35946538  1.04692970  1.0
  O  O14  1  0.86056604  0.81363635  0.17310173  1.0
  O  O15  1  1.31253569  1.13943396  0.95307030  1.0
  O  O16  1  0.50755340  0.45208446  0.40873652  1.0
  O  O17  1  0.90118312  0.49244660  0.94453106  1.0
  O  O18  1  1.04334794  1.09881688  1.59126348  1.0
  O  O19  1  0.54791554  0.95665206  1.05546894  1.0
  F  F20  1  0.79801738  0.50392408  0.48771659  1.0
  F  F21  1  0.68969920  0.20198262  0.70590669  1.0
  F  F22  1  1.01620749  1.31030080  1.51228341  1.0
  F  F23  1  0.49607592  0.98379251  1.29409331  1.0
  F  F24  1  1.59767667  1.83618485  1.51035310  1.0
  F  F25  1  0.91267643  1.40232333  1.23850818  1.0
  F  F26  1  1.32583175  1.08732357  0.48964690  1.0
  F  F27  1  1.16381515  0.67416825  0.76149182  1.0
