# generated using pymatgen
data_TaPd3
_symmetry_space_group_name_H-M   'P 1'
_cell_length_a   4.88858216
_cell_length_b   4.88858216
_cell_length_c   4.88858216
_cell_angle_alpha   132.72142838
_cell_angle_beta   132.72142838
_cell_angle_gamma   69.09196814
_symmetry_Int_Tables_number   1
_chemical_formula_structural   TaPd3
_chemical_formula_sum   'Ta1 Pd3'
_cell_volume   61.88739241
_cell_formula_units_Z   1
loop_
 _symmetry_equiv_pos_site_id
 _symmetry_equiv_pos_as_xyz
  1  'x, y, z'
loop_
 _atom_site_type_symbol
 _atom_site_label
 _atom_site_symmetry_multiplicity
 _atom_site_fract_x
 _atom_site_fract_y
 _atom_site_fract_z
 _atom_site_occupancy
  Ta  Ta0  1  0.00000000  0.00000000  0.00000000  1.0
  Pd  Pd1  1  0.25000000  0.75000000  0.50000000  1.0
  Pd  Pd2  1  0.75000000  0.25000000  0.50000000  1.0
  Pd  Pd3  1  0.50000000  0.50000000  1.00000000  1.0
