# generated using pymatgen
data_Gd2(Al3Rh)3
_symmetry_space_group_name_H-M   'P 1'
_cell_length_a   7.55881934
_cell_length_b   7.55881934
_cell_length_c   9.51969180
_cell_angle_alpha   90.00000000
_cell_angle_beta   90.00000000
_cell_angle_gamma   60.63147821
_symmetry_Int_Tables_number   1
_chemical_formula_structural   Gd2(Al3Rh)3
_chemical_formula_sum   'Gd4 Al18 Rh6'
_cell_volume   474.01264751
_cell_formula_units_Z   2
loop_
 _symmetry_equiv_pos_site_id
 _symmetry_equiv_pos_as_xyz
  1  'x, y, z'
loop_
 _atom_site_type_symbol
 _atom_site_label
 _atom_site_symmetry_multiplicity
 _atom_site_fract_x
 _atom_site_fract_y
 _atom_site_fract_z
 _atom_site_occupancy
  Gd  Gd0  1  -0.00503514  1.32827253  0.25000000  1.0
  Gd  Gd1  1  0.32827253  0.99496486  0.75000000  1.0
  Gd  Gd2  1  -0.32827253  1.00503514  0.25000000  1.0
  Gd  Gd3  1  0.00503514  0.67172747  0.75000000  1.0
  Al  Al4  1  0.00134571  0.66438607  0.42532948  1.0
  Al  Al5  1  0.00134571  0.66438607  0.07467052  1.0
  Al  Al6  1  -0.33561393  1.00134571  0.92532948  1.0
  Al  Al7  1  -0.33561393  1.00134571  0.57467052  1.0
  Al  Al8  1  0.33561393  0.99865429  0.42532948  1.0
  Al  Al9  1  0.33561393  0.99865429  0.07467052  1.0
  Al  Al10  1  -0.00134571  1.33561393  0.92532948  1.0
  Al  Al11  1  -0.00134571  1.33561393  0.57467052  1.0
  Al  Al12  1  0.33993626  0.45046489  0.25000000  1.0
  Al  Al13  1  -0.54953511  1.33993626  0.75000000  1.0
  Al  Al14  1  0.54953511  0.66006374  0.25000000  1.0
  Al  Al15  1  -0.33993626  1.54953511  0.75000000  1.0
  Al  Al16  1  0.33336723  0.66663277  0.95097939  1.0
  Al  Al17  1  0.33336723  0.66663277  0.54902061  1.0
  Al  Al18  1  -0.33336723  1.33336723  0.45097939  1.0
  Al  Al19  1  -0.33336723  1.33336723  0.04902061  1.0
  Al  Al20  1  0.12926961  0.87073039  0.25000000  1.0
  Al  Al21  1  -0.12926961  1.12926961  0.75000000  1.0
  Rh  Rh22  1  0.67159154  0.67159154  0.50000000  1.0
  Rh  Rh23  1  0.67159154  0.67159154  0.00000000  1.0
  Rh  Rh24  1  0.32840846  0.32840846  0.50000000  1.0
  Rh  Rh25  1  0.32840846  0.32840846  0.00000000  1.0
  Rh  Rh26  1  0.00000000  0.00000000  0.50000000  1.0
  Rh  Rh27  1  0.00000000  0.00000000  0.00000000  1.0
