# generated using pymatgen
data_SrGa4O7
_symmetry_space_group_name_H-M   'P 1'
_cell_length_a   8.25347943
_cell_length_b   8.25347943
_cell_length_c   5.76824934
_cell_angle_alpha   77.30633801
_cell_angle_beta   102.69366199
_cell_angle_gamma   111.41657165
_symmetry_Int_Tables_number   1
_chemical_formula_structural   SrGa4O7
_chemical_formula_sum   'Sr2 Ga8 O14'
_cell_volume   352.62521662
_cell_formula_units_Z   2
loop_
 _symmetry_equiv_pos_site_id
 _symmetry_equiv_pos_as_xyz
  1  'x, y, z'
loop_
 _atom_site_type_symbol
 _atom_site_label
 _atom_site_symmetry_multiplicity
 _atom_site_fract_x
 _atom_site_fract_y
 _atom_site_fract_z
 _atom_site_occupancy
  Sr  Sr0  1  0.68930051  -0.31069949  0.75000000  1.0
  Sr  Sr1  1  1.31069949  0.31069949  0.25000000  1.0
  Ga  Ga2  1  1.58073856  0.24426888  0.79985816  1.0
  Ga  Ga3  1  0.75573112  -0.58073856  0.29985816  1.0
  Ga  Ga4  1  1.24426888  0.58073856  0.70014184  1.0
  Ga  Ga5  1  0.41926144  -0.24426888  0.20014184  1.0
  Ga  Ga6  1  0.18119668  -0.05767684  0.75901105  1.0
  Ga  Ga7  1  1.05767684  0.81880332  0.25901105  1.0
  Ga  Ga8  1  0.94232316  -0.81880332  0.74098895  1.0
  Ga  Ga9  1  1.81880332  0.05767684  0.24098895  1.0
  O  O10  1  0.43234386  -0.33497866  0.94075710  1.0
  O  O11  1  1.33497866  0.56765614  0.44075710  1.0
  O  O12  1  0.66502134  -0.56765614  0.55924290  1.0
  O  O13  1  1.56765614  0.33497866  0.05924290  1.0
  O  O14  1  1.74835234  0.12553208  0.90618830  1.0
  O  O15  1  0.87446792  -0.74835234  0.40618830  1.0
  O  O16  1  1.12553208  0.74835234  0.59381170  1.0
  O  O17  1  0.25164766  -0.12553208  0.09381170  1.0
  O  O18  1  1.36360830  0.12463077  0.64411802  1.0
  O  O19  1  0.87536923  -0.36360830  0.14411802  1.0
  O  O20  1  1.12463077  0.36360830  0.85588198  1.0
  O  O21  1  0.63639170  -0.12463077  0.35588198  1.0
  O  O22  1  0.96531261  -0.03468739  0.75000000  1.0
  O  O23  1  1.03468739  0.03468739  0.25000000  1.0
