# generated using pymatgen
data_CsHgBr3
_symmetry_space_group_name_H-M   'P 1'
_cell_length_a   12.88414267
_cell_length_b   12.88414267
_cell_length_c   14.98718014
_cell_angle_alpha   56.12219039
_cell_angle_beta   123.87780961
_cell_angle_gamma   142.42284262
_symmetry_Int_Tables_number   1
_chemical_formula_structural   CsHgBr3
_chemical_formula_sum   'Cs6 Hg6 Br18'
_cell_volume   1226.31185973
_cell_formula_units_Z   6
loop_
 _symmetry_equiv_pos_site_id
 _symmetry_equiv_pos_as_xyz
  1  'x, y, z'
loop_
 _atom_site_type_symbol
 _atom_site_label
 _atom_site_symmetry_multiplicity
 _atom_site_fract_x
 _atom_site_fract_y
 _atom_site_fract_z
 _atom_site_occupancy
  Cs  Cs0  1  0.32271144  0.14509346  0.17500118  1.0
  Cs  Cs1  1  0.85490654  0.67728856  0.67500118  1.0
  Cs  Cs2  1  1.14509346  -0.67728856  0.32499882  1.0
  Cs  Cs3  1  1.67728856  -0.14509346  0.82499882  1.0
  Cs  Cs4  1  0.50000000  0.00000000  -0.00000000  1.0
  Cs  Cs5  1  1.00000000  -0.50000000  0.50000000  1.0
  Hg  Hg6  1  0.60228020  -0.07099513  0.42763885  1.0
  Hg  Hg7  1  1.07099513  -0.60228020  0.92763885  1.0
  Hg  Hg8  1  0.92900487  0.60228020  0.07236115  1.0
  Hg  Hg9  1  1.39771980  0.07099513  0.57236115  1.0
  Hg  Hg10  1  0.75689015  0.75689015  0.25000000  1.0
  Hg  Hg11  1  0.24310985  0.24310985  0.75000000  1.0
  Br  Br12  1  1.90256379  0.05168766  0.06295837  1.0
  Br  Br13  1  0.94831234  -0.90256379  0.56295837  1.0
  Br  Br14  1  1.05168766  0.90256379  0.43704163  1.0
  Br  Br15  1  0.09743621  -0.05168766  0.93704163  1.0
  Br  Br16  1  1.61102780  -0.20754560  0.27841675  1.0
  Br  Br17  1  1.20754560  -0.61102780  0.77841675  1.0
  Br  Br18  1  0.79245440  0.61102780  0.22158325  1.0
  Br  Br19  1  0.38897220  0.20754560  0.72158325  1.0
  Br  Br20  1  0.68096171  0.16910619  0.25089854  1.0
  Br  Br21  1  0.83089381  -0.68096171  0.75089854  1.0
  Br  Br22  1  1.16910619  0.68096171  0.24910146  1.0
  Br  Br23  1  1.31903829  -0.16910619  0.74910146  1.0
  Br  Br24  1  0.55168835  0.38368965  0.46179018  1.0
  Br  Br25  1  0.61631035  0.44831165  0.96179018  1.0
  Br  Br26  1  1.38368965  -0.44831165  0.03820982  1.0
  Br  Br27  1  1.44831165  -0.38368965  0.53820982  1.0
  Br  Br28  1  1.50000000  -0.00000000  0.50000000  1.0
  Br  Br29  1  1.00000000  0.50000000  -0.00000000  1.0
