# generated using pymatgen
data_K3Ta2AsSe11
_symmetry_space_group_name_H-M   'P 1'
_cell_length_a   10.17595612
_cell_length_b   10.17595612
_cell_length_c   10.06288219
_cell_angle_alpha   83.14814006
_cell_angle_beta   96.85185994
_cell_angle_gamma   97.02631352
_symmetry_Int_Tables_number   1
_chemical_formula_structural   K3Ta2AsSe11
_chemical_formula_sum   'K6 Ta4 As2 Se22'
_cell_volume   1020.98724303
_cell_formula_units_Z   2
loop_
 _symmetry_equiv_pos_site_id
 _symmetry_equiv_pos_as_xyz
  1  'x, y, z'
loop_
 _atom_site_type_symbol
 _atom_site_label
 _atom_site_symmetry_multiplicity
 _atom_site_fract_x
 _atom_site_fract_y
 _atom_site_fract_z
 _atom_site_occupancy
  K  K0  1  0.93133747  -0.06675723  0.49945130  1.0
  K  K1  1  1.06675723  0.06866253  -0.00054870  1.0
  K  K2  1  1.29272607  0.53319206  0.24059800  1.0
  K  K3  1  0.46680794  -0.29272607  0.74059800  1.0
  K  K4  1  1.68246984  0.17069388  0.84542449  1.0
  K  K5  1  0.82930612  -0.68246984  0.34542449  1.0
  Ta  Ta6  1  0.57063914  -0.02561362  0.22940919  1.0
  Ta  Ta7  1  1.02561362  0.42936086  0.72940919  1.0
  Ta  Ta8  1  1.31827878  0.08946154  0.41245227  1.0
  Ta  Ta9  1  0.91053846  -0.31827878  0.91245227  1.0
  As  As10  1  1.37647684  0.30628068  0.68168163  1.0
  As  As11  1  0.69371932  -0.37647684  0.18168163  1.0
  Se  Se12  1  0.60255623  -0.21150361  0.42602549  1.0
  Se  Se13  1  1.21150361  0.39744377  0.92602549  1.0
  Se  Se14  1  0.53648593  -0.22463507  0.07585317  1.0
  Se  Se15  1  1.22463507  0.46351407  0.57585317  1.0
  Se  Se16  1  1.78822403  0.05658537  0.17269433  1.0
  Se  Se17  1  0.94341463  -0.78822403  0.67269433  1.0
  Se  Se18  1  1.58457030  0.00929019  0.48657770  1.0
  Se  Se19  1  0.99070981  -0.58457030  0.98657770  1.0
  Se  Se20  1  0.23751769  -0.16056188  0.47420098  1.0
  Se  Se21  1  1.16056188  0.76248231  0.97420098  1.0
  Se  Se22  1  0.29151912  -0.09553703  0.24917274  1.0
  Se  Se23  1  1.09553703  0.70848088  0.74917274  1.0
  Se  Se24  1  1.41904694  0.07618838  0.02023914  1.0
  Se  Se25  1  0.92381162  -0.41904694  0.52023914  1.0
  Se  Se26  1  1.46633389  0.20612392  0.20843582  1.0
  Se  Se27  1  0.79387608  -0.46633389  0.70843582  1.0
  Se  Se28  1  0.92113079  -0.28265573  0.16846982  1.0
  Se  Se29  1  1.28265573  0.07886921  0.66846982  1.0
  Se  Se30  1  1.49948709  0.29306348  0.48616832  1.0
  Se  Se31  1  0.70693652  -0.49948709  0.98616832  1.0
  Se  Se32  1  1.13179281  0.20417762  0.32584562  1.0
  Se  Se33  1  0.79582238  -0.13179281  0.82584562  1.0
