# generated using pymatgen
data_Al2HgSe4
_symmetry_space_group_name_H-M   'P 1'
_cell_length_a   7.76868014
_cell_length_b   7.76868014
_cell_length_c   7.76868014
_cell_angle_alpha   60.00000000
_cell_angle_beta   60.00000000
_cell_angle_gamma   60.00000000
_symmetry_Int_Tables_number   1
_chemical_formula_structural   Al2HgSe4
_chemical_formula_sum   'Al4 Hg2 Se8'
_cell_volume   331.53296987
_cell_formula_units_Z   2
loop_
 _symmetry_equiv_pos_site_id
 _symmetry_equiv_pos_as_xyz
  1  'x, y, z'
loop_
 _atom_site_type_symbol
 _atom_site_label
 _atom_site_symmetry_multiplicity
 _atom_site_fract_x
 _atom_site_fract_y
 _atom_site_fract_z
 _atom_site_occupancy
  Al  Al0  1  0.62500000  1.12500000  0.12500000  1.0
  Al  Al1  1  0.12500000  1.62500000  0.12500000  1.0
  Al  Al2  1  0.12500000  0.12500000  1.62500000  1.0
  Al  Al3  1  0.12500000  0.12500000  0.12500000  1.0
  Hg  Hg4  1  0.50000000  -0.50000000  0.50000000  1.0
  Hg  Hg5  1  0.75000000  0.75000000  0.75000000  1.0
  Se  Se6  1  -0.08134455  1.36044818  0.36044818  1.0
  Se  Se7  1  0.36044818  0.91865545  0.36044818  1.0
  Se  Se8  1  0.36044818  1.36044818  -0.08134455  1.0
  Se  Se9  1  0.36044818  1.36044818  0.36044818  1.0
  Se  Se10  1  -0.66865545  0.88955182  0.88955182  1.0
  Se  Se11  1  0.88955182  -0.66865545  0.88955182  1.0
  Se  Se12  1  0.88955182  0.88955182  -0.66865545  1.0
  Se  Se13  1  0.88955182  0.88955182  0.88955182  1.0
