# generated using pymatgen
data_Ag4S(NO)2
_symmetry_space_group_name_H-M   'P 1'
_cell_length_a   10.45491586
_cell_length_b   5.88387896
_cell_length_c   9.19080154
_cell_angle_alpha   90.00000000
_cell_angle_beta   90.00000000
_cell_angle_gamma   90.00000000
_symmetry_Int_Tables_number   1
_chemical_formula_structural   Ag4S(NO)2
_chemical_formula_sum   'Ag16 S4 N8 O8'
_cell_volume   565.37637964
_cell_formula_units_Z   4
loop_
 _symmetry_equiv_pos_site_id
 _symmetry_equiv_pos_as_xyz
  1  'x, y, z'
loop_
 _atom_site_type_symbol
 _atom_site_label
 _atom_site_symmetry_multiplicity
 _atom_site_fract_x
 _atom_site_fract_y
 _atom_site_fract_z
 _atom_site_occupancy
  Ag  Ag0  1  0.44821015  0.69912930  0.94436862  1.0
  Ag  Ag1  1  0.94821015  0.80087070  0.94436862  1.0
  Ag  Ag2  1  0.55178985  0.30087070  0.44436862  1.0
  Ag  Ag3  1  0.05178985  0.19912930  0.44436862  1.0
  Ag  Ag4  1  0.40108225  0.09338719  0.72905643  1.0
  Ag  Ag5  1  0.90108225  0.40661281  0.72905643  1.0
  Ag  Ag6  1  0.59891775  0.90661281  0.22905643  1.0
  Ag  Ag7  1  0.09891775  0.59338719  0.22905643  1.0
  Ag  Ag8  1  0.19371868  0.53084762  0.89316471  1.0
  Ag  Ag9  1  0.69371868  0.96915238  0.89316471  1.0
  Ag  Ag10  1  0.80628132  0.46915238  0.39316471  1.0
  Ag  Ag11  1  0.30628132  0.03084762  0.39316471  1.0
  Ag  Ag12  1  0.14076763  0.92674605  0.71011374  1.0
  Ag  Ag13  1  0.64076763  0.57325395  0.71011374  1.0
  Ag  Ag14  1  0.85923237  0.07325395  0.21011374  1.0
  Ag  Ag15  1  0.35923237  0.42674605  0.21011374  1.0
  S  S16  1  0.35643669  0.59625528  0.61006950  1.0
  S  S17  1  0.85643669  0.90374472  0.61006950  1.0
  S  S18  1  0.64356331  0.40374472  0.11006950  1.0
  S  S19  1  0.14356331  0.09625528  0.11006950  1.0
  N  N20  1  0.32106913  0.75006692  0.75668146  1.0
  N  N21  1  0.82106913  0.74993308  0.75668146  1.0
  N  N22  1  0.67893087  0.24993308  0.25668146  1.0
  N  N23  1  0.17893087  0.25006692  0.25668146  1.0
  N  N24  1  0.96487129  0.08661563  0.64777955  1.0
  N  N25  1  0.46487129  0.41338437  0.64777955  1.0
  N  N26  1  0.03512871  0.91338437  0.14777955  1.0
  N  N27  1  0.53512871  0.58661563  0.14777955  1.0
  O  O28  1  0.41307266  0.75695521  0.49772693  1.0
  O  O29  1  0.91307266  0.74304479  0.49772693  1.0
  O  O30  1  0.58692734  0.24304479  -0.00227307  1.0
  O  O31  1  0.08692734  0.25695521  -0.00227307  1.0
  O  O32  1  0.26327786  0.99016073  0.05813905  1.0
  O  O33  1  0.76327786  0.50983927  0.05813905  1.0
  O  O34  1  0.73672214  0.00983927  0.55813905  1.0
  O  O35  1  0.23672214  0.49016073  0.55813905  1.0
