# generated using pymatgen
data_KI
_symmetry_space_group_name_H-M   'P 1'
_cell_length_a   8.65156631
_cell_length_b   4.97491175
_cell_length_c   8.60218961
_cell_angle_alpha   90.00000000
_cell_angle_beta   90.00000000
_cell_angle_gamma   90.00000000
_symmetry_Int_Tables_number   1
_chemical_formula_structural   KI
_chemical_formula_sum   'K4 I4'
_cell_volume   370.24494107
_cell_formula_units_Z   4
loop_
 _symmetry_equiv_pos_site_id
 _symmetry_equiv_pos_as_xyz
  1  'x, y, z'
loop_
 _atom_site_type_symbol
 _atom_site_label
 _atom_site_symmetry_multiplicity
 _atom_site_fract_x
 _atom_site_fract_y
 _atom_site_fract_z
 _atom_site_occupancy
  K  K0  1  0.50021394  0.25000000  0.24979568  1.0
  K  K1  1  0.00021394  0.25000000  0.25020432  1.0
  K  K2  1  0.49978606  0.75000000  0.75020432  1.0
  K  K3  1  0.99978606  0.75000000  0.74979568  1.0
  I  I4  1  0.74981668  0.25000000  0.58378716  1.0
  I  I5  1  0.24981668  0.25000000  0.91621284  1.0
  I  I6  1  0.25018332  0.75000000  0.41621284  1.0
  I  I7  1  0.75018332  0.75000000  0.08378716  1.0
