# generated using pymatgen
data_Sr2Ni(HO)6
_symmetry_space_group_name_H-M   'P 1'
_cell_length_a   5.75779655
_cell_length_b   6.22086181
_cell_length_c   9.93257379
_cell_angle_alpha   90.00000000
_cell_angle_beta   125.23347492
_cell_angle_gamma   90.00000000
_symmetry_Int_Tables_number   1
_chemical_formula_structural   Sr2Ni(HO)6
_chemical_formula_sum   'Sr4 Ni2 H12 O12'
_cell_volume   290.59533722
_cell_formula_units_Z   2
loop_
 _symmetry_equiv_pos_site_id
 _symmetry_equiv_pos_as_xyz
  1  'x, y, z'
loop_
 _atom_site_type_symbol
 _atom_site_label
 _atom_site_symmetry_multiplicity
 _atom_site_fract_x
 _atom_site_fract_y
 _atom_site_fract_z
 _atom_site_occupancy
  Sr  Sr0  1  0.71937621  0.07712572  0.25527870  1.0
  Sr  Sr1  1  0.71937621  0.42287428  0.75527870  1.0
  Sr  Sr2  1  0.28062379  0.57712572  0.24472130  1.0
  Sr  Sr3  1  0.28062379  0.92287428  0.74472130  1.0
  Ni  Ni4  1  0.00000000  0.50000000  0.50000000  1.0
  Ni  Ni5  1  0.00000000  0.00000000  0.00000000  1.0
  H  H6  1  0.72632316  0.31027888  0.03505843  1.0
  H  H7  1  0.72632316  0.18972112  0.53505843  1.0
  H  H8  1  0.27367684  0.81027888  0.46494157  1.0
  H  H9  1  0.27367684  0.68972112  0.96494157  1.0
  H  H10  1  0.30116845  0.21750867  0.48681895  1.0
  H  H11  1  0.30116845  0.28249133  0.98681895  1.0
  H  H12  1  0.69883155  0.71750867  0.01318105  1.0
  H  H13  1  0.69883155  0.78249133  0.51318105  1.0
  H  H14  1  0.29086967  0.07456498  0.30847698  1.0
  H  H15  1  0.29086967  0.42543502  0.80847698  1.0
  H  H16  1  0.70913033  0.57456498  0.19152302  1.0
  H  H17  1  0.70913033  0.92543502  0.69152302  1.0
  O  O18  1  0.86137658  0.46844686  0.25270223  1.0
  O  O19  1  0.86137658  0.03155314  0.75270223  1.0
  O  O20  1  0.13862342  0.96844686  0.24729777  1.0
  O  O21  1  0.13862342  0.53155314  0.74729777  1.0
  O  O22  1  0.77973564  0.78065611  0.44967849  1.0
  O  O23  1  0.77973564  0.71934389  0.94967849  1.0
  O  O24  1  0.22026436  0.28065611  0.05032151  1.0
  O  O25  1  0.22026436  0.21934389  0.55032151  1.0
  O  O26  1  0.62811440  0.29634928  0.44637141  1.0
  O  O27  1  0.62811440  0.20365072  0.94637141  1.0
  O  O28  1  0.37188560  0.79634928  0.05362859  1.0
  O  O29  1  0.37188560  0.70365072  0.55362859  1.0
