# generated using pymatgen
data_Mn3V2O8
_symmetry_space_group_name_H-M   'P 1'
_cell_length_a   6.68381727
_cell_length_b   6.68381727
_cell_length_c   8.41164265
_cell_angle_alpha   90.00000000
_cell_angle_beta   90.00000000
_cell_angle_gamma   124.69386896
_symmetry_Int_Tables_number   1
_chemical_formula_structural   Mn3V2O8
_chemical_formula_sum   'Mn6 V4 O16'
_cell_volume   308.96553692
_cell_formula_units_Z   2
loop_
 _symmetry_equiv_pos_site_id
 _symmetry_equiv_pos_as_xyz
  1  'x, y, z'
loop_
 _atom_site_type_symbol
 _atom_site_label
 _atom_site_symmetry_multiplicity
 _atom_site_fract_x
 _atom_site_fract_y
 _atom_site_fract_z
 _atom_site_occupancy
  Mn  Mn0  1  -0.11091327  0.61091327  0.75000000  1.0
  Mn  Mn1  1  0.38908673  1.11091327  0.75000000  1.0
  Mn  Mn2  1  0.61091327  0.88908673  0.25000000  1.0
  Mn  Mn3  1  0.11091327  0.38908673  0.25000000  1.0
  Mn  Mn4  1  0.00000000  0.00000000  0.00000000  1.0
  Mn  Mn5  1  0.50000000  0.50000000  0.50000000  1.0
  V  V6  1  0.37955260  0.62044740  0.88234919  1.0
  V  V7  1  -0.12044740  0.12044740  0.61765081  1.0
  V  V8  1  -0.37955260  0.37955260  0.11765081  1.0
  V  V9  1  0.12044740  0.87955260  0.38234919  1.0
  O  O10  1  -0.15629891  0.61075425  -0.00229083  1.0
  O  O11  1  0.34370109  1.11075425  0.50229083  1.0
  O  O12  1  0.61075425  0.84370109  1.00229083  1.0
  O  O13  1  0.11075425  0.34370109  0.49770917  1.0
  O  O14  1  0.38924575  1.15629891  -0.00229083  1.0
  O  O15  1  -0.11075425  0.65629891  0.50229083  1.0
  O  O16  1  0.15629891  0.38924575  1.00229083  1.0
  O  O17  1  0.65629891  0.88924575  0.49770917  1.0
  O  O18  1  -0.00130645  0.00130645  0.75262148  1.0
  O  O19  1  0.49869355  0.50130645  0.74737852  1.0
  O  O20  1  0.00130645  0.99869355  0.24737852  1.0
  O  O21  1  -0.49869355  0.49869355  0.25262148  1.0
  O  O22  1  0.25235481  0.74764519  0.77698448  1.0
  O  O23  1  -0.24764519  0.24764519  0.72301552  1.0
  O  O24  1  -0.25235481  0.25235481  0.22301552  1.0
  O  O25  1  0.24764519  0.75235481  0.27698448  1.0
