# generated using pymatgen
data_NaSi2(HO2)3
_symmetry_space_group_name_H-M   'P 1'
_cell_length_a   9.81580494
_cell_length_b   8.95701220
_cell_length_c   12.27043790
_cell_angle_alpha   52.29336468
_cell_angle_beta   46.21439635
_cell_angle_gamma   81.49223896
_symmetry_Int_Tables_number   1
_chemical_formula_structural   NaSi2(HO2)3
_chemical_formula_sum   'Na4 Si8 H12 O24'
_cell_volume   539.89379105
_cell_formula_units_Z   4
loop_
 _symmetry_equiv_pos_site_id
 _symmetry_equiv_pos_as_xyz
  1  'x, y, z'
loop_
 _atom_site_type_symbol
 _atom_site_label
 _atom_site_symmetry_multiplicity
 _atom_site_fract_x
 _atom_site_fract_y
 _atom_site_fract_z
 _atom_site_occupancy
  Na  Na0  1  0.64074608  0.44655485  0.33312812  1.0
  Na  Na1  1  0.91687188  0.67042905  -0.39074608  1.0
  Na  Na2  1  0.44655485  0.64074608  -0.42042905  1.0
  Na  Na3  1  0.67042905  0.91687188  -0.19655485  1.0
  Si  Si4  1  -0.07417930  0.19228008  0.75770892  1.0
  Si  Si5  1  0.49229108  0.12580970  0.32417930  1.0
  Si  Si6  1  0.19228008  -0.07417930  0.12419030  1.0
  Si  Si7  1  0.12580970  0.49229108  0.05771992  1.0
  Si  Si8  1  0.17756080  -0.06887770  0.77357283  1.0
  Si  Si9  1  0.47642717  0.13225593  0.07243920  1.0
  Si  Si10  1  -0.06887770  0.17756080  0.11774407  1.0
  Si  Si11  1  0.13225593  0.47642717  0.31887770  1.0
  H  H12  1  -0.22429816  0.52587632  0.46444892  1.0
  H  H13  1  0.78555108  1.01602708  -0.52570184  1.0
  H  H14  1  0.52587632  -0.22429816  0.23397292  1.0
  H  H15  1  1.01602708  0.78555108  -0.27587632  1.0
  H  H16  1  0.44906803  0.47753478  0.19856580  1.0
  H  H17  1  1.05143420  0.37516861  -0.19906803  1.0
  H  H18  1  0.47753478  0.44906803  -0.12516861  1.0
  H  H19  1  0.37516861  1.05143420  -0.22753478  1.0
  H  H20  1  0.78033123  0.58513495  -0.05457699  1.0
  H  H21  1  1.30457699  0.56088918  -0.53033123  1.0
  H  H22  1  0.58513495  0.78033123  -0.31088918  1.0
  H  H23  1  0.56088918  1.30457699  -0.33513495  1.0
  O  O24  1  -0.35772412  0.45751956  0.52640453  1.0
  O  O25  1  0.72359547  0.87619997  -0.39227588  1.0
  O  O26  1  0.45751956  -0.35772412  0.37380003  1.0
  O  O27  1  0.87619997  0.72359547  -0.20751956  1.0
  O  O28  1  -0.00644010  0.00644811  0.83241768  1.0
  O  O29  1  0.41758232  0.08242570  0.25644010  1.0
  O  O30  1  0.00644811  -0.00644010  0.16757430  1.0
  O  O31  1  0.08242570  0.41758232  0.24355189  1.0
  O  O32  1  -0.02461134  0.25067425  0.57186359  1.0
  O  O33  1  0.67813641  0.04792650  0.27461134  1.0
  O  O34  1  0.25067425  -0.02461134  0.20207350  1.0
  O  O35  1  0.04792650  0.67813641  -0.00067425  1.0
  O  O36  1  0.38425876  0.57535536  0.16661380  1.0
  O  O37  1  1.08338620  0.37622791  -0.13425876  1.0
  O  O38  1  0.57535536  0.38425876  -0.12622791  1.0
  O  O39  1  0.37622791  1.08338620  -0.32535536  1.0
  O  O40  1  0.56925287  0.36423262  0.21828923  1.0
  O  O41  1  1.03171077  0.40177472  -0.31925287  1.0
  O  O42  1  0.36423262  0.56925287  -0.15177472  1.0
  O  O43  1  0.40177472  1.03171077  -0.11423262  1.0
  O  O44  1  0.27555374  -0.06185166  0.59274258  1.0
  O  O45  1  0.65725742  0.05644465  -0.02555374  1.0
  O  O46  1  -0.06185166  0.27555374  0.19355535  1.0
  O  O47  1  0.05644465  0.65725742  0.31185166  1.0
