# generated using pymatgen
data_OsXe(O2F3)2
_symmetry_space_group_name_H-M   'P 1'
_cell_length_a   8.36854912
_cell_length_b   5.56540981
_cell_length_c   9.91057696
_cell_angle_alpha   101.43236277
_cell_angle_beta   98.87883978
_cell_angle_gamma   86.89739471
_symmetry_Int_Tables_number   1
_chemical_formula_structural   OsXe(O2F3)2
_chemical_formula_sum   'Os2 Xe2 O8 F12'
_cell_volume   446.86783535
_cell_formula_units_Z   2
loop_
 _symmetry_equiv_pos_site_id
 _symmetry_equiv_pos_as_xyz
  1  'x, y, z'
loop_
 _atom_site_type_symbol
 _atom_site_label
 _atom_site_symmetry_multiplicity
 _atom_site_fract_x
 _atom_site_fract_y
 _atom_site_fract_z
 _atom_site_occupancy
  Os  Os0  1  0.65568519  0.62042987  -0.36557724  1.0
  Os  Os1  1  0.34431481  0.37957013  -0.63442276  1.0
  Xe  Xe2  1  0.78680252  0.94993766  -0.82659420  1.0
  Xe  Xe3  1  0.21319748  0.05006234  -0.17340580  1.0
  O  O4  1  0.73302586  0.90474539  -0.33891148  1.0
  O  O5  1  0.26697414  0.09525461  -0.66108852  1.0
  O  O6  1  0.94275903  0.76276328  -0.90081582  1.0
  O  O7  1  0.05724097  0.23723672  -0.09918418  1.0
  O  O8  1  0.28621203  0.48026908  -0.78582449  1.0
  O  O9  1  0.71378797  0.51973092  -0.21417551  1.0
  O  O10  1  0.77767629  0.45026769  -0.47281011  1.0
  O  O11  1  0.22232371  0.54973231  -0.52718989  1.0
  F  F12  1  0.30763190  0.96162689  -0.99103655  1.0
  F  F13  1  0.69236810  0.03837311  -0.00896345  1.0
  F  F14  1  0.86324680  0.87911092  -0.63712317  1.0
  F  F15  1  0.13675320  0.12088908  -0.36287683  1.0
  F  F16  1  0.45174228  0.75497150  -0.30825617  1.0
  F  F17  1  0.54825772  0.24502850  -0.69174383  1.0
  F  F18  1  0.50900312  0.67440985  -0.55689786  1.0
  F  F19  1  0.49099688  0.32559015  -0.44310214  1.0
  F  F20  1  0.63439090  0.67330947  -0.86299787  1.0
  F  F21  1  0.36560910  0.32669053  -0.13700213  1.0
  F  F22  1  0.92240218  0.24893439  -0.77983180  1.0
  F  F23  1  0.07759782  0.75106561  -0.22016820  1.0
