# generated using pymatgen
data_Gd3MgAlS7
_symmetry_space_group_name_H-M   'P 1'
_cell_length_a   9.80708056
_cell_length_b   9.80708056
_cell_length_c   6.19623388
_cell_angle_alpha   90.00000000
_cell_angle_beta   90.00000000
_cell_angle_gamma   120.00000000
_symmetry_Int_Tables_number   1
_chemical_formula_structural   Gd3MgAlS7
_chemical_formula_sum   'Gd6 Mg2 Al2 S14'
_cell_volume   516.10482529
_cell_formula_units_Z   2
loop_
 _symmetry_equiv_pos_site_id
 _symmetry_equiv_pos_as_xyz
  1  'x, y, z'
loop_
 _atom_site_type_symbol
 _atom_site_label
 _atom_site_symmetry_multiplicity
 _atom_site_fract_x
 _atom_site_fract_y
 _atom_site_fract_z
 _atom_site_occupancy
  Gd  Gd0  1  0.77088929  0.62024715  0.21159031  1.0
  Gd  Gd1  1  0.62024715  0.84935786  0.71159031  1.0
  Gd  Gd2  1  0.84935786  0.22911071  0.21159031  1.0
  Gd  Gd3  1  0.37975285  0.15064214  0.21159031  1.0
  Gd  Gd4  1  0.22911071  0.37975285  0.71159031  1.0
  Gd  Gd5  1  0.15064214  0.77088929  0.71159031  1.0
  Mg  Mg6  1  0.00000000  0.00000000  0.03645347  1.0
  Mg  Mg7  1  0.00000000  0.00000000  0.53645347  1.0
  Al  Al8  1  0.33333333  0.66666667  0.13399609  1.0
  Al  Al9  1  0.66666667  0.33333333  0.63399609  1.0
  S  S10  1  0.42605531  0.90590134  -0.02045430  1.0
  S  S11  1  0.90590134  0.47984603  0.47954570  1.0
  S  S12  1  0.47984603  0.57394469  -0.02045430  1.0
  S  S13  1  0.09409866  0.52015397  -0.02045430  1.0
  S  S14  1  0.57394469  0.09409866  0.47954570  1.0
  S  S15  1  0.52015397  0.42605531  0.47954570  1.0
  S  S16  1  0.10252535  0.86072348  0.29662061  1.0
  S  S17  1  0.86072348  0.75819813  0.79662061  1.0
  S  S18  1  0.75819813  0.89747465  0.29662061  1.0
  S  S19  1  0.13927652  0.24180187  0.29662061  1.0
  S  S20  1  0.89747465  0.13927652  0.79662061  1.0
  S  S21  1  0.24180187  0.10252535  0.79662061  1.0
  S  S22  1  0.33333333  0.66666667  0.49728058  1.0
  S  S23  1  0.66666667  0.33333333  -0.00271942  1.0
