# generated using pymatgen
data_LaAg2
_symmetry_space_group_name_H-M   'P 1'
_cell_length_a   6.06088553
_cell_length_b   6.06088553
_cell_length_c   6.06088553
_cell_angle_alpha   132.66577580
_cell_angle_beta   105.33375052
_cell_angle_gamma   93.31573803
_symmetry_Int_Tables_number   1
_chemical_formula_structural   LaAg2
_chemical_formula_sum   'La2 Ag4'
_cell_volume   148.80275650
_cell_formula_units_Z   2
loop_
 _symmetry_equiv_pos_site_id
 _symmetry_equiv_pos_as_xyz
  1  'x, y, z'
loop_
 _atom_site_type_symbol
 _atom_site_label
 _atom_site_symmetry_multiplicity
 _atom_site_fract_x
 _atom_site_fract_y
 _atom_site_fract_z
 _atom_site_occupancy
  La  La0  1  1.71758257  1.46758257  1.25000000  1.0
  La  La1  1  0.28241743  0.53241743  0.75000000  1.0
  Ag  Ag2  1  1.29511252  0.83433049  1.46078203  1.0
  Ag  Ag3  1  1.12645154  0.16566951  0.96078203  1.0
  Ag  Ag4  1  0.70488748  1.16566951  0.53921797  1.0
  Ag  Ag5  1  0.87354846  0.83433049  0.03921797  1.0
