# generated using pymatgen
data_HPbIO
_symmetry_space_group_name_H-M   'P 1'
_cell_length_a   7.93440039
_cell_length_b   4.26981385
_cell_length_c   10.72852483
_cell_angle_alpha   90.00000000
_cell_angle_beta   90.00000000
_cell_angle_gamma   90.00000000
_symmetry_Int_Tables_number   1
_chemical_formula_structural   HPbIO
_chemical_formula_sum   'H4 Pb4 I4 O4'
_cell_volume   363.46539201
_cell_formula_units_Z   4
loop_
 _symmetry_equiv_pos_site_id
 _symmetry_equiv_pos_as_xyz
  1  'x, y, z'
loop_
 _atom_site_type_symbol
 _atom_site_label
 _atom_site_symmetry_multiplicity
 _atom_site_fract_x
 _atom_site_fract_y
 _atom_site_fract_z
 _atom_site_occupancy
  H  H0  1  0.80811308  0.75000000  0.10461388  1.0
  H  H1  1  0.30811308  0.75000000  0.39538612  1.0
  H  H2  1  0.19188692  0.25000000  0.89538612  1.0
  H  H3  1  0.69188692  0.25000000  0.60461388  1.0
  Pb  Pb4  1  0.67997922  0.75000000  0.41759536  1.0
  Pb  Pb5  1  0.17997922  0.75000000  0.08240464  1.0
  Pb  Pb6  1  0.32002078  0.25000000  0.58240464  1.0
  Pb  Pb7  1  0.82002078  0.25000000  0.91759536  1.0
  I  I8  1  0.94555646  0.75000000  0.67945152  1.0
  I  I9  1  0.44555646  0.75000000  0.82054848  1.0
  I  I10  1  0.05444354  0.25000000  0.32054848  1.0
  I  I11  1  0.55444354  0.25000000  0.17945152  1.0
  O  O12  1  0.88307359  0.75000000  0.03226207  1.0
  O  O13  1  0.38307359  0.75000000  0.46773793  1.0
  O  O14  1  0.11692641  0.25000000  0.96773793  1.0
  O  O15  1  0.61692641  0.25000000  0.53226207  1.0
