# generated using pymatgen
data_KP(HO2)2
_symmetry_space_group_name_H-M   'P 1'
_cell_length_a   6.72780731
_cell_length_b   8.95171817
_cell_length_c   7.62643097
_cell_angle_alpha   90.00000000
_cell_angle_beta   90.00000000
_cell_angle_gamma   90.00000000
_symmetry_Int_Tables_number   1
_chemical_formula_structural   KP(HO2)2
_chemical_formula_sum   'K4 P4 H8 O16'
_cell_volume   459.30512210
_cell_formula_units_Z   4
loop_
 _symmetry_equiv_pos_site_id
 _symmetry_equiv_pos_as_xyz
  1  'x, y, z'
loop_
 _atom_site_type_symbol
 _atom_site_label
 _atom_site_symmetry_multiplicity
 _atom_site_fract_x
 _atom_site_fract_y
 _atom_site_fract_z
 _atom_site_occupancy
  K  K0  1  0.09132354  0.09595619  0.49520677  1.0
  K  K1  1  0.59132354  0.40404381  0.50479323  1.0
  K  K2  1  -0.09132354  0.59595619  0.00479323  1.0
  K  K3  1  0.40867646  -0.09595619  -0.00479323  1.0
  P  P4  1  0.59363666  -0.03406477  0.46914580  1.0
  P  P5  1  0.09363666  0.53406477  0.53085420  1.0
  P  P6  1  0.40636334  0.46593523  0.03085420  1.0
  P  P7  1  -0.09363666  0.03406477  -0.03085420  1.0
  H  H8  1  0.43272917  0.77714526  0.59350705  1.0
  H  H9  1  0.93272917  0.72285474  0.40649295  1.0
  H  H10  1  0.56727083  0.27714526  0.90649295  1.0
  H  H11  1  0.06727083  0.22285474  0.09350705  1.0
  H  H12  1  0.79228588  0.89095560  0.24671391  1.0
  H  H13  1  0.29228588  0.60904440  0.75328609  1.0
  H  H14  1  0.20771412  0.39095560  0.25328609  1.0
  H  H15  1  0.70771412  0.10904440  0.74671391  1.0
  O  O16  1  0.52387642  0.85959746  0.62841880  1.0
  O  O17  1  1.02387642  0.64040254  0.37158120  1.0
  O  O18  1  0.47612358  0.35959746  0.87158120  1.0
  O  O19  1  -0.02387642  0.14040254  0.12841880  1.0
  O  O20  1  0.77931656  0.87778140  0.38388312  1.0
  O  O21  1  0.27931656  0.62221860  0.61611688  1.0
  O  O22  1  0.22068344  0.37778140  0.11611688  1.0
  O  O23  1  0.72068344  0.12221860  0.88388312  1.0
  O  O24  1  0.43019294  -0.01118820  0.33646312  1.0
  O  O25  1  0.93019294  0.51118820  0.66353688  1.0
  O  O26  1  0.56980706  0.48881180  0.16353688  1.0
  O  O27  1  0.06980706  1.01118820  0.83646312  1.0
  O  O28  1  0.67614653  0.10645122  0.55920695  1.0
  O  O29  1  0.17614653  0.39354878  0.44079305  1.0
  O  O30  1  0.32385347  0.60645122  0.94079305  1.0
  O  O31  1  0.82385347  0.89354878  0.05920695  1.0
