# generated using pymatgen
data_K2GdF5
_symmetry_space_group_name_H-M   'P 1'
_cell_length_a   11.04587538
_cell_length_b   7.45275485
_cell_length_c   6.74915512
_cell_angle_alpha   90.00000000
_cell_angle_beta   90.00000000
_cell_angle_gamma   90.00000000
_symmetry_Int_Tables_number   1
_chemical_formula_structural   K2GdF5
_chemical_formula_sum   'K8 Gd4 F20'
_cell_volume   555.60530616
_cell_formula_units_Z   4
loop_
 _symmetry_equiv_pos_site_id
 _symmetry_equiv_pos_as_xyz
  1  'x, y, z'
loop_
 _atom_site_type_symbol
 _atom_site_label
 _atom_site_symmetry_multiplicity
 _atom_site_fract_x
 _atom_site_fract_y
 _atom_site_fract_z
 _atom_site_occupancy
  K  K0  1  0.67173268  0.50262733  0.02927581  1.0
  K  K1  1  0.67173268  0.99737267  0.02927581  1.0
  K  K2  1  0.17173268  0.50262733  0.47072419  1.0
  K  K3  1  0.17173268  0.99737267  0.47072419  1.0
  K  K4  1  0.32826732  0.00262733  0.97072419  1.0
  K  K5  1  0.32826732  0.49737267  0.97072419  1.0
  K  K6  1  0.82826732  0.00262733  0.52927581  1.0
  K  K7  1  0.82826732  0.49737267  0.52927581  1.0
  Gd  Gd8  1  0.99739226  0.25000000  0.06518143  1.0
  Gd  Gd9  1  0.49739226  0.25000000  0.43481857  1.0
  Gd  Gd10  1  0.00260774  0.75000000  0.93481857  1.0
  Gd  Gd11  1  0.50260774  0.75000000  0.56518143  1.0
  F  F12  1  0.69354312  0.25000000  0.33559356  1.0
  F  F13  1  0.19354312  0.25000000  0.16440644  1.0
  F  F14  1  0.30645688  0.75000000  0.66440644  1.0
  F  F15  1  0.80645688  0.75000000  0.83559356  1.0
  F  F16  1  0.83256132  0.25000000  0.86849621  1.0
  F  F17  1  0.33256132  0.25000000  0.63150379  1.0
  F  F18  1  0.16743868  0.75000000  0.13150379  1.0
  F  F19  1  0.66743868  0.75000000  0.36849621  1.0
  F  F20  1  0.98744772  0.25000000  0.39794301  1.0
  F  F21  1  0.48744772  0.25000000  0.10205699  1.0
  F  F22  1  0.01255228  0.75000000  0.60205699  1.0
  F  F23  1  0.51255228  0.75000000  0.89794301  1.0
  F  F24  1  0.92160853  0.96599898  0.14640145  1.0
  F  F25  1  0.92160853  0.53400102  0.14640145  1.0
  F  F26  1  0.42160853  0.96599898  0.35359855  1.0
  F  F27  1  0.42160853  0.53400102  0.35359855  1.0
  F  F28  1  0.07839147  0.46599898  0.85359855  1.0
  F  F29  1  0.07839147  0.03400102  0.85359855  1.0
  F  F30  1  0.57839147  0.46599898  0.64640145  1.0
  F  F31  1  0.57839147  0.03400102  0.64640145  1.0
