# generated using pymatgen
data_CsFe2Se3
_symmetry_space_group_name_H-M   'P 1'
_cell_length_a   7.92164856
_cell_length_b   7.92164856
_cell_length_c   5.49185991
_cell_angle_alpha   90.00000000
_cell_angle_beta   90.00000000
_cell_angle_gamma   101.08928721
_symmetry_Int_Tables_number   1
_chemical_formula_structural   CsFe2Se3
_chemical_formula_sum   'Cs2 Fe4 Se6'
_cell_volume   338.19335408
_cell_formula_units_Z   2
loop_
 _symmetry_equiv_pos_site_id
 _symmetry_equiv_pos_as_xyz
  1  'x, y, z'
loop_
 _atom_site_type_symbol
 _atom_site_label
 _atom_site_symmetry_multiplicity
 _atom_site_fract_x
 _atom_site_fract_y
 _atom_site_fract_z
 _atom_site_occupancy
  Cs  Cs0  1  -0.33356371  1.33356371  0.25000000  1.0
  Cs  Cs1  1  0.33356371  0.66643629  0.75000000  1.0
  Fe  Fe2  1  0.87434879  0.87434879  0.50000000  1.0
  Fe  Fe3  1  0.87434879  0.87434879  0.00000000  1.0
  Fe  Fe4  1  0.12565121  0.12565121  0.50000000  1.0
  Fe  Fe5  1  0.12565121  0.12565121  -0.00000000  1.0
  Se  Se6  1  0.16330772  0.36579734  0.25000000  1.0
  Se  Se7  1  -0.63420266  1.16330772  0.75000000  1.0
  Se  Se8  1  0.63420266  0.83669228  0.25000000  1.0
  Se  Se9  1  -0.16330772  1.63420266  0.75000000  1.0
  Se  Se10  1  0.12561051  0.87438949  0.25000000  1.0
  Se  Se11  1  -0.12561051  1.12561051  0.75000000  1.0
