# generated using pymatgen
data_MnVCuO4
_symmetry_space_group_name_H-M   'P 1'
_cell_length_a   5.24568250
_cell_length_b   5.24568250
_cell_length_c   6.37379772
_cell_angle_alpha   90.00000000
_cell_angle_beta   90.00000000
_cell_angle_gamma   111.90514943
_symmetry_Int_Tables_number   1
_chemical_formula_structural   MnVCuO4
_chemical_formula_sum   'Mn2 V2 Cu2 O8'
_cell_volume   162.72636542
_cell_formula_units_Z   2
loop_
 _symmetry_equiv_pos_site_id
 _symmetry_equiv_pos_as_xyz
  1  'x, y, z'
loop_
 _atom_site_type_symbol
 _atom_site_label
 _atom_site_symmetry_multiplicity
 _atom_site_fract_x
 _atom_site_fract_y
 _atom_site_fract_z
 _atom_site_occupancy
  Mn  Mn0  1  0.00000000  0.00000000  0.50000000  1.0
  Mn  Mn1  1  0.00000000  0.00000000  0.00000000  1.0
  V  V2  1  0.35879159  0.64120841  0.25000000  1.0
  V  V3  1  -0.35879159  1.35879159  0.75000000  1.0
  Cu  Cu4  1  -0.32983473  1.32983473  0.25000000  1.0
  Cu  Cu5  1  0.32983473  0.67016527  0.75000000  1.0
  O  O6  1  0.22858205  0.27383740  0.25000000  1.0
  O  O7  1  -0.72616260  1.22858205  0.75000000  1.0
  O  O8  1  0.72616260  0.77141795  0.25000000  1.0
  O  O9  1  -0.22858205  1.72616260  0.75000000  1.0
  O  O10  1  0.24185274  0.75814726  0.46925956  1.0
  O  O11  1  0.24185274  0.75814726  0.03074044  1.0
  O  O12  1  -0.24185274  1.24185274  0.96925956  1.0
  O  O13  1  -0.24185274  1.24185274  0.53074044  1.0
