# generated using pymatgen
data_K3SeO4F
_symmetry_space_group_name_H-M   'P 1'
_cell_length_a   7.84952784
_cell_length_b   7.84952784
_cell_length_c   7.84952784
_cell_angle_alpha   123.25741868
_cell_angle_beta   123.25741868
_cell_angle_gamma   84.44489666
_symmetry_Int_Tables_number   1
_chemical_formula_structural   K3SeO4F
_chemical_formula_sum   'K6 Se2 O8 F2'
_cell_volume   323.49114846
_cell_formula_units_Z   2
loop_
 _symmetry_equiv_pos_site_id
 _symmetry_equiv_pos_as_xyz
  1  'x, y, z'
loop_
 _atom_site_type_symbol
 _atom_site_label
 _atom_site_symmetry_multiplicity
 _atom_site_fract_x
 _atom_site_fract_y
 _atom_site_fract_z
 _atom_site_occupancy
  K  K0  1  0.30889671  0.80889671  1.11779342  1.0
  K  K1  1  0.19110329  0.30889671  0.50000000  1.0
  K  K2  1  0.80889671  0.69110329  1.50000000  1.0
  K  K3  1  0.69110329  0.19110329  0.88220658  1.0
  K  K4  1  0.75000000  0.75000000  1.00000000  1.0
  K  K5  1  0.25000000  0.25000000  0.00000000  1.0
  Se  Se6  1  0.25000000  0.75000000  0.50000000  1.0
  Se  Se7  1  0.75000000  0.25000000  0.50000000  1.0
  O  O8  1  0.70780208  1.20780208  1.24516525  1.0
  O  O9  1  1.03736317  0.53736317  1.24516525  1.0
  O  O10  1  0.46263683  0.70780208  0.50000000  1.0
  O  O11  1  0.79219792  1.03736317  1.50000000  1.0
  O  O12  1  1.20780208  0.96263683  1.50000000  1.0
  O  O13  1  0.53736317  0.29219792  0.50000000  1.0
  O  O14  1  0.96263683  0.46263683  0.75483475  1.0
  O  O15  1  0.29219792  0.79219792  0.75483475  1.0
  F  F16  1  0.00000000  0.00000000  0.00000000  1.0
  F  F17  1  0.50000000  0.50000000  1.00000000  1.0
