# generated using pymatgen
data_La3LuSe6
_symmetry_space_group_name_H-M   'P 1'
_cell_length_a   14.77973866
_cell_length_b   17.79171769
_cell_length_c   4.19428183
_cell_angle_alpha   90.00000000
_cell_angle_beta   90.00000000
_cell_angle_gamma   90.00000000
_symmetry_Int_Tables_number   1
_chemical_formula_structural   La3LuSe6
_chemical_formula_sum   'La12 Lu4 Se24'
_cell_volume   1102.91550729
_cell_formula_units_Z   4
loop_
 _symmetry_equiv_pos_site_id
 _symmetry_equiv_pos_as_xyz
  1  'x, y, z'
loop_
 _atom_site_type_symbol
 _atom_site_label
 _atom_site_symmetry_multiplicity
 _atom_site_fract_x
 _atom_site_fract_y
 _atom_site_fract_z
 _atom_site_occupancy
  La  La0  1  0.18126417  0.65027760  0.50000000  1.0
  La  La1  1  0.68126417  0.84972240  0.00000000  1.0
  La  La2  1  0.81873583  0.34972240  0.50000000  1.0
  La  La3  1  0.31873583  0.15027760  0.00000000  1.0
  La  La4  1  0.95211542  0.78115002  0.50000000  1.0
  La  La5  1  0.45211542  0.71884998  0.00000000  1.0
  La  La6  1  0.04788458  0.21884998  0.50000000  1.0
  La  La7  1  0.54788458  0.28115002  0.00000000  1.0
  La  La8  1  0.74904875  0.60130777  0.50000000  1.0
  La  La9  1  0.24904875  0.89869223  0.00000000  1.0
  La  La10  1  0.25095125  0.39869223  0.50000000  1.0
  La  La11  1  0.75095125  0.10130777  0.00000000  1.0
  Lu  Lu12  1  0.50000000  0.00000000  0.50000000  1.0
  Lu  Lu13  1  0.00000000  0.50000000  0.00000000  1.0
  Lu  Lu14  1  0.50000000  0.50000000  0.50000000  1.0
  Lu  Lu15  1  0.00000000  0.00000000  0.00000000  1.0
  Se  Se16  1  0.39509969  0.25366181  0.50000000  1.0
  Se  Se17  1  0.89509969  0.24633819  0.00000000  1.0
  Se  Se18  1  0.60490031  0.74633819  0.50000000  1.0
  Se  Se19  1  0.10490031  0.75366181  0.00000000  1.0
  Se  Se20  1  0.37628394  0.61160418  0.50000000  1.0
  Se  Se21  1  0.87628394  0.88839582  0.00000000  1.0
  Se  Se22  1  0.62371606  0.38839582  0.50000000  1.0
  Se  Se23  1  0.12371606  0.11160418  0.00000000  1.0
  Se  Se24  1  0.31235493  0.02259481  0.50000000  1.0
  Se  Se25  1  0.81235493  0.47740519  0.00000000  1.0
  Se  Se26  1  0.68764507  0.97740519  0.50000000  1.0
  Se  Se27  1  0.18764507  0.52259481  0.00000000  1.0
  Se  Se28  1  0.31411995  0.78991095  0.50000000  1.0
  Se  Se29  1  0.81411995  0.71008905  0.00000000  1.0
  Se  Se30  1  0.68588005  0.21008905  0.50000000  1.0
  Se  Se31  1  0.18588005  0.28991095  0.00000000  1.0
  Se  Se32  1  0.09155272  0.92203787  0.50000000  1.0
  Se  Se33  1  0.59155272  0.57796213  0.00000000  1.0
  Se  Se34  1  0.90844728  0.07796213  0.50000000  1.0
  Se  Se35  1  0.40844728  0.42203787  0.00000000  1.0
  Se  Se36  1  0.97719200  0.60478614  0.50000000  1.0
  Se  Se37  1  0.47719200  0.89521386  0.00000000  1.0
  Se  Se38  1  0.02280800  0.39521386  0.50000000  1.0
  Se  Se39  1  0.52280800  0.10478614  0.00000000  1.0
