# generated using pymatgen
data_Na5Ti3F14
_symmetry_space_group_name_H-M   'P 1'
_cell_length_a   7.62770158
_cell_length_b   7.62770158
_cell_length_c   10.48288773
_cell_angle_alpha   90.00000000
_cell_angle_beta   90.00000000
_cell_angle_gamma   90.00000000
_symmetry_Int_Tables_number   1
_chemical_formula_structural   Na5Ti3F14
_chemical_formula_sum   'Na10 Ti6 F28'
_cell_volume   609.91360561
_cell_formula_units_Z   2
loop_
 _symmetry_equiv_pos_site_id
 _symmetry_equiv_pos_as_xyz
  1  'x, y, z'
loop_
 _atom_site_type_symbol
 _atom_site_label
 _atom_site_symmetry_multiplicity
 _atom_site_fract_x
 _atom_site_fract_y
 _atom_site_fract_z
 _atom_site_occupancy
  Na  Na0  1  0.27331183  0.22668817  0.25000000  1.0
  Na  Na1  1  0.27331183  0.22668817  0.75000000  1.0
  Na  Na2  1  0.77331183  0.27331183  0.75000000  1.0
  Na  Na3  1  0.77331183  0.27331183  0.25000000  1.0
  Na  Na4  1  0.72668817  0.77331183  0.25000000  1.0
  Na  Na5  1  0.72668817  0.77331183  0.75000000  1.0
  Na  Na6  1  0.22668817  0.72668817  0.75000000  1.0
  Na  Na7  1  0.22668817  0.72668817  0.25000000  1.0
  Na  Na8  1  0.50000000  0.50000000  0.00000000  1.0
  Na  Na9  1  0.00000000  0.00000000  0.50000000  1.0
  Ti  Ti10  1  0.50000000  0.00000000  0.50000000  1.0
  Ti  Ti11  1  0.00000000  0.50000000  0.00000000  1.0
  Ti  Ti12  1  0.00000000  0.50000000  0.50000000  1.0
  Ti  Ti13  1  0.50000000  0.00000000  0.00000000  1.0
  Ti  Ti14  1  0.50000000  0.50000000  0.50000000  1.0
  Ti  Ti15  1  0.00000000  0.00000000  0.00000000  1.0
  F  F16  1  0.46591781  0.81185498  0.12717649  1.0
  F  F17  1  0.46591781  0.81185498  0.87282351  1.0
  F  F18  1  0.96591781  0.68814502  0.62717649  1.0
  F  F19  1  0.96591781  0.68814502  0.37282351  1.0
  F  F20  1  0.18814502  0.46591781  0.12717649  1.0
  F  F21  1  0.18814502  0.46591781  0.87282351  1.0
  F  F22  1  0.68814502  0.03408219  0.62717649  1.0
  F  F23  1  0.68814502  0.03408219  0.37282351  1.0
  F  F24  1  0.53408219  0.18814502  0.12717649  1.0
  F  F25  1  0.53408219  0.18814502  0.87282351  1.0
  F  F26  1  0.03408219  0.31185498  0.62717649  1.0
  F  F27  1  0.03408219  0.31185498  0.37282351  1.0
  F  F28  1  0.81185498  0.53408219  0.12717649  1.0
  F  F29  1  0.81185498  0.53408219  0.87282351  1.0
  F  F30  1  0.31185498  0.96591781  0.62717649  1.0
  F  F31  1  0.31185498  0.96591781  0.37282351  1.0
  F  F32  1  0.25096290  0.57130746  0.50000000  1.0
  F  F33  1  0.75096290  -0.07130746  -0.00000000  1.0
  F  F34  1  0.42869254  0.25096290  0.50000000  1.0
  F  F35  1  -0.07130746  0.24903710  0.00000000  1.0
  F  F36  1  0.74903710  0.42869254  0.50000000  1.0
  F  F37  1  0.24903710  0.07130746  -0.00000000  1.0
  F  F38  1  0.57130746  0.74903710  0.50000000  1.0
  F  F39  1  0.07130746  0.75096290  0.00000000  1.0
  F  F40  1  0.50000000  0.50000000  0.31498580  1.0
  F  F41  1  0.50000000  0.50000000  0.68501420  1.0
  F  F42  1  0.00000000  0.00000000  0.81498580  1.0
  F  F43  1  0.00000000  0.00000000  0.18501420  1.0
