# generated using pymatgen
data_Sr3(AlGe2)2
_symmetry_space_group_name_H-M   'P 1'
_cell_length_a   6.68918653
_cell_length_b   6.68918653
_cell_length_c   8.94205140
_cell_angle_alpha   70.96486586
_cell_angle_beta   109.03513414
_cell_angle_gamma   143.23365538
_symmetry_Int_Tables_number   1
_chemical_formula_structural   Sr3(AlGe2)2
_chemical_formula_sum   'Sr3 Al2 Ge4'
_cell_volume   224.90085659
_cell_formula_units_Z   1
loop_
 _symmetry_equiv_pos_site_id
 _symmetry_equiv_pos_as_xyz
  1  'x, y, z'
loop_
 _atom_site_type_symbol
 _atom_site_label
 _atom_site_symmetry_multiplicity
 _atom_site_fract_x
 _atom_site_fract_y
 _atom_site_fract_z
 _atom_site_occupancy
  Sr  Sr0  1  0.60683853  0.39316147  0.68783251  1.0
  Sr  Sr1  1  0.39316147  -0.39316147  0.31216749  1.0
  Sr  Sr2  1  0.00000000  0.00000000  0.00000000  1.0
  Al  Al3  1  0.70532246  0.29467754  0.35184764  1.0
  Al  Al4  1  0.29467754  -0.29467754  0.64815236  1.0
  Ge  Ge5  1  0.89440561  0.10559439  0.60844528  1.0
  Ge  Ge6  1  0.10559439  -0.10559439  0.39155472  1.0
  Ge  Ge7  1  0.28849009  -0.28849009  0.94363502  1.0
  Ge  Ge8  1  0.71150991  0.28849009  0.05636498  1.0
