# generated using pymatgen
data_Zr5Te4
_symmetry_space_group_name_H-M   'P 1'
_cell_length_a   7.93180294
_cell_length_b   7.93180294
_cell_length_c   7.93180294
_cell_angle_alpha   93.41189376
_cell_angle_beta   93.41189376
_cell_angle_gamma   151.75993714
_symmetry_Int_Tables_number   1
_chemical_formula_structural   Zr5Te4
_chemical_formula_sum   'Zr5 Te4'
_cell_volume   228.98463908
_cell_formula_units_Z   1
loop_
 _symmetry_equiv_pos_site_id
 _symmetry_equiv_pos_as_xyz
  1  'x, y, z'
loop_
 _atom_site_type_symbol
 _atom_site_label
 _atom_site_symmetry_multiplicity
 _atom_site_fract_x
 _atom_site_fract_y
 _atom_site_fract_z
 _atom_site_occupancy
  Zr  Zr0  1  0.69027605  0.63077361  0.32104967  1.0
  Zr  Zr1  1  0.63077361  0.30972395  0.94049756  1.0
  Zr  Zr2  1  1.30972395  1.36922639  1.67895033  1.0
  Zr  Zr3  1  0.36922639  0.69027605  1.05950244  1.0
  Zr  Zr4  1  0.00000000  0.00000000  0.00000000  1.0
  Te  Te5  1  0.94733725  0.71862799  0.66596524  1.0
  Te  Te6  1  0.71862799  0.05266275  0.77129075  1.0
  Te  Te7  1  1.05266275  1.28137201  1.33403476  1.0
  Te  Te8  1  0.28137201  0.94733725  1.22870925  1.0
