# generated using pymatgen
data_TcP4H36(C6Br)2
_symmetry_space_group_name_H-M   'P 1'
_cell_length_a   9.56875886
_cell_length_b   9.56875886
_cell_length_c   9.56875886
_cell_angle_alpha   116.50270816
_cell_angle_beta   116.50270816
_cell_angle_gamma   96.17236106
_symmetry_Int_Tables_number   1
_chemical_formula_structural   TcP4H36(C6Br)2
_chemical_formula_sum   'Tc1 P4 H36 C12 Br2'
_cell_volume   648.19044251
_cell_formula_units_Z   1
loop_
 _symmetry_equiv_pos_site_id
 _symmetry_equiv_pos_as_xyz
  1  'x, y, z'
loop_
 _atom_site_type_symbol
 _atom_site_label
 _atom_site_symmetry_multiplicity
 _atom_site_fract_x
 _atom_site_fract_y
 _atom_site_fract_z
 _atom_site_occupancy
  Tc  Tc0  1  0.00000000  0.00000000  0.00000000  1.0
  P  P1  1  1.14196786  1.14196786  0.33801072  1.0
  P  P2  1  0.80395714  0.80395714  0.66198928  1.0
  P  P3  1  1.19604286  0.85803214  1.00000000  1.0
  P  P4  1  0.85803214  1.19604286  1.00000000  1.0
  H  H5  1  1.09836575  0.90138735  0.36189071  1.0
  H  H6  1  1.53949664  1.73647504  1.63810929  1.0
  H  H7  1  1.46050336  1.09861265  1.19697840  1.0
  H  H8  1  0.90163425  1.26352496  0.80302160  1.0
  H  H9  1  1.26352496  0.90163425  0.80302160  1.0
  H  H10  1  1.09861265  1.46050336  1.19697840  1.0
  H  H11  1  0.90138735  1.09836575  0.36189071  1.0
  H  H12  1  1.73647504  1.53949664  1.63810929  1.0
  H  H13  1  1.30734384  0.97777089  0.42056312  1.0
  H  H14  1  1.55720776  1.88678072  1.57943688  1.0
  H  H15  1  1.44279223  1.02222911  1.32957295  1.0
  H  H16  1  0.69265616  1.11321928  0.67042705  1.0
  H  H17  1  1.11321928  0.69265616  0.67042705  1.0
  H  H18  1  1.02222911  1.44279223  1.32957295  1.0
  H  H19  1  0.97777089  1.30734384  0.42056312  1.0
  H  H20  1  1.88678072  1.55720776  1.57943688  1.0
  H  H21  1  1.25708249  1.08834671  0.58756312  1.0
  H  H22  1  0.50078359  0.66951937  0.41243688  1.0
  H  H23  1  1.49921641  0.91165329  1.16873578  1.0
  H  H24  1  0.74291751  0.33048063  0.83126422  1.0
  H  H25  1  0.33048063  0.74291751  0.83126422  1.0
  H  H26  1  0.91165329  1.49921641  1.16873578  1.0
  H  H27  1  1.08834671  1.25708249  0.58756312  1.0
  H  H28  1  0.66951937  0.50078359  0.41243688  1.0
  H  H29  1  0.43240148  0.30833654  0.47077575  1.0
  H  H30  1  0.83756079  0.96162574  0.52922425  1.0
  H  H31  1  1.16243921  0.69166346  1.12406494  1.0
  H  H32  1  1.56759852  1.03837426  0.87593506  1.0
  H  H33  1  1.03837426  1.56759852  0.87593506  1.0
  H  H34  1  0.69166346  1.16243921  1.12406494  1.0
  H  H35  1  0.30833654  0.43240148  0.47077575  1.0
  H  H36  1  0.96162574  0.83756079  0.52922425  1.0
  H  H37  1  0.38475819  0.38475819  0.64583323  1.0
  H  H38  1  0.73892496  0.73892496  0.35416677  1.0
  H  H39  1  1.26107504  0.61524181  1.00000000  1.0
  H  H40  1  0.61524181  1.26107504  1.00000000  1.0
  C  C41  1  1.20915724  1.01575092  0.43751193  1.0
  C  C42  1  0.57823900  0.77164532  0.56248807  1.0
  C  C43  1  1.42176100  0.98424908  1.19340632  1.0
  C  C44  1  0.79084276  0.22835468  0.80659368  1.0
  C  C45  1  0.22835468  0.79084276  0.80659368  1.0
  C  C46  1  0.98424908  1.42176100  1.19340632  1.0
  C  C47  1  1.01575092  1.20915724  0.43751193  1.0
  C  C48  1  0.77164532  0.57823900  0.56248807  1.0
  C  C49  1  0.33553264  0.33553264  0.49800921  1.0
  C  C50  1  0.83752343  0.83752343  0.50199079  1.0
  C  C51  1  1.16247657  0.66446736  1.00000000  1.0
  C  C52  1  0.66446736  1.16247657  1.00000000  1.0
  Br  Br53  1  0.79642862  0.79642862  -0.00000000  1.0
  Br  Br54  1  0.20357138  0.20357138  0.00000000  1.0
