# generated using pymatgen
data_CuP4S3Br
_symmetry_space_group_name_H-M   'P 1'
_cell_length_a   12.14180455
_cell_length_b   12.14180455
_cell_length_c   11.33439699
_cell_angle_alpha   90.00000000
_cell_angle_beta   90.00000000
_cell_angle_gamma   141.25368875
_symmetry_Int_Tables_number   1
_chemical_formula_structural   CuP4S3Br
_chemical_formula_sum   'Cu4 P16 S12 Br4'
_cell_volume   1045.80639506
_cell_formula_units_Z   4
loop_
 _symmetry_equiv_pos_site_id
 _symmetry_equiv_pos_as_xyz
  1  'x, y, z'
loop_
 _atom_site_type_symbol
 _atom_site_label
 _atom_site_symmetry_multiplicity
 _atom_site_fract_x
 _atom_site_fract_y
 _atom_site_fract_z
 _atom_site_occupancy
  Cu  Cu0  1  0.30036088  1.30036088  0.50000000  1.0
  Cu  Cu1  1  -0.19963912  0.80036088  0.00000000  1.0
  Cu  Cu2  1  -0.30036088  0.69963912  0.50000000  1.0
  Cu  Cu3  1  0.19963912  1.19963912  0.00000000  1.0
  P  P4  1  0.78164977  0.93992201  0.47500470  1.0
  P  P5  1  0.28164977  0.43992201  0.02499530  1.0
  P  P6  1  -0.06007799  0.78164977  0.52499530  1.0
  P  P7  1  0.43992201  1.28164977  0.97500470  1.0
  P  P8  1  0.06007799  0.21835023  0.47500470  1.0
  P  P9  1  0.56007799  0.71835023  0.02499530  1.0
  P  P10  1  0.21835023  1.06007799  0.52499530  1.0
  P  P11  1  -0.28164977  0.56007799  0.97500470  1.0
  P  P12  1  -0.29046894  0.29046894  0.04187422  1.0
  P  P13  1  0.20953106  0.79046894  0.45812578  1.0
  P  P14  1  0.29046894  0.70953106  0.95812578  1.0
  P  P15  1  -0.20953106  0.20953106  0.54187422  1.0
  P  P16  1  -0.11595525  0.11595525  0.31625010  1.0
  P  P17  1  0.38404475  0.61595525  0.18374990  1.0
  P  P18  1  0.11595525  0.88404475  0.68374990  1.0
  P  P19  1  -0.38404475  0.38404475  0.81625010  1.0
  S  S20  1  0.35497742  1.04975071  0.42326803  1.0
  S  S21  1  -0.14502258  0.54975071  0.07673197  1.0
  S  S22  1  0.04975071  0.35497742  0.57673197  1.0
  S  S23  1  0.54975071  0.85497742  0.92326803  1.0
  S  S24  1  -0.04975071  0.64502258  0.42326803  1.0
  S  S25  1  0.45024929  1.14502258  0.07673197  1.0
  S  S26  1  0.64502258  0.95024929  0.57673197  1.0
  S  S27  1  0.14502258  0.45024929  0.92326803  1.0
  S  S28  1  -0.20605130  0.20605130  0.35312747  1.0
  S  S29  1  0.29394870  0.70605130  0.14687253  1.0
  S  S30  1  0.20605130  0.79394870  0.64687253  1.0
  S  S31  1  -0.29394870  0.29394870  0.85312747  1.0
  Br  Br32  1  -0.47629919  0.47629919  0.34143221  1.0
  Br  Br33  1  0.02370081  0.97629919  0.15856779  1.0
  Br  Br34  1  0.47629919  0.52370081  0.65856779  1.0
  Br  Br35  1  -0.02370081  0.02370081  0.84143221  1.0
