# generated using pymatgen
data_Ca2S2O9
_symmetry_space_group_name_H-M   'P 1'
_cell_length_a   9.52267640
_cell_length_b   9.52267640
_cell_length_c   12.25828081
_cell_angle_alpha   50.07871825
_cell_angle_beta   129.92128175
_cell_angle_gamma   136.14295484
_symmetry_Int_Tables_number   1
_chemical_formula_structural   Ca2S2O9
_chemical_formula_sum   'Ca6 S6 O27'
_cell_volume   556.15207331
_cell_formula_units_Z   3
loop_
 _symmetry_equiv_pos_site_id
 _symmetry_equiv_pos_as_xyz
  1  'x, y, z'
loop_
 _atom_site_type_symbol
 _atom_site_label
 _atom_site_symmetry_multiplicity
 _atom_site_fract_x
 _atom_site_fract_y
 _atom_site_fract_z
 _atom_site_occupancy
  Ca  Ca0  1  0.97900365  0.64460301  0.42494984  1.0
  Ca  Ca1  1  1.64460301  -0.02099635  0.57505016  1.0
  Ca  Ca2  1  0.49108670  0.15742391  0.93039440  1.0
  Ca  Ca3  1  1.15742391  -0.50891330  0.06960560  1.0
  Ca  Ca4  1  0.54200894  0.54200894  0.50000000  1.0
  Ca  Ca5  1  0.03010830  0.03010830  -0.00000000  1.0
  O  O6  1  1.36360731  -0.61654782  0.67024554  1.0
  O  O7  1  0.38345218  0.36360731  0.32975446  1.0
  O  O8  1  1.25182736  -0.70554126  0.84457007  1.0
  O  O9  1  0.29445874  0.25182736  0.15542993  1.0
  O  O10  1  1.00581535  -0.68875553  0.58121898  1.0
  O  O11  1  0.31124447  0.00581535  0.41878102  1.0
  O  O12  1  1.32016131  -0.36101181  0.63292660  1.0
  O  O13  1  0.63898819  0.32016131  0.36707340  1.0
  O  O14  1  0.96328835  0.31730155  0.89071634  1.0
  O  O15  1  1.31730155  -0.03671165  0.10928366  1.0
  O  O16  1  1.23214039  -0.41130584  0.25228260  1.0
  O  O17  1  0.58869416  0.23214039  0.74771741  1.0
  O  O18  1  0.83145033  0.47166703  0.61303822  1.0
  O  O19  1  1.47166703  -0.16854967  0.38696178  1.0
  O  O20  1  0.83098493  0.51759022  0.91494833  1.0
  O  O21  1  1.51759022  -0.16901507  0.08505167  1.0
  O  O22  1  0.14601259  -0.15123266  0.85644828  1.0
  O  O23  1  0.84876734  -0.85398741  0.14355172  1.0
  O  O24  1  0.79423006  0.77120742  0.65181586  1.0
  O  O25  1  1.77120742  -0.20576994  0.34818414  1.0
  O  O26  1  0.87547240  0.85469980  0.83911838  1.0
  O  O27  1  1.85469980  -0.12452760  0.16088162  1.0
  O  O28  1  0.72276336  0.08818432  0.74624687  1.0
  O  O29  1  1.08818432  -0.27723664  0.25375313  1.0
  O  O30  1  0.20025591  0.20025591  0.50000000  1.0
  O  O31  1  0.39996271  -0.36053605  0.95851793  1.0
  O  O32  1  0.63946395  -0.60003729  0.04148207  1.0
  S  S33  1  1.23457894  -0.59316901  0.68211753  1.0
  S  S34  1  0.40683099  0.23457894  0.31788247  1.0
  S  S35  1  0.77607221  0.27700559  0.74900486  1.0
  S  S36  1  1.27700559  -0.22392779  0.25099514  1.0
  S  S37  1  0.91340755  0.75117845  0.81440314  1.0
  S  S38  1  1.75117845  -0.08659245  0.18559686  1.0
