# generated using pymatgen
data_GaO3
_symmetry_space_group_name_H-M   'P 1'
_cell_length_a   6.07697579
_cell_length_b   6.07697579
_cell_length_c   6.07697579
_cell_angle_alpha   109.47122063
_cell_angle_beta   109.47122063
_cell_angle_gamma   109.47122063
_symmetry_Int_Tables_number   1
_chemical_formula_structural   GaO3
_chemical_formula_sum   'Ga4 O12'
_cell_volume   172.75897892
_cell_formula_units_Z   4
loop_
 _symmetry_equiv_pos_site_id
 _symmetry_equiv_pos_as_xyz
  1  'x, y, z'
loop_
 _atom_site_type_symbol
 _atom_site_label
 _atom_site_symmetry_multiplicity
 _atom_site_fract_x
 _atom_site_fract_y
 _atom_site_fract_z
 _atom_site_occupancy
  Ga  Ga0  1  1.00000000  0.50000000  1.00000000  1.0
  Ga  Ga1  1  0.50000000  0.50000000  0.50000000  1.0
  Ga  Ga2  1  1.00000000  1.00000000  0.50000000  1.0
  Ga  Ga3  1  0.50000000  1.00000000  1.00000000  1.0
  O  O4  1  1.33194396  0.85421652  1.18616048  1.0
  O  O5  1  0.33194396  0.14578348  0.47772744  1.0
  O  O6  1  0.66805604  0.85421652  0.52227256  1.0
  O  O7  1  0.66805604  0.14578348  0.81383952  1.0
  O  O8  1  0.14578348  0.81383952  0.66805604  1.0
  O  O9  1  0.85421652  0.52227256  0.66805604  1.0
  O  O10  1  0.14578348  0.47772744  0.33194396  1.0
  O  O11  1  0.85421652  1.18616048  1.33194396  1.0
  O  O12  1  0.47772744  0.33194396  0.14578348  1.0
  O  O13  1  1.18616048  1.33194396  0.85421652  1.0
  O  O14  1  0.81383952  0.66805604  0.14578348  1.0
  O  O15  1  0.52227256  0.66805604  0.85421652  1.0
