# generated using pymatgen
data_GdScO3
_symmetry_space_group_name_H-M   'P 1'
_cell_length_a   5.78493972
_cell_length_b   8.02358704
_cell_length_c   5.52010226
_cell_angle_alpha   90.00000000
_cell_angle_beta   90.00000000
_cell_angle_gamma   90.00000000
_symmetry_Int_Tables_number   1
_chemical_formula_structural   GdScO3
_chemical_formula_sum   'Gd4 Sc4 O12'
_cell_volume   256.22088627
_cell_formula_units_Z   4
loop_
 _symmetry_equiv_pos_site_id
 _symmetry_equiv_pos_as_xyz
  1  'x, y, z'
loop_
 _atom_site_type_symbol
 _atom_site_label
 _atom_site_symmetry_multiplicity
 _atom_site_fract_x
 _atom_site_fract_y
 _atom_site_fract_z
 _atom_site_occupancy
  Gd  Gd0  1  0.05948191  0.75000000  0.51854077  1.0
  Gd  Gd1  1  0.55948191  0.75000000  0.98145923  1.0
  Gd  Gd2  1  0.94051809  0.25000000  0.48145923  1.0
  Gd  Gd3  1  0.44051809  0.25000000  0.01854077  1.0
  Sc  Sc4  1  0.50000000  0.00000000  0.50000000  1.0
  Sc  Sc5  1  0.50000000  0.50000000  0.50000000  1.0
  Sc  Sc6  1  0.00000000  0.00000000  0.00000000  1.0
  Sc  Sc7  1  0.00000000  0.50000000  0.00000000  1.0
  O  O8  1  0.30385466  0.93527118  0.80594408  1.0
  O  O9  1  0.30385466  0.56472882  0.80594408  1.0
  O  O10  1  0.80385466  0.93527118  0.69405592  1.0
  O  O11  1  0.80385466  0.56472882  0.69405592  1.0
  O  O12  1  0.69614534  0.43527118  0.19405592  1.0
  O  O13  1  0.69614534  0.06472882  0.19405592  1.0
  O  O14  1  0.19614534  0.43527118  0.30594408  1.0
  O  O15  1  0.19614534  0.06472882  0.30594408  1.0
  O  O16  1  0.94858163  0.75000000  0.12310847  1.0
  O  O17  1  0.44858163  0.75000000  0.37689153  1.0
  O  O18  1  0.05141837  0.25000000  0.87689153  1.0
  O  O19  1  0.55141837  0.25000000  0.62310847  1.0
