# generated using pymatgen
data_H6PbCI3N
_symmetry_space_group_name_H-M   'P 1'
_cell_length_a   9.24730518
_cell_length_b   12.88981144
_cell_length_c   8.63213571
_cell_angle_alpha   90.00000000
_cell_angle_beta   90.00000000
_cell_angle_gamma   90.00000000
_symmetry_Int_Tables_number   1
_chemical_formula_structural   H6PbCI3N
_chemical_formula_sum   'H24 Pb4 C4 I12 N4'
_cell_volume   1028.91622210
_cell_formula_units_Z   4
loop_
 _symmetry_equiv_pos_site_id
 _symmetry_equiv_pos_as_xyz
  1  'x, y, z'
loop_
 _atom_site_type_symbol
 _atom_site_label
 _atom_site_symmetry_multiplicity
 _atom_site_fract_x
 _atom_site_fract_y
 _atom_site_fract_z
 _atom_site_occupancy
  H  H0  1  0.42985666  0.25000000  0.32625940  1.0
  H  H1  1  0.92985666  0.25000000  0.17374060  1.0
  H  H2  1  0.57014334  0.75000000  0.67374060  1.0
  H  H3  1  0.07014334  0.75000000  0.82625940  1.0
  H  H4  1  0.36518160  0.18027328  0.49228797  1.0
  H  H5  1  0.86518160  0.31972672  0.00771203  1.0
  H  H6  1  0.63481840  0.68027328  0.50771203  1.0
  H  H7  1  0.13481840  0.81972672  0.99228797  1.0
  H  H8  1  0.63481840  0.81972672  0.50771203  1.0
  H  H9  1  0.13481840  0.68027328  0.99228797  1.0
  H  H10  1  0.36518160  0.31972672  0.49228797  1.0
  H  H11  1  0.86518160  0.18027328  0.00771203  1.0
  H  H12  1  0.62706007  0.18484619  0.48174002  1.0
  H  H13  1  0.12706007  0.31515381  0.01825998  1.0
  H  H14  1  0.37293993  0.68484619  0.51825998  1.0
  H  H15  1  0.87293993  0.81515381  0.98174002  1.0
  H  H16  1  0.37293993  0.81515381  0.51825998  1.0
  H  H17  1  0.87293993  0.68484619  0.98174002  1.0
  H  H18  1  0.62706007  0.31515381  0.48174002  1.0
  H  H19  1  0.12706007  0.18484619  0.01825998  1.0
  H  H20  1  0.43289124  0.75000000  0.36042925  1.0
  H  H21  1  0.93289124  0.75000000  0.13957075  1.0
  H  H22  1  0.56710876  0.25000000  0.63957075  1.0
  H  H23  1  0.06710876  0.25000000  0.86042925  1.0
  Pb  Pb24  1  0.00000000  0.00000000  0.50000000  1.0
  Pb  Pb25  1  0.50000000  0.50000000  0.00000000  1.0
  Pb  Pb26  1  0.00000000  0.50000000  0.50000000  1.0
  Pb  Pb27  1  0.50000000  0.00000000  0.00000000  1.0
  C  C28  1  0.42156648  0.25000000  0.45270136  1.0
  C  C29  1  0.92156648  0.25000000  0.04729864  1.0
  C  C30  1  0.57843352  0.75000000  0.54729864  1.0
  C  C31  1  0.07843352  0.75000000  0.95270136  1.0
  I  I32  1  0.99141455  0.25000000  0.56636437  1.0
  I  I33  1  0.49141455  0.25000000  0.93363563  1.0
  I  I34  1  0.00858545  0.75000000  0.43363563  1.0
  I  I35  1  0.50858545  0.75000000  0.06636437  1.0
  I  I36  1  0.69710101  0.02457736  0.31150131  1.0
  I  I37  1  0.19710101  0.47542264  0.18849869  1.0
  I  I38  1  0.30289899  0.52457736  0.68849869  1.0
  I  I39  1  0.80289899  0.97542264  0.81150131  1.0
  I  I40  1  0.30289899  0.97542264  0.68849869  1.0
  I  I41  1  0.80289899  0.52457736  0.81150131  1.0
  I  I42  1  0.69710101  0.47542264  0.31150131  1.0
  I  I43  1  0.19710101  0.02457736  0.18849869  1.0
  N  N44  1  0.42961616  0.75000000  0.48094407  1.0
  N  N45  1  0.92961616  0.75000000  0.01905593  1.0
  N  N46  1  0.57038384  0.25000000  0.51905593  1.0
  N  N47  1  0.07038384  0.25000000  0.98094407  1.0
