# generated using pymatgen
data_KBaFeO3
_symmetry_space_group_name_H-M   'P 1'
_cell_length_a   6.52937575
_cell_length_b   6.52937575
_cell_length_c   12.88239797
_cell_angle_alpha   90.00000000
_cell_angle_beta   90.00000000
_cell_angle_gamma   126.32639459
_symmetry_Int_Tables_number   1
_chemical_formula_structural   KBaFeO3
_chemical_formula_sum   'K4 Ba4 Fe4 O12'
_cell_volume   442.47567176
_cell_formula_units_Z   4
loop_
 _symmetry_equiv_pos_site_id
 _symmetry_equiv_pos_as_xyz
  1  'x, y, z'
loop_
 _atom_site_type_symbol
 _atom_site_label
 _atom_site_symmetry_multiplicity
 _atom_site_fract_x
 _atom_site_fract_y
 _atom_site_fract_z
 _atom_site_occupancy
  K  K0  1  0.04510978  0.95489022  0.64410310  1.0
  K  K1  1  -0.45489022  0.45489022  0.85589690  1.0
  K  K2  1  -0.04510978  0.04510978  0.35589690  1.0
  K  K3  1  0.45489022  0.54510978  0.14410310  1.0
  Ba  Ba4  1  0.35544629  0.64455371  0.58150015  1.0
  Ba  Ba5  1  -0.14455371  0.14455371  0.91849985  1.0
  Ba  Ba6  1  -0.35544629  0.35544629  0.41849985  1.0
  Ba  Ba7  1  0.14455371  0.85544629  0.08150015  1.0
  Fe  Fe8  1  0.23109511  0.76890489  0.83691895  1.0
  Fe  Fe9  1  -0.26890489  0.26890489  0.66308105  1.0
  Fe  Fe10  1  -0.23109511  0.23109511  0.16308105  1.0
  Fe  Fe11  1  0.26890489  0.73109511  0.33691895  1.0
  O  O12  1  0.07673755  0.92326245  0.87492880  1.0
  O  O13  1  -0.42326245  0.42326245  0.62507120  1.0
  O  O14  1  -0.07673755  0.07673755  0.12507120  1.0
  O  O15  1  0.42326245  0.57673755  0.37492880  1.0
  O  O16  1  0.32899796  0.67100204  0.95239812  1.0
  O  O17  1  -0.17100204  0.17100204  0.54760188  1.0
  O  O18  1  -0.32899796  0.32899796  0.04760188  1.0
  O  O19  1  0.17100204  0.82899796  0.45239812  1.0
  O  O20  1  0.02757417  0.47242583  0.75000000  1.0
  O  O21  1  0.52757417  0.97242583  0.75000000  1.0
  O  O22  1  0.47242583  1.02757417  0.25000000  1.0
  O  O23  1  -0.02757417  0.52757417  0.25000000  1.0
