# generated using pymatgen
data_TbReB4
_symmetry_space_group_name_H-M   'P 1'
_cell_length_a   5.95851364
_cell_length_b   11.53739401
_cell_length_c   3.60094670
_cell_angle_alpha   90.00000000
_cell_angle_beta   90.00000000
_cell_angle_gamma   90.00000000
_symmetry_Int_Tables_number   1
_chemical_formula_structural   TbReB4
_chemical_formula_sum   'Tb4 Re4 B16'
_cell_volume   247.54967218
_cell_formula_units_Z   4
loop_
 _symmetry_equiv_pos_site_id
 _symmetry_equiv_pos_as_xyz
  1  'x, y, z'
loop_
 _atom_site_type_symbol
 _atom_site_label
 _atom_site_symmetry_multiplicity
 _atom_site_fract_x
 _atom_site_fract_y
 _atom_site_fract_z
 _atom_site_occupancy
  Tb  Tb0  1  0.12732536  0.64992599  0.50000000  1.0
  Tb  Tb1  1  0.62732536  0.85007401  0.50000000  1.0
  Tb  Tb2  1  0.87267464  0.35007401  0.50000000  1.0
  Tb  Tb3  1  0.37267464  0.14992599  0.50000000  1.0
  Re  Re4  1  0.13378701  0.91162931  0.50000000  1.0
  Re  Re5  1  0.63378701  0.58837069  0.50000000  1.0
  Re  Re6  1  0.86621299  0.08837069  0.50000000  1.0
  Re  Re7  1  0.36621299  0.41162931  0.50000000  1.0
  B  B8  1  0.47615336  0.69237587  0.00000000  1.0
  B  B9  1  0.97615336  0.80762413  0.00000000  1.0
  B  B10  1  0.52384664  0.30762413  0.00000000  1.0
  B  B11  1  0.02384664  0.19237587  0.00000000  1.0
  B  B12  1  0.38580050  0.54731287  0.00000000  1.0
  B  B13  1  0.88580050  0.95268713  0.00000000  1.0
  B  B14  1  0.61419950  0.45268713  0.00000000  1.0
  B  B15  1  0.11419950  0.04731287  0.00000000  1.0
  B  B16  1  0.36438723  0.96826415  0.00000000  1.0
  B  B17  1  0.86438723  0.53173585  0.00000000  1.0
  B  B18  1  0.63561277  0.03173585  0.00000000  1.0
  B  B19  1  0.13561277  0.46826415  0.00000000  1.0
  B  B20  1  0.28717698  0.81428866  0.00000000  1.0
  B  B21  1  0.78717698  0.68571134  0.00000000  1.0
  B  B22  1  0.71282302  0.18571134  0.00000000  1.0
  B  B23  1  0.21282302  0.31428866  0.00000000  1.0
