# generated using pymatgen
data_RbTiPS5
_symmetry_space_group_name_H-M   'P 1'
_cell_length_a   10.01806865
_cell_length_b   10.01806865
_cell_length_c   16.20335494
_cell_angle_alpha   59.96384444
_cell_angle_beta   120.03615556
_cell_angle_gamma   138.18631352
_symmetry_Int_Tables_number   1
_chemical_formula_structural   RbTiPS5
_chemical_formula_sum   'Rb4 Ti4 P4 S20'
_cell_volume   915.42404014
_cell_formula_units_Z   4
loop_
 _symmetry_equiv_pos_site_id
 _symmetry_equiv_pos_as_xyz
  1  'x, y, z'
loop_
 _atom_site_type_symbol
 _atom_site_label
 _atom_site_symmetry_multiplicity
 _atom_site_fract_x
 _atom_site_fract_y
 _atom_site_fract_z
 _atom_site_occupancy
  Rb  Rb0  1  0.80237252  0.19762748  0.64762698  1.0
  Rb  Rb1  1  1.19762748  -0.19762748  0.35237302  1.0
  Rb  Rb2  1  0.16689852  -0.16689852  0.85845591  1.0
  Rb  Rb3  1  0.83310148  -0.83310148  0.14154409  1.0
  Ti  Ti4  1  0.72170097  0.72170097  0.50000000  1.0
  Ti  Ti5  1  0.27829903  0.27829903  0.50000000  1.0
  Ti  Ti6  1  0.77607582  0.77607582  0.00000000  1.0
  Ti  Ti7  1  0.22392418  0.22392418  -0.00000000  1.0
  P  P8  1  0.83542463  -0.83542463  0.41090788  1.0
  P  P9  1  0.16457537  -0.16457537  0.58909212  1.0
  P  P10  1  0.57999254  0.42000746  0.90792259  1.0
  P  P11  1  1.42000746  -0.42000746  0.09207741  1.0
  S  S12  1  1.73931436  -0.26840876  0.85278309  1.0
  S  S13  1  1.26840876  -0.73931436  0.85278309  1.0
  S  S14  1  0.73159124  0.73931436  0.14721691  1.0
  S  S15  1  0.26068564  0.26840876  0.14721691  1.0
  S  S16  1  0.37539485  0.09250845  0.64720984  1.0
  S  S17  1  0.90749155  0.62460515  0.64720984  1.0
  S  S18  1  1.09250845  -0.62460515  0.35279016  1.0
  S  S19  1  1.62460515  -0.09250845  0.35279016  1.0
  S  S20  1  0.94198744  -0.94198744  0.55495693  1.0
  S  S21  1  0.05801256  -0.05801256  0.44504307  1.0
  S  S22  1  0.89744271  0.10255729  0.91109232  1.0
  S  S23  1  1.10255729  -0.10255729  0.08890768  1.0
  S  S24  1  0.72347150  -0.72347150  0.39672630  1.0
  S  S25  1  0.27652850  -0.27652850  0.60327370  1.0
  S  S26  1  0.67879793  0.32120207  0.89374223  1.0
  S  S27  1  1.32120207  -0.32120207  0.10625777  1.0
  S  S28  1  1.47802348  -0.47802348  0.58673627  1.0
  S  S29  1  0.52197652  0.47802348  0.41326373  1.0
  S  S30  1  0.39180703  -0.39180703  0.94730816  1.0
  S  S31  1  0.60819297  -0.60819297  0.05269184  1.0
