# generated using pymatgen
data_NaAl6Fe3Si6B3O30F
_symmetry_space_group_name_H-M   'P 1'
_cell_length_a   9.57800395
_cell_length_b   9.57800395
_cell_length_c   9.57800395
_cell_angle_alpha   113.73837951
_cell_angle_beta   113.73837951
_cell_angle_gamma   113.73837951
_symmetry_Int_Tables_number   1
_chemical_formula_structural   NaAl6Fe3Si6B3O30F
_chemical_formula_sum   'Na1 Al6 Fe3 Si6 B3 O30 F1'
_cell_volume   544.03660405
_cell_formula_units_Z   1
loop_
 _symmetry_equiv_pos_site_id
 _symmetry_equiv_pos_as_xyz
  1  'x, y, z'
loop_
 _atom_site_type_symbol
 _atom_site_label
 _atom_site_symmetry_multiplicity
 _atom_site_fract_x
 _atom_site_fract_y
 _atom_site_fract_z
 _atom_site_occupancy
  Al  Al0  1  0.57942125  0.79957993  0.13864390  1.0
  Al  Al1  1  1.13864390  -0.20042007  -0.42057875  1.0
  Al  Al2  1  0.57942125  1.13864390  -0.20042007  1.0
  Al  Al3  1  1.79957993  0.13864390  0.57942125  1.0
  Al  Al4  1  1.79957993  0.57942125  0.13864390  1.0
  Al  Al5  1  1.13864390  -0.42057875  -0.20042007  1.0
  F  F6  1  1.00469171  0.00469171  0.00469171  1.0
  B  B7  1  0.79814316  1.46484354  -0.20185684  1.0
  B  B8  1  0.79814316  0.79814316  0.46484354  1.0
  B  B9  1  0.46484354  0.79814316  -0.20185684  1.0
  Fe  Fe10  1  1.77790470  -0.01529416  0.77790470  1.0
  Fe  Fe11  1  1.77790470  0.77790470  -0.01529416  1.0
  Fe  Fe12  1  0.98470584  -0.22209530  -0.22209530  1.0
  O  O13  1  1.30947030  -0.40566815  0.02204585  1.0
  O  O14  1  1.02204585  1.59433185  0.30947030  1.0
  O  O15  1  1.30947030  0.02204585  -0.40566815  1.0
  O  O16  1  1.59433185  0.02204585  0.30947030  1.0
  O  O17  1  1.59433185  0.30947030  0.02204585  1.0
  O  O18  1  1.02204585  1.30947030  0.59433185  1.0
  O  O19  1  0.40357384  0.73498724  -0.11573466  1.0
  O  O20  1  0.88426534  -0.26501276  -0.59642616  1.0
  O  O21  1  0.40357384  0.88426534  -0.26501276  1.0
  O  O22  1  0.73498724  0.88426534  0.40357384  1.0
  O  O23  1  0.73498724  1.40357384  -0.11573466  1.0
  O  O24  1  0.88426534  -0.59642616  -0.26501276  1.0
  O  O25  1  0.39936604  1.12022543  -0.60063396  1.0
  O  O26  1  1.39936604  0.39936604  0.12022543  1.0
  O  O27  1  1.12022543  1.39936604  0.39936604  1.0
  O  O28  1  1.21994595  1.49501089  0.21994595  1.0
  O  O29  1  1.21994595  0.21994595  -0.50498911  1.0
  O  O30  1  1.49501089  0.21994595  0.21994595  1.0
  O  O31  1  1.62576203  0.02463724  0.62576203  1.0
  O  O32  1  1.62576203  0.62576203  0.02463724  1.0
  O  O33  1  1.02463724  -0.37423797  -0.37423797  1.0
  O  O34  1  0.77826473  1.59357213  -0.22173527  1.0
  O  O35  1  0.77826473  0.77826473  0.59357213  1.0
  O  O36  1  0.59357213  0.77826473  -0.22173527  1.0
  O  O37  1  1.20254394  -0.18274094  0.00334558  1.0
  O  O38  1  1.00334558  -0.18274094  -0.79745606  1.0
  O  O39  1  1.20254394  0.00334558  -0.18274094  1.0
  O  O40  1  0.81725906  1.00334558  0.20254394  1.0
  O  O41  1  0.81725906  1.20254394  0.00334558  1.0
  O  O42  1  1.00334558  -0.79745606  -0.18274094  1.0
  Si  Si43  1  1.42165327  0.03876812  0.22925208  1.0
  Si  Si44  1  1.22925208  0.03876812  -0.57834673  1.0
  Si  Si45  1  1.42165327  0.22925208  0.03876812  1.0
  Si  Si46  1  1.03876812  1.22925208  0.42165327  1.0
  Si  Si47  1  1.03876812  1.42165327  0.22925208  1.0
  Si  Si48  1  1.22925208  -0.57834673  0.03876812  1.0
  Na  Na49  1  1.45105691  0.45105691  0.45105691  1.0
