# generated using pymatgen
data_LaPRuO
_symmetry_space_group_name_H-M   'P 1'
_cell_length_a   4.06799482
_cell_length_b   4.06799482
_cell_length_c   8.50829259
_cell_angle_alpha   90.00000000
_cell_angle_beta   90.00000000
_cell_angle_gamma   90.00000000
_symmetry_Int_Tables_number   1
_chemical_formula_structural   LaPRuO
_chemical_formula_sum   'La2 P2 Ru2 O2'
_cell_volume   140.80017633
_cell_formula_units_Z   2
loop_
 _symmetry_equiv_pos_site_id
 _symmetry_equiv_pos_as_xyz
  1  'x, y, z'
loop_
 _atom_site_type_symbol
 _atom_site_label
 _atom_site_symmetry_multiplicity
 _atom_site_fract_x
 _atom_site_fract_y
 _atom_site_fract_z
 _atom_site_occupancy
  La  La0  1  0.50000000  0.00000000  0.14503547  1.0
  La  La1  1  0.00000000  0.50000000  0.85496453  1.0
  P  P2  1  0.50000000  0.00000000  0.63545974  1.0
  P  P3  1  0.00000000  0.50000000  0.36454026  1.0
  Ru  Ru4  1  0.00000000  0.00000000  0.50000000  1.0
  Ru  Ru5  1  0.50000000  0.50000000  0.50000000  1.0
  O  O6  1  0.00000000  0.00000000  0.00000000  1.0
  O  O7  1  0.50000000  0.50000000  0.00000000  1.0
