# generated using pymatgen
data_Li2B2Se5
_symmetry_space_group_name_H-M   'P 1'
_cell_length_a   6.01171825
_cell_length_b   6.01171825
_cell_length_c   12.56060992
_cell_angle_alpha   72.08249558
_cell_angle_beta   107.91750442
_cell_angle_gamma   127.41523086
_symmetry_Int_Tables_number   1
_chemical_formula_structural   Li2B2Se5
_chemical_formula_sum   'Li4 B4 Se10'
_cell_volume   338.65904382
_cell_formula_units_Z   2
loop_
 _symmetry_equiv_pos_site_id
 _symmetry_equiv_pos_as_xyz
  1  'x, y, z'
loop_
 _atom_site_type_symbol
 _atom_site_label
 _atom_site_symmetry_multiplicity
 _atom_site_fract_x
 _atom_site_fract_y
 _atom_site_fract_z
 _atom_site_occupancy
  Li  Li0  1  0.60291036  0.35566809  0.43061020  1.0
  Li  Li1  1  0.64433191  0.39708964  0.93061020  1.0
  Li  Li2  1  1.35566809  -0.39708964  0.06938980  1.0
  Li  Li3  1  1.39708964  -0.35566809  0.56938980  1.0
  B  B4  1  0.80899034  0.09019381  0.29270595  1.0
  B  B5  1  0.90980619  -0.80899034  0.79270595  1.0
  B  B6  1  1.09019381  0.80899034  0.20729405  1.0
  B  B7  1  1.19100966  -0.09019381  0.70729405  1.0
  Se  Se8  1  1.76891994  -0.09964844  0.93893763  1.0
  Se  Se9  1  1.09964844  0.23108006  0.43893763  1.0
  Se  Se10  1  0.90035156  -0.23108006  0.56106237  1.0
  Se  Se11  1  0.23108006  0.09964844  0.06106237  1.0
  Se  Se12  1  0.42669120  -0.06675643  0.33953675  1.0
  Se  Se13  1  1.06675643  -0.42669120  0.83953675  1.0
  Se  Se14  1  0.93324357  0.42669120  0.16046325  1.0
  Se  Se15  1  1.57330880  0.06675643  0.66046325  1.0
  Se  Se16  1  0.74715764  0.74715764  0.25000000  1.0
  Se  Se17  1  0.25284236  0.25284236  0.75000000  1.0
