# generated using pymatgen
data_YMoC2
_symmetry_space_group_name_H-M   'P 1'
_cell_length_a   5.70124138
_cell_length_b   3.39865648
_cell_length_c   10.75902691
_cell_angle_alpha   90.00000000
_cell_angle_beta   90.00000000
_cell_angle_gamma   90.00000000
_symmetry_Int_Tables_number   1
_chemical_formula_structural   YMoC2
_chemical_formula_sum   'Y4 Mo4 C8'
_cell_volume   208.47294072
_cell_formula_units_Z   4
loop_
 _symmetry_equiv_pos_site_id
 _symmetry_equiv_pos_as_xyz
  1  'x, y, z'
loop_
 _atom_site_type_symbol
 _atom_site_label
 _atom_site_symmetry_multiplicity
 _atom_site_fract_x
 _atom_site_fract_y
 _atom_site_fract_z
 _atom_site_occupancy
  Y  Y0  1  0.91384113  0.75000000  0.36232285  1.0
  Y  Y1  1  0.41384113  0.75000000  0.13767715  1.0
  Y  Y2  1  0.08615887  0.25000000  0.63767715  1.0
  Y  Y3  1  0.58615887  0.25000000  0.86232285  1.0
  Mo  Mo4  1  0.59741998  0.75000000  0.60942807  1.0
  Mo  Mo5  1  0.09741998  0.75000000  0.89057193  1.0
  Mo  Mo6  1  0.40258002  0.25000000  0.39057193  1.0
  Mo  Mo7  1  0.90258002  0.25000000  0.10942807  1.0
  C  C8  1  0.77766513  0.75000000  0.01665345  1.0
  C  C9  1  0.27766513  0.75000000  0.48334655  1.0
  C  C10  1  0.22233487  0.25000000  0.98334655  1.0
  C  C11  1  0.72233487  0.25000000  0.51665345  1.0
  C  C12  1  0.84178904  0.75000000  0.74778927  1.0
  C  C13  1  0.34178904  0.75000000  0.75221073  1.0
  C  C14  1  0.15821096  0.25000000  0.25221073  1.0
  C  C15  1  0.65821096  0.25000000  0.24778927  1.0
