# generated using pymatgen
data_Ba2CoO4
_symmetry_space_group_name_H-M   'P 1'
_cell_length_a   6.11246778
_cell_length_b   7.68113682
_cell_length_c   11.81891139
_cell_angle_alpha   90.00000000
_cell_angle_beta   117.60819215
_cell_angle_gamma   90.00000000
_symmetry_Int_Tables_number   1
_chemical_formula_structural   Ba2CoO4
_chemical_formula_sum   'Ba8 Co4 O16'
_cell_volume   491.72307797
_cell_formula_units_Z   4
loop_
 _symmetry_equiv_pos_site_id
 _symmetry_equiv_pos_as_xyz
  1  'x, y, z'
loop_
 _atom_site_type_symbol
 _atom_site_label
 _atom_site_symmetry_multiplicity
 _atom_site_fract_x
 _atom_site_fract_y
 _atom_site_fract_z
 _atom_site_occupancy
  Ba  Ba0  1  0.96718878  0.49931677  0.19201335  1.0
  Ba  Ba1  1  0.96718878  0.00068323  0.69201335  1.0
  Ba  Ba2  1  0.03281122  0.99931677  0.30798665  1.0
  Ba  Ba3  1  0.03281122  0.50068323  0.80798665  1.0
  Ba  Ba4  1  0.31462901  0.15228683  0.07734386  1.0
  Ba  Ba5  1  0.31462901  0.34771317  0.57734386  1.0
  Ba  Ba6  1  0.68537099  0.65228683  0.42265614  1.0
  Ba  Ba7  1  0.68537099  0.84771317  0.92265614  1.0
  Co  Co8  1  0.65989786  0.22246307  0.41727675  1.0
  Co  Co9  1  0.65989786  0.27753693  0.91727675  1.0
  Co  Co10  1  0.34010214  0.72246307  0.08272325  1.0
  Co  Co11  1  0.34010214  0.77753693  0.58272325  1.0
  O  O12  1  0.86053599  0.32869646  0.36268279  1.0
  O  O13  1  0.86053599  0.17130354  0.86268279  1.0
  O  O14  1  0.13946401  0.82869646  0.13731721  1.0
  O  O15  1  0.13946401  0.67130354  0.63731721  1.0
  O  O16  1  0.74927482  0.17974017  0.07407693  1.0
  O  O17  1  0.74927482  0.32025983  0.57407693  1.0
  O  O18  1  0.25072518  0.67974017  0.42592307  1.0
  O  O19  1  0.25072518  0.82025983  0.92592307  1.0
  O  O20  1  0.71558149  0.99248003  0.42916050  1.0
  O  O21  1  0.71558149  0.50751997  0.92916050  1.0
  O  O22  1  0.28441851  0.49248003  0.07083950  1.0
  O  O23  1  0.28441851  0.00751997  0.57083950  1.0
  O  O24  1  0.33653573  0.26670052  0.31425078  1.0
  O  O25  1  0.33653573  0.23329948  0.81425078  1.0
  O  O26  1  0.66346427  0.76670052  0.18574922  1.0
  O  O27  1  0.66346427  0.73329948  0.68574922  1.0
