# generated using pymatgen
data_Ti4CrBi2
_symmetry_space_group_name_H-M   'P 1'
_cell_length_a   7.87942011
_cell_length_b   7.87942011
_cell_length_c   7.87942011
_cell_angle_alpha   96.03275224
_cell_angle_beta   96.03275224
_cell_angle_gamma   142.16739509
_symmetry_Int_Tables_number   1
_chemical_formula_structural   Ti4CrBi2
_chemical_formula_sum   'Ti8 Cr2 Bi4'
_cell_volume   283.84667338
_cell_formula_units_Z   2
loop_
 _symmetry_equiv_pos_site_id
 _symmetry_equiv_pos_as_xyz
  1  'x, y, z'
loop_
 _atom_site_type_symbol
 _atom_site_label
 _atom_site_symmetry_multiplicity
 _atom_site_fract_x
 _atom_site_fract_y
 _atom_site_fract_z
 _atom_site_occupancy
  Ti  Ti0  1  0.30817667  0.42038979  0.72856646  1.0
  Ti  Ti1  1  1.19182333  0.92038979  1.11221312  1.0
  Ti  Ti2  1  0.92038979  0.80817667  1.72856646  1.0
  Ti  Ti3  1  0.57961021  1.30817667  0.88778688  1.0
  Ti  Ti4  1  0.80817667  1.07961021  0.88778688  1.0
  Ti  Ti5  1  0.69182333  0.57961021  1.27143354  1.0
  Ti  Ti6  1  1.42038979  0.69182333  1.11221312  1.0
  Ti  Ti7  1  0.07961021  0.19182333  0.27143354  1.0
  Cr  Cr8  1  0.25000000  0.25000000  -0.00000000  1.0
  Cr  Cr9  1  0.75000000  0.75000000  -0.00000000  1.0
  Bi  Bi10  1  0.86029367  0.36029367  1.22058734  1.0
  Bi  Bi11  1  0.63970633  0.86029367  0.50000000  1.0
  Bi  Bi12  1  1.36029367  1.13970633  1.50000000  1.0
  Bi  Bi13  1  0.13970633  0.63970633  0.77941266  1.0
