# generated using pymatgen
data_KAl2NiP3O14
_symmetry_space_group_name_H-M   'P 1'
_cell_length_a   8.36667652
_cell_length_b   8.36667652
_cell_length_c   8.72441038
_cell_angle_alpha   74.93144451
_cell_angle_beta   105.06855549
_cell_angle_gamma   101.25979393
_symmetry_Int_Tables_number   1
_chemical_formula_structural   KAl2NiP3O14
_chemical_formula_sum   'K2 Al4 Ni2 P6 O28'
_cell_volume   564.07986970
_cell_formula_units_Z   2
loop_
 _symmetry_equiv_pos_site_id
 _symmetry_equiv_pos_as_xyz
  1  'x, y, z'
loop_
 _atom_site_type_symbol
 _atom_site_label
 _atom_site_symmetry_multiplicity
 _atom_site_fract_x
 _atom_site_fract_y
 _atom_site_fract_z
 _atom_site_occupancy
  K  K0  1  1.11965532  0.11965532  0.75000000  1.0
  K  K1  1  0.88034468  -0.11965532  0.25000000  1.0
  P  P2  1  1.66451512  0.06629055  0.82781576  1.0
  P  P3  1  0.93370945  -0.66451512  0.32781576  1.0
  P  P4  1  1.06629055  0.66451512  0.67218424  1.0
  P  P5  1  0.33548488  -0.06629055  0.17218424  1.0
  P  P6  1  0.49450528  -0.50549472  0.75000000  1.0
  P  P7  1  1.50549472  0.50549472  0.25000000  1.0
  Al  Al8  1  0.39797476  -0.23720245  0.91993266  1.0
  Al  Al9  1  1.23720245  0.60202524  0.41993266  1.0
  Al  Al10  1  0.76279755  -0.60202524  0.58006734  1.0
  Al  Al11  1  1.60202524  0.23720245  0.08006734  1.0
  Ni  Ni12  1  0.75634296  -0.24365704  0.75000000  1.0
  Ni  Ni13  1  1.24365704  0.24365704  0.25000000  1.0
  O  O14  1  0.52157974  -0.33951061  0.81177035  1.0
  O  O15  1  1.33951061  0.47842026  0.31177035  1.0
  O  O16  1  0.66048939  -0.47842026  0.68822965  1.0
  O  O17  1  1.47842026  0.33951061  0.18822965  1.0
  O  O18  1  1.71907412  0.13398263  0.98543985  1.0
  O  O19  1  0.86601737  -0.71907412  0.48543985  1.0
  O  O20  1  1.13398263  0.71907412  0.51456015  1.0
  O  O21  1  0.28092588  -0.13398263  0.01456015  1.0
  O  O22  1  0.49041745  -0.04007034  0.81779339  1.0
  O  O23  1  1.04007034  0.50958255  0.31779339  1.0
  O  O24  1  0.95992966  -0.50958255  0.68220661  1.0
  O  O25  1  1.50958255  0.04007034  0.18220661  1.0
  O  O26  1  1.65179806  0.21112937  0.67554797  1.0
  O  O27  1  0.78887063  -0.65179806  0.17554797  1.0
  O  O28  1  1.21112937  0.65179806  0.82445203  1.0
  O  O29  1  0.34820194  -0.21112937  0.32445203  1.0
  O  O30  1  1.47939443  0.33757537  0.88664973  1.0
  O  O31  1  0.66242463  -0.47939443  0.38664973  1.0
  O  O32  1  1.33757537  0.47939443  0.61335027  1.0
  O  O33  1  0.52060557  -0.33757537  0.11335027  1.0
  O  O34  1  0.65910869  -0.13670618  0.56267906  1.0
  O  O35  1  1.13670618  0.34089131  0.06267906  1.0
  O  O36  1  0.86329382  -0.34089131  0.93732094  1.0
  O  O37  1  1.34089131  0.13670618  0.43732094  1.0
  O  O38  1  0.80510460  -0.03884057  0.83839394  1.0
  O  O39  1  1.03884057  0.19489540  0.33839394  1.0
  O  O40  1  0.96115943  -0.19489540  0.66160606  1.0
  O  O41  1  1.19489540  0.03884057  0.16160606  1.0
