# generated using pymatgen
data_Na3AlF6
_symmetry_space_group_name_H-M   'P 1'
_cell_length_a   5.71944569
_cell_length_b   5.71944569
_cell_length_c   5.71944569
_cell_angle_alpha   118.26877768
_cell_angle_beta   121.94005141
_cell_angle_gamma   89.84873900
_symmetry_Int_Tables_number   1
_chemical_formula_structural   Na3AlF6
_chemical_formula_sum   'Na3 Al1 F6'
_cell_volume   131.91667266
_cell_formula_units_Z   1
loop_
 _symmetry_equiv_pos_site_id
 _symmetry_equiv_pos_as_xyz
  1  'x, y, z'
loop_
 _atom_site_type_symbol
 _atom_site_label
 _atom_site_symmetry_multiplicity
 _atom_site_fract_x
 _atom_site_fract_y
 _atom_site_fract_z
 _atom_site_occupancy
  Na  Na0  1  0.71428526  0.21428526  0.50000000  1.0
  Na  Na1  1  1.28571474  0.78571474  0.50000000  1.0
  Na  Na2  1  0.50000000  0.50000000  1.00000000  1.0
  Al  Al3  1  0.00000000  0.00000000  0.00000000  1.0
  F  F4  1  0.76368568  0.78374622  1.54743190  1.0
  F  F5  1  0.23631432  0.78374622  1.02006055  1.0
  F  F6  1  0.76368568  0.21625378  0.97993945  1.0
  F  F7  1  0.23631432  0.21625378  0.45256810  1.0
  F  F8  1  0.77448269  0.77448269  1.00000000  1.0
  F  F9  1  1.22551731  1.22551731  1.00000000  1.0
