# generated using pymatgen
data_MnCoSi
_symmetry_space_group_name_H-M   'P 1'
_cell_length_a   5.71019018
_cell_length_b   3.65263818
_cell_length_c   6.86583868
_cell_angle_alpha   90.00000000
_cell_angle_beta   90.00000000
_cell_angle_gamma   90.00000000
_symmetry_Int_Tables_number   1
_chemical_formula_structural   MnCoSi
_chemical_formula_sum   'Mn4 Co4 Si4'
_cell_volume   143.20257338
_cell_formula_units_Z   4
loop_
 _symmetry_equiv_pos_site_id
 _symmetry_equiv_pos_as_xyz
  1  'x, y, z'
loop_
 _atom_site_type_symbol
 _atom_site_label
 _atom_site_symmetry_multiplicity
 _atom_site_fract_x
 _atom_site_fract_y
 _atom_site_fract_z
 _atom_site_occupancy
  Mn  Mn0  1  0.97101991  0.75000000  0.68263935  1.0
  Mn  Mn1  1  0.47101991  0.75000000  0.81736065  1.0
  Mn  Mn2  1  0.02898009  0.25000000  0.31736065  1.0
  Mn  Mn3  1  0.52898009  0.25000000  0.18263935  1.0
  Co  Co4  1  0.84228629  0.75000000  0.05828177  1.0
  Co  Co5  1  0.34228629  0.75000000  0.44171823  1.0
  Co  Co6  1  0.15771371  0.25000000  0.94171823  1.0
  Co  Co7  1  0.65771371  0.25000000  0.55828177  1.0
  Si  Si8  1  0.73395378  0.75000000  0.37485511  1.0
  Si  Si9  1  0.23395378  0.75000000  0.12514489  1.0
  Si  Si10  1  0.26604622  0.25000000  0.62514489  1.0
  Si  Si11  1  0.76604622  0.25000000  0.87485511  1.0
