# generated using pymatgen
data_KIn(PSe3)2
_symmetry_space_group_name_H-M   'P 1'
_cell_length_a   8.38242872
_cell_length_b   6.61685691
_cell_length_c   24.29210489
_cell_angle_alpha   90.00000000
_cell_angle_beta   107.30955702
_cell_angle_gamma   90.00000000
_symmetry_Int_Tables_number   1
_chemical_formula_structural   KIn(PSe3)2
_chemical_formula_sum   'K4 In4 P8 Se24'
_cell_volume   1286.34887161
_cell_formula_units_Z   4
loop_
 _symmetry_equiv_pos_site_id
 _symmetry_equiv_pos_as_xyz
  1  'x, y, z'
loop_
 _atom_site_type_symbol
 _atom_site_label
 _atom_site_symmetry_multiplicity
 _atom_site_fract_x
 _atom_site_fract_y
 _atom_site_fract_z
 _atom_site_occupancy
  K  K0  1  0.70641541  -0.00489248  0.22576195  1.0
  K  K1  1  0.70641541  0.50489248  0.72576195  1.0
  K  K2  1  0.29358459  0.49510752  0.27423805  1.0
  K  K3  1  0.29358459  1.00489248  0.77423805  1.0
  In  In4  1  0.92634349  0.75160640  0.45204872  1.0
  In  In5  1  0.92634349  0.74839360  0.95204872  1.0
  In  In6  1  0.07365651  0.25160640  0.04795128  1.0
  In  In7  1  0.07365651  0.24839360  0.54795128  1.0
  P  P8  1  0.93704385  0.25472394  0.36910434  1.0
  P  P9  1  0.93704385  0.24527606  0.86910434  1.0
  P  P10  1  0.06295615  0.75472394  0.13089566  1.0
  P  P11  1  0.06295615  0.74527606  0.63089566  1.0
  P  P12  1  0.69205041  0.24671586  0.39257272  1.0
  P  P13  1  0.69205041  0.25328414  0.89257272  1.0
  P  P14  1  0.30794959  0.74671586  0.10742728  1.0
  P  P15  1  0.30794959  0.75328414  0.60742728  1.0
  Se  Se16  1  1.00334946  0.93305287  0.36147414  1.0
  Se  Se17  1  1.00334946  0.56694713  0.86147414  1.0
  Se  Se18  1  -0.00334946  0.43305287  0.13852586  1.0
  Se  Se19  1  -0.00334946  0.06694713  0.63852586  1.0
  Se  Se20  1  0.87814847  0.91373386  0.05601193  1.0
  Se  Se21  1  0.87814847  0.58626614  0.55601193  1.0
  Se  Se22  1  0.12185153  0.41373386  0.44398807  1.0
  Se  Se23  1  0.12185153  0.08626614  0.94398807  1.0
  Se  Se24  1  0.90241341  0.41830215  0.28972656  1.0
  Se  Se25  1  0.90241341  0.08169785  0.78972656  1.0
  Se  Se26  1  0.09758659  0.91830215  0.21027344  1.0
  Se  Se27  1  0.09758659  0.58169785  0.71027344  1.0
  Se  Se28  1  0.75911095  0.08611107  0.47916413  1.0
  Se  Se29  1  0.75911095  0.41388893  0.97916413  1.0
  Se  Se30  1  0.24088905  0.58611107  0.02083587  1.0
  Se  Se31  1  0.24088905  0.91388893  0.52083587  1.0
  Se  Se32  1  0.50411824  0.08166143  0.32862132  1.0
  Se  Se33  1  0.50411824  0.41833857  0.82862132  1.0
  Se  Se34  1  0.49588176  0.58166143  0.17137868  1.0
  Se  Se35  1  0.49588176  0.91833857  0.67137868  1.0
  Se  Se36  1  0.37631887  0.06652867  0.09937201  1.0
  Se  Se37  1  0.37631887  0.43347133  0.59937201  1.0
  Se  Se38  1  0.62368113  0.56652867  0.40062799  1.0
  Se  Se39  1  0.62368113  0.93347133  0.90062799  1.0
