# generated using pymatgen
data_BaTeS3
_symmetry_space_group_name_H-M   'P 1'
_cell_length_a   7.40154907
_cell_length_b   7.00723367
_cell_length_c   11.24250071
_cell_angle_alpha   90.00000000
_cell_angle_beta   90.00000000
_cell_angle_gamma   90.00000000
_symmetry_Int_Tables_number   1
_chemical_formula_structural   BaTeS3
_chemical_formula_sum   'Ba4 Te4 S12'
_cell_volume   583.08537239
_cell_formula_units_Z   4
loop_
 _symmetry_equiv_pos_site_id
 _symmetry_equiv_pos_as_xyz
  1  'x, y, z'
loop_
 _atom_site_type_symbol
 _atom_site_label
 _atom_site_symmetry_multiplicity
 _atom_site_fract_x
 _atom_site_fract_y
 _atom_site_fract_z
 _atom_site_occupancy
  Ba  Ba0  1  0.75664374  0.75000000  0.58610076  1.0
  Ba  Ba1  1  0.25664374  0.75000000  0.91389924  1.0
  Ba  Ba2  1  0.24335626  0.25000000  0.41389924  1.0
  Ba  Ba3  1  0.74335626  0.25000000  0.08610076  1.0
  Te  Te4  1  0.53020616  0.75000000  0.25333387  1.0
  Te  Te5  1  0.03020616  0.75000000  0.24666613  1.0
  Te  Te6  1  0.46979384  0.25000000  0.74666613  1.0
  Te  Te7  1  0.96979384  0.25000000  0.75333387  1.0
  S  S8  1  0.87333414  0.48680388  0.34145580  1.0
  S  S9  1  0.87333414  0.01319612  0.34145580  1.0
  S  S10  1  0.37333414  0.48680388  0.15854420  1.0
  S  S11  1  0.37333414  0.01319612  0.15854420  1.0
  S  S12  1  0.12666586  0.98680388  0.65854420  1.0
  S  S13  1  0.12666586  0.51319612  0.65854420  1.0
  S  S14  1  0.62666586  0.98680388  0.84145580  1.0
  S  S15  1  0.62666586  0.51319612  0.84145580  1.0
  S  S16  1  0.87153612  0.75000000  0.05893514  1.0
  S  S17  1  0.37153612  0.75000000  0.44106486  1.0
  S  S18  1  0.12846388  0.25000000  0.94106486  1.0
  S  S19  1  0.62846388  0.25000000  0.55893514  1.0
