# generated using pymatgen
data_GdIn2Cu9
_symmetry_space_group_name_H-M   'P 1'
_cell_length_a   8.49875225
_cell_length_b   8.49875225
_cell_length_c   5.00137360
_cell_angle_alpha   90.00000000
_cell_angle_beta   90.00000000
_cell_angle_gamma   90.00000000
_symmetry_Int_Tables_number   1
_chemical_formula_structural   GdIn2Cu9
_chemical_formula_sum   'Gd2 In4 Cu18'
_cell_volume   361.24316275
_cell_formula_units_Z   2
loop_
 _symmetry_equiv_pos_site_id
 _symmetry_equiv_pos_as_xyz
  1  'x, y, z'
loop_
 _atom_site_type_symbol
 _atom_site_label
 _atom_site_symmetry_multiplicity
 _atom_site_fract_x
 _atom_site_fract_y
 _atom_site_fract_z
 _atom_site_occupancy
  Gd  Gd0  1  0.50000000  0.50000000  0.00000000  1.0
  Gd  Gd1  1  0.00000000  0.00000000  0.00000000  1.0
  In  In2  1  0.87599569  0.62400431  0.00000000  1.0
  In  In3  1  0.37599569  0.87599569  0.00000000  1.0
  In  In4  1  0.12400431  0.37599569  0.00000000  1.0
  In  In5  1  0.62400431  0.12400431  0.00000000  1.0
  Cu  Cu6  1  0.32340758  0.17659242  0.75328918  1.0
  Cu  Cu7  1  0.32340758  0.17659242  0.24671082  1.0
  Cu  Cu8  1  0.82340758  0.32340758  0.75328918  1.0
  Cu  Cu9  1  0.82340758  0.32340758  0.24671082  1.0
  Cu  Cu10  1  0.67659242  0.82340758  0.75328918  1.0
  Cu  Cu11  1  0.67659242  0.82340758  0.24671082  1.0
  Cu  Cu12  1  0.17659242  0.67659242  0.75328918  1.0
  Cu  Cu13  1  0.17659242  0.67659242  0.24671082  1.0
  Cu  Cu14  1  0.43639405  0.70383610  0.50000000  1.0
  Cu  Cu15  1  0.93639405  0.79616390  0.50000000  1.0
  Cu  Cu16  1  0.29616390  0.43639405  0.50000000  1.0
  Cu  Cu17  1  0.79616390  0.06360595  0.50000000  1.0
  Cu  Cu18  1  0.56360595  0.29616390  0.50000000  1.0
  Cu  Cu19  1  0.06360595  0.20383610  0.50000000  1.0
  Cu  Cu20  1  0.70383610  0.56360595  0.50000000  1.0
  Cu  Cu21  1  0.20383610  0.93639405  0.50000000  1.0
  Cu  Cu22  1  0.50000000  0.00000000  0.50000000  1.0
  Cu  Cu23  1  0.00000000  0.50000000  0.50000000  1.0
