# generated using pymatgen
data_Ni4P16W
_symmetry_space_group_name_H-M   'P 1'
_cell_length_a   10.25828324
_cell_length_b   10.25828324
_cell_length_c   11.16824895
_cell_angle_alpha   79.49036047
_cell_angle_beta   100.50963953
_cell_angle_gamma   147.71181008
_symmetry_Int_Tables_number   1
_chemical_formula_structural   Ni4P16W
_chemical_formula_sum   'Ni8 P32 W2'
_cell_volume   616.37642897
_cell_formula_units_Z   2
loop_
 _symmetry_equiv_pos_site_id
 _symmetry_equiv_pos_as_xyz
  1  'x, y, z'
loop_
 _atom_site_type_symbol
 _atom_site_label
 _atom_site_symmetry_multiplicity
 _atom_site_fract_x
 _atom_site_fract_y
 _atom_site_fract_z
 _atom_site_occupancy
  Ni  Ni0  1  0.30570321  -0.19528148  0.87130550  1.0
  Ni  Ni1  1  1.19528148  0.69429679  0.37130550  1.0
  Ni  Ni2  1  0.80471852  0.30570321  0.62869450  1.0
  Ni  Ni3  1  0.69429679  0.19528148  0.12869450  1.0
  Ni  Ni4  1  0.79963203  0.01198141  0.42564223  1.0
  Ni  Ni5  1  0.98801859  0.20036797  0.92564223  1.0
  Ni  Ni6  1  1.01198141  0.79963203  0.07435777  1.0
  Ni  Ni7  1  0.20036797  -0.01198141  0.57435777  1.0
  P  P8  1  0.65651795  -0.21964413  0.91948988  1.0
  P  P9  1  1.21964413  0.34348205  0.41948988  1.0
  P  P10  1  0.78035587  0.65651795  0.58051012  1.0
  P  P11  1  0.34348205  0.21964413  0.08051012  1.0
  P  P12  1  1.25941937  0.26797448  0.89250617  1.0
  P  P13  1  0.73202552  -0.25941937  0.39250617  1.0
  P  P14  1  0.26797448  0.25941937  0.60749383  1.0
  P  P15  1  0.74058063  0.73202552  0.10749383  1.0
  P  P16  1  0.61583207  0.37441514  0.83905189  1.0
  P  P17  1  0.62558486  0.38416793  0.33905189  1.0
  P  P18  1  1.37441514  0.61583207  0.66094811  1.0
  P  P19  1  0.38416793  -0.37441514  0.16094811  1.0
  P  P20  1  0.26708253  -0.01492792  0.78041919  1.0
  P  P21  1  1.01492792  0.73291747  0.28041919  1.0
  P  P22  1  0.98507208  0.26708253  0.71958081  1.0
  P  P23  1  0.73291747  0.01492792  0.21958081  1.0
  P  P24  1  0.44156669  -0.11578320  0.68791143  1.0
  P  P25  1  1.11578320  0.55843331  0.18791143  1.0
  P  P26  1  0.88421680  0.44156669  0.81208857  1.0
  P  P27  1  0.55843331  0.11578320  0.31208857  1.0
  P  P28  1  0.72077045  0.14657998  0.94598772  1.0
  P  P29  1  0.85342002  0.27922955  0.44598772  1.0
  P  P30  1  1.14657998  0.72077045  0.55401228  1.0
  P  P31  1  0.27922955  -0.14657998  0.05401228  1.0
  P  P32  1  1.31880641  0.60233343  0.95719674  1.0
  P  P33  1  0.39766657  -0.31880641  0.45719674  1.0
  P  P34  1  0.60233343  0.31880641  0.54280326  1.0
  P  P35  1  0.68119359  0.39766657  0.04280326  1.0
  P  P36  1  0.88615902  0.00886034  0.63192547  1.0
  P  P37  1  0.99113966  0.11384098  0.13192547  1.0
  P  P38  1  1.00886034  0.88615902  0.86807453  1.0
  P  P39  1  0.11384098  -0.00886034  0.36807453  1.0
  W  W40  1  0.60528887  0.60528887  0.75000000  1.0
  W  W41  1  0.39471113  0.39471113  0.25000000  1.0
