# generated using pymatgen
data_Hf5CoTe3
_symmetry_space_group_name_H-M   'P 1'
_cell_length_a   18.87642385
_cell_length_b   3.77088661
_cell_length_c   10.75342848
_cell_angle_alpha   90.00000000
_cell_angle_beta   90.00000000
_cell_angle_gamma   90.00000000
_symmetry_Int_Tables_number   1
_chemical_formula_structural   Hf5CoTe3
_chemical_formula_sum   'Hf20 Co4 Te12'
_cell_volume   765.43822159
_cell_formula_units_Z   4
loop_
 _symmetry_equiv_pos_site_id
 _symmetry_equiv_pos_as_xyz
  1  'x, y, z'
loop_
 _atom_site_type_symbol
 _atom_site_label
 _atom_site_symmetry_multiplicity
 _atom_site_fract_x
 _atom_site_fract_y
 _atom_site_fract_z
 _atom_site_occupancy
  Hf  Hf0  1  0.40655386  0.75000000  0.55632672  1.0
  Hf  Hf1  1  0.90655386  0.75000000  0.94367328  1.0
  Hf  Hf2  1  0.59344614  0.25000000  0.44367328  1.0
  Hf  Hf3  1  0.09344614  0.25000000  0.05632672  1.0
  Hf  Hf4  1  0.33967542  0.75000000  0.27367715  1.0
  Hf  Hf5  1  0.83967542  0.75000000  0.22632285  1.0
  Hf  Hf6  1  0.66032458  0.25000000  0.72632285  1.0
  Hf  Hf7  1  0.16032458  0.25000000  0.77367715  1.0
  Hf  Hf8  1  0.22102013  0.75000000  0.98012719  1.0
  Hf  Hf9  1  0.72102013  0.75000000  0.51987281  1.0
  Hf  Hf10  1  0.77897987  0.25000000  0.01987281  1.0
  Hf  Hf11  1  0.27897987  0.25000000  0.48012719  1.0
  Hf  Hf12  1  0.13328124  0.75000000  0.30931255  1.0
  Hf  Hf13  1  0.63328124  0.75000000  0.19068745  1.0
  Hf  Hf14  1  0.86671876  0.25000000  0.69068745  1.0
  Hf  Hf15  1  0.36671876  0.25000000  0.80931255  1.0
  Hf  Hf16  1  0.01800720  0.75000000  0.61407610  1.0
  Hf  Hf17  1  0.51800720  0.75000000  0.88592390  1.0
  Hf  Hf18  1  0.98199280  0.25000000  0.38592390  1.0
  Hf  Hf19  1  0.48199280  0.25000000  0.11407610  1.0
  Co  Co20  1  0.09103943  0.75000000  0.87234818  1.0
  Co  Co21  1  0.59103943  0.75000000  0.62765182  1.0
  Co  Co22  1  0.90896057  0.25000000  0.12765182  1.0
  Co  Co23  1  0.40896057  0.25000000  0.37234818  1.0
  Te  Te24  1  0.49673053  0.75000000  0.32063964  1.0
  Te  Te25  1  0.99673053  0.75000000  0.17936036  1.0
  Te  Te26  1  0.50326947  0.25000000  0.67936036  1.0
  Te  Te27  1  0.00326947  0.25000000  0.82063964  1.0
  Te  Te28  1  0.37710218  0.75000000  0.01301568  1.0
  Te  Te29  1  0.87710218  0.75000000  0.48698432  1.0
  Te  Te30  1  0.62289782  0.25000000  0.98698432  1.0
  Te  Te31  1  0.12289782  0.25000000  0.51301568  1.0
  Te  Te32  1  0.27001482  0.75000000  0.69150379  1.0
  Te  Te33  1  0.77001482  0.75000000  0.80849621  1.0
  Te  Te34  1  0.72998518  0.25000000  0.30849621  1.0
  Te  Te35  1  0.22998518  0.25000000  0.19150379  1.0
