# generated using pymatgen
data_MgFeSiO4
_symmetry_space_group_name_H-M   'P 1'
_cell_length_a   10.45873097
_cell_length_b   6.12087342
_cell_length_c   4.80117202
_cell_angle_alpha   90.00000000
_cell_angle_beta   90.00000000
_cell_angle_gamma   90.00000000
_symmetry_Int_Tables_number   1
_chemical_formula_structural   MgFeSiO4
_chemical_formula_sum   'Mg4 Fe4 Si4 O16'
_cell_volume   307.35455738
_cell_formula_units_Z   4
loop_
 _symmetry_equiv_pos_site_id
 _symmetry_equiv_pos_as_xyz
  1  'x, y, z'
loop_
 _atom_site_type_symbol
 _atom_site_label
 _atom_site_symmetry_multiplicity
 _atom_site_fract_x
 _atom_site_fract_y
 _atom_site_fract_z
 _atom_site_occupancy
  Mg  Mg0  1  0.50000000  0.00000000  0.50000000  1.0
  Mg  Mg1  1  0.00000000  0.50000000  0.00000000  1.0
  Mg  Mg2  1  0.50000000  0.50000000  0.50000000  1.0
  Mg  Mg3  1  0.00000000  0.00000000  0.00000000  1.0
  Fe  Fe4  1  0.78009395  0.75000000  0.48271088  1.0
  Fe  Fe5  1  0.28009395  0.75000000  0.01728912  1.0
  Fe  Fe6  1  0.21990605  0.25000000  0.51728912  1.0
  Fe  Fe7  1  0.71990605  0.25000000  0.98271088  1.0
  Si  Si8  1  0.59429538  0.75000000  0.92771688  1.0
  Si  Si9  1  0.09429538  0.75000000  0.57228312  1.0
  Si  Si10  1  0.40570462  0.25000000  0.07228312  1.0
  Si  Si11  1  0.90570462  0.25000000  0.42771688  1.0
  O  O12  1  0.58640521  0.75000000  0.26680411  1.0
  O  O13  1  0.08640521  0.75000000  0.23319589  1.0
  O  O14  1  0.41359479  0.25000000  0.73319589  1.0
  O  O15  1  0.91359479  0.25000000  0.76680411  1.0
  O  O16  1  0.95081915  0.75000000  0.72736449  1.0
  O  O17  1  0.45081915  0.75000000  0.77263551  1.0
  O  O18  1  0.04918085  0.25000000  0.27263551  1.0
  O  O19  1  0.54918085  0.25000000  0.22736449  1.0
  O  O20  1  0.66254296  0.96678761  0.78274710  1.0
  O  O21  1  0.16254296  0.53321239  0.71725290  1.0
  O  O22  1  0.33745704  0.46678761  0.21725290  1.0
  O  O23  1  0.83745704  0.03321239  0.28274710  1.0
  O  O24  1  0.33745704  0.03321239  0.21725290  1.0
  O  O25  1  0.83745704  0.46678761  0.28274710  1.0
  O  O26  1  0.66254296  0.53321239  0.78274710  1.0
  O  O27  1  0.16254296  0.96678761  0.71725290  1.0
