# generated using pymatgen
data_KICl2
_symmetry_space_group_name_H-M   'P 1'
_cell_length_a   8.73459441
_cell_length_b   11.51472338
_cell_length_c   12.45286600
_cell_angle_alpha   90.00000000
_cell_angle_beta   108.71315956
_cell_angle_gamma   90.00000000
_symmetry_Int_Tables_number   1
_chemical_formula_structural   KICl2
_chemical_formula_sum   'K8 I8 Cl16'
_cell_volume   1186.25537709
_cell_formula_units_Z   8
loop_
 _symmetry_equiv_pos_site_id
 _symmetry_equiv_pos_as_xyz
  1  'x, y, z'
loop_
 _atom_site_type_symbol
 _atom_site_label
 _atom_site_symmetry_multiplicity
 _atom_site_fract_x
 _atom_site_fract_y
 _atom_site_fract_z
 _atom_site_occupancy
  K  K0  1  0.96405965  0.54862403  0.69316693  1.0
  K  K1  1  0.96405965  0.95137597  0.19316693  1.0
  K  K2  1  0.03594035  0.04862403  0.80683307  1.0
  K  K3  1  0.03594035  0.45137597  0.30683307  1.0
  K  K4  1  0.53207654  0.70121783  0.91433637  1.0
  K  K5  1  0.53207654  0.79878217  0.41433637  1.0
  K  K6  1  0.46792346  0.20121783  0.58566363  1.0
  K  K7  1  0.46792346  0.29878217  0.08566363  1.0
  I  I8  1  0.78783163  0.39437054  0.91280401  1.0
  I  I9  1  0.78783163  0.10562946  0.41280401  1.0
  I  I10  1  0.21216837  0.89437054  0.58719599  1.0
  I  I11  1  0.21216837  0.60562946  0.08719599  1.0
  I  I12  1  0.61927785  0.47955335  0.38153836  1.0
  I  I13  1  0.61927785  0.02044665  0.88153836  1.0
  I  I14  1  0.38072215  0.97955335  0.11846164  1.0
  I  I15  1  0.38072215  0.52044665  0.61846164  1.0
  Cl  Cl16  1  0.84969545  0.86877182  0.93246208  1.0
  Cl  Cl17  1  0.84969545  0.63122818  0.43246208  1.0
  Cl  Cl18  1  0.15030455  0.36877182  0.56753792  1.0
  Cl  Cl19  1  0.15030455  0.13122818  0.06753792  1.0
  Cl  Cl20  1  0.83087566  0.29546152  0.73846227  1.0
  Cl  Cl21  1  0.83087566  0.20453848  0.23846227  1.0
  Cl  Cl22  1  0.16912434  0.79546152  0.76153773  1.0
  Cl  Cl23  1  0.16912434  0.70453848  0.26153773  1.0
  Cl  Cl24  1  0.73474940  1.00057215  0.58087159  1.0
  Cl  Cl25  1  0.73474940  0.49942785  0.08087159  1.0
  Cl  Cl26  1  0.26525060  0.50057215  0.91912841  1.0
  Cl  Cl27  1  0.26525060  -0.00057215  0.41912841  1.0
  Cl  Cl28  1  0.61215722  0.67046128  0.67014332  1.0
  Cl  Cl29  1  0.61215722  0.82953872  0.17014332  1.0
  Cl  Cl30  1  0.38784278  0.17046128  0.82985668  1.0
  Cl  Cl31  1  0.38784278  0.32953872  0.32985668  1.0
