# generated using pymatgen
data_AgP(XeF5)2
_symmetry_space_group_name_H-M   'P 1'
_cell_length_a   8.85227651
_cell_length_b   8.85227651
_cell_length_c   8.85227651
_cell_angle_alpha   120.28536362
_cell_angle_beta   120.28536362
_cell_angle_gamma   89.50644228
_symmetry_Int_Tables_number   1
_chemical_formula_structural   AgP(XeF5)2
_chemical_formula_sum   'Ag2 P2 Xe4 F20'
_cell_volume   488.37696456
_cell_formula_units_Z   2
loop_
 _symmetry_equiv_pos_site_id
 _symmetry_equiv_pos_as_xyz
  1  'x, y, z'
loop_
 _atom_site_type_symbol
 _atom_site_label
 _atom_site_symmetry_multiplicity
 _atom_site_fract_x
 _atom_site_fract_y
 _atom_site_fract_z
 _atom_site_occupancy
  Ag  Ag0  1  0.00000000  0.50000000  0.50000000  1.0
  Ag  Ag1  1  0.50000000  -0.00000000  0.50000000  1.0
  P  P2  1  0.00000000  0.00000000  0.00000000  1.0
  P  P3  1  0.50000000  0.50000000  1.00000000  1.0
  Xe  Xe4  1  0.50017180  0.99982820  1.00000000  1.0
  Xe  Xe5  1  1.00017180  1.00017180  1.50034360  1.0
  Xe  Xe6  1  0.49982820  0.49982820  0.49965640  1.0
  Xe  Xe7  1  0.99982820  0.50017180  1.00000000  1.0
  F  F8  1  0.26634581  0.76593575  0.73555875  1.0
  F  F9  1  0.76634581  1.03078705  1.50041006  1.0
  F  F10  1  0.73406425  1.23365419  1.26444125  1.0
  F  F11  1  1.23406425  0.96962301  1.50041006  1.0
  F  F12  1  0.53037699  0.26593575  0.49958994  1.0
  F  F13  1  1.03037699  0.53078705  1.26444125  1.0
  F  F14  1  0.46921295  0.73365419  0.49958994  1.0
  F  F15  1  0.96921295  0.46962301  0.73555875  1.0
  F  F16  1  0.17201565  0.92665721  1.09870356  1.0
  F  F17  1  0.67201565  0.57331208  1.24535844  1.0
  F  F18  1  0.57334279  1.32798435  0.90129644  1.0
  F  F19  1  1.07334279  1.17204636  1.24535844  1.0
  F  F20  1  0.32795364  0.42665721  0.75464156  1.0
  F  F21  1  0.82795364  0.07331208  0.90129644  1.0
  F  F22  1  0.92668792  0.82798435  0.75464156  1.0
  F  F23  1  1.42668792  0.67204636  1.09870356  1.0
  F  F24  1  0.13064826  0.13064826  -0.00000000  1.0
  F  F25  1  0.63064826  0.63064826  1.00000000  1.0
  F  F26  1  0.36935174  0.36935174  -0.00000000  1.0
  F  F27  1  0.86935174  0.86935174  1.00000000  1.0
