# generated using pymatgen
data_BeCl2
_symmetry_space_group_name_H-M   'P 1'
_cell_length_a   6.72155268
_cell_length_b   6.72155268
_cell_length_c   6.72155268
_cell_angle_alpha   128.07432616
_cell_angle_beta   71.84570675
_cell_angle_gamma   134.01875518
_symmetry_Int_Tables_number   1
_chemical_formula_structural   BeCl2
_chemical_formula_sum   'Be2 Cl4'
_cell_volume   168.19967788
_cell_formula_units_Z   2
loop_
 _symmetry_equiv_pos_site_id
 _symmetry_equiv_pos_as_xyz
  1  'x, y, z'
loop_
 _atom_site_type_symbol
 _atom_site_label
 _atom_site_symmetry_multiplicity
 _atom_site_fract_x
 _atom_site_fract_y
 _atom_site_fract_z
 _atom_site_occupancy
  Be  Be0  1  0.25000000  0.25000000  0.00000000  1.0
  Be  Be1  1  0.75000000  0.75000000  0.00000000  1.0
  Cl  Cl2  1  0.39889194  0.31318017  0.71207212  1.0
  Cl  Cl3  1  0.10110806  0.81318017  0.91428823  1.0
  Cl  Cl4  1  0.89889194  1.18681983  1.08571177  1.0
  Cl  Cl5  1  0.60110806  0.68681983  0.28792788  1.0
