# generated using pymatgen
data_CsLiCdP2O7
_symmetry_space_group_name_H-M   'P 1'
_cell_length_a   12.99184884
_cell_length_b   5.38470716
_cell_length_c   10.77511758
_cell_angle_alpha   90.00000000
_cell_angle_beta   90.00000000
_cell_angle_gamma   90.00000000
_symmetry_Int_Tables_number   1
_chemical_formula_structural   CsLiCdP2O7
_chemical_formula_sum   'Cs4 Li4 Cd4 P8 O28'
_cell_volume   753.79814879
_cell_formula_units_Z   4
loop_
 _symmetry_equiv_pos_site_id
 _symmetry_equiv_pos_as_xyz
  1  'x, y, z'
loop_
 _atom_site_type_symbol
 _atom_site_label
 _atom_site_symmetry_multiplicity
 _atom_site_fract_x
 _atom_site_fract_y
 _atom_site_fract_z
 _atom_site_occupancy
  Cs  Cs0  1  0.50000000  0.47553652  0.18311617  1.0
  Cs  Cs1  1  0.50000000  0.52446348  0.68311617  1.0
  Cs  Cs2  1  0.00000000  0.01078837  0.93545521  1.0
  Cs  Cs3  1  0.00000000  0.98921163  0.43545521  1.0
  Li  Li4  1  0.74679846  0.46795722  0.94850183  1.0
  Li  Li5  1  0.25320154  0.46795722  0.94850183  1.0
  Li  Li6  1  0.25320154  0.53204278  0.44850183  1.0
  Li  Li7  1  0.74679846  0.53204278  0.44850183  1.0
  Cd  Cd8  1  0.75288488  0.06754595  0.66404428  1.0
  Cd  Cd9  1  0.24711512  0.06754595  0.66404428  1.0
  Cd  Cd10  1  0.24711512  0.93245405  0.16404428  1.0
  Cd  Cd11  1  0.75288488  0.93245405  0.16404428  1.0
  P  P12  1  0.88204164  0.51508992  0.69197307  1.0
  P  P13  1  0.11795836  0.51508992  0.69197307  1.0
  P  P14  1  0.11795836  0.48491008  0.19197307  1.0
  P  P15  1  0.88204164  0.48491008  0.19197307  1.0
  P  P16  1  0.61631594  0.97522797  0.92809811  1.0
  P  P17  1  0.38368406  0.97522797  0.92809811  1.0
  P  P18  1  0.38368406  0.02477203  0.42809811  1.0
  P  P19  1  0.61631594  0.02477203  0.42809811  1.0
  O  O20  1  0.00000000  0.42983500  0.72658537  1.0
  O  O21  1  0.00000000  0.57016500  0.22658537  1.0
  O  O22  1  0.68679041  0.15170682  0.00452644  1.0
  O  O23  1  0.31320959  0.15170682  0.00452644  1.0
  O  O24  1  0.31320959  0.84829318  0.50452644  1.0
  O  O25  1  0.68679041  0.84829318  0.50452644  1.0
  O  O26  1  0.88146549  0.79971251  0.69434097  1.0
  O  O27  1  0.11853451  0.79971251  0.69434097  1.0
  O  O28  1  0.11853451  0.20028749  0.19434097  1.0
  O  O29  1  0.88146549  0.20028749  0.19434097  1.0
  O  O30  1  0.63505878  0.70472652  0.96432049  1.0
  O  O31  1  0.36494122  0.70472652  0.96432049  1.0
  O  O32  1  0.36494122  0.29527348  0.46432049  1.0
  O  O33  1  0.63505878  0.29527348  0.46432049  1.0
  O  O34  1  0.81685563  0.38835037  0.79373127  1.0
  O  O35  1  0.18314437  0.38835037  0.79373127  1.0
  O  O36  1  0.18314437  0.61164963  0.29373127  1.0
  O  O37  1  0.81685563  0.61164963  0.29373127  1.0
  O  O38  1  0.85391332  0.39740227  0.56545947  1.0
  O  O39  1  0.14608668  0.39740227  0.56545947  1.0
  O  O40  1  0.14608668  0.60259773  0.06545947  1.0
  O  O41  1  0.85391332  0.60259773  0.06545947  1.0
  O  O42  1  0.61912977  0.02876537  0.78786607  1.0
  O  O43  1  0.38087023  0.02876537  0.78786607  1.0
  O  O44  1  0.38087023  0.97123463  0.28786607  1.0
  O  O45  1  0.61912977  0.97123463  0.28786607  1.0
  O  O46  1  0.50000000  0.05378187  0.97408925  1.0
  O  O47  1  0.50000000  0.94621813  0.47408925  1.0
