# generated using pymatgen
data_LaH6(ClO3)3
_symmetry_space_group_name_H-M   'P 1'
_cell_length_a   8.17252666
_cell_length_b   8.17252666
_cell_length_c   8.40216171
_cell_angle_alpha   90.00000000
_cell_angle_beta   90.00000000
_cell_angle_gamma   120.00000000
_symmetry_Int_Tables_number   1
_chemical_formula_structural   LaH6(ClO3)3
_chemical_formula_sum   'La2 H12 Cl6 O18'
_cell_volume   485.99786344
_cell_formula_units_Z   2
loop_
 _symmetry_equiv_pos_site_id
 _symmetry_equiv_pos_as_xyz
  1  'x, y, z'
loop_
 _atom_site_type_symbol
 _atom_site_label
 _atom_site_symmetry_multiplicity
 _atom_site_fract_x
 _atom_site_fract_y
 _atom_site_fract_z
 _atom_site_occupancy
  La  La0  1  0.66666667  0.33333333  0.25000000  1.0
  La  La1  1  0.33333333  0.66666667  0.75000000  1.0
  H  H2  1  0.10167425  0.64812592  0.34365962  1.0
  H  H3  1  0.10167425  0.64812592  0.15634038  1.0
  H  H4  1  0.64812592  0.10167425  0.84365962  1.0
  H  H5  1  0.64812592  0.10167425  0.65634038  1.0
  H  H6  1  0.54645167  0.89832575  0.34365962  1.0
  H  H7  1  0.54645167  0.89832575  0.15634038  1.0
  H  H8  1  0.35187408  0.45354833  0.34365962  1.0
  H  H9  1  0.35187408  0.45354833  0.15634038  1.0
  H  H10  1  0.89832575  0.54645167  0.84365962  1.0
  H  H11  1  0.89832575  0.54645167  0.65634038  1.0
  H  H12  1  0.45354833  0.35187408  0.84365962  1.0
  H  H13  1  0.45354833  0.35187408  0.65634038  1.0
  Cl  Cl14  1  0.75986963  0.75986963  0.50000000  1.0
  Cl  Cl15  1  0.75986963  0.75986963  0.00000000  1.0
  Cl  Cl16  1  -0.00000000  0.24013037  0.50000000  1.0
  Cl  Cl17  1  -0.00000000  0.24013037  0.00000000  1.0
  Cl  Cl18  1  0.24013037  -0.00000000  0.50000000  1.0
  Cl  Cl19  1  0.24013037  -0.00000000  0.00000000  1.0
  O  O20  1  0.56659420  0.97906535  0.25000000  1.0
  O  O21  1  0.97906535  0.56659420  0.75000000  1.0
  O  O22  1  0.41247114  0.43340580  0.25000000  1.0
  O  O23  1  0.02093465  0.58752886  0.25000000  1.0
  O  O24  1  0.43340580  0.41247114  0.75000000  1.0
  O  O25  1  0.58752886  0.02093465  0.75000000  1.0
  O  O26  1  0.74660685  0.55953001  0.49034446  1.0
  O  O27  1  0.74660685  0.55953001  0.00965554  1.0
  O  O28  1  0.55953001  0.74660685  0.99034446  1.0
  O  O29  1  0.55953001  0.74660685  0.50965554  1.0
  O  O30  1  0.81292316  0.25339315  0.49034446  1.0
  O  O31  1  0.81292316  0.25339315  0.00965554  1.0
  O  O32  1  0.44046999  0.18707684  0.49034446  1.0
  O  O33  1  0.44046999  0.18707684  0.00965554  1.0
  O  O34  1  0.25339315  0.81292316  0.99034446  1.0
  O  O35  1  0.25339315  0.81292316  0.50965554  1.0
  O  O36  1  0.18707684  0.44046999  0.99034446  1.0
  O  O37  1  0.18707684  0.44046999  0.50965554  1.0
