# generated using pymatgen
data_PC2S2N3
_symmetry_space_group_name_H-M   'P 1'
_cell_length_a   8.84718272
_cell_length_b   8.49637675
_cell_length_c   10.52357704
_cell_angle_alpha   104.89754342
_cell_angle_beta   98.76424848
_cell_angle_gamma   98.19086634
_symmetry_Int_Tables_number   1
_chemical_formula_structural   PC2S2N3
_chemical_formula_sum   'P4 C8 S8 N12'
_cell_volume   741.74190031
_cell_formula_units_Z   4
loop_
 _symmetry_equiv_pos_site_id
 _symmetry_equiv_pos_as_xyz
  1  'x, y, z'
loop_
 _atom_site_type_symbol
 _atom_site_label
 _atom_site_symmetry_multiplicity
 _atom_site_fract_x
 _atom_site_fract_y
 _atom_site_fract_z
 _atom_site_occupancy
  P  P0  1  -0.96399109  -0.55731712  -0.19468979  1.0
  P  P1  1  -0.03600891  -0.44268288  -0.80531021  1.0
  P  P2  1  -0.77938614  -0.55674995  -0.93483991  1.0
  P  P3  1  -0.22061386  -0.44325005  -0.06516009  1.0
  C  C4  1  -0.73085953  -0.88124419  -0.97033551  1.0
  C  C5  1  -0.26914047  -0.11875581  -0.02966449  1.0
  C  C6  1  -0.78736359  -0.43690098  -0.35593452  1.0
  C  C7  1  -0.21263641  -0.56309902  -0.64406548  1.0
  C  C8  1  -0.53858832  -0.30222072  -0.77514010  1.0
  C  C9  1  -0.46141168  -0.69777928  -0.22485990  1.0
  C  C10  1  -0.94470440  -0.09774968  -0.69685625  1.0
  C  C11  1  -0.05529560  -0.90225032  -0.30314375  1.0
  S  S12  1  -0.26075218  -0.92659225  -0.98732939  1.0
  S  S13  1  -0.73924782  -0.07340775  -0.01267061  1.0
  S  S14  1  -0.92205978  -0.90415146  -0.66002078  1.0
  S  S15  1  -0.07794022  -0.09584854  -0.33997922  1.0
  S  S16  1  -0.56805495  -0.85079956  -0.33416345  1.0
  S  S17  1  -0.43194505  -0.14920044  -0.66583655  1.0
  S  S18  1  -0.34946724  -0.63254239  -0.58349509  1.0
  S  S19  1  -0.65053276  -0.36745761  -0.41650491  1.0
  N  N20  1  -0.71802207  -0.73218797  -0.93493161  1.0
  N  N21  1  -0.28197793  -0.26781203  -0.06506839  1.0
  N  N22  1  -0.90279536  -0.54120126  -0.84121482  1.0
  N  N23  1  -0.09720464  -0.45879874  -0.15878518  1.0
  N  N24  1  -0.89871518  -0.48948310  -0.31434077  1.0
  N  N25  1  -0.10128482  -0.51051690  -0.68565923  1.0
  N  N26  1  -0.18238821  -0.45399009  -0.91621556  1.0
  N  N27  1  -0.81761179  -0.54600991  -0.08378444  1.0
  N  N28  1  -0.61534840  -0.42064246  -0.86266827  1.0
  N  N29  1  -0.38465160  -0.57935754  -0.13733173  1.0
  N  N30  1  -0.95609538  -0.24661486  -0.72225345  1.0
  N  N31  1  -0.04390462  -0.75338514  -0.27774655  1.0
