# generated using pymatgen
data_Ta5As4
_symmetry_space_group_name_H-M   'P 1'
_cell_length_a   7.19665354
_cell_length_b   7.19665354
_cell_length_c   7.19665354
_cell_angle_alpha   93.27583502
_cell_angle_beta   93.27583502
_cell_angle_gamma   152.33952403
_symmetry_Int_Tables_number   1
_chemical_formula_structural   Ta5As4
_chemical_formula_sum   'Ta5 As4'
_cell_volume   168.01536720
_cell_formula_units_Z   1
loop_
 _symmetry_equiv_pos_site_id
 _symmetry_equiv_pos_as_xyz
  1  'x, y, z'
loop_
 _atom_site_type_symbol
 _atom_site_label
 _atom_site_symmetry_multiplicity
 _atom_site_fract_x
 _atom_site_fract_y
 _atom_site_fract_z
 _atom_site_occupancy
  Ta  Ta0  1  0.69404398  0.63154373  0.32558771  1.0
  Ta  Ta1  1  0.63154373  0.30595602  0.93749976  1.0
  Ta  Ta2  1  1.30595602  1.36845627  1.67441229  1.0
  Ta  Ta3  1  0.36845627  0.69404398  1.06250024  1.0
  Ta  Ta4  1  0.00000000  0.00000000  0.00000000  1.0
  As  As5  1  0.94803508  0.71449573  0.66253080  1.0
  As  As6  1  0.71449573  0.05196492  0.76646065  1.0
  As  As7  1  1.05196492  1.28550427  1.33746920  1.0
  As  As8  1  0.28550427  0.94803508  1.23353935  1.0
