# generated using pymatgen
data_Li2ScMo3O8
_symmetry_space_group_name_H-M   'P 1'
_cell_length_a   5.81831833
_cell_length_b   5.81831833
_cell_length_c   10.37809938
_cell_angle_alpha   90.00000000
_cell_angle_beta   90.00000000
_cell_angle_gamma   120.00000000
_symmetry_Int_Tables_number   1
_chemical_formula_structural   Li2ScMo3O8
_chemical_formula_sum   'Li4 Sc2 Mo6 O16'
_cell_volume   304.25898602
_cell_formula_units_Z   2
loop_
 _symmetry_equiv_pos_site_id
 _symmetry_equiv_pos_as_xyz
  1  'x, y, z'
loop_
 _atom_site_type_symbol
 _atom_site_label
 _atom_site_symmetry_multiplicity
 _atom_site_fract_x
 _atom_site_fract_y
 _atom_site_fract_z
 _atom_site_occupancy
  Li  Li0  1  0.33333333  0.66666667  0.07553888  1.0
  Li  Li1  1  0.66666667  0.33333333  0.57553888  1.0
  Li  Li2  1  0.00000000  0.00000000  0.17324527  1.0
  Li  Li3  1  0.00000000  0.00000000  0.67324527  1.0
  Sc  Sc4  1  0.33333333  0.66666667  0.68038039  1.0
  Sc  Sc5  1  0.66666667  0.33333333  0.18038039  1.0
  Mo  Mo6  1  0.62476737  0.81238368  0.39586008  1.0
  Mo  Mo7  1  0.81238368  0.62476737  0.89586008  1.0
  Mo  Mo8  1  0.81238368  0.18761632  0.89586008  1.0
  Mo  Mo9  1  0.18761632  0.81238368  0.39586008  1.0
  Mo  Mo10  1  0.18761632  0.37523263  0.39586008  1.0
  Mo  Mo11  1  0.37523263  0.18761632  0.89586008  1.0
  O  O12  1  0.97084261  0.48542131  0.02752946  1.0
  O  O13  1  0.48542131  0.97084261  0.52752946  1.0
  O  O14  1  0.48542131  0.51457869  0.52752946  1.0
  O  O15  1  0.51457869  0.48542131  0.02752946  1.0
  O  O16  1  0.51457869  0.02915739  0.02752946  1.0
  O  O17  1  0.02915739  0.51457869  0.52752946  1.0
  O  O18  1  0.32076928  0.16038464  0.28843190  1.0
  O  O19  1  0.16038464  0.32076928  0.78843190  1.0
  O  O20  1  0.16038464  0.83961536  0.78843190  1.0
  O  O21  1  0.83961536  0.16038464  0.28843190  1.0
  O  O22  1  0.83961536  0.67923072  0.28843190  1.0
  O  O23  1  0.67923072  0.83961536  0.78843190  1.0
  O  O24  1  0.33333333  0.66666667  0.25748755  1.0
  O  O25  1  0.66666667  0.33333333  0.75748755  1.0
  O  O26  1  0.00000000  0.00000000  -0.00881641  1.0
  O  O27  1  0.00000000  0.00000000  0.49118359  1.0
