# generated using pymatgen
data_SrZrS3
_symmetry_space_group_name_H-M   'P 1'
_cell_length_a   7.16084672
_cell_length_b   3.77508646
_cell_length_c   15.94124377
_cell_angle_alpha   90.00000000
_cell_angle_beta   90.00000000
_cell_angle_gamma   90.00000000
_symmetry_Int_Tables_number   1
_chemical_formula_structural   SrZrS3
_chemical_formula_sum   'Sr4 Zr4 S12'
_cell_volume   430.93670177
_cell_formula_units_Z   4
loop_
 _symmetry_equiv_pos_site_id
 _symmetry_equiv_pos_as_xyz
  1  'x, y, z'
loop_
 _atom_site_type_symbol
 _atom_site_label
 _atom_site_symmetry_multiplicity
 _atom_site_fract_x
 _atom_site_fract_y
 _atom_site_fract_z
 _atom_site_occupancy
  Sr  Sr0  1  0.76611301  0.75000000  0.45469598  1.0
  Sr  Sr1  1  0.26611301  0.75000000  0.04530402  1.0
  Sr  Sr2  1  0.23388699  0.25000000  0.54530402  1.0
  Sr  Sr3  1  0.73388699  0.25000000  0.95469598  1.0
  Zr  Zr4  1  0.66237834  0.75000000  0.70506532  1.0
  Zr  Zr5  1  0.16237834  0.75000000  0.79493468  1.0
  Zr  Zr6  1  0.33762166  0.25000000  0.29493468  1.0
  Zr  Zr7  1  0.83762166  0.25000000  0.20506532  1.0
  S  S8  1  1.00689580  0.75000000  0.63897845  1.0
  S  S9  1  0.50689580  0.75000000  0.86102155  1.0
  S  S10  1  -0.00689580  0.25000000  0.36102155  1.0
  S  S11  1  0.49310420  0.25000000  0.13897845  1.0
  S  S12  1  0.85542314  0.75000000  0.08344848  1.0
  S  S13  1  0.35542314  0.75000000  0.41655152  1.0
  S  S14  1  0.14457686  0.25000000  0.91655152  1.0
  S  S15  1  0.64457686  0.25000000  0.58344848  1.0
  S  S16  1  0.63397829  0.75000000  0.28282279  1.0
  S  S17  1  0.13397829  0.75000000  0.21717721  1.0
  S  S18  1  0.36602171  0.25000000  0.71717721  1.0
  S  S19  1  0.86602171  0.25000000  0.78282279  1.0
