# generated using pymatgen
data_PbCN5O
_symmetry_space_group_name_H-M   'P 1'
_cell_length_a   4.38871396
_cell_length_b   9.78456747
_cell_length_c   7.83696468
_cell_angle_alpha   59.17997404
_cell_angle_beta   62.89328224
_cell_angle_gamma   70.03532371
_symmetry_Int_Tables_number   1
_chemical_formula_structural   PbCN5O
_chemical_formula_sum   'Pb2 C2 N10 O2'
_cell_volume   254.68280836
_cell_formula_units_Z   2
loop_
 _symmetry_equiv_pos_site_id
 _symmetry_equiv_pos_as_xyz
  1  'x, y, z'
loop_
 _atom_site_type_symbol
 _atom_site_label
 _atom_site_symmetry_multiplicity
 _atom_site_fract_x
 _atom_site_fract_y
 _atom_site_fract_z
 _atom_site_occupancy
  Pb  Pb0  1  -0.65982334  -0.65996410  -0.46218700  1.0
  Pb  Pb1  1  -0.34017666  -0.34003590  -0.53781300  1.0
  C  C2  1  -0.85760407  -0.87930053  -0.90040762  1.0
  C  C3  1  -0.14239593  -0.12069947  -0.09959238  1.0
  N  N4  1  -0.07258236  -0.86950385  -0.71783049  1.0
  N  N5  1  0.07258236  -0.13049615  -0.28216951  1.0
  N  N6  1  -0.94870805  -0.75465150  -0.06554104  1.0
  N  N7  1  -0.05129195  -0.24534850  -0.93445896  1.0
  N  N8  1  -0.58441233  -1.00238382  -0.90792801  1.0
  N  N9  1  -0.41558767  0.00238382  -0.09207199  1.0
  N  N10  1  -0.29293099  -0.73750566  -0.77626076  1.0
  N  N11  1  -0.70706901  -0.26249434  -0.22373924  1.0
  N  N12  1  -0.22160233  -0.66598246  -0.98585940  1.0
  N  N13  1  -0.77839767  -0.33401754  -0.01414060  1.0
  O  O14  1  -0.81014051  -0.39148053  -0.52579885  1.0
  O  O15  1  -0.18985949  -0.60851947  -0.47420115  1.0
