# generated using pymatgen
data_LiCaGaF6
_symmetry_space_group_name_H-M   'P 1'
_cell_length_a   5.16062354
_cell_length_b   5.16062354
_cell_length_c   9.87286375
_cell_angle_alpha   90.00000000
_cell_angle_beta   90.00000000
_cell_angle_gamma   120.00000000
_symmetry_Int_Tables_number   1
_chemical_formula_structural   LiCaGaF6
_chemical_formula_sum   'Li2 Ca2 Ga2 F12'
_cell_volume   227.70791828
_cell_formula_units_Z   2
loop_
 _symmetry_equiv_pos_site_id
 _symmetry_equiv_pos_as_xyz
  1  'x, y, z'
loop_
 _atom_site_type_symbol
 _atom_site_label
 _atom_site_symmetry_multiplicity
 _atom_site_fract_x
 _atom_site_fract_y
 _atom_site_fract_z
 _atom_site_occupancy
  Li  Li0  1  0.66666667  0.33333333  0.25000000  1.0
  Li  Li1  1  0.33333333  0.66666667  0.75000000  1.0
  Ca  Ca2  1  0.00000000  0.00000000  0.00000000  1.0
  Ca  Ca3  1  -0.00000000  -0.00000000  0.50000000  1.0
  Ga  Ga4  1  0.33333333  0.66666667  0.25000000  1.0
  Ga  Ga5  1  0.66666667  0.33333333  0.75000000  1.0
  F  F6  1  0.34735015  0.98186760  0.14035298  1.0
  F  F7  1  0.34735015  0.36548255  0.35964702  1.0
  F  F8  1  0.98186760  0.34735015  0.64035298  1.0
  F  F9  1  0.98186760  0.63451745  0.85964702  1.0
  F  F10  1  0.63451745  0.98186760  0.35964702  1.0
  F  F11  1  0.63451745  0.65264985  0.14035298  1.0
  F  F12  1  0.01813240  0.65264985  0.35964702  1.0
  F  F13  1  0.01813240  0.36548255  0.14035298  1.0
  F  F14  1  0.65264985  0.63451745  0.64035298  1.0
  F  F15  1  0.65264985  0.01813240  0.85964702  1.0
  F  F16  1  0.36548255  0.34735015  0.85964702  1.0
  F  F17  1  0.36548255  0.01813240  0.64035298  1.0
