# generated using pymatgen
data_Ge2Pt
_symmetry_space_group_name_H-M   'P 1'
_cell_length_a   5.81804352
_cell_length_b   6.28344277
_cell_length_c   2.97980244
_cell_angle_alpha   90.00000000
_cell_angle_beta   90.00000000
_cell_angle_gamma   90.00000000
_symmetry_Int_Tables_number   1
_chemical_formula_structural   Ge2Pt
_chemical_formula_sum   'Ge4 Pt2'
_cell_volume   108.93366126
_cell_formula_units_Z   2
loop_
 _symmetry_equiv_pos_site_id
 _symmetry_equiv_pos_as_xyz
  1  'x, y, z'
loop_
 _atom_site_type_symbol
 _atom_site_label
 _atom_site_symmetry_multiplicity
 _atom_site_fract_x
 _atom_site_fract_y
 _atom_site_fract_z
 _atom_site_occupancy
  Ge  Ge0  1  0.33212712  0.87164320  0.50000000  1.0
  Ge  Ge1  1  0.83212712  0.62835680  0.00000000  1.0
  Ge  Ge2  1  0.66787288  0.12835680  0.50000000  1.0
  Ge  Ge3  1  0.16787288  0.37164320  0.00000000  1.0
  Pt  Pt4  1  0.50000000  0.50000000  0.50000000  1.0
  Pt  Pt5  1  0.00000000  0.00000000  0.00000000  1.0
