# generated using pymatgen
data_Ti3Si
_symmetry_space_group_name_H-M   'P 1'
_cell_length_a   10.15718836
_cell_length_b   10.15718836
_cell_length_c   5.06844211
_cell_angle_alpha   90.00000000
_cell_angle_beta   90.00000000
_cell_angle_gamma   90.00000000
_symmetry_Int_Tables_number   1
_chemical_formula_structural   Ti3Si
_chemical_formula_sum   'Ti24 Si8'
_cell_volume   522.90344516
_cell_formula_units_Z   8
loop_
 _symmetry_equiv_pos_site_id
 _symmetry_equiv_pos_as_xyz
  1  'x, y, z'
loop_
 _atom_site_type_symbol
 _atom_site_label
 _atom_site_symmetry_multiplicity
 _atom_site_fract_x
 _atom_site_fract_y
 _atom_site_fract_z
 _atom_site_occupancy
  Ti  Ti0  1  0.68207340  0.78266467  -0.00411726  1.0
  Ti  Ti1  1  0.31792660  0.21733533  -0.00411726  1.0
  Ti  Ti2  1  0.28266467  0.81792660  0.49588274  1.0
  Ti  Ti3  1  0.71733533  0.18207340  0.49588274  1.0
  Ti  Ti4  1  0.81792660  0.71733533  0.50411726  1.0
  Ti  Ti5  1  0.18207340  0.28266467  0.50411726  1.0
  Ti  Ti6  1  0.21733533  0.68207340  1.00411726  1.0
  Ti  Ti7  1  0.78266467  0.31792660  1.00411726  1.0
  Ti  Ti8  1  0.58146461  0.89270994  0.46886938  1.0
  Ti  Ti9  1  0.41853539  0.10729006  0.46886938  1.0
  Ti  Ti10  1  0.39270994  0.91853539  -0.03113062  1.0
  Ti  Ti11  1  0.60729006  0.08146461  -0.03113062  1.0
  Ti  Ti12  1  0.91853539  0.60729006  1.03113062  1.0
  Ti  Ti13  1  0.08146461  0.39270994  1.03113062  1.0
  Ti  Ti14  1  0.10729006  0.58146461  0.53113062  1.0
  Ti  Ti15  1  0.89270994  0.41853539  0.53113062  1.0
  Ti  Ti16  1  0.02818862  0.85875258  0.78165079  1.0
  Ti  Ti17  1  0.97181138  0.14124742  0.78165079  1.0
  Ti  Ti18  1  0.35875258  0.47181138  0.28165079  1.0
  Ti  Ti19  1  0.64124742  0.52818862  0.28165079  1.0
  Ti  Ti20  1  0.47181138  0.64124742  0.71834921  1.0
  Ti  Ti21  1  0.52818862  0.35875258  0.71834921  1.0
  Ti  Ti22  1  0.14124742  0.02818862  0.21834921  1.0
  Ti  Ti23  1  0.85875258  0.97181138  0.21834921  1.0
  Si  Si24  1  0.04198824  0.79461692  0.28804582  1.0
  Si  Si25  1  0.95801176  0.20538308  0.28804582  1.0
  Si  Si26  1  0.29461692  0.45801176  0.78804582  1.0
  Si  Si27  1  0.70538308  0.54198824  0.78804582  1.0
  Si  Si28  1  0.45801176  0.70538308  0.21195418  1.0
  Si  Si29  1  0.54198824  0.29461692  0.21195418  1.0
  Si  Si30  1  0.20538308  0.04198824  0.71195418  1.0
  Si  Si31  1  0.79461692  0.95801176  0.71195418  1.0
