# generated using pymatgen
data_SmAl3Pd2
_symmetry_space_group_name_H-M   'P 1'
_cell_length_a   5.49857056
_cell_length_b   5.49857056
_cell_length_c   4.21260315
_cell_angle_alpha   90.00000000
_cell_angle_beta   90.00000000
_cell_angle_gamma   120.00000000
_symmetry_Int_Tables_number   1
_chemical_formula_structural   SmAl3Pd2
_chemical_formula_sum   'Sm1 Al3 Pd2'
_cell_volume   110.30133923
_cell_formula_units_Z   1
loop_
 _symmetry_equiv_pos_site_id
 _symmetry_equiv_pos_as_xyz
  1  'x, y, z'
loop_
 _atom_site_type_symbol
 _atom_site_label
 _atom_site_symmetry_multiplicity
 _atom_site_fract_x
 _atom_site_fract_y
 _atom_site_fract_z
 _atom_site_occupancy
  Sm  Sm0  1  0.00000000  0.00000000  0.00000000  1.0
  Al  Al1  1  0.50000000  0.50000000  0.50000000  1.0
  Al  Al2  1  0.50000000  0.00000000  0.50000000  1.0
  Al  Al3  1  -0.00000000  0.50000000  0.50000000  1.0
  Pd  Pd4  1  0.33333333  0.66666667  0.00000000  1.0
  Pd  Pd5  1  0.66666667  0.33333333  0.00000000  1.0
