# generated using pymatgen
data_CrRe6(NiMo)4
_symmetry_space_group_name_H-M   'P 1'
_cell_length_a   9.25868902
_cell_length_b   9.25868902
_cell_length_c   4.80484865
_cell_angle_alpha   90.00000000
_cell_angle_beta   90.00000000
_cell_angle_gamma   90.00000000
_symmetry_Int_Tables_number   1
_chemical_formula_structural   CrRe6(NiMo)4
_chemical_formula_sum   'Cr2 Re12 Ni8 Mo8'
_cell_volume   411.88758982
_cell_formula_units_Z   2
loop_
 _symmetry_equiv_pos_site_id
 _symmetry_equiv_pos_as_xyz
  1  'x, y, z'
loop_
 _atom_site_type_symbol
 _atom_site_label
 _atom_site_symmetry_multiplicity
 _atom_site_fract_x
 _atom_site_fract_y
 _atom_site_fract_z
 _atom_site_occupancy
  Cr  Cr0  1  0.50000000  0.50000000  0.50000000  1.0
  Cr  Cr1  1  0.00000000  0.00000000  0.00000000  1.0
  Re  Re2  1  0.10207348  0.89792652  0.50000000  1.0
  Re  Re3  1  0.89792652  0.10207348  0.50000000  1.0
  Re  Re4  1  0.39792652  0.39792652  0.00000000  1.0
  Re  Re5  1  0.60207348  0.60207348  0.00000000  1.0
  Re  Re6  1  0.36869541  0.96372551  0.50000000  1.0
  Re  Re7  1  0.63130459  0.03627449  0.50000000  1.0
  Re  Re8  1  0.13130459  0.46372551  -0.00000000  1.0
  Re  Re9  1  0.86869541  0.53627449  -0.00000000  1.0
  Re  Re10  1  0.96372551  0.36869541  0.50000000  1.0
  Re  Re11  1  0.03627449  0.63130459  0.50000000  1.0
  Re  Re12  1  0.46372551  0.13130459  0.00000000  1.0
  Re  Re13  1  0.53627449  0.86869541  0.00000000  1.0
  Ni  Ni14  1  0.43374109  0.24442312  0.50000000  1.0
  Ni  Ni15  1  0.56625891  0.75557688  0.50000000  1.0
  Ni  Ni16  1  0.06625891  0.74442312  0.00000000  1.0
  Ni  Ni17  1  0.93374109  0.25557688  0.00000000  1.0
  Ni  Ni18  1  0.24442312  0.43374109  0.50000000  1.0
  Ni  Ni19  1  0.75557688  0.56625891  0.50000000  1.0
  Ni  Ni20  1  0.74442312  0.06625891  0.00000000  1.0
  Ni  Ni21  1  0.25557688  0.93374109  -0.00000000  1.0
  Mo  Mo22  1  0.31719777  0.68280223  0.25127124  1.0
  Mo  Mo23  1  0.68280223  0.31719777  0.25127124  1.0
  Mo  Mo24  1  0.18280223  0.18280223  0.75127124  1.0
  Mo  Mo25  1  0.81719777  0.81719777  0.75127124  1.0
  Mo  Mo26  1  0.68280223  0.31719777  0.74872876  1.0
  Mo  Mo27  1  0.31719777  0.68280223  0.74872876  1.0
  Mo  Mo28  1  0.81719777  0.81719777  0.24872876  1.0
  Mo  Mo29  1  0.18280223  0.18280223  0.24872876  1.0
