# generated using pymatgen
data_Ba4Cd11
_symmetry_space_group_name_H-M   'P 1'
_cell_length_a   11.72384655
_cell_length_b   11.72384655
_cell_length_c   11.72384655
_cell_angle_alpha   97.75717825
_cell_angle_beta   97.75717825
_cell_angle_gamma   136.89057432
_symmetry_Int_Tables_number   1
_chemical_formula_structural   Ba4Cd11
_chemical_formula_sum   'Ba8 Cd22'
_cell_volume   1024.22595049
_cell_formula_units_Z   2
loop_
 _symmetry_equiv_pos_site_id
 _symmetry_equiv_pos_as_xyz
  1  'x, y, z'
loop_
 _atom_site_type_symbol
 _atom_site_label
 _atom_site_symmetry_multiplicity
 _atom_site_fract_x
 _atom_site_fract_y
 _atom_site_fract_z
 _atom_site_occupancy
  Ba  Ba0  1  1.30988848  1.47754412  0.83234436  1.0
  Ba  Ba1  1  1.10480024  0.77245588  1.33234436  1.0
  Ba  Ba2  1  1.64519976  1.47754412  1.16765564  1.0
  Ba  Ba3  1  0.44011152  0.77245588  0.66765564  1.0
  Ba  Ba4  1  0.52245588  1.35480024  0.83234436  1.0
  Ba  Ba5  1  0.22754412  0.55988848  0.33234436  1.0
  Ba  Ba6  1  0.52245588  0.69011152  0.16765564  1.0
  Ba  Ba7  1  0.22754412  0.89519976  0.66765564  1.0
  Cd  Cd8  1  1.03267797  1.01675250  1.67519458  1.0
  Cd  Cd9  1  1.40844209  0.89251661  1.17519458  1.0
  Cd  Cd10  1  0.34155791  1.01675250  0.98407452  1.0
  Cd  Cd11  1  0.71732203  0.89251661  0.48407452  1.0
  Cd  Cd12  1  0.64251661  0.65844209  0.67519458  1.0
  Cd  Cd13  1  1.76675250  1.28267797  1.17519458  1.0
  Cd  Cd14  1  0.98324750  0.65844209  1.01592548  1.0
  Cd  Cd15  1  1.10748339  1.28267797  0.51592548  1.0
  Cd  Cd16  1  1.03267797  0.35748339  1.01592548  1.0
  Cd  Cd17  1  1.40844209  1.23324750  1.51592548  1.0
  Cd  Cd18  1  0.34155791  0.35748339  0.32480542  1.0
  Cd  Cd19  1  0.71732203  1.23324750  0.82480542  1.0
  Cd  Cd20  1  0.64251661  0.96732203  0.98407452  1.0
  Cd  Cd21  1  1.76675250  1.59155791  1.48407452  1.0
  Cd  Cd22  1  0.98324750  0.96732203  1.32480542  1.0
  Cd  Cd23  1  1.10748339  1.59155791  0.82480542  1.0
  Cd  Cd24  1  -0.00000000  -0.00000000  0.00000000  1.0
  Cd  Cd25  1  0.75000000  1.25000000  0.50000000  1.0
  Cd  Cd26  1  1.37500000  1.12500000  1.25000000  1.0
  Cd  Cd27  1  0.87500000  1.12500000  0.75000000  1.0
  Cd  Cd28  1  0.87500000  1.12500000  0.25000000  1.0
  Cd  Cd29  1  0.87500000  1.62500000  0.75000000  1.0
