# generated using pymatgen
data_Zr6Al2FeH10
_symmetry_space_group_name_H-M   'P 1'
_cell_length_a   8.11432788
_cell_length_b   8.11432788
_cell_length_c   7.11771818
_cell_angle_alpha   90.00000000
_cell_angle_beta   90.00000000
_cell_angle_gamma   120.00000000
_symmetry_Int_Tables_number   1
_chemical_formula_structural   Zr6Al2FeH10
_chemical_formula_sum   'Zr12 Al4 Fe2 H20'
_cell_volume   405.86025692
_cell_formula_units_Z   2
loop_
 _symmetry_equiv_pos_site_id
 _symmetry_equiv_pos_as_xyz
  1  'x, y, z'
loop_
 _atom_site_type_symbol
 _atom_site_label
 _atom_site_symmetry_multiplicity
 _atom_site_fract_x
 _atom_site_fract_y
 _atom_site_fract_z
 _atom_site_occupancy
  Zr  Zr0  1  0.62322434  0.57468075  0.25000000  1.0
  Zr  Zr1  1  0.57468075  0.62322434  0.75000000  1.0
  Zr  Zr2  1  0.95145640  0.37677566  0.25000000  1.0
  Zr  Zr3  1  0.42531925  0.04854360  0.25000000  1.0
  Zr  Zr4  1  0.37677566  0.95145640  0.75000000  1.0
  Zr  Zr5  1  0.04854360  0.42531925  0.75000000  1.0
  Zr  Zr6  1  0.26040587  0.26040587  0.50000000  1.0
  Zr  Zr7  1  0.26040587  0.26040587  0.00000000  1.0
  Zr  Zr8  1  0.00000000  0.73959413  0.50000000  1.0
  Zr  Zr9  1  0.00000000  0.73959413  0.00000000  1.0
  Zr  Zr10  1  0.73959413  0.00000000  0.50000000  1.0
  Zr  Zr11  1  0.73959413  0.00000000  0.00000000  1.0
  Al  Al12  1  0.33333333  0.66666667  0.44724533  1.0
  Al  Al13  1  0.33333333  0.66666667  0.05275467  1.0
  Al  Al14  1  0.66666667  0.33333333  0.94724533  1.0
  Al  Al15  1  0.66666667  0.33333333  0.55275467  1.0
  Fe  Fe16  1  0.00000000  0.00000000  0.25000000  1.0
  Fe  Fe17  1  0.00000000  0.00000000  0.75000000  1.0
  H  H18  1  0.00000000  0.00000000  0.50000000  1.0
  H  H19  1  0.00000000  0.00000000  0.00000000  1.0
  H  H20  1  0.71859745  0.71859745  0.50000000  1.0
  H  H21  1  0.71859745  0.71859745  0.00000000  1.0
  H  H22  1  -0.00000000  0.28140255  0.50000000  1.0
  H  H23  1  -0.00000000  0.28140255  0.00000000  1.0
  H  H24  1  0.28140255  0.00000000  0.50000000  1.0
  H  H25  1  0.28140255  0.00000000  0.00000000  1.0
  H  H26  1  0.12006327  0.88120742  0.25000000  1.0
  H  H27  1  0.88120742  0.12006327  0.75000000  1.0
  H  H28  1  0.76114415  0.87993673  0.25000000  1.0
  H  H29  1  0.11879258  0.23885585  0.25000000  1.0
  H  H30  1  0.87993673  0.76114415  0.75000000  1.0
  H  H31  1  0.23885585  0.11879258  0.75000000  1.0
  H  H32  1  0.88278790  0.59060210  0.25000000  1.0
  H  H33  1  0.59060210  0.88278790  0.75000000  1.0
  H  H34  1  0.70781419  0.11721210  0.25000000  1.0
  H  H35  1  0.40939790  0.29218581  0.25000000  1.0
  H  H36  1  0.11721210  0.70781419  0.75000000  1.0
  H  H37  1  0.29218581  0.40939790  0.75000000  1.0
