# generated using pymatgen
data_Pr(PPd)2
_symmetry_space_group_name_H-M   'P 1'
_cell_length_a   5.84676443
_cell_length_b   5.84676443
_cell_length_c   5.84676443
_cell_angle_alpha   138.73961848
_cell_angle_beta   138.73961848
_cell_angle_gamma   59.77210587
_symmetry_Int_Tables_number   1
_chemical_formula_structural   Pr(PPd)2
_chemical_formula_sum   'Pr1 P2 Pd2'
_cell_volume   86.04905327
_cell_formula_units_Z   1
loop_
 _symmetry_equiv_pos_site_id
 _symmetry_equiv_pos_as_xyz
  1  'x, y, z'
loop_
 _atom_site_type_symbol
 _atom_site_label
 _atom_site_symmetry_multiplicity
 _atom_site_fract_x
 _atom_site_fract_y
 _atom_site_fract_z
 _atom_site_occupancy
  Pr  Pr0  1  0.00000000  0.00000000  0.00000000  1.0
  P  P1  1  0.61093457  0.61093457  1.00000000  1.0
  P  P2  1  0.38906543  0.38906543  -0.00000000  1.0
  Pd  Pd3  1  0.25000000  0.75000000  0.50000000  1.0
  Pd  Pd4  1  0.75000000  0.25000000  0.50000000  1.0
