# generated using pymatgen
data_K2Cu(Cl2O)2
_symmetry_space_group_name_H-M   'P 1'
_cell_length_a   7.23511005
_cell_length_b   7.23511005
_cell_length_c   14.45949967
_cell_angle_alpha   90.00000000
_cell_angle_beta   90.00000000
_cell_angle_gamma   90.00000000
_symmetry_Int_Tables_number   1
_chemical_formula_structural   K2Cu(Cl2O)2
_chemical_formula_sum   'K4 Cu2 Cl8 O4'
_cell_volume   756.90879062
_cell_formula_units_Z   2
loop_
 _symmetry_equiv_pos_site_id
 _symmetry_equiv_pos_as_xyz
  1  'x, y, z'
loop_
 _atom_site_type_symbol
 _atom_site_label
 _atom_site_symmetry_multiplicity
 _atom_site_fract_x
 _atom_site_fract_y
 _atom_site_fract_z
 _atom_site_occupancy
  K  K0  1  0.50000000  0.00000000  0.25000000  1.0
  K  K1  1  0.50000000  0.00000000  0.75000000  1.0
  K  K2  1  0.00000000  0.50000000  0.75000000  1.0
  K  K3  1  0.00000000  0.50000000  0.25000000  1.0
  Cu  Cu4  1  0.50000000  0.50000000  0.50000000  1.0
  Cu  Cu5  1  0.00000000  0.00000000  0.00000000  1.0
  Cl  Cl6  1  0.29079448  0.70920552  0.36365895  1.0
  Cl  Cl7  1  0.29079448  0.70920552  0.63634105  1.0
  Cl  Cl8  1  0.79079448  0.79079448  0.86365895  1.0
  Cl  Cl9  1  0.79079448  0.79079448  0.13634105  1.0
  Cl  Cl10  1  0.70920552  0.29079448  0.36365895  1.0
  Cl  Cl11  1  0.70920552  0.29079448  0.63634105  1.0
  Cl  Cl12  1  0.20920552  0.20920552  0.86365895  1.0
  Cl  Cl13  1  0.20920552  0.20920552  0.13634105  1.0
  O  O14  1  0.50000000  0.50000000  0.37653709  1.0
  O  O15  1  0.50000000  0.50000000  0.62346291  1.0
  O  O16  1  0.00000000  0.00000000  0.87653709  1.0
  O  O17  1  0.00000000  0.00000000  0.12346291  1.0
