# generated using pymatgen
data_KPO3
_symmetry_space_group_name_H-M   'P 1'
_cell_length_a   11.49180405
_cell_length_b   4.62557950
_cell_length_c   14.26998867
_cell_angle_alpha   90.00000000
_cell_angle_beta   116.20506317
_cell_angle_gamma   90.00000000
_symmetry_Int_Tables_number   1
_chemical_formula_structural   KPO3
_chemical_formula_sum   'K8 P8 O24'
_cell_volume   680.57598745
_cell_formula_units_Z   8
loop_
 _symmetry_equiv_pos_site_id
 _symmetry_equiv_pos_as_xyz
  1  'x, y, z'
loop_
 _atom_site_type_symbol
 _atom_site_label
 _atom_site_symmetry_multiplicity
 _atom_site_fract_x
 _atom_site_fract_y
 _atom_site_fract_z
 _atom_site_occupancy
  K  K0  1  0.89687415  0.23793043  0.06736920  1.0
  K  K1  1  0.89687415  0.26206957  0.56736920  1.0
  K  K2  1  0.10312585  0.73793043  0.43263080  1.0
  K  K3  1  0.10312585  0.76206957  0.93263080  1.0
  K  K4  1  0.43265102  0.21429509  0.13733756  1.0
  K  K5  1  0.43265102  0.28570491  0.63733756  1.0
  K  K6  1  0.56734898  0.71429509  0.36266244  1.0
  K  K7  1  0.56734898  0.78570491  0.86266244  1.0
  P  P8  1  0.81043090  0.19324542  0.30862158  1.0
  P  P9  1  0.81043090  0.30675458  0.80862158  1.0
  P  P10  1  0.18956910  0.69324542  0.19137842  1.0
  P  P11  1  0.18956910  0.80675458  0.69137842  1.0
  P  P12  1  0.28469919  0.19529463  0.33649075  1.0
  P  P13  1  0.28469919  0.30470537  0.83649075  1.0
  P  P14  1  0.71530081  0.69529463  0.16350925  1.0
  P  P15  1  0.71530081  0.80470537  0.66350925  1.0
  O  O16  1  0.94513933  0.26295140  0.39016736  1.0
  O  O17  1  0.94513933  0.23704860  0.89016736  1.0
  O  O18  1  0.05486067  0.76295140  0.10983264  1.0
  O  O19  1  0.05486067  0.73704860  0.60983264  1.0
  O  O20  1  0.82163381  0.87179105  0.26603234  1.0
  O  O21  1  0.82163381  0.62820895  0.76603234  1.0
  O  O22  1  0.17836619  0.37179105  0.23396766  1.0
  O  O23  1  0.17836619  0.12820895  0.73396766  1.0
  O  O24  1  0.77695971  0.37151828  0.19995067  1.0
  O  O25  1  0.77695971  0.12848172  0.69995067  1.0
  O  O26  1  0.22304029  0.87151828  0.30004933  1.0
  O  O27  1  0.22304029  0.62848172  0.80004933  1.0
  O  O28  1  0.69919067  0.21339974  0.33723843  1.0
  O  O29  1  0.69919067  0.28660026  0.83723843  1.0
  O  O30  1  0.30080933  0.71339974  0.16276157  1.0
  O  O31  1  0.30080933  0.78660026  0.66276157  1.0
  O  O32  1  0.41719357  0.21595166  0.34013154  1.0
  O  O33  1  0.41719357  0.28404834  0.84013154  1.0
  O  O34  1  0.58280643  0.71595166  0.15986846  1.0
  O  O35  1  0.58280643  0.78404834  0.65986846  1.0
  O  O36  1  0.26360518  0.26530053  0.43072798  1.0
  O  O37  1  0.26360518  0.23469947  0.93072798  1.0
  O  O38  1  0.73639482  0.76530053  0.06927202  1.0
  O  O39  1  0.73639482  0.73469947  0.56927202  1.0
