# generated using pymatgen
data_Re2PCl13
_symmetry_space_group_name_H-M   'P 1'
_cell_length_a   9.49002133
_cell_length_b   11.32867276
_cell_length_c   9.73746740
_cell_angle_alpha   90.00000000
_cell_angle_beta   101.40454192
_cell_angle_gamma   90.00000000
_symmetry_Int_Tables_number   1
_chemical_formula_structural   Re2PCl13
_chemical_formula_sum   'Re4 P2 Cl26'
_cell_volume   1026.19885683
_cell_formula_units_Z   2
loop_
 _symmetry_equiv_pos_site_id
 _symmetry_equiv_pos_as_xyz
  1  'x, y, z'
loop_
 _atom_site_type_symbol
 _atom_site_label
 _atom_site_symmetry_multiplicity
 _atom_site_fract_x
 _atom_site_fract_y
 _atom_site_fract_z
 _atom_site_occupancy
  Re  Re0  1  0.83102022  0.25000000  0.41847867  1.0
  Re  Re1  1  0.16897978  0.75000000  0.58152133  1.0
  Re  Re2  1  0.69951268  0.25000000  0.64459577  1.0
  Re  Re3  1  0.30048732  0.75000000  0.35540423  1.0
  P  P4  1  0.28453267  0.25000000  0.97899439  1.0
  P  P5  1  0.71546733  0.75000000  0.02100561  1.0
  Cl  Cl6  1  0.86067764  0.40386797  0.59507466  1.0
  Cl  Cl7  1  0.86067764  0.09613203  0.59507466  1.0
  Cl  Cl8  1  0.13932236  0.90386797  0.40492534  1.0
  Cl  Cl9  1  0.13932236  0.59613203  0.40492534  1.0
  Cl  Cl10  1  0.78257332  0.89168641  0.93530559  1.0
  Cl  Cl11  1  0.78257332  0.60831359  0.93530559  1.0
  Cl  Cl12  1  0.21742668  0.39168641  0.06469441  1.0
  Cl  Cl13  1  0.21742668  0.10831359  0.06469441  1.0
  Cl  Cl14  1  0.80236283  0.39558365  0.24849488  1.0
  Cl  Cl15  1  0.80236283  0.10441635  0.24849488  1.0
  Cl  Cl16  1  0.19763717  0.89558365  0.75150512  1.0
  Cl  Cl17  1  0.19763717  0.60441635  0.75150512  1.0
  Cl  Cl18  1  0.54667022  0.39685054  0.69119464  1.0
  Cl  Cl19  1  0.54667022  0.10314946  0.69119464  1.0
  Cl  Cl20  1  0.45332978  0.89685054  0.30880536  1.0
  Cl  Cl21  1  0.45332978  0.60314946  0.30880536  1.0
  Cl  Cl22  1  0.82299107  0.25000000  0.87627872  1.0
  Cl  Cl23  1  0.17700893  0.75000000  0.12372128  1.0
  Cl  Cl24  1  0.57221612  0.25000000  0.40299041  1.0
  Cl  Cl25  1  0.42778388  0.75000000  0.59700959  1.0
  Cl  Cl26  1  0.49573050  0.25000000  0.01835400  1.0
  Cl  Cl27  1  0.50426950  0.75000000  0.98164600  1.0
  Cl  Cl28  1  0.20965672  0.25000000  0.77605117  1.0
  Cl  Cl29  1  0.79034328  0.75000000  0.22394883  1.0
  Cl  Cl30  1  0.07876365  0.25000000  0.43756921  1.0
  Cl  Cl31  1  0.92123635  0.75000000  0.56243079  1.0
