# generated using pymatgen
data_LiAuC4S4(OF)12
_symmetry_space_group_name_H-M   'P 1'
_cell_length_a   10.96645848
_cell_length_b   9.02322250
_cell_length_c   5.42860784
_cell_angle_alpha   96.70437753
_cell_angle_beta   92.03423598
_cell_angle_gamma   94.83007032
_symmetry_Int_Tables_number   1
_chemical_formula_structural   LiAuC4S4(OF)12
_chemical_formula_sum   'Li1 Au1 C4 S4 O12 F12'
_cell_volume   531.05010253
_cell_formula_units_Z   1
loop_
 _symmetry_equiv_pos_site_id
 _symmetry_equiv_pos_as_xyz
  1  'x, y, z'
loop_
 _atom_site_type_symbol
 _atom_site_label
 _atom_site_symmetry_multiplicity
 _atom_site_fract_x
 _atom_site_fract_y
 _atom_site_fract_z
 _atom_site_occupancy
  Li  Li0  1  -0.50000000  -0.50000000  -0.50000000  1.0
  Au  Au1  1  -0.50000000  -0.00000000  0.00000000  1.0
  C  C2  1  -0.19316755  -0.67279999  -0.96587836  1.0
  C  C3  1  -0.80683245  -0.32720001  -0.03412164  1.0
  C  C4  1  -0.83809844  -0.83423114  -0.67072287  1.0
  C  C5  1  -0.16190156  -0.16576886  -0.32927713  1.0
  S  S6  1  -0.36420820  -0.66699515  -0.99629944  1.0
  S  S7  1  -0.63579180  -0.33300485  -0.00370056  1.0
  S  S8  1  -0.66826037  -0.83497742  -0.60320587  1.0
  S  S9  1  -0.33173963  -0.16502258  -0.39679413  1.0
  O  O10  1  -0.59442006  -0.17532914  -0.87041967  1.0
  O  O11  1  -0.40557994  -0.82467086  -0.12958033  1.0
  O  O12  1  -0.62716025  -0.86165914  -0.87403884  1.0
  O  O13  1  -0.37283975  -0.13834086  -0.12596116  1.0
  O  O14  1  -0.61592203  -0.44102656  -0.83268493  1.0
  O  O15  1  -0.38407797  -0.55897344  -0.16731507  1.0
  O  O16  1  -0.40298425  -0.64238754  -0.74367567  1.0
  O  O17  1  -0.59701575  -0.35761246  -0.25632433  1.0
  O  O18  1  -0.63008321  -0.68340225  -0.49193165  1.0
  O  O19  1  -0.36991679  -0.31659775  -0.50806835  1.0
  O  O20  1  -0.65114375  -0.95832130  -0.46205792  1.0
  O  O21  1  -0.34885625  -0.04167870  -0.53794208  1.0
  F  F22  1  -0.85359463  -0.30184432  -0.80904705  1.0
  F  F23  1  -0.14640537  -0.69815568  -0.19095295  1.0
  F  F24  1  -0.16646836  -0.78198314  -0.82853646  1.0
  F  F25  1  -0.83353164  -0.21801686  -0.17146354  1.0
  F  F26  1  -0.86060814  -0.72534423  -0.81129815  1.0
  F  F27  1  -0.13939186  -0.27465577  -0.18870185  1.0
  F  F28  1  -0.88436362  -0.96748899  -0.78884504  1.0
  F  F29  1  -0.11563638  -0.03251101  -0.21115496  1.0
  F  F30  1  -0.89173152  -0.80851898  -0.45197275  1.0
  F  F31  1  -0.10826848  -0.19148102  -0.54802725  1.0
  F  F32  1  -0.85608242  -0.46035225  -0.14902270  1.0
  F  F33  1  -0.14391758  -0.53964775  -0.85097730  1.0
