# generated using pymatgen
data_Zr6Al16Co7
_symmetry_space_group_name_H-M   'P 1'
_cell_length_a   8.51310613
_cell_length_b   8.51310613
_cell_length_c   8.51310613
_cell_angle_alpha   60.00000000
_cell_angle_beta   60.00000000
_cell_angle_gamma   60.00000000
_symmetry_Int_Tables_number   1
_chemical_formula_structural   Zr6Al16Co7
_chemical_formula_sum   'Zr6 Al16 Co7'
_cell_volume   436.26376665
_cell_formula_units_Z   1
loop_
 _symmetry_equiv_pos_site_id
 _symmetry_equiv_pos_as_xyz
  1  'x, y, z'
loop_
 _atom_site_type_symbol
 _atom_site_label
 _atom_site_symmetry_multiplicity
 _atom_site_fract_x
 _atom_site_fract_y
 _atom_site_fract_z
 _atom_site_occupancy
  Al  Al0  1  0.88154992  0.88154992  -0.11845008  1.0
  Al  Al1  1  1.11845008  0.11845008  0.64464977  1.0
  Al  Al2  1  1.11845008  0.64464977  0.11845008  1.0
  Al  Al3  1  0.35535023  0.88154992  -0.11845008  1.0
  Al  Al4  1  1.64464977  0.11845008  0.11845008  1.0
  Al  Al5  1  0.88154992  0.35535023  -0.11845008  1.0
  Al  Al6  1  0.88154992  0.88154992  -0.64464977  1.0
  Al  Al7  1  1.11845008  0.11845008  0.11845008  1.0
  Al  Al8  1  0.66496625  0.66496625  -0.33503375  1.0
  Al  Al9  1  1.33503375  0.33503375  -0.00510124  1.0
  Al  Al10  1  1.33503375  -0.00510124  0.33503375  1.0
  Al  Al11  1  1.00510124  0.66496625  -0.33503375  1.0
  Al  Al12  1  0.99489876  0.33503375  0.33503375  1.0
  Al  Al13  1  0.66496625  1.00510124  -0.33503375  1.0
  Al  Al14  1  0.66496625  0.66496625  0.00510124  1.0
  Al  Al15  1  1.33503375  0.33503375  0.33503375  1.0
  Co  Co16  1  1.50000000  -0.00000000  0.00000000  1.0
  Co  Co17  1  1.00000000  0.50000000  -0.50000000  1.0
  Co  Co18  1  -0.00000000  1.50000000  0.00000000  1.0
  Co  Co19  1  0.50000000  1.00000000  -0.50000000  1.0
  Co  Co20  1  0.00000000  0.00000000  0.50000000  1.0
  Co  Co21  1  0.50000000  -0.50000000  1.00000000  1.0
  Co  Co22  1  -0.00000000  0.00000000  0.00000000  1.0
  Zr  Zr23  1  -0.69413420  0.69413420  0.69413420  1.0
  Zr  Zr24  1  -0.30586580  0.30586580  0.69413420  1.0
  Zr  Zr25  1  0.69413420  0.69413420  -0.69413420  1.0
  Zr  Zr26  1  0.30586580  1.30586580  -0.30586580  1.0
  Zr  Zr27  1  0.30586580  -0.30586580  1.30586580  1.0
  Zr  Zr28  1  -0.30586580  0.30586580  0.30586580  1.0
