# generated using pymatgen
data_Cs3Ti2Br9
_symmetry_space_group_name_H-M   'P 1'
_cell_length_a   7.84047561
_cell_length_b   7.84047561
_cell_length_c   19.38495905
_cell_angle_alpha   90.00000000
_cell_angle_beta   90.00000000
_cell_angle_gamma   120.00000000
_symmetry_Int_Tables_number   1
_chemical_formula_structural   Cs3Ti2Br9
_chemical_formula_sum   'Cs6 Ti4 Br18'
_cell_volume   1032.00151891
_cell_formula_units_Z   2
loop_
 _symmetry_equiv_pos_site_id
 _symmetry_equiv_pos_as_xyz
  1  'x, y, z'
loop_
 _atom_site_type_symbol
 _atom_site_label
 _atom_site_symmetry_multiplicity
 _atom_site_fract_x
 _atom_site_fract_y
 _atom_site_fract_z
 _atom_site_occupancy
  Cs  Cs0  1  0.33333333  0.66666667  0.43082352  1.0
  Cs  Cs1  1  0.33333333  0.66666667  0.06917648  1.0
  Cs  Cs2  1  0.66666667  0.33333333  0.93082352  1.0
  Cs  Cs3  1  0.66666667  0.33333333  0.56917648  1.0
  Cs  Cs4  1  0.00000000  0.00000000  0.25000000  1.0
  Cs  Cs5  1  0.00000000  0.00000000  0.75000000  1.0
  Ti  Ti6  1  0.33333333  0.66666667  0.83409128  1.0
  Ti  Ti7  1  0.33333333  0.66666667  0.66590872  1.0
  Ti  Ti8  1  0.66666667  0.33333333  0.33409128  1.0
  Ti  Ti9  1  0.66666667  0.33333333  0.16590872  1.0
  Br  Br10  1  0.17691336  0.82308664  0.90543164  1.0
  Br  Br11  1  0.17691336  0.82308664  0.59456836  1.0
  Br  Br12  1  0.17691336  0.35382671  0.90543164  1.0
  Br  Br13  1  0.17691336  0.35382671  0.59456836  1.0
  Br  Br14  1  0.82308664  0.17691336  0.40543164  1.0
  Br  Br15  1  0.82308664  0.17691336  0.09456836  1.0
  Br  Br16  1  0.82308664  0.64617329  0.40543164  1.0
  Br  Br17  1  0.82308664  0.64617329  0.09456836  1.0
  Br  Br18  1  0.64617329  0.82308664  0.90543164  1.0
  Br  Br19  1  0.64617329  0.82308664  0.59456836  1.0
  Br  Br20  1  0.35382671  0.17691336  0.40543164  1.0
  Br  Br21  1  0.35382671  0.17691336  0.09456836  1.0
  Br  Br22  1  0.51114201  0.48885799  0.25000000  1.0
  Br  Br23  1  0.51114201  0.02228402  0.25000000  1.0
  Br  Br24  1  0.48885799  0.51114201  0.75000000  1.0
  Br  Br25  1  0.48885799  -0.02228402  0.75000000  1.0
  Br  Br26  1  -0.02228402  0.48885799  0.25000000  1.0
  Br  Br27  1  0.02228402  0.51114201  0.75000000  1.0
