# generated using pymatgen
data_Y3Os
_symmetry_space_group_name_H-M   'P 1'
_cell_length_a   7.42418262
_cell_length_b   9.09980265
_cell_length_c   6.36337978
_cell_angle_alpha   90.00000000
_cell_angle_beta   90.00000000
_cell_angle_gamma   90.00000000
_symmetry_Int_Tables_number   1
_chemical_formula_structural   Y3Os
_chemical_formula_sum   'Y12 Os4'
_cell_volume   429.90100776
_cell_formula_units_Z   4
loop_
 _symmetry_equiv_pos_site_id
 _symmetry_equiv_pos_as_xyz
  1  'x, y, z'
loop_
 _atom_site_type_symbol
 _atom_site_label
 _atom_site_symmetry_multiplicity
 _atom_site_fract_x
 _atom_site_fract_y
 _atom_site_fract_z
 _atom_site_occupancy
  Y  Y0  1  0.32612722  0.93648091  0.66736251  1.0
  Y  Y1  1  0.32612722  0.56351909  0.66736251  1.0
  Y  Y2  1  0.82612722  0.93648091  0.83263749  1.0
  Y  Y3  1  0.82612722  0.56351909  0.83263749  1.0
  Y  Y4  1  0.67387278  0.43648091  0.33263749  1.0
  Y  Y5  1  0.67387278  0.06351909  0.33263749  1.0
  Y  Y6  1  0.17387278  0.43648091  0.16736251  1.0
  Y  Y7  1  0.17387278  0.06351909  0.16736251  1.0
  Y  Y8  1  0.45888451  0.75000000  0.13071265  1.0
  Y  Y9  1  0.95888451  0.75000000  0.36928735  1.0
  Y  Y10  1  0.54111549  0.25000000  0.86928735  1.0
  Y  Y11  1  0.04111549  0.25000000  0.63071265  1.0
  Os  Os12  1  0.11775216  0.75000000  0.96180714  1.0
  Os  Os13  1  0.61775216  0.75000000  0.53819286  1.0
  Os  Os14  1  0.88224784  0.25000000  0.03819286  1.0
  Os  Os15  1  0.38224784  0.25000000  0.46180714  1.0
