# generated using pymatgen
data_EuV2IO9
_symmetry_space_group_name_H-M   'P 1'
_cell_length_a   7.07288279
_cell_length_b   14.59679497
_cell_length_c   7.27786315
_cell_angle_alpha   90.00000000
_cell_angle_beta   90.00000000
_cell_angle_gamma   90.00000000
_symmetry_Int_Tables_number   1
_chemical_formula_structural   EuV2IO9
_chemical_formula_sum   'Eu4 V8 I4 O36'
_cell_volume   751.37692664
_cell_formula_units_Z   4
loop_
 _symmetry_equiv_pos_site_id
 _symmetry_equiv_pos_as_xyz
  1  'x, y, z'
loop_
 _atom_site_type_symbol
 _atom_site_label
 _atom_site_symmetry_multiplicity
 _atom_site_fract_x
 _atom_site_fract_y
 _atom_site_fract_z
 _atom_site_occupancy
  Eu  Eu0  1  0.85181595  0.95519994  0.25000000  1.0
  Eu  Eu1  1  0.14818405  0.04480006  0.75000000  1.0
  Eu  Eu2  1  0.85181595  0.54480006  0.75000000  1.0
  Eu  Eu3  1  0.14818405  0.45519994  0.25000000  1.0
  V  V4  1  0.46992265  0.25000000  0.00000000  1.0
  V  V5  1  0.53007735  0.75000000  0.50000000  1.0
  V  V6  1  0.53007735  0.75000000  0.00000000  1.0
  V  V7  1  0.46992265  0.25000000  0.50000000  1.0
  V  V8  1  0.82656578  0.23126503  0.25000000  1.0
  V  V9  1  0.17343422  0.76873497  0.75000000  1.0
  V  V10  1  0.82656578  0.26873497  0.75000000  1.0
  V  V11  1  0.17343422  0.73126503  0.25000000  1.0
  I  I12  1  0.29608469  0.06071645  0.25000000  1.0
  I  I13  1  0.70391531  0.93928355  0.75000000  1.0
  I  I14  1  0.29608469  0.43928355  0.75000000  1.0
  I  I15  1  0.70391531  0.56071645  0.25000000  1.0
  O  O16  1  0.16741753  0.99031704  0.06758777  1.0
  O  O17  1  0.83258247  0.00968296  0.56758777  1.0
  O  O18  1  0.16741753  0.50968296  0.93241223  1.0
  O  O19  1  0.83258247  0.49031704  0.43241223  1.0
  O  O20  1  0.83258247  0.00968296  0.93241223  1.0
  O  O21  1  0.16741753  0.99031704  0.43241223  1.0
  O  O22  1  0.83258247  0.49031704  0.06758777  1.0
  O  O23  1  0.16741753  0.50968296  0.56758777  1.0
  O  O24  1  0.53528821  1.00769343  0.25000000  1.0
  O  O25  1  0.46471179  -0.00769343  0.75000000  1.0
  O  O26  1  0.53528821  0.49230657  0.75000000  1.0
  O  O27  1  0.46471179  0.50769343  0.25000000  1.0
  O  O28  1  0.33624617  0.15770596  0.95907926  1.0
  O  O29  1  0.66375383  0.84229404  0.45907926  1.0
  O  O30  1  0.33624617  0.34229404  0.04092074  1.0
  O  O31  1  0.66375383  0.65770596  0.54092074  1.0
  O  O32  1  0.66375383  0.84229404  0.04092074  1.0
  O  O33  1  0.33624617  0.15770596  0.54092074  1.0
  O  O34  1  0.66375383  0.65770596  0.95907926  1.0
  O  O35  1  0.33624617  0.34229404  0.45907926  1.0
  O  O36  1  0.53749970  0.27632225  0.75000000  1.0
  O  O37  1  0.46250030  0.72367775  0.25000000  1.0
  O  O38  1  0.53749970  0.22367775  0.25000000  1.0
  O  O39  1  0.46250030  0.77632225  0.75000000  1.0
  O  O40  1  0.74542072  0.25000000  0.00000000  1.0
  O  O41  1  0.25457928  0.75000000  0.50000000  1.0
  O  O42  1  0.25457928  0.75000000  0.00000000  1.0
  O  O43  1  0.74542072  0.25000000  0.50000000  1.0
  O  O44  1  0.99266269  0.31037835  0.25000000  1.0
  O  O45  1  0.00733731  0.68962165  0.75000000  1.0
  O  O46  1  0.99266269  0.18962165  0.75000000  1.0
  O  O47  1  0.00733731  0.81037835  0.25000000  1.0
  O  O48  1  0.92886521  0.12890945  0.25000000  1.0
  O  O49  1  0.07113479  0.87109055  0.75000000  1.0
  O  O50  1  0.92886521  0.37109055  0.75000000  1.0
  O  O51  1  0.07113479  0.62890945  0.25000000  1.0
