# generated using pymatgen
data_K2RuCl5O
_symmetry_space_group_name_H-M   'P 1'
_cell_length_a   13.49453384
_cell_length_b   9.96946366
_cell_length_c   6.98149782
_cell_angle_alpha   90.00000000
_cell_angle_beta   90.00000000
_cell_angle_gamma   90.00000000
_symmetry_Int_Tables_number   1
_chemical_formula_structural   K2RuCl5O
_chemical_formula_sum   'K8 Ru4 Cl20 O4'
_cell_volume   939.24369449
_cell_formula_units_Z   4
loop_
 _symmetry_equiv_pos_site_id
 _symmetry_equiv_pos_as_xyz
  1  'x, y, z'
loop_
 _atom_site_type_symbol
 _atom_site_label
 _atom_site_symmetry_multiplicity
 _atom_site_fract_x
 _atom_site_fract_y
 _atom_site_fract_z
 _atom_site_occupancy
  K  K0  1  0.64219044  0.49861788  0.33082941  1.0
  K  K1  1  0.64219044  0.00138212  0.33082941  1.0
  K  K2  1  0.14219044  0.49861788  0.16917059  1.0
  K  K3  1  0.14219044  0.00138212  0.16917059  1.0
  K  K4  1  0.35780956  -0.00138212  0.66917059  1.0
  K  K5  1  0.35780956  0.50138212  0.66917059  1.0
  K  K6  1  0.85780956  -0.00138212  0.83082941  1.0
  K  K7  1  0.85780956  0.50138212  0.83082941  1.0
  Ru  Ru8  1  0.90297379  0.25000000  0.32704202  1.0
  Ru  Ru9  1  0.40297379  0.25000000  0.17295798  1.0
  Ru  Ru10  1  0.09702621  0.75000000  0.67295798  1.0
  Ru  Ru11  1  0.59702621  0.75000000  0.82704202  1.0
  Cl  Cl12  1  0.89300771  0.48737311  0.31245398  1.0
  Cl  Cl13  1  0.89300771  0.01262689  0.31245398  1.0
  Cl  Cl14  1  0.39300771  0.48737311  0.18754602  1.0
  Cl  Cl15  1  0.39300771  0.01262689  0.18754602  1.0
  Cl  Cl16  1  0.10699229  -0.01262689  0.68754602  1.0
  Cl  Cl17  1  0.10699229  0.51262689  0.68754602  1.0
  Cl  Cl18  1  0.60699229  -0.01262689  0.81245398  1.0
  Cl  Cl19  1  0.60699229  0.51262689  0.81245398  1.0
  Cl  Cl20  1  1.00003592  0.25000000  0.04100214  1.0
  Cl  Cl21  1  0.50003592  0.25000000  0.45899786  1.0
  Cl  Cl22  1  -0.00003592  0.75000000  0.95899786  1.0
  Cl  Cl23  1  0.49996408  0.75000000  0.54100214  1.0
  Cl  Cl24  1  0.78387855  0.25000000  0.57746557  1.0
  Cl  Cl25  1  0.28387855  0.25000000  0.92253443  1.0
  Cl  Cl26  1  0.21612145  0.75000000  0.42253443  1.0
  Cl  Cl27  1  0.71612145  0.75000000  0.07746557  1.0
  Cl  Cl28  1  0.75743903  0.25000000  0.10733441  1.0
  Cl  Cl29  1  0.25743903  0.25000000  0.39266559  1.0
  Cl  Cl30  1  0.24256097  0.75000000  0.89266559  1.0
  Cl  Cl31  1  0.74256097  0.75000000  0.60733441  1.0
  O  O32  1  0.00293142  0.25000000  0.47547728  1.0
  O  O33  1  0.50293142  0.25000000  0.02452272  1.0
  O  O34  1  0.99706858  0.75000000  0.52452272  1.0
  O  O35  1  0.49706858  0.75000000  0.97547728  1.0
