# generated using pymatgen
data_CdB6(Pb4O9)2
_symmetry_space_group_name_H-M   'P 1'
_cell_length_a   8.54960314
_cell_length_b   8.54960314
_cell_length_c   8.54960314
_cell_angle_alpha   69.91342243
_cell_angle_beta   69.91342243
_cell_angle_gamma   69.91342243
_symmetry_Int_Tables_number   1
_chemical_formula_structural   CdB6(Pb4O9)2
_chemical_formula_sum   'Cd1 B6 Pb8 O18'
_cell_volume   532.91078372
_cell_formula_units_Z   1
loop_
 _symmetry_equiv_pos_site_id
 _symmetry_equiv_pos_as_xyz
  1  'x, y, z'
loop_
 _atom_site_type_symbol
 _atom_site_label
 _atom_site_symmetry_multiplicity
 _atom_site_fract_x
 _atom_site_fract_y
 _atom_site_fract_z
 _atom_site_occupancy
  Cd  Cd0  1  -0.00000000  0.00000000  -0.00000000  1.0
  B  B1  1  0.58319106  0.16141287  -0.03544018  1.0
  B  B2  1  0.83858713  0.03544018  -0.58319106  1.0
  B  B3  1  1.03544018  -0.58319106  -0.16141287  1.0
  B  B4  1  0.41680894  -0.16141287  0.03544018  1.0
  B  B5  1  1.16141287  -0.03544018  -0.41680894  1.0
  B  B6  1  0.96455982  -0.41680894  0.16141287  1.0
  Pb  Pb7  1  0.69324836  0.38870510  -0.82589951  1.0
  Pb  Pb8  1  0.61129490  0.82589951  -0.69324836  1.0
  Pb  Pb9  1  0.82589951  0.30675164  -0.38870510  1.0
  Pb  Pb10  1  0.30675164  0.61129490  -0.17410049  1.0
  Pb  Pb11  1  0.38870510  0.17410049  -0.30675164  1.0
  Pb  Pb12  1  0.17410049  0.69324836  -0.61129490  1.0
  Pb  Pb13  1  0.81008961  0.81008961  -0.18991039  1.0
  Pb  Pb14  1  1.18991039  1.18991039  0.18991039  1.0
  O  O15  1  0.86211442  0.47319102  -0.72501667  1.0
  O  O16  1  0.52680898  0.72501667  -0.86211442  1.0
  O  O17  1  0.72501667  0.13788558  -0.47319102  1.0
  O  O18  1  0.13788558  0.52680898  -0.27498333  1.0
  O  O19  1  0.47319102  0.27498333  -0.13788558  1.0
  O  O20  1  0.27498333  0.86211442  -0.52680898  1.0
  O  O21  1  0.89094385  -0.24133112  0.11540018  1.0
  O  O22  1  0.24133112  0.88459982  -0.89094385  1.0
  O  O23  1  0.88459982  0.10905615  -0.75866888  1.0
  O  O24  1  0.10905615  0.24133112  -0.11540018  1.0
  O  O25  1  0.75866888  0.11540018  -0.10905615  1.0
  O  O26  1  1.11540018  -0.10905615  -0.24133112  1.0
  O  O27  1  0.48551751  0.90162636  -0.13897888  1.0
  O  O28  1  1.09837364  1.13897888  0.51448249  1.0
  O  O29  1  1.13897888  1.51448249  0.09837364  1.0
  O  O30  1  1.51448249  1.09837364  0.13897888  1.0
  O  O31  1  0.90162636  0.86102112  -0.51448249  1.0
  O  O32  1  0.86102112  0.48551751  -0.09837364  1.0
