# generated using pymatgen
data_Ta4Ni2N
_symmetry_space_group_name_H-M   'P 1'
_cell_length_a   8.20790146
_cell_length_b   8.20790146
_cell_length_c   8.20790146
_cell_angle_alpha   60.00000000
_cell_angle_beta   60.00000000
_cell_angle_gamma   60.00000000
_symmetry_Int_Tables_number   1
_chemical_formula_structural   Ta4Ni2N
_chemical_formula_sum   'Ta16 Ni8 N4'
_cell_volume   391.00418343
_cell_formula_units_Z   4
loop_
 _symmetry_equiv_pos_site_id
 _symmetry_equiv_pos_as_xyz
  1  'x, y, z'
loop_
 _atom_site_type_symbol
 _atom_site_label
 _atom_site_symmetry_multiplicity
 _atom_site_fract_x
 _atom_site_fract_y
 _atom_site_fract_z
 _atom_site_occupancy
  Ta  Ta0  1  1.12500000  0.62500000  0.62500000  1.0
  Ta  Ta1  1  0.62500000  1.12500000  -0.37500000  1.0
  Ta  Ta2  1  -0.37500000  0.62500000  1.12500000  1.0
  Ta  Ta3  1  -0.37500000  0.62500000  0.62500000  1.0
  Ta  Ta4  1  0.81646825  0.81646825  -0.81646825  1.0
  Ta  Ta5  1  0.18353175  1.18353175  -0.18353175  1.0
  Ta  Ta6  1  0.81646825  -0.81646825  0.81646825  1.0
  Ta  Ta7  1  0.18353175  -0.18353175  0.18353175  1.0
  Ta  Ta8  1  -0.81646825  0.81646825  0.81646825  1.0
  Ta  Ta9  1  -0.18353175  0.18353175  0.18353175  1.0
  Ta  Ta10  1  0.43353175  1.43353175  0.06646825  1.0
  Ta  Ta11  1  0.06646825  0.06646825  0.43353175  1.0
  Ta  Ta12  1  0.43353175  1.06646825  0.43353175  1.0
  Ta  Ta13  1  0.06646825  1.43353175  0.06646825  1.0
  Ta  Ta14  1  0.06646825  1.43353175  0.43353175  1.0
  Ta  Ta15  1  0.43353175  1.06646825  0.06646825  1.0
  Ni  Ni16  1  -0.25855840  0.41951947  0.41951947  1.0
  Ni  Ni17  1  0.41951947  -0.25855840  0.41951947  1.0
  Ni  Ni18  1  0.41951947  1.41951947  -0.25855840  1.0
  Ni  Ni19  1  0.41951947  1.41951947  0.41951947  1.0
  Ni  Ni20  1  0.50855840  0.83048053  -0.16951947  1.0
  Ni  Ni21  1  0.83048053  0.50855840  0.83048053  1.0
  Ni  Ni22  1  0.83048053  0.83048053  -0.49144160  1.0
  Ni  Ni23  1  0.83048053  0.83048053  0.83048053  1.0
  N  N24  1  0.62500000  1.12500000  0.12500000  1.0
  N  N25  1  0.12500000  1.62500000  0.12500000  1.0
  N  N26  1  0.12500000  0.12500000  1.62500000  1.0
  N  N27  1  0.12500000  0.12500000  0.12500000  1.0
