# generated using pymatgen
data_Gd10B2Br15
_symmetry_space_group_name_H-M   'P 1'
_cell_length_a   10.93552390
_cell_length_b   10.07269759
_cell_length_c   9.20421936
_cell_angle_alpha   69.01830379
_cell_angle_beta   64.50040384
_cell_angle_gamma   71.32526443
_symmetry_Int_Tables_number   1
_chemical_formula_structural   Gd10B2Br15
_chemical_formula_sum   'Gd10 B2 Br15'
_cell_volume   837.66293267
_cell_formula_units_Z   1
loop_
 _symmetry_equiv_pos_site_id
 _symmetry_equiv_pos_as_xyz
  1  'x, y, z'
loop_
 _atom_site_type_symbol
 _atom_site_label
 _atom_site_symmetry_multiplicity
 _atom_site_fract_x
 _atom_site_fract_y
 _atom_site_fract_z
 _atom_site_occupancy
  Gd  Gd0  1  0.90519123  -0.29448287  0.06924195  1.0
  Gd  Gd1  1  0.09480877  -0.70551713  -0.06924195  1.0
  Gd  Gd2  1  0.67363306  -0.95673609  0.23776877  1.0
  Gd  Gd3  1  0.32636694  -0.04326391  -0.23776877  1.0
  Gd  Gd4  1  0.95356263  -0.92714116  -0.17240324  1.0
  Gd  Gd5  1  0.04643737  -0.07285884  0.17240324  1.0
  Gd  Gd6  1  0.72529424  -0.59226490  -0.02697787  1.0
  Gd  Gd7  1  0.27470576  -0.40773510  0.02697787  1.0
  Gd  Gd8  1  0.82020359  -0.74738431  -0.64675013  1.0
  Gd  Gd9  1  0.17979641  -0.25261569  0.64675013  1.0
  B  B10  1  0.87609183  -0.81895808  0.09052614  1.0
  B  B11  1  0.12390817  -0.18104192  -0.09052614  1.0
  Br  Br12  1  0.66322702  -0.46274597  0.24472557  1.0
  Br  Br13  1  0.33677298  -0.53725403  -0.24472557  1.0
  Br  Br14  1  0.18158172  -0.76515539  0.61202192  1.0
  Br  Br15  1  0.81841828  -0.23484461  -0.61202192  1.0
  Br  Br16  1  0.94474429  -0.41109067  -0.21068903  1.0
  Br  Br17  1  0.05525571  -0.58890933  0.21068903  1.0
  Br  Br18  1  0.47028140  -0.69748182  0.14330545  1.0
  Br  Br19  1  0.52971860  -0.30251818  -0.14330545  1.0
  Br  Br20  1  0.77833520  -0.66127577  -0.33208649  1.0
  Br  Br21  1  0.22166480  -0.33872423  0.33208649  1.0
  Br  Br22  1  0.29599935  -0.94297570  0.03863456  1.0
  Br  Br23  1  0.70400065  -0.05702430  -0.03863456  1.0
  Br  Br24  1  0.58258406  -0.88445698  -0.44515106  1.0
  Br  Br25  1  0.41741594  -0.11554302  0.44515106  1.0
  Br  Br26  1  0.00000000  -0.00000000  0.50000000  1.0
