# generated using pymatgen
data_Na3Zn2(WO4)3
_symmetry_space_group_name_H-M   'P 1'
_cell_length_a   9.29656471
_cell_length_b   9.29656471
_cell_length_c   7.26483758
_cell_angle_alpha   75.74348307
_cell_angle_beta   104.25651693
_cell_angle_gamma   83.45355853
_symmetry_Int_Tables_number   1
_chemical_formula_structural   Na3Zn2(WO4)3
_chemical_formula_sum   'Na6 Zn4 W6 O24'
_cell_volume   579.50970089
_cell_formula_units_Z   2
loop_
 _symmetry_equiv_pos_site_id
 _symmetry_equiv_pos_as_xyz
  1  'x, y, z'
loop_
 _atom_site_type_symbol
 _atom_site_label
 _atom_site_symmetry_multiplicity
 _atom_site_fract_x
 _atom_site_fract_y
 _atom_site_fract_z
 _atom_site_occupancy
  Na  Na0  1  0.51555825  -0.48444175  0.75000000  1.0
  Na  Na1  1  1.48444175  0.48444175  0.25000000  1.0
  Na  Na2  1  1.23046082  0.23046082  0.75000000  1.0
  Na  Na3  1  0.76953918  -0.23046082  0.25000000  1.0
  Na  Na4  1  0.00000000  0.00000000  0.00000000  1.0
  Na  Na5  1  0.00000000  -0.00000000  0.50000000  1.0
  Zn  Zn6  1  1.55600664  0.13775341  0.61869226  1.0
  Zn  Zn7  1  0.86224659  -0.55600664  0.11869226  1.0
  Zn  Zn8  1  1.13775341  0.55600664  0.88130774  1.0
  Zn  Zn9  1  0.44399336  -0.13775341  0.38130774  1.0
  W  W10  1  0.38161850  -0.16637592  0.88398821  1.0
  W  W11  1  1.16637592  0.61838150  0.38398821  1.0
  W  W12  1  0.83362408  -0.61838150  0.61601179  1.0
  W  W13  1  1.61838150  0.16637592  0.11601179  1.0
  W  W14  1  0.78209908  -0.21790092  0.75000000  1.0
  W  W15  1  1.21790092  0.21790092  0.25000000  1.0
  O  O16  1  0.66704077  -0.24463903  0.52233548  1.0
  O  O17  1  1.24463903  0.33295923  0.02233548  1.0
  O  O18  1  0.75536097  -0.33295923  0.97766452  1.0
  O  O19  1  1.33295923  0.24463903  0.47766452  1.0
  O  O20  1  0.75096016  -0.01925952  0.74165394  1.0
  O  O21  1  1.01925952  0.24903984  0.24165394  1.0
  O  O22  1  0.98074048  -0.24903984  0.75834606  1.0
  O  O23  1  1.24903984  0.01925952  0.25834606  1.0
  O  O24  1  0.47143179  -0.12090715  0.68668417  1.0
  O  O25  1  1.12090715  0.52856821  0.18668417  1.0
  O  O26  1  0.87909285  -0.52856821  0.81331583  1.0
  O  O27  1  1.52856821  0.12090715  0.31331583  1.0
  O  O28  1  1.50456069  0.15815132  0.87923266  1.0
  O  O29  1  0.84184868  -0.50456069  0.37923266  1.0
  O  O30  1  1.15815132  0.50456069  0.62076734  1.0
  O  O31  1  0.49543931  -0.15815132  0.12076734  1.0
  O  O32  1  1.64040896  0.34683605  0.58449269  1.0
  O  O33  1  0.65316395  -0.64040896  0.08449269  1.0
  O  O34  1  1.34683605  0.64040896  0.91550731  1.0
  O  O35  1  0.35959104  -0.34683605  0.41550731  1.0
  O  O36  1  0.20664978  -0.03680828  0.80889909  1.0
  O  O37  1  1.03680828  0.79335022  0.30889909  1.0
  O  O38  1  0.96319172  -0.79335022  0.69110091  1.0
  O  O39  1  1.79335022  0.03680828  0.19110091  1.0
