# generated using pymatgen
data_K2ZrGe2O7
_symmetry_space_group_name_H-M   'P 1'
_cell_length_a   5.77627129
_cell_length_b   5.77627129
_cell_length_c   13.14702403
_cell_angle_alpha   77.32951620
_cell_angle_beta   102.67048380
_cell_angle_gamma   121.69968648
_symmetry_Int_Tables_number   1
_chemical_formula_structural   K2ZrGe2O7
_chemical_formula_sum   'K4 Zr2 Ge4 O14'
_cell_volume   361.25093796
_cell_formula_units_Z   2
loop_
 _symmetry_equiv_pos_site_id
 _symmetry_equiv_pos_as_xyz
  1  'x, y, z'
loop_
 _atom_site_type_symbol
 _atom_site_label
 _atom_site_symmetry_multiplicity
 _atom_site_fract_x
 _atom_site_fract_y
 _atom_site_fract_z
 _atom_site_occupancy
  K  K0  1  0.35822790  0.06543372  0.67721415  1.0
  K  K1  1  0.93456628  -0.35822790  0.17721415  1.0
  K  K2  1  1.06543372  0.35822790  0.82278585  1.0
  K  K3  1  1.64177210  -0.06543372  0.32278585  1.0
  Zr  Zr4  1  1.50000000  0.00000000  -0.00000000  1.0
  Zr  Zr5  1  1.00000000  0.50000000  0.50000000  1.0
  Ge  Ge6  1  1.68164444  -0.24171976  0.62176848  1.0
  Ge  Ge7  1  1.24171976  -0.68164444  0.12176848  1.0
  Ge  Ge8  1  0.75828024  0.68164444  0.87823152  1.0
  Ge  Ge9  1  0.31835556  0.24171976  0.37823152  1.0
  O  O10  1  1.81218120  0.07836691  0.54425921  1.0
  O  O11  1  0.92163309  -0.81218120  0.04425921  1.0
  O  O12  1  1.07836691  0.81218120  0.95574079  1.0
  O  O13  1  0.18781880  -0.07836691  0.45574079  1.0
  O  O14  1  0.53660502  -0.21583903  0.90072958  1.0
  O  O15  1  1.21583903  -0.53660502  0.40072958  1.0
  O  O16  1  0.78416097  0.53660502  0.59927042  1.0
  O  O17  1  1.46339498  0.21583903  0.09927042  1.0
  O  O18  1  0.57751520  0.32516413  0.87262926  1.0
  O  O19  1  0.67483587  0.42248480  0.37262926  1.0
  O  O20  1  1.32516413  -0.42248480  0.62737074  1.0
  O  O21  1  1.42248480  -0.32516413  0.12737074  1.0
  O  O22  1  0.86024131  0.86024131  0.75000000  1.0
  O  O23  1  0.13975869  0.13975869  0.25000000  1.0
