# generated using pymatgen
data_SrCr(Si2O5)2
_symmetry_space_group_name_H-M   'P 1'
_cell_length_a   7.50926096
_cell_length_b   7.50926096
_cell_length_c   15.91005860
_cell_angle_alpha   90.00000000
_cell_angle_beta   90.00000000
_cell_angle_gamma   90.00000000
_symmetry_Int_Tables_number   1
_chemical_formula_structural   SrCr(Si2O5)2
_chemical_formula_sum   'Sr4 Cr4 Si16 O40'
_cell_volume   897.15229590
_cell_formula_units_Z   4
loop_
 _symmetry_equiv_pos_site_id
 _symmetry_equiv_pos_as_xyz
  1  'x, y, z'
loop_
 _atom_site_type_symbol
 _atom_site_label
 _atom_site_symmetry_multiplicity
 _atom_site_fract_x
 _atom_site_fract_y
 _atom_site_fract_z
 _atom_site_occupancy
  Sr  Sr0  1  0.50000000  0.50000000  0.50000000  1.0
  Sr  Sr1  1  0.50000000  0.50000000  -0.00000000  1.0
  Sr  Sr2  1  0.00000000  0.00000000  -0.00000000  1.0
  Sr  Sr3  1  0.00000000  0.00000000  0.50000000  1.0
  Cr  Cr4  1  0.00000000  0.50000000  0.41184281  1.0
  Cr  Cr5  1  0.00000000  0.50000000  0.91184281  1.0
  Cr  Cr6  1  0.50000000  0.00000000  0.58815719  1.0
  Cr  Cr7  1  0.50000000  0.00000000  0.08815719  1.0
  Si  Si8  1  0.67665837  0.75766993  0.34849639  1.0
  Si  Si9  1  0.32334163  0.75766993  0.84849639  1.0
  Si  Si10  1  0.67665837  0.24233007  0.84849639  1.0
  Si  Si11  1  0.32334163  0.24233007  0.34849639  1.0
  Si  Si12  1  0.25766993  0.17665837  0.84849639  1.0
  Si  Si13  1  0.74233007  0.17665837  0.34849639  1.0
  Si  Si14  1  0.25766993  0.82334163  0.34849639  1.0
  Si  Si15  1  0.74233007  0.82334163  0.84849639  1.0
  Si  Si16  1  0.82334163  0.74233007  0.65150361  1.0
  Si  Si17  1  0.17665837  0.74233007  0.15150361  1.0
  Si  Si18  1  0.82334163  0.25766993  0.15150361  1.0
  Si  Si19  1  0.17665837  0.25766993  0.65150361  1.0
  Si  Si20  1  0.24233007  0.32334163  0.15150361  1.0
  Si  Si21  1  0.75766993  0.32334163  0.65150361  1.0
  Si  Si22  1  0.24233007  0.67665837  0.65150361  1.0
  Si  Si23  1  0.75766993  0.67665837  0.15150361  1.0
  O  O24  1  0.71260586  0.71260586  0.25000000  1.0
  O  O25  1  0.28739414  0.71260586  0.75000000  1.0
  O  O26  1  0.71260586  0.28739414  0.75000000  1.0
  O  O27  1  0.28739414  0.28739414  0.25000000  1.0
  O  O28  1  0.21260586  0.21260586  0.75000000  1.0
  O  O29  1  0.78739414  0.21260586  0.25000000  1.0
  O  O30  1  0.21260586  0.78739414  0.25000000  1.0
  O  O31  1  0.78739414  0.78739414  0.75000000  1.0
  O  O32  1  0.74941253  0.96045013  0.36808881  1.0
  O  O33  1  0.25058747  0.96045013  0.86808881  1.0
  O  O34  1  0.74941253  0.03954987  0.86808881  1.0
  O  O35  1  0.25058747  0.03954987  0.36808881  1.0
  O  O36  1  0.46045013  0.24941253  0.86808881  1.0
  O  O37  1  0.53954987  0.24941253  0.36808881  1.0
  O  O38  1  0.46045013  0.75058747  0.36808881  1.0
  O  O39  1  0.53954987  0.75058747  0.86808881  1.0
  O  O40  1  0.75058747  0.53954987  0.63191119  1.0
  O  O41  1  0.24941253  0.53954987  0.13191119  1.0
  O  O42  1  0.75058747  0.46045013  0.13191119  1.0
  O  O43  1  0.24941253  0.46045013  0.63191119  1.0
  O  O44  1  0.03954987  0.25058747  0.13191119  1.0
  O  O45  1  0.96045013  0.25058747  0.63191119  1.0
  O  O46  1  0.03954987  0.74941253  0.63191119  1.0
  O  O47  1  0.96045013  0.74941253  0.13191119  1.0
  O  O48  1  0.76014740  0.61584547  0.41298354  1.0
  O  O49  1  0.23985260  0.61584547  0.91298354  1.0
  O  O50  1  0.76014740  0.38415453  0.91298354  1.0
  O  O51  1  0.23985260  0.38415453  0.41298354  1.0
  O  O52  1  0.11584547  0.26014740  0.91298354  1.0
  O  O53  1  0.88415453  0.26014740  0.41298354  1.0
  O  O54  1  0.11584547  0.73985260  0.41298354  1.0
  O  O55  1  0.88415453  0.73985260  0.91298354  1.0
  O  O56  1  0.73985260  0.88415453  0.58701646  1.0
  O  O57  1  0.26014740  0.88415453  0.08701646  1.0
  O  O58  1  0.73985260  0.11584547  0.08701646  1.0
  O  O59  1  0.26014740  0.11584547  0.58701646  1.0
  O  O60  1  0.38415453  0.23985260  0.08701646  1.0
  O  O61  1  0.61584547  0.23985260  0.58701646  1.0
  O  O62  1  0.38415453  0.76014740  0.58701646  1.0
  O  O63  1  0.61584547  0.76014740  0.08701646  1.0
