# generated using pymatgen
data_ScGeIr
_symmetry_space_group_name_H-M   'P 1'
_cell_length_a   6.49903219
_cell_length_b   4.15650172
_cell_length_c   7.51385620
_cell_angle_alpha   90.00000000
_cell_angle_beta   90.00000000
_cell_angle_gamma   90.00000000
_symmetry_Int_Tables_number   1
_chemical_formula_structural   ScGeIr
_chemical_formula_sum   'Sc4 Ge4 Ir4'
_cell_volume   202.97358959
_cell_formula_units_Z   4
loop_
 _symmetry_equiv_pos_site_id
 _symmetry_equiv_pos_as_xyz
  1  'x, y, z'
loop_
 _atom_site_type_symbol
 _atom_site_label
 _atom_site_symmetry_multiplicity
 _atom_site_fract_x
 _atom_site_fract_y
 _atom_site_fract_z
 _atom_site_occupancy
  Sc  Sc0  1  0.98393949  0.75000000  0.68905626  1.0
  Sc  Sc1  1  0.48393949  0.75000000  0.81094374  1.0
  Sc  Sc2  1  0.01606051  0.25000000  0.31094374  1.0
  Sc  Sc3  1  0.51606051  0.25000000  0.18905626  1.0
  Ge  Ge4  1  0.71936766  0.75000000  0.37849324  1.0
  Ge  Ge5  1  0.21936766  0.75000000  0.12150676  1.0
  Ge  Ge6  1  0.28063234  0.25000000  0.62150676  1.0
  Ge  Ge7  1  0.78063234  0.25000000  0.87849324  1.0
  Ir  Ir8  1  0.83735710  0.75000000  0.05739956  1.0
  Ir  Ir9  1  0.33735710  0.75000000  0.44260044  1.0
  Ir  Ir10  1  0.16264290  0.25000000  0.94260044  1.0
  Ir  Ir11  1  0.66264290  0.25000000  0.55739956  1.0
