# generated using pymatgen
data_Tb4(Al8Pt3)3
_symmetry_space_group_name_H-M   'P 1'
_cell_length_a   13.19913936
_cell_length_b   7.53435432
_cell_length_c   7.53606840
_cell_angle_alpha   60.11332762
_cell_angle_beta   79.05379519
_cell_angle_gamma   84.53737754
_symmetry_Int_Tables_number   1
_chemical_formula_structural   Tb4(Al8Pt3)3
_chemical_formula_sum   'Tb4 Al24 Pt9'
_cell_volume   637.95122081
_cell_formula_units_Z   1
loop_
 _symmetry_equiv_pos_site_id
 _symmetry_equiv_pos_as_xyz
  1  'x, y, z'
loop_
 _atom_site_type_symbol
 _atom_site_label
 _atom_site_symmetry_multiplicity
 _atom_site_fract_x
 _atom_site_fract_y
 _atom_site_fract_z
 _atom_site_occupancy
  Tb  Tb0  1  -0.80723589  -0.83214563  -0.56271195  1.0
  Tb  Tb1  1  -0.19276411  -0.16785437  -0.43728805  1.0
  Tb  Tb2  1  -0.80726107  -0.50108512  -0.23234213  1.0
  Tb  Tb3  1  -0.19273893  -0.49891488  -0.76765787  1.0
  Al  Al4  1  -0.56085366  -0.16737374  -0.97933044  1.0
  Al  Al5  1  -0.43914634  -0.83262626  -0.02066956  1.0
  Al  Al6  1  -0.67050527  -0.49332455  -0.94388931  1.0
  Al  Al7  1  -0.32949473  -0.50667545  -0.05611069  1.0
  Al  Al8  1  -0.18293690  -0.83594988  -0.89871663  1.0
  Al  Al9  1  -0.81706310  -0.16405012  -0.10128337  1.0
  Al  Al10  1  -0.81678848  -0.95866082  -0.89676749  1.0
  Al  Al11  1  -0.18321152  -0.04133918  -0.10323251  1.0
  Al  Al12  1  -0.94523844  -0.50077497  -0.85177125  1.0
  Al  Al13  1  -0.05476156  -0.49922503  -0.14822875  1.0
  Al  Al14  1  -0.81590753  -0.36909703  -0.69209607  1.0
  Al  Al15  1  -0.18409247  -0.63090297  -0.30790393  1.0
  Al  Al16  1  -0.44139891  -0.50045668  -0.68579885  1.0
  Al  Al17  1  -0.55860109  -0.49954332  -0.31420115  1.0
  Al  Al18  1  -0.55857890  -0.83342651  -0.64698612  1.0
  Al  Al19  1  -0.44142110  -0.16657349  -0.35301388  1.0
  Al  Al20  1  -0.94536559  -0.16629097  -0.51769541  1.0
  Al  Al21  1  -0.05463441  -0.83370903  -0.48230459  1.0
  Al  Al22  1  -0.32970380  -0.83433519  -0.38261456  1.0
  Al  Al23  1  -0.67029620  -0.16566481  -0.61738544  1.0
  Al  Al24  1  -0.66898728  -0.84011887  -0.26992735  1.0
  Al  Al25  1  -0.33101272  -0.15988113  -0.73007265  1.0
  Al  Al26  1  -0.95357773  -0.83226083  -0.18298606  1.0
  Al  Al27  1  -0.04642227  -0.16773917  -0.81701394  1.0
  Pt  Pt28  1  -0.63711132  -0.82582678  -0.95422966  1.0
  Pt  Pt29  1  -0.36288868  -0.17417322  -0.04577034  1.0
  Pt  Pt30  1  -1.00009280  -0.82897402  -0.82893071  1.0
  Pt  Pt31  1  0.00009280  -0.17102598  -0.17106929  1.0
  Pt  Pt32  1  -0.36172227  -0.83316624  -0.70504789  1.0
  Pt  Pt33  1  -0.63827773  -0.16683376  -0.29495211  1.0
  Pt  Pt34  1  -0.63826066  -0.50748857  -0.61319997  1.0
  Pt  Pt35  1  -0.36173934  -0.49251143  -0.38680003  1.0
  Pt  Pt36  1  -0.00000000  -0.50000000  -0.50000000  1.0
