# generated using pymatgen
data_Ca2ZnSi2O7
_symmetry_space_group_name_H-M   'P 1'
_cell_length_a   7.89601067
_cell_length_b   7.89601067
_cell_length_c   5.05541971
_cell_angle_alpha   90.00000000
_cell_angle_beta   90.00000000
_cell_angle_gamma   90.00000000
_symmetry_Int_Tables_number   1
_chemical_formula_structural   Ca2ZnSi2O7
_chemical_formula_sum   'Ca4 Zn2 Si4 O14'
_cell_volume   315.19017382
_cell_formula_units_Z   2
loop_
 _symmetry_equiv_pos_site_id
 _symmetry_equiv_pos_as_xyz
  1  'x, y, z'
loop_
 _atom_site_type_symbol
 _atom_site_label
 _atom_site_symmetry_multiplicity
 _atom_site_fract_x
 _atom_site_fract_y
 _atom_site_fract_z
 _atom_site_occupancy
  Ca  Ca0  1  0.82989273  0.32989273  0.49885962  1.0
  Ca  Ca1  1  0.67010727  0.82989273  0.50114038  1.0
  Ca  Ca2  1  0.17010727  0.67010727  0.49885962  1.0
  Ca  Ca3  1  0.32989273  0.17010727  0.50114038  1.0
  Zn  Zn4  1  0.50000000  0.50000000  0.00000000  1.0
  Zn  Zn5  1  0.00000000  0.00000000  0.00000000  1.0
  Si  Si6  1  0.35906545  0.85906545  0.06630363  1.0
  Si  Si7  1  0.14093455  0.35906545  0.93369637  1.0
  Si  Si8  1  0.64093455  0.14093455  0.06630363  1.0
  Si  Si9  1  0.85906545  0.64093455  0.93369637  1.0
  O  O10  1  0.31454524  0.41740045  0.77847031  1.0
  O  O11  1  0.18545476  0.91740045  0.22152969  1.0
  O  O12  1  0.58259955  0.31454524  0.22152969  1.0
  O  O13  1  0.91740045  0.81454524  0.77847031  1.0
  O  O14  1  0.68545476  0.58259955  0.77847031  1.0
  O  O15  1  0.81454524  0.08259955  0.22152969  1.0
  O  O16  1  0.41740045  0.68545476  0.22152969  1.0
  O  O17  1  0.08259955  0.18545476  0.77847031  1.0
  O  O18  1  0.35749277  0.85749277  0.74743808  1.0
  O  O19  1  0.14250723  0.35749277  0.25256192  1.0
  O  O20  1  0.64250723  0.14250723  0.74743808  1.0
  O  O21  1  0.85749277  0.64250723  0.25256192  1.0
  O  O22  1  0.00000000  0.50000000  0.81533035  1.0
  O  O23  1  0.50000000  0.00000000  0.18466965  1.0
