# generated using pymatgen
data_BaMo2(PO4)3
_symmetry_space_group_name_H-M   'P 1'
_cell_length_a   9.43783841
_cell_length_b   9.43783841
_cell_length_c   9.43783841
_cell_angle_alpha   54.89670039
_cell_angle_beta   54.89670039
_cell_angle_gamma   54.89670039
_symmetry_Int_Tables_number   1
_chemical_formula_structural   BaMo2(PO4)3
_chemical_formula_sum   'Ba2 Mo4 P6 O24'
_cell_volume   523.82091353
_cell_formula_units_Z   2
loop_
 _symmetry_equiv_pos_site_id
 _symmetry_equiv_pos_as_xyz
  1  'x, y, z'
loop_
 _atom_site_type_symbol
 _atom_site_label
 _atom_site_symmetry_multiplicity
 _atom_site_fract_x
 _atom_site_fract_y
 _atom_site_fract_z
 _atom_site_occupancy
  Ba  Ba0  1  1.00000000  0.00000000  0.00000000  1.0
  Ba  Ba1  1  0.50000000  0.50000000  0.50000000  1.0
  Mo  Mo2  1  0.84980006  -0.15019994  -0.15019994  1.0
  Mo  Mo3  1  0.34980006  0.34980006  0.34980006  1.0
  Mo  Mo4  1  0.65019994  0.65019994  -0.34980006  1.0
  Mo  Mo5  1  1.15019994  0.15019994  0.15019994  1.0
  P  P6  1  0.46486091  0.75000000  0.03513909  1.0
  P  P7  1  0.96486091  -0.46486091  0.25000000  1.0
  P  P8  1  0.25000000  0.96486091  -0.46486091  1.0
  P  P9  1  0.75000000  1.03513909  -0.53513909  1.0
  P  P10  1  0.53513909  0.25000000  -0.03513909  1.0
  P  P11  1  1.03513909  0.46486091  -0.25000000  1.0
  O  O12  1  0.75490644  1.01731077  -0.36431345  1.0
  O  O13  1  1.25490644  0.13568655  -0.48268923  1.0
  O  O14  1  0.86431345  0.48268923  -0.25490644  1.0
  O  O15  1  0.36431345  0.24509356  -0.01731077  1.0
  O  O16  1  0.98268923  0.36431345  -0.75490644  1.0
  O  O17  1  0.48268923  0.74509356  -0.13568655  1.0
  O  O18  1  0.24509356  0.98268923  -0.63568655  1.0
  O  O19  1  0.74509356  0.86431345  -0.51731077  1.0
  O  O20  1  0.63568655  0.75490644  0.01731077  1.0
  O  O21  1  1.13568655  -0.48268923  0.25490644  1.0
  O  O22  1  0.51731077  0.25490644  0.13568655  1.0
  O  O23  1  1.01731077  0.63568655  -0.24509356  1.0
  O  O24  1  0.71027757  0.07440656  -0.06749511  1.0
  O  O25  1  1.21027757  0.43250489  -0.42559344  1.0
  O  O26  1  0.56749511  0.42559344  -0.21027757  1.0
  O  O27  1  1.06749511  0.28972243  -0.07440656  1.0
  O  O28  1  0.92559344  0.06749511  0.28972243  1.0
  O  O29  1  0.42559344  0.78972243  -0.43250489  1.0
  O  O30  1  1.28972243  -0.07440656  0.06749511  1.0
  O  O31  1  0.78972243  0.56749511  -0.57440656  1.0
  O  O32  1  0.93250489  -0.28972243  0.07440656  1.0
  O  O33  1  0.43250489  0.57440656  0.21027757  1.0
  O  O34  1  0.57440656  1.21027757  -0.56749511  1.0
  O  O35  1  1.07440656  -0.06749511  -0.28972243  1.0
