# generated using pymatgen
data_H3W
_symmetry_space_group_name_H-M   'P 1'
_cell_length_a   3.06838242
_cell_length_b   3.05015036
_cell_length_c   7.28136373
_cell_angle_alpha   90.00000000
_cell_angle_beta   101.07924939
_cell_angle_gamma   90.00000000
_symmetry_Int_Tables_number   1
_chemical_formula_structural   H3W
_chemical_formula_sum   'H6 W2'
_cell_volume   66.87639300
_cell_formula_units_Z   2
loop_
 _symmetry_equiv_pos_site_id
 _symmetry_equiv_pos_as_xyz
  1  'x, y, z'
loop_
 _atom_site_type_symbol
 _atom_site_label
 _atom_site_symmetry_multiplicity
 _atom_site_fract_x
 _atom_site_fract_y
 _atom_site_fract_z
 _atom_site_occupancy
  H  H0  1  0.56595335  0.75000000  0.21043911  1.0
  H  H1  1  0.43404665  0.25000000  0.78956089  1.0
  H  H2  1  0.89124480  0.75000000  0.78789972  1.0
  H  H3  1  0.10875520  0.25000000  0.21210028  1.0
  H  H4  1  0.91469839  0.25000000  0.62242707  1.0
  H  H5  1  0.08530161  0.75000000  0.37757293  1.0
  W  W6  1  0.67829188  0.25000000  0.37486573  1.0
  W  W7  1  0.32170812  0.75000000  0.62513427  1.0
