# generated using pymatgen
data_Li2ReO3
_symmetry_space_group_name_H-M   'P 1'
_cell_length_a   5.75629326
_cell_length_b   5.75629326
_cell_length_c   5.75629326
_cell_angle_alpha   51.10624914
_cell_angle_beta   51.10624914
_cell_angle_gamma   51.10624914
_symmetry_Int_Tables_number   1
_chemical_formula_structural   Li2ReO3
_chemical_formula_sum   'Li4 Re2 O6'
_cell_volume   106.60067978
_cell_formula_units_Z   2
loop_
 _symmetry_equiv_pos_site_id
 _symmetry_equiv_pos_as_xyz
  1  'x, y, z'
loop_
 _atom_site_type_symbol
 _atom_site_label
 _atom_site_symmetry_multiplicity
 _atom_site_fract_x
 _atom_site_fract_y
 _atom_site_fract_z
 _atom_site_occupancy
  Li  Li0  1  0.01249496  0.01249496  0.01249496  1.0
  Li  Li1  1  0.51249496  0.51249496  -0.48750504  1.0
  Li  Li2  1  0.86226661  -0.13773339  -0.13773339  1.0
  Li  Li3  1  0.36226661  0.36226661  -0.63773339  1.0
  Re  Re4  1  0.68737971  -0.31262029  -0.31262029  1.0
  Re  Re5  1  0.18737971  0.18737971  0.18737971  1.0
  O  O6  1  0.29359099  0.58118204  -0.06261431  1.0
  O  O7  1  0.79359099  -0.56261431  0.08118204  1.0
  O  O8  1  0.43738569  0.08118204  -0.20640901  1.0
  O  O9  1  0.93738569  0.29359099  -0.41881796  1.0
  O  O10  1  1.08118204  -0.20640901  -0.56261431  1.0
  O  O11  1  0.58118204  0.93738569  -0.70640901  1.0
