# generated using pymatgen
data_LiInSe2
_symmetry_space_group_name_H-M   'P 1'
_cell_length_a   7.32999020
_cell_length_b   8.54678254
_cell_length_c   6.92713687
_cell_angle_alpha   90.00000000
_cell_angle_beta   90.00000000
_cell_angle_gamma   90.00000000
_symmetry_Int_Tables_number   1
_chemical_formula_structural   LiInSe2
_chemical_formula_sum   'Li4 In4 Se8'
_cell_volume   433.97010908
_cell_formula_units_Z   4
loop_
 _symmetry_equiv_pos_site_id
 _symmetry_equiv_pos_as_xyz
  1  'x, y, z'
loop_
 _atom_site_type_symbol
 _atom_site_label
 _atom_site_symmetry_multiplicity
 _atom_site_fract_x
 _atom_site_fract_y
 _atom_site_fract_z
 _atom_site_occupancy
  Li  Li0  1  0.08792104  0.62361515  0.49970643  1.0
  Li  Li1  1  0.58792104  0.87638485  0.49970643  1.0
  Li  Li2  1  0.91207896  0.37638485  0.99970643  1.0
  Li  Li3  1  0.41207896  0.12361515  0.99970643  1.0
  In  In4  1  0.42023877  0.62568349  -0.00181087  1.0
  In  In5  1  0.92023877  0.87431651  -0.00181087  1.0
  In  In6  1  0.57976123  0.37431651  0.49818913  1.0
  In  In7  1  0.07976123  0.12568349  0.49818913  1.0
  Se  Se8  1  0.41922660  0.63052224  0.61795137  1.0
  Se  Se9  1  0.91922660  0.86947776  0.61795137  1.0
  Se  Se10  1  0.58077340  0.36947776  0.11795137  1.0
  Se  Se11  1  0.08077340  0.13052224  0.11795137  1.0
  Se  Se12  1  0.41716115  0.12093211  0.62695307  1.0
  Se  Se13  1  0.91716115  0.37906789  0.62695307  1.0
  Se  Se14  1  0.58283885  0.87906789  0.12695307  1.0
  Se  Se15  1  0.08283885  0.62093211  0.12695307  1.0
