# generated using pymatgen
data_Ba2TaBiO6
_symmetry_space_group_name_H-M   'P 1'
_cell_length_a   6.08492697
_cell_length_b   6.08492697
_cell_length_c   6.08492697
_cell_angle_alpha   60.63656388
_cell_angle_beta   60.63656388
_cell_angle_gamma   60.63656388
_symmetry_Int_Tables_number   1
_chemical_formula_structural   Ba2TaBiO6
_chemical_formula_sum   'Ba2 Ta1 Bi1 O6'
_cell_volume   161.60282882
_cell_formula_units_Z   1
loop_
 _symmetry_equiv_pos_site_id
 _symmetry_equiv_pos_as_xyz
  1  'x, y, z'
loop_
 _atom_site_type_symbol
 _atom_site_label
 _atom_site_symmetry_multiplicity
 _atom_site_fract_x
 _atom_site_fract_y
 _atom_site_fract_z
 _atom_site_occupancy
  Ba  Ba0  1  0.75149201  0.75149201  -0.24850799  1.0
  Ba  Ba1  1  1.24850799  1.24850799  0.24850799  1.0
  Ta  Ta2  1  0.00000000  0.00000000  0.00000000  1.0
  Bi  Bi3  1  0.50000000  0.50000000  -0.50000000  1.0
  O  O4  1  0.82638364  -0.28503365  0.22494635  1.0
  O  O5  1  0.28503365  0.77505365  -0.82638364  1.0
  O  O6  1  0.77505365  0.17361636  -0.71496635  1.0
  O  O7  1  0.17361636  0.28503365  -0.22494635  1.0
  O  O8  1  0.71496635  0.22494635  -0.17361636  1.0
  O  O9  1  1.22494635  -0.17361636  -0.28503365  1.0
