# generated using pymatgen
data_BaCuB2O5
_symmetry_space_group_name_H-M   'P 1'
_cell_length_a   5.64900627
_cell_length_b   5.64900627
_cell_length_c   4.13514215
_cell_angle_alpha   86.17418314
_cell_angle_beta   93.82581686
_cell_angle_gamma   70.12009320
_symmetry_Int_Tables_number   1
_chemical_formula_structural   BaCuB2O5
_chemical_formula_sum   'Ba1 Cu1 B2 O5'
_cell_volume   123.25397015
_cell_formula_units_Z   1
loop_
 _symmetry_equiv_pos_site_id
 _symmetry_equiv_pos_as_xyz
  1  'x, y, z'
loop_
 _atom_site_type_symbol
 _atom_site_label
 _atom_site_symmetry_multiplicity
 _atom_site_fract_x
 _atom_site_fract_y
 _atom_site_fract_z
 _atom_site_occupancy
  Ba  Ba0  1  1.41433906  0.41433906  0.50000000  1.0
  Cu  Cu1  1  0.00175743  0.00175743  -0.00000000  1.0
  B  B2  1  0.89723976  -0.46153193  0.90536272  1.0
  B  B3  1  0.53846807  -0.10276024  0.09463728  1.0
  O  O4  1  0.94899738  -0.67358821  0.74601813  1.0
  O  O5  1  0.32641179  -0.05100262  0.25398187  1.0
  O  O6  1  0.64895492  -0.35104508  -0.00000000  1.0
  O  O7  1  1.08002344  0.64240815  0.96830016  1.0
  O  O8  1  1.64240815  0.08002344  0.03169984  1.0
