# generated using pymatgen
data_Sr3ScNiO6
_symmetry_space_group_name_H-M   'P 1'
_cell_length_a   6.68583775
_cell_length_b   6.68583775
_cell_length_c   6.68583775
_cell_angle_alpha   93.29378645
_cell_angle_beta   93.29378645
_cell_angle_gamma   93.29378645
_symmetry_Int_Tables_number   1
_chemical_formula_structural   Sr3ScNiO6
_chemical_formula_sum   'Sr6 Sc2 Ni2 O12'
_cell_volume   297.31926486
_cell_formula_units_Z   2
loop_
 _symmetry_equiv_pos_site_id
 _symmetry_equiv_pos_as_xyz
  1  'x, y, z'
loop_
 _atom_site_type_symbol
 _atom_site_label
 _atom_site_symmetry_multiplicity
 _atom_site_fract_x
 _atom_site_fract_y
 _atom_site_fract_z
 _atom_site_occupancy
  Sr  Sr0  1  0.87966566  1.25000000  -0.37966566  1.0
  Sr  Sr1  1  1.37966566  0.12033434  -0.25000000  1.0
  Sr  Sr2  1  0.75000000  0.37966566  0.12033434  1.0
  Sr  Sr3  1  1.25000000  0.62033434  -0.12033434  1.0
  Sr  Sr4  1  1.12033434  -0.25000000  0.37966566  1.0
  Sr  Sr5  1  0.62033434  0.87966566  0.25000000  1.0
  Sc  Sc6  1  0.25000000  0.25000000  0.25000000  1.0
  Sc  Sc7  1  0.75000000  0.75000000  0.75000000  1.0
  Ni  Ni8  1  0.50000000  0.50000000  0.50000000  1.0
  Ni  Ni9  1  0.00000000  0.00000000  0.00000000  1.0
  O  O10  1  1.21268282  0.40582958  -0.46602677  1.0
  O  O11  1  0.71268282  1.03397323  -0.09417042  1.0
  O  O12  1  0.96602677  0.09417042  0.28731718  1.0
  O  O13  1  1.46602677  -0.21268282  0.59417042  1.0
  O  O14  1  1.59417042  0.46602677  -0.21268282  1.0
  O  O15  1  1.09417042  0.28731718  -0.03397323  1.0
  O  O16  1  0.78731718  0.59417042  0.46602677  1.0
  O  O17  1  1.28731718  -0.03397323  0.09417042  1.0
  O  O18  1  0.53397323  1.21268282  -0.59417042  1.0
  O  O19  1  1.03397323  0.90582958  -0.28731718  1.0
  O  O20  1  0.90582958  0.71268282  0.03397323  1.0
  O  O21  1  0.40582958  0.53397323  0.21268282  1.0
