# generated using pymatgen
data_Mg3TiNi2
_symmetry_space_group_name_H-M   'P 1'
_cell_length_a   8.23001335
_cell_length_b   8.23001335
_cell_length_c   8.23001335
_cell_angle_alpha   60.00000000
_cell_angle_beta   60.00000000
_cell_angle_gamma   60.00000000
_symmetry_Int_Tables_number   1
_chemical_formula_structural   Mg3TiNi2
_chemical_formula_sum   'Mg12 Ti4 Ni8'
_cell_volume   394.17277224
_cell_formula_units_Z   4
loop_
 _symmetry_equiv_pos_site_id
 _symmetry_equiv_pos_as_xyz
  1  'x, y, z'
loop_
 _atom_site_type_symbol
 _atom_site_label
 _atom_site_symmetry_multiplicity
 _atom_site_fract_x
 _atom_site_fract_y
 _atom_site_fract_z
 _atom_site_occupancy
  Mg  Mg0  1  0.80710583  0.80710583  -0.80710583  1.0
  Mg  Mg1  1  0.19289417  1.19289417  -0.19289417  1.0
  Mg  Mg2  1  0.80710583  -0.80710583  0.80710583  1.0
  Mg  Mg3  1  0.19289417  -0.19289417  0.19289417  1.0
  Mg  Mg4  1  -0.80710583  0.80710583  0.80710583  1.0
  Mg  Mg5  1  -0.19289417  0.19289417  0.19289417  1.0
  Mg  Mg6  1  0.44289417  1.44289417  0.05710583  1.0
  Mg  Mg7  1  0.05710583  0.05710583  0.44289417  1.0
  Mg  Mg8  1  0.44289417  1.05710583  0.44289417  1.0
  Mg  Mg9  1  0.05710583  1.44289417  0.05710583  1.0
  Mg  Mg10  1  0.05710583  1.44289417  0.44289417  1.0
  Mg  Mg11  1  0.44289417  1.05710583  0.05710583  1.0
  Ti  Ti12  1  1.12500000  0.62500000  0.62500000  1.0
  Ti  Ti13  1  0.62500000  1.12500000  -0.37500000  1.0
  Ti  Ti14  1  -0.37500000  0.62500000  1.12500000  1.0
  Ti  Ti15  1  -0.37500000  0.62500000  0.62500000  1.0
  Ni  Ni16  1  -0.25922380  0.41974127  0.41974127  1.0
  Ni  Ni17  1  0.41974127  -0.25922380  0.41974127  1.0
  Ni  Ni18  1  0.41974127  1.41974127  -0.25922380  1.0
  Ni  Ni19  1  0.41974127  1.41974127  0.41974127  1.0
  Ni  Ni20  1  0.50922380  0.83025873  -0.16974127  1.0
  Ni  Ni21  1  0.83025873  0.50922380  0.83025873  1.0
  Ni  Ni22  1  0.83025873  0.83025873  -0.49077620  1.0
  Ni  Ni23  1  0.83025873  0.83025873  0.83025873  1.0
