# generated using pymatgen
data_Cs2Li3F5
_symmetry_space_group_name_H-M   'P 1'
_cell_length_a   10.48691826
_cell_length_b   10.48691826
_cell_length_c   4.03497694
_cell_angle_alpha   90.00000000
_cell_angle_beta   90.00000000
_cell_angle_gamma   157.36265287
_symmetry_Int_Tables_number   1
_chemical_formula_structural   Cs2Li3F5
_chemical_formula_sum   'Cs2 Li3 F5'
_cell_volume   170.79744473
_cell_formula_units_Z   1
loop_
 _symmetry_equiv_pos_site_id
 _symmetry_equiv_pos_as_xyz
  1  'x, y, z'
loop_
 _atom_site_type_symbol
 _atom_site_label
 _atom_site_symmetry_multiplicity
 _atom_site_fract_x
 _atom_site_fract_y
 _atom_site_fract_z
 _atom_site_occupancy
  Cs  Cs0  1  0.38181159  0.61818841  0.50000000  1.0
  Cs  Cs1  1  -0.27049074  0.27049074  0.00000000  1.0
  Li  Li2  1  0.12309977  0.87690023  0.50000000  1.0
  Li  Li3  1  -0.42433166  0.42433166  0.00000000  1.0
  Li  Li4  1  -0.01340720  0.01340720  0.00000000  1.0
  F  F5  1  -0.38943520  0.38943520  0.50000000  1.0
  F  F6  1  0.48805458  0.51194542  0.00000000  1.0
  F  F7  1  0.08409269  0.91590731  0.00000000  1.0
  F  F8  1  0.21842368  0.78157632  0.50000000  1.0
  F  F9  1  -0.10708751  0.10708751  0.00000000  1.0
