# generated using pymatgen
data_Ca2BHN2
_symmetry_space_group_name_H-M   'P 1'
_cell_length_a   9.18068049
_cell_length_b   3.67248753
_cell_length_c   10.01247423
_cell_angle_alpha   90.00000000
_cell_angle_beta   90.00000000
_cell_angle_gamma   90.00000000
_symmetry_Int_Tables_number   1
_chemical_formula_structural   Ca2BHN2
_chemical_formula_sum   'Ca8 B4 H4 N8'
_cell_volume   337.57992625
_cell_formula_units_Z   4
loop_
 _symmetry_equiv_pos_site_id
 _symmetry_equiv_pos_as_xyz
  1  'x, y, z'
loop_
 _atom_site_type_symbol
 _atom_site_label
 _atom_site_symmetry_multiplicity
 _atom_site_fract_x
 _atom_site_fract_y
 _atom_site_fract_z
 _atom_site_occupancy
  Ca  Ca0  1  0.97276603  0.75000000  0.65562622  1.0
  Ca  Ca1  1  0.47276603  0.75000000  0.84437378  1.0
  Ca  Ca2  1  0.02723397  0.25000000  0.34437378  1.0
  Ca  Ca3  1  0.52723397  0.25000000  0.15562622  1.0
  Ca  Ca4  1  0.82366318  0.75000000  0.02475084  1.0
  Ca  Ca5  1  0.32366318  0.75000000  0.47524916  1.0
  Ca  Ca6  1  0.17633682  0.25000000  0.97524916  1.0
  Ca  Ca7  1  0.67633682  0.25000000  0.52475084  1.0
  B  B8  1  0.76507684  0.75000000  0.32358807  1.0
  B  B9  1  0.26507684  0.75000000  0.17641193  1.0
  B  B10  1  0.23492316  0.25000000  0.67641193  1.0
  B  B11  1  0.73492316  0.25000000  0.82358807  1.0
  H  H12  1  0.54005309  0.75000000  0.60369843  1.0
  H  H13  1  0.04005309  0.75000000  0.89630157  1.0
  H  H14  1  0.45994691  0.25000000  0.39630157  1.0
  H  H15  1  0.95994691  0.25000000  0.10369843  1.0
  N  N16  1  0.84673872  0.75000000  0.43606628  1.0
  N  N17  1  0.34673872  0.75000000  0.06393372  1.0
  N  N18  1  0.15326128  0.25000000  0.56393372  1.0
  N  N19  1  0.65326128  0.25000000  0.93606628  1.0
  N  N20  1  0.67919485  0.75000000  0.21650061  1.0
  N  N21  1  0.17919485  0.75000000  0.28349939  1.0
  N  N22  1  0.32080515  0.25000000  0.78349939  1.0
  N  N23  1  0.82080515  0.25000000  0.71650061  1.0
