# generated using pymatgen
data_I2O5
_symmetry_space_group_name_H-M   'P 1'
_cell_length_a   11.02712674
_cell_length_b   5.22046487
_cell_length_c   8.43881918
_cell_angle_alpha   90.00000000
_cell_angle_beta   106.57866625
_cell_angle_gamma   90.00000000
_symmetry_Int_Tables_number   1
_chemical_formula_structural   I2O5
_chemical_formula_sum   'I8 O20'
_cell_volume   465.60015661
_cell_formula_units_Z   4
loop_
 _symmetry_equiv_pos_site_id
 _symmetry_equiv_pos_as_xyz
  1  'x, y, z'
loop_
 _atom_site_type_symbol
 _atom_site_label
 _atom_site_symmetry_multiplicity
 _atom_site_fract_x
 _atom_site_fract_y
 _atom_site_fract_z
 _atom_site_occupancy
  I  I0  1  0.37276421  0.61981159  0.77555323  1.0
  I  I1  1  0.37276421  0.88018841  0.27555323  1.0
  I  I2  1  0.62723579  0.11981159  0.72444677  1.0
  I  I3  1  0.62723579  0.38018841  0.22444677  1.0
  I  I4  1  0.87333116  0.65732479  0.66199374  1.0
  I  I5  1  0.87333116  0.84267521  0.16199374  1.0
  I  I6  1  0.12666884  0.15732479  0.83800626  1.0
  I  I7  1  0.12666884  0.34267521  0.33800626  1.0
  O  O8  1  0.50527514  0.85216239  0.65644211  1.0
  O  O9  1  0.50527514  0.64783761  0.15644211  1.0
  O  O10  1  0.49472486  0.35216239  0.84355789  1.0
  O  O11  1  0.49472486  0.14783761  0.34355789  1.0
  O  O12  1  0.99444067  0.83379553  0.84128960  1.0
  O  O13  1  0.99444067  0.66620447  0.34128960  1.0
  O  O14  1  0.00555933  0.33379553  0.65871040  1.0
  O  O15  1  0.00555933  0.16620447  0.15871040  1.0
  O  O16  1  0.80295759  0.47559096  0.80248999  1.0
  O  O17  1  0.80295759  0.02440904  0.30248999  1.0
  O  O18  1  0.19704241  -0.02440904  0.69751001  1.0
  O  O19  1  0.19704241  0.52440904  0.19751001  1.0
  O  O20  1  0.75187782  0.95855783  0.62276819  1.0
  O  O21  1  0.75187782  0.54144217  0.12276819  1.0
  O  O22  1  0.24812218  0.45855783  0.87723181  1.0
  O  O23  1  0.24812218  0.04144217  0.37723181  1.0
  O  O24  1  0.69515970  0.46059399  0.44702914  1.0
  O  O25  1  0.69515970  0.03940601  0.94702914  1.0
  O  O26  1  0.30484030  0.96059399  0.05297086  1.0
  O  O27  1  0.30484030  0.53940601  0.55297086  1.0
