# generated using pymatgen
data_HgH2NCl
_symmetry_space_group_name_H-M   'P 1'
_cell_length_a   6.86772144
_cell_length_b   4.44597562
_cell_length_c   5.16301529
_cell_angle_alpha   90.00000000
_cell_angle_beta   90.00000000
_cell_angle_gamma   90.00000000
_symmetry_Int_Tables_number   1
_chemical_formula_structural   HgH2NCl
_chemical_formula_sum   'Hg2 H4 N2 Cl2'
_cell_volume   157.64607389
_cell_formula_units_Z   2
loop_
 _symmetry_equiv_pos_site_id
 _symmetry_equiv_pos_as_xyz
  1  'x, y, z'
loop_
 _atom_site_type_symbol
 _atom_site_label
 _atom_site_symmetry_multiplicity
 _atom_site_fract_x
 _atom_site_fract_y
 _atom_site_fract_z
 _atom_site_occupancy
  Hg  Hg0  1  0.50000000  0.00000000  0.00000000  1.0
  Hg  Hg1  1  0.00000000  0.00000000  0.00000000  1.0
  H  H2  1  0.25000000  0.81459689  0.35354990  1.0
  H  H3  1  0.25000000  0.18540311  0.35354990  1.0
  H  H4  1  0.75000000  0.81459689  0.64645010  1.0
  H  H5  1  0.75000000  0.18540311  0.64645010  1.0
  N  N6  1  0.25000000  0.00000000  0.23240657  1.0
  N  N7  1  0.75000000  0.00000000  0.76759343  1.0
  Cl  Cl8  1  0.25000000  0.50000000  0.71156653  1.0
  Cl  Cl9  1  0.75000000  0.50000000  0.28843347  1.0
