# generated using pymatgen
data_Cr6Si7Ni16
_symmetry_space_group_name_H-M   'P 1'
_cell_length_a   7.82708508
_cell_length_b   7.82708508
_cell_length_c   7.82708508
_cell_angle_alpha   60.00000000
_cell_angle_beta   60.00000000
_cell_angle_gamma   60.00000000
_symmetry_Int_Tables_number   1
_chemical_formula_structural   Cr6Si7Ni16
_chemical_formula_sum   'Cr6 Si7 Ni16'
_cell_volume   339.06672027
_cell_formula_units_Z   1
loop_
 _symmetry_equiv_pos_site_id
 _symmetry_equiv_pos_as_xyz
  1  'x, y, z'
loop_
 _atom_site_type_symbol
 _atom_site_label
 _atom_site_symmetry_multiplicity
 _atom_site_fract_x
 _atom_site_fract_y
 _atom_site_fract_z
 _atom_site_occupancy
  Ni  Ni0  1  0.88237231  0.88237231  -0.11762769  1.0
  Ni  Ni1  1  1.11762769  0.11762769  0.64711692  1.0
  Ni  Ni2  1  1.11762769  0.64711692  0.11762769  1.0
  Ni  Ni3  1  0.35288308  0.88237231  -0.11762769  1.0
  Ni  Ni4  1  1.64711692  0.11762769  0.11762769  1.0
  Ni  Ni5  1  0.88237231  0.35288308  -0.11762769  1.0
  Ni  Ni6  1  0.88237231  0.88237231  -0.64711692  1.0
  Ni  Ni7  1  1.11762769  0.11762769  0.11762769  1.0
  Ni  Ni8  1  0.66558771  0.66558771  -0.33441229  1.0
  Ni  Ni9  1  1.33441229  0.33441229  -0.00323687  1.0
  Ni  Ni10  1  1.33441229  -0.00323687  0.33441229  1.0
  Ni  Ni11  1  1.00323687  0.66558771  -0.33441229  1.0
  Ni  Ni12  1  0.99676313  0.33441229  0.33441229  1.0
  Ni  Ni13  1  0.66558771  1.00323687  -0.33441229  1.0
  Ni  Ni14  1  0.66558771  0.66558771  0.00323687  1.0
  Ni  Ni15  1  1.33441229  0.33441229  0.33441229  1.0
  Cr  Cr16  1  -0.68790920  0.68790920  0.68790920  1.0
  Cr  Cr17  1  -0.31209080  0.31209080  0.68790920  1.0
  Cr  Cr18  1  0.68790920  0.68790920  -0.68790920  1.0
  Cr  Cr19  1  0.31209080  1.31209080  -0.31209080  1.0
  Cr  Cr20  1  0.31209080  -0.31209080  1.31209080  1.0
  Cr  Cr21  1  -0.31209080  0.31209080  0.31209080  1.0
  Si  Si22  1  0.00000000  0.00000000  0.00000000  1.0
  Si  Si23  1  1.50000000  -0.00000000  0.00000000  1.0
  Si  Si24  1  1.00000000  0.50000000  -0.50000000  1.0
  Si  Si25  1  -0.00000000  1.50000000  0.00000000  1.0
  Si  Si26  1  0.50000000  1.00000000  -0.50000000  1.0
  Si  Si27  1  0.00000000  -0.00000000  0.50000000  1.0
  Si  Si28  1  0.50000000  -0.50000000  1.00000000  1.0
