# generated using pymatgen
data_CaAlB3O7
_symmetry_space_group_name_H-M   'P 1'
_cell_length_a   7.13806600
_cell_length_b   7.13806600
_cell_length_c   4.41153494
_cell_angle_alpha   90.00000000
_cell_angle_beta   90.00000000
_cell_angle_gamma   68.43119144
_symmetry_Int_Tables_number   1
_chemical_formula_structural   CaAlB3O7
_chemical_formula_sum   'Ca2 Al2 B6 O14'
_cell_volume   209.03688967
_cell_formula_units_Z   2
loop_
 _symmetry_equiv_pos_site_id
 _symmetry_equiv_pos_as_xyz
  1  'x, y, z'
loop_
 _atom_site_type_symbol
 _atom_site_label
 _atom_site_symmetry_multiplicity
 _atom_site_fract_x
 _atom_site_fract_y
 _atom_site_fract_z
 _atom_site_occupancy
  Ca  Ca0  1  -0.00000000  1.00000000  0.50000000  1.0
  Ca  Ca1  1  -0.50000000  0.50000000  0.50000000  1.0
  Al  Al2  1  0.00000000  0.50000000  0.50000000  1.0
  Al  Al3  1  -0.50000000  1.00000000  0.50000000  1.0
  B  B4  1  0.13675480  1.63675480  0.04074569  1.0
  B  B5  1  -0.36324520  1.13675480  0.95925431  1.0
  B  B6  1  -0.13675480  1.36324520  0.95925431  1.0
  B  B7  1  -0.63675480  0.86324520  0.04074569  1.0
  B  B8  1  -0.25000000  0.75000000  0.00000000  1.0
  B  B9  1  0.25000000  0.25000000  0.00000000  1.0
  O  O10  1  -0.07337416  0.71961507  0.19875548  1.0
  O  O11  1  -0.57337416  1.21961507  0.80124452  1.0
  O  O12  1  -0.21961507  0.57337416  0.80124452  1.0
  O  O13  1  -0.71961507  1.07337416  0.19875548  1.0
  O  O14  1  0.21961507  0.42662584  0.19875548  1.0
  O  O15  1  -0.28038493  0.92662584  0.80124452  1.0
  O  O16  1  0.07337416  0.28038493  0.80124452  1.0
  O  O17  1  -0.42662584  0.78038493  0.19875548  1.0
  O  O18  1  -0.36834259  1.13165741  0.27636693  1.0
  O  O19  1  0.13165741  1.63165741  0.72363307  1.0
  O  O20  1  -0.63165741  0.86834259  0.72363307  1.0
  O  O21  1  -0.13165741  1.36834259  0.27636693  1.0
  O  O22  1  -0.75000000  0.75000000  0.16983765  1.0
  O  O23  1  -0.25000000  1.25000000  0.83016235  1.0
