# generated using pymatgen
data_Sr2B8Ru7
_symmetry_space_group_name_H-M   'P 1'
_cell_length_a   6.45674463
_cell_length_b   6.45674463
_cell_length_c   10.20737258
_cell_angle_alpha   90.00000000
_cell_angle_beta   90.00000000
_cell_angle_gamma   90.00000000
_symmetry_Int_Tables_number   1
_chemical_formula_structural   Sr2B8Ru7
_chemical_formula_sum   'Sr4 B16 Ru14'
_cell_volume   425.54078252
_cell_formula_units_Z   2
loop_
 _symmetry_equiv_pos_site_id
 _symmetry_equiv_pos_as_xyz
  1  'x, y, z'
loop_
 _atom_site_type_symbol
 _atom_site_label
 _atom_site_symmetry_multiplicity
 _atom_site_fract_x
 _atom_site_fract_y
 _atom_site_fract_z
 _atom_site_occupancy
  Sr  Sr0  1  0.39158644  0.76737594  0.00000000  1.0
  Sr  Sr1  1  0.76737594  0.60841356  0.50000000  1.0
  Sr  Sr2  1  0.60841356  0.23262406  0.00000000  1.0
  Sr  Sr3  1  0.23262406  0.39158644  0.50000000  1.0
  B  B4  1  0.00000000  0.00000000  0.84082687  1.0
  B  B5  1  0.00000000  0.00000000  0.15917313  1.0
  B  B6  1  0.00000000  0.00000000  0.34082687  1.0
  B  B7  1  0.00000000  0.00000000  0.65917313  1.0
  B  B8  1  0.77617516  0.60245129  0.83052634  1.0
  B  B9  1  0.77617516  0.60245129  0.16947366  1.0
  B  B10  1  0.60245129  0.22382484  0.33052634  1.0
  B  B11  1  0.60245129  0.22382484  0.66947366  1.0
  B  B12  1  0.22382484  0.39754871  0.83052634  1.0
  B  B13  1  0.22382484  0.39754871  0.16947366  1.0
  B  B14  1  0.39754871  0.77617516  0.33052634  1.0
  B  B15  1  0.39754871  0.77617516  0.66947366  1.0
  B  B16  1  0.00000000  0.50000000  0.91169862  1.0
  B  B17  1  0.00000000  0.50000000  0.08830138  1.0
  B  B18  1  0.50000000  0.00000000  0.41169862  1.0
  B  B19  1  0.50000000  0.00000000  0.58830138  1.0
  Ru  Ru20  1  0.70589785  0.89431880  0.74356167  1.0
  Ru  Ru21  1  0.70589785  0.89431880  0.25643833  1.0
  Ru  Ru22  1  0.89431880  0.29410215  0.24356167  1.0
  Ru  Ru23  1  0.89431880  0.29410215  0.75643833  1.0
  Ru  Ru24  1  0.29410215  0.10568120  0.74356167  1.0
  Ru  Ru25  1  0.29410215  0.10568120  0.25643833  1.0
  Ru  Ru26  1  0.10568120  0.70589785  0.24356167  1.0
  Ru  Ru27  1  0.10568120  0.70589785  0.75643833  1.0
  Ru  Ru28  1  0.90662183  0.78746937  0.00000000  1.0
  Ru  Ru29  1  0.78746937  0.09337817  0.50000000  1.0
  Ru  Ru30  1  0.09337817  0.21253063  0.00000000  1.0
  Ru  Ru31  1  0.21253063  0.90662183  0.50000000  1.0
  Ru  Ru32  1  0.50000000  0.50000000  0.75000000  1.0
  Ru  Ru33  1  0.50000000  0.50000000  0.25000000  1.0
