# generated using pymatgen
data_Ga2Fe2S5
_symmetry_space_group_name_H-M   'P 1'
_cell_length_a   3.59915159
_cell_length_b   3.59915159
_cell_length_c   31.97316985
_cell_angle_alpha   90.00000000
_cell_angle_beta   90.00000000
_cell_angle_gamma   120.00000000
_symmetry_Int_Tables_number   1
_chemical_formula_structural   Ga2Fe2S5
_chemical_formula_sum   'Ga4 Fe4 S10'
_cell_volume   358.68779859
_cell_formula_units_Z   2
loop_
 _symmetry_equiv_pos_site_id
 _symmetry_equiv_pos_as_xyz
  1  'x, y, z'
loop_
 _atom_site_type_symbol
 _atom_site_label
 _atom_site_symmetry_multiplicity
 _atom_site_fract_x
 _atom_site_fract_y
 _atom_site_fract_z
 _atom_site_occupancy
  Fe  Fe0  1  0.00000000  0.00000000  0.29424221  1.0
  Fe  Fe1  1  0.00000000  0.00000000  0.20575779  1.0
  Fe  Fe2  1  0.00000000  0.00000000  0.79424221  1.0
  Fe  Fe3  1  -0.00000000  -0.00000000  0.70575779  1.0
  Ga  Ga4  1  0.33333333  0.66666667  0.90367080  1.0
  Ga  Ga5  1  0.33333333  0.66666667  0.59632920  1.0
  Ga  Ga6  1  0.66666667  0.33333333  0.40367080  1.0
  Ga  Ga7  1  0.66666667  0.33333333  0.09632920  1.0
  S  S8  1  0.33333333  0.66666667  0.43723345  1.0
  S  S9  1  0.33333333  0.66666667  0.06276655  1.0
  S  S10  1  0.66666667  0.33333333  0.93723345  1.0
  S  S11  1  0.66666667  0.33333333  0.56276655  1.0
  S  S12  1  0.33333333  0.66666667  0.25000000  1.0
  S  S13  1  0.66666667  0.33333333  0.75000000  1.0
  S  S14  1  0.33333333  0.66666667  0.83352529  1.0
  S  S15  1  0.33333333  0.66666667  0.66647471  1.0
  S  S16  1  0.66666667  0.33333333  0.33352529  1.0
  S  S17  1  0.66666667  0.33333333  0.16647471  1.0
