# generated using pymatgen
data_Ga4Cu9
_symmetry_space_group_name_H-M   'P 1'
_cell_length_a   8.77399847
_cell_length_b   8.77399847
_cell_length_c   8.77399847
_cell_angle_alpha   90.00000000
_cell_angle_beta   90.00000000
_cell_angle_gamma   90.00000000
_symmetry_Int_Tables_number   1
_chemical_formula_structural   Ga4Cu9
_chemical_formula_sum   'Ga16 Cu36'
_cell_volume   675.44915640
_cell_formula_units_Z   4
loop_
 _symmetry_equiv_pos_site_id
 _symmetry_equiv_pos_as_xyz
  1  'x, y, z'
loop_
 _atom_site_type_symbol
 _atom_site_label
 _atom_site_symmetry_multiplicity
 _atom_site_fract_x
 _atom_site_fract_y
 _atom_site_fract_z
 _atom_site_occupancy
  Ga  Ga0  1  0.69089905  0.69089905  0.03388067  1.0
  Ga  Ga1  1  0.69089905  0.96611933  0.30910095  1.0
  Ga  Ga2  1  0.69089905  0.30910095  0.96611933  1.0
  Ga  Ga3  1  0.69089905  0.03388067  0.69089905  1.0
  Ga  Ga4  1  0.96611933  0.69089905  0.30910095  1.0
  Ga  Ga5  1  0.96611933  0.30910095  0.69089905  1.0
  Ga  Ga6  1  0.30910095  0.69089905  0.96611933  1.0
  Ga  Ga7  1  0.30910095  0.96611933  0.69089905  1.0
  Ga  Ga8  1  0.30910095  0.30910095  0.03388067  1.0
  Ga  Ga9  1  0.30910095  0.03388067  0.30910095  1.0
  Ga  Ga10  1  0.03388067  0.69089905  0.69089905  1.0
  Ga  Ga11  1  0.03388067  0.30910095  0.30910095  1.0
  Ga  Ga12  1  0.37587602  0.37587602  0.62412398  1.0
  Ga  Ga13  1  0.37587602  0.62412398  0.37587602  1.0
  Ga  Ga14  1  0.62412398  0.37587602  0.37587602  1.0
  Ga  Ga15  1  0.62412398  0.62412398  0.62412398  1.0
  Cu  Cu16  1  0.81749878  0.81749878  0.52887175  1.0
  Cu  Cu17  1  0.81749878  0.47112825  0.18250122  1.0
  Cu  Cu18  1  0.81749878  0.18250122  0.47112825  1.0
  Cu  Cu19  1  0.81749878  0.52887175  0.81749878  1.0
  Cu  Cu20  1  0.47112825  0.81749878  0.18250122  1.0
  Cu  Cu21  1  0.47112825  0.18250122  0.81749878  1.0
  Cu  Cu22  1  0.18250122  0.81749878  0.47112825  1.0
  Cu  Cu23  1  0.18250122  0.47112825  0.81749878  1.0
  Cu  Cu24  1  0.18250122  0.18250122  0.52887175  1.0
  Cu  Cu25  1  0.18250122  0.52887175  0.18250122  1.0
  Cu  Cu26  1  0.52887175  0.81749878  0.81749878  1.0
  Cu  Cu27  1  0.52887175  0.18250122  0.18250122  1.0
  Cu  Cu28  1  0.85560672  0.50000000  0.50000000  1.0
  Cu  Cu29  1  0.50000000  0.85560672  0.50000000  1.0
  Cu  Cu30  1  0.50000000  0.50000000  0.14439328  1.0
  Cu  Cu31  1  0.50000000  0.14439328  0.50000000  1.0
  Cu  Cu32  1  0.50000000  0.50000000  0.85560672  1.0
  Cu  Cu33  1  0.14439328  0.50000000  0.50000000  1.0
  Cu  Cu34  1  0.64456234  0.00000000  0.00000000  1.0
  Cu  Cu35  1  0.00000000  0.64456234  0.00000000  1.0
  Cu  Cu36  1  0.00000000  0.00000000  0.35543766  1.0
  Cu  Cu37  1  0.00000000  0.35543766  0.00000000  1.0
  Cu  Cu38  1  0.00000000  0.00000000  0.64456234  1.0
  Cu  Cu39  1  0.35543766  0.00000000  0.00000000  1.0
  Cu  Cu40  1  0.89520537  0.89520537  0.10479463  1.0
  Cu  Cu41  1  0.89520537  0.10479463  0.89520537  1.0
  Cu  Cu42  1  0.10479463  0.89520537  0.89520537  1.0
  Cu  Cu43  1  0.10479463  0.10479463  0.10479463  1.0
  Cu  Cu44  1  0.66962048  0.66962048  0.33037952  1.0
  Cu  Cu45  1  0.66962048  0.33037952  0.66962048  1.0
  Cu  Cu46  1  0.33037952  0.66962048  0.66962048  1.0
  Cu  Cu47  1  0.33037952  0.33037952  0.33037952  1.0
  Cu  Cu48  1  0.17425037  0.17425037  0.82574963  1.0
  Cu  Cu49  1  0.17425037  0.82574963  0.17425037  1.0
  Cu  Cu50  1  0.82574963  0.17425037  0.17425037  1.0
  Cu  Cu51  1  0.82574963  0.82574963  0.82574963  1.0
