# generated using pymatgen
data_Hf9Re4As
_symmetry_space_group_name_H-M   'P 1'
_cell_length_a   8.62090209
_cell_length_b   8.62090209
_cell_length_c   8.63074859
_cell_angle_alpha   90.00000000
_cell_angle_beta   90.00000000
_cell_angle_gamma   120.00000000
_symmetry_Int_Tables_number   1
_chemical_formula_structural   Hf9Re4As
_chemical_formula_sum   'Hf18 Re8 As2'
_cell_volume   555.50058888
_cell_formula_units_Z   2
loop_
 _symmetry_equiv_pos_site_id
 _symmetry_equiv_pos_as_xyz
  1  'x, y, z'
loop_
 _atom_site_type_symbol
 _atom_site_label
 _atom_site_symmetry_multiplicity
 _atom_site_fract_x
 _atom_site_fract_y
 _atom_site_fract_z
 _atom_site_occupancy
  Hf  Hf0  1  0.19279792  0.80720208  0.45169222  1.0
  Hf  Hf1  1  0.19279792  0.38559585  0.45169222  1.0
  Hf  Hf2  1  0.61440415  0.80720208  0.45169222  1.0
  Hf  Hf3  1  0.80720208  0.19279792  0.54830778  1.0
  Hf  Hf4  1  0.80720208  0.61440415  0.54830778  1.0
  Hf  Hf5  1  0.38559585  0.19279792  0.54830778  1.0
  Hf  Hf6  1  0.80720208  0.19279792  0.95169222  1.0
  Hf  Hf7  1  0.80720208  0.61440415  0.95169222  1.0
  Hf  Hf8  1  0.38559585  0.19279792  0.95169222  1.0
  Hf  Hf9  1  0.19279792  0.80720208  0.04830778  1.0
  Hf  Hf10  1  0.19279792  0.38559585  0.04830778  1.0
  Hf  Hf11  1  0.61440415  0.80720208  0.04830778  1.0
  Hf  Hf12  1  0.54265230  0.45734770  0.25000000  1.0
  Hf  Hf13  1  0.54265230  0.08530459  0.25000000  1.0
  Hf  Hf14  1  0.91469541  0.45734770  0.25000000  1.0
  Hf  Hf15  1  0.45734770  0.54265230  0.75000000  1.0
  Hf  Hf16  1  0.45734770  0.91469541  0.75000000  1.0
  Hf  Hf17  1  0.08530459  0.54265230  0.75000000  1.0
  Re  Re18  1  0.89073029  0.10926971  0.25000000  1.0
  Re  Re19  1  0.89073029  0.78146058  0.25000000  1.0
  Re  Re20  1  0.21853942  0.10926971  0.25000000  1.0
  Re  Re21  1  0.10926971  0.89073029  0.75000000  1.0
  Re  Re22  1  0.10926971  0.21853942  0.75000000  1.0
  Re  Re23  1  0.78146058  0.89073029  0.75000000  1.0
  Re  Re24  1  0.00000000  0.00000000  0.50000000  1.0
  Re  Re25  1  0.00000000  0.00000000  0.00000000  1.0
  As  As26  1  0.33333333  0.66666667  0.25000000  1.0
  As  As27  1  0.66666667  0.33333333  0.75000000  1.0
