# generated using pymatgen
data_Na2Mg2H8Ru
_symmetry_space_group_name_H-M   'P 1'
_cell_length_a   5.38926216
_cell_length_b   11.11822150
_cell_length_c   4.63865365
_cell_angle_alpha   90.00000000
_cell_angle_beta   90.00000000
_cell_angle_gamma   90.00000000
_symmetry_Int_Tables_number   1
_chemical_formula_structural   Na2Mg2H8Ru
_chemical_formula_sum   'Na4 Mg4 H16 Ru2'
_cell_volume   277.94353656
_cell_formula_units_Z   2
loop_
 _symmetry_equiv_pos_site_id
 _symmetry_equiv_pos_as_xyz
  1  'x, y, z'
loop_
 _atom_site_type_symbol
 _atom_site_label
 _atom_site_symmetry_multiplicity
 _atom_site_fract_x
 _atom_site_fract_y
 _atom_site_fract_z
 _atom_site_occupancy
  Na  Na0  1  0.50185668  0.85921677  0.00000000  1.0
  Na  Na1  1  0.00185668  0.64078323  0.00000000  1.0
  Na  Na2  1  0.49814332  0.14078323  0.00000000  1.0
  Na  Na3  1  0.99814332  0.35921677  0.00000000  1.0
  Mg  Mg4  1  0.46169508  0.63168464  0.50000000  1.0
  Mg  Mg5  1  0.96169508  0.86831536  0.50000000  1.0
  Mg  Mg6  1  0.53830492  0.36831536  0.50000000  1.0
  Mg  Mg7  1  0.03830492  0.13168464  0.50000000  1.0
  H  H8  1  0.22638702  0.98688281  0.74742434  1.0
  H  H9  1  0.22638702  0.98688281  0.25257566  1.0
  H  H10  1  0.72638702  0.51311719  0.74742434  1.0
  H  H11  1  0.72638702  0.51311719  0.25257566  1.0
  H  H12  1  0.77361298  0.01311719  0.74742434  1.0
  H  H13  1  0.77361298  0.01311719  0.25257566  1.0
  H  H14  1  0.27361298  0.48688281  0.74742434  1.0
  H  H15  1  0.27361298  0.48688281  0.25257566  1.0
  H  H16  1  0.15006519  0.72128843  0.50000000  1.0
  H  H17  1  0.65006519  0.77871157  0.50000000  1.0
  H  H18  1  0.84993481  0.27871157  0.50000000  1.0
  H  H19  1  0.34993481  0.22128843  0.50000000  1.0
  H  H20  1  0.46259413  0.65241100  0.00000000  1.0
  H  H21  1  0.96259413  0.84758900  0.00000000  1.0
  H  H22  1  0.53740587  0.34758900  0.00000000  1.0
  H  H23  1  0.03740587  0.15241100  0.00000000  1.0
  Ru  Ru24  1  0.50000000  0.50000000  0.00000000  1.0
  Ru  Ru25  1  0.00000000  0.00000000  0.00000000  1.0
