# generated using pymatgen
data_Mn3Al9Si
_symmetry_space_group_name_H-M   'P 1'
_cell_length_a   7.48274964
_cell_length_b   7.48274964
_cell_length_c   7.64873608
_cell_angle_alpha   90.00000000
_cell_angle_beta   90.00000000
_cell_angle_gamma   120.00000000
_symmetry_Int_Tables_number   1
_chemical_formula_structural   Mn3Al9Si
_chemical_formula_sum   'Mn6 Al18 Si2'
_cell_volume   370.88796188
_cell_formula_units_Z   2
loop_
 _symmetry_equiv_pos_site_id
 _symmetry_equiv_pos_as_xyz
  1  'x, y, z'
loop_
 _atom_site_type_symbol
 _atom_site_label
 _atom_site_symmetry_multiplicity
 _atom_site_fract_x
 _atom_site_fract_y
 _atom_site_fract_z
 _atom_site_occupancy
  Si  Si0  1  0.00000000  0.00000000  0.50000000  1.0
  Si  Si1  1  0.00000000  0.00000000  0.00000000  1.0
  Mn  Mn2  1  0.11989401  0.88010599  0.25000000  1.0
  Mn  Mn3  1  0.11989401  0.23978803  0.25000000  1.0
  Mn  Mn4  1  0.88010599  0.11989401  0.75000000  1.0
  Mn  Mn5  1  0.88010599  0.76021197  0.75000000  1.0
  Mn  Mn6  1  0.76021197  0.88010599  0.25000000  1.0
  Mn  Mn7  1  0.23978803  0.11989401  0.75000000  1.0
  Al  Al8  1  0.19915419  0.80084581  0.93564701  1.0
  Al  Al9  1  0.19915419  0.80084581  0.56435299  1.0
  Al  Al10  1  0.19915419  0.39830838  0.93564701  1.0
  Al  Al11  1  0.19915419  0.39830838  0.56435299  1.0
  Al  Al12  1  0.80084581  0.19915419  0.43564701  1.0
  Al  Al13  1  0.80084581  0.19915419  0.06435299  1.0
  Al  Al14  1  0.80084581  0.60169162  0.43564701  1.0
  Al  Al15  1  0.80084581  0.60169162  0.06435299  1.0
  Al  Al16  1  0.60169162  0.80084581  0.93564701  1.0
  Al  Al17  1  0.60169162  0.80084581  0.56435299  1.0
  Al  Al18  1  0.39830838  0.19915419  0.43564701  1.0
  Al  Al19  1  0.39830838  0.19915419  0.06435299  1.0
  Al  Al20  1  0.45760975  0.54239025  0.25000000  1.0
  Al  Al21  1  0.45760975  0.91521949  0.25000000  1.0
  Al  Al22  1  0.54239025  0.45760975  0.75000000  1.0
  Al  Al23  1  0.54239025  0.08478051  0.75000000  1.0
  Al  Al24  1  0.08478051  0.54239025  0.25000000  1.0
  Al  Al25  1  0.91521949  0.45760975  0.75000000  1.0
