# generated using pymatgen
data_Ba2Hg
_symmetry_space_group_name_H-M   'P 1'
_cell_length_a   8.19246772
_cell_length_b   8.19246772
_cell_length_c   8.19246772
_cell_angle_alpha   149.88342111
_cell_angle_beta   149.88342111
_cell_angle_gamma   43.11255481
_symmetry_Int_Tables_number   1
_chemical_formula_structural   Ba2Hg
_chemical_formula_sum   'Ba2 Hg1'
_cell_volume   138.06940077
_cell_formula_units_Z   1
loop_
 _symmetry_equiv_pos_site_id
 _symmetry_equiv_pos_as_xyz
  1  'x, y, z'
loop_
 _atom_site_type_symbol
 _atom_site_label
 _atom_site_symmetry_multiplicity
 _atom_site_fract_x
 _atom_site_fract_y
 _atom_site_fract_z
 _atom_site_occupancy
  Ba  Ba0  1  0.62994786  0.62994786  1.00000000  1.0
  Ba  Ba1  1  0.37005214  0.37005214  -0.00000000  1.0
  Hg  Hg2  1  0.00000000  0.00000000  0.00000000  1.0
