# generated using pymatgen
data_Na4CO4
_symmetry_space_group_name_H-M   'P 1'
_cell_length_a   5.80417961
_cell_length_b   5.80417961
_cell_length_c   5.80417961
_cell_angle_alpha   100.03692740
_cell_angle_beta   100.03692740
_cell_angle_gamma   130.64982871
_symmetry_Int_Tables_number   1
_chemical_formula_structural   Na4CO4
_chemical_formula_sum   'Na4 C1 O4'
_cell_volume   134.80660164
_cell_formula_units_Z   1
loop_
 _symmetry_equiv_pos_site_id
 _symmetry_equiv_pos_as_xyz
  1  'x, y, z'
loop_
 _atom_site_type_symbol
 _atom_site_label
 _atom_site_symmetry_multiplicity
 _atom_site_fract_x
 _atom_site_fract_y
 _atom_site_fract_z
 _atom_site_occupancy
  Na  Na0  1  0.32200407  0.32200407  0.34787274  1.0
  Na  Na1  1  0.97413133  0.97413133  0.65212726  1.0
  Na  Na2  1  0.67799593  1.02586867  1.00000000  1.0
  Na  Na3  1  1.02586867  1.67799593  1.00000000  1.0
  C  C4  1  0.50000000  0.50000000  0.00000000  1.0
  O  O5  1  0.55725813  0.55725813  0.77720286  1.0
  O  O6  1  0.78005528  0.78005528  0.22279714  1.0
  O  O7  1  0.44274187  1.21994472  1.00000000  1.0
  O  O8  1  1.21994472  1.44274187  1.00000000  1.0
