# generated using pymatgen
data_SiP2H18(C3Cl2)2
_symmetry_space_group_name_H-M   'P 1'
_cell_length_a   7.05598435
_cell_length_b   8.76266837
_cell_length_c   13.72018536
_cell_angle_alpha   90.00000000
_cell_angle_beta   99.12732741
_cell_angle_gamma   90.00000000
_symmetry_Int_Tables_number   1
_chemical_formula_structural   SiP2H18(C3Cl2)2
_chemical_formula_sum   'Si2 P4 H36 C12 Cl8'
_cell_volume   837.56771720
_cell_formula_units_Z   2
loop_
 _symmetry_equiv_pos_site_id
 _symmetry_equiv_pos_as_xyz
  1  'x, y, z'
loop_
 _atom_site_type_symbol
 _atom_site_label
 _atom_site_symmetry_multiplicity
 _atom_site_fract_x
 _atom_site_fract_y
 _atom_site_fract_z
 _atom_site_occupancy
  Si  Si0  1  0.00000000  0.50000000  0.50000000  1.0
  Si  Si1  1  0.00000000  0.00000000  0.00000000  1.0
  P  P2  1  0.17394423  0.30386857  0.59638706  1.0
  P  P3  1  0.82605577  0.80386857  0.90361294  1.0
  P  P4  1  0.82605577  0.69613143  0.40361294  1.0
  P  P5  1  0.17394423  0.19613143  0.09638706  1.0
  H  H6  1  0.10507112  0.06360213  0.66981356  1.0
  H  H7  1  0.89492888  0.56360213  0.83018644  1.0
  H  H8  1  0.89492888  0.93639787  0.33018644  1.0
  H  H9  1  0.10507112  0.43639787  0.16981356  1.0
  H  H10  1  0.93988964  0.20919703  0.69267776  1.0
  H  H11  1  0.06011036  0.70919703  0.80732224  1.0
  H  H12  1  0.06011036  0.79080297  0.30732224  1.0
  H  H13  1  0.93988964  0.29080297  0.19267776  1.0
  H  H14  1  0.91456358  0.12157715  0.57356115  1.0
  H  H15  1  0.08543642  0.62157715  0.92643885  1.0
  H  H16  1  0.08543642  0.87842285  0.42643885  1.0
  H  H17  1  0.91456358  0.37842285  0.07356115  1.0
  H  H18  1  0.25609780  0.16041689  0.45900435  1.0
  H  H19  1  0.74390220  0.66041689  0.04099565  1.0
  H  H20  1  0.74390220  0.83958311  0.54099565  1.0
  H  H21  1  0.25609780  0.33958311  0.95900435  1.0
  H  H22  1  0.45440952  0.27222425  0.51642273  1.0
  H  H23  1  0.54559048  0.77222425  0.98357727  1.0
  H  H24  1  0.54559048  0.72777575  0.48357727  1.0
  H  H25  1  0.45440952  0.22777575  0.01642273  1.0
  H  H26  1  0.39224248  0.09896028  0.57410338  1.0
  H  H27  1  0.60775752  0.59896028  0.92589662  1.0
  H  H28  1  0.60775752  0.90103972  0.42589662  1.0
  H  H29  1  0.39224248  0.40103972  0.07410338  1.0
  H  H30  1  0.43570234  0.44469586  0.69016630  1.0
  H  H31  1  0.56429766  0.94469586  0.80983370  1.0
  H  H32  1  0.56429766  0.55530414  0.30983370  1.0
  H  H33  1  0.43570234  0.05530414  0.19016630  1.0
  H  H34  1  0.23260284  0.43457402  0.75292154  1.0
  H  H35  1  0.76739716  0.93457402  0.74707846  1.0
  H  H36  1  0.76739716  0.56542598  0.24707846  1.0
  H  H37  1  0.23260284  0.06542598  0.25292154  1.0
  H  H38  1  0.38640918  0.27165899  0.75197662  1.0
  H  H39  1  0.61359082  0.77165899  0.74802338  1.0
  H  H40  1  0.61359082  0.72834101  0.24802338  1.0
  H  H41  1  0.38640918  0.22834101  0.25197662  1.0
  C  C42  1  0.01751720  0.15982848  0.63714373  1.0
  C  C43  1  0.98248280  0.65982848  0.86285627  1.0
  C  C44  1  0.98248280  0.84017152  0.36285627  1.0
  C  C45  1  0.01751720  0.34017152  0.13714373  1.0
  C  C46  1  0.33588968  0.19836675  0.52996961  1.0
  C  C47  1  0.66411032  0.69836675  0.97003039  1.0
  C  C48  1  0.66411032  0.80163325  0.47003039  1.0
  C  C49  1  0.33588968  0.30163325  0.02996961  1.0
  C  C50  1  0.32247679  0.37006553  0.70924463  1.0
  C  C51  1  0.67752321  0.87006553  0.79075537  1.0
  C  C52  1  0.67752321  0.62993447  0.29075537  1.0
  C  C53  1  0.32247679  0.12993447  0.20924463  1.0
  Cl  Cl54  1  0.84298802  0.31357917  0.40739836  1.0
  Cl  Cl55  1  0.15701198  0.81357917  0.09260164  1.0
  Cl  Cl56  1  0.15701198  0.68642083  0.59260164  1.0
  Cl  Cl57  1  0.84298802  0.18642083  0.90739836  1.0
  Cl  Cl58  1  0.78246674  0.49179972  0.60217684  1.0
  Cl  Cl59  1  0.21753326  0.99179972  0.89782316  1.0
  Cl  Cl60  1  0.21753326  0.50820028  0.39782316  1.0
  Cl  Cl61  1  0.78246674  0.00820028  0.10217684  1.0
