# generated using pymatgen
data_K2B6H5NO2
_symmetry_space_group_name_H-M   'P 1'
_cell_length_a   5.97939270
_cell_length_b   8.20284882
_cell_length_c   9.01100943
_cell_angle_alpha   90.00000000
_cell_angle_beta   109.36471142
_cell_angle_gamma   90.00000000
_symmetry_Int_Tables_number   1
_chemical_formula_structural   K2B6H5NO2
_chemical_formula_sum   'K4 B12 H10 N2 O4'
_cell_volume   416.96879623
_cell_formula_units_Z   2
loop_
 _symmetry_equiv_pos_site_id
 _symmetry_equiv_pos_as_xyz
  1  'x, y, z'
loop_
 _atom_site_type_symbol
 _atom_site_label
 _atom_site_symmetry_multiplicity
 _atom_site_fract_x
 _atom_site_fract_y
 _atom_site_fract_z
 _atom_site_occupancy
  K  K0  1  0.29250390  0.75000000  0.58468632  1.0
  K  K1  1  0.70749610  0.25000000  0.41531368  1.0
  K  K2  1  0.00000000  0.00000000  0.00000000  1.0
  K  K3  1  0.00000000  0.50000000  0.00000000  1.0
  B  B4  1  0.79749736  0.85478025  0.29970802  1.0
  B  B5  1  0.79749736  0.64521975  0.29970802  1.0
  B  B6  1  0.20250264  0.35478025  0.70029198  1.0
  B  B7  1  0.20250264  0.14521975  0.70029198  1.0
  B  B8  1  0.49719835  0.35476997  0.70022470  1.0
  B  B9  1  0.49719835  0.14523003  0.70022470  1.0
  B  B10  1  0.50280165  0.85476997  0.29977530  1.0
  B  B11  1  0.50280165  0.64523003  0.29977530  1.0
  B  B12  1  0.72107398  0.75000000  0.44151987  1.0
  B  B13  1  0.27892602  0.25000000  0.55848013  1.0
  B  B14  1  0.58026390  0.75000000  0.15998915  1.0
  B  B15  1  0.41973610  0.25000000  0.84001085  1.0
  H  H16  1  0.93657609  0.95990254  0.29870007  1.0
  H  H17  1  0.93657609  0.54009746  0.29870007  1.0
  H  H18  1  0.06342391  0.45990254  0.70129993  1.0
  H  H19  1  0.06342391  0.04009746  0.70129993  1.0
  H  H20  1  0.63726533  0.45989548  0.70120483  1.0
  H  H21  1  0.63726533  0.04010452  0.70120483  1.0
  H  H22  1  0.36273467  0.95989548  0.29879517  1.0
  H  H23  1  0.36273467  0.54010452  0.29879517  1.0
  H  H24  1  0.79171173  0.75000000  0.58276971  1.0
  H  H25  1  0.20828827  0.25000000  0.41723029  1.0
  N  N26  1  0.49210335  0.75000000  0.98379431  1.0
  N  N27  1  0.50789665  0.25000000  0.01620569  1.0
  O  O28  1  0.63602083  0.75000000  0.90766410  1.0
  O  O29  1  0.36397917  0.25000000  0.09233590  1.0
  O  O30  1  0.27207065  0.75000000  0.90780327  1.0
  O  O31  1  0.72792935  0.25000000  0.09219673  1.0
