# generated using pymatgen
data_TaVP
_symmetry_space_group_name_H-M   'P 1'
_cell_length_a   6.41828064
_cell_length_b   3.39456660
_cell_length_c   7.68708341
_cell_angle_alpha   90.00000000
_cell_angle_beta   90.00000000
_cell_angle_gamma   90.00000000
_symmetry_Int_Tables_number   1
_chemical_formula_structural   TaVP
_chemical_formula_sum   'Ta4 V4 P4'
_cell_volume   167.48064703
_cell_formula_units_Z   4
loop_
 _symmetry_equiv_pos_site_id
 _symmetry_equiv_pos_as_xyz
  1  'x, y, z'
loop_
 _atom_site_type_symbol
 _atom_site_label
 _atom_site_symmetry_multiplicity
 _atom_site_fract_x
 _atom_site_fract_y
 _atom_site_fract_z
 _atom_site_occupancy
  Ta  Ta0  1  0.96389756  0.75000000  0.66697044  1.0
  Ta  Ta1  1  0.46389756  0.75000000  0.83302956  1.0
  Ta  Ta2  1  0.03610244  0.25000000  0.33302956  1.0
  Ta  Ta3  1  0.53610244  0.25000000  0.16697044  1.0
  V  V4  1  0.86144998  0.75000000  0.05798615  1.0
  V  V5  1  0.36144998  0.75000000  0.44201385  1.0
  V  V6  1  0.13855002  0.25000000  0.94201385  1.0
  V  V7  1  0.63855002  0.25000000  0.55798615  1.0
  P  P8  1  0.73718405  0.75000000  0.35939585  1.0
  P  P9  1  0.23718405  0.75000000  0.14060415  1.0
  P  P10  1  0.26281595  0.25000000  0.64060415  1.0
  P  P11  1  0.76281595  0.25000000  0.85939585  1.0
