# generated using pymatgen
data_RbMnO2
_symmetry_space_group_name_H-M   'P 1'
_cell_length_a   6.58083225
_cell_length_b   8.53964381
_cell_length_c   7.95806126
_cell_angle_alpha   103.06592954
_cell_angle_beta   101.71717523
_cell_angle_gamma   88.29728693
_symmetry_Int_Tables_number   1
_chemical_formula_structural   RbMnO2
_chemical_formula_sum   'Rb6 Mn6 O12'
_cell_volume   426.50882620
_cell_formula_units_Z   6
loop_
 _symmetry_equiv_pos_site_id
 _symmetry_equiv_pos_as_xyz
  1  'x, y, z'
loop_
 _atom_site_type_symbol
 _atom_site_label
 _atom_site_symmetry_multiplicity
 _atom_site_fract_x
 _atom_site_fract_y
 _atom_site_fract_z
 _atom_site_occupancy
  Rb  Rb0  1  0.98287664  0.73206559  -0.53796694  1.0
  Rb  Rb1  1  0.01712336  0.26793441  -0.46203306  1.0
  Rb  Rb2  1  0.83957907  0.38207474  -0.89360775  1.0
  Rb  Rb3  1  0.16042093  0.61792526  -0.10639225  1.0
  Rb  Rb4  1  0.81983419  0.96081030  -0.87502906  1.0
  Rb  Rb5  1  0.18016581  0.03918970  -0.12497094  1.0
  O  O6  1  0.79037641  0.79992925  -0.23915522  1.0
  O  O7  1  0.20962359  0.20007075  -0.76084478  1.0
  O  O8  1  0.22637466  0.86197700  -0.77343623  1.0
  O  O9  1  0.77362534  0.13802300  -0.22656377  1.0
  O  O10  1  0.22564593  0.53532470  -0.76936299  1.0
  O  O11  1  0.77435407  0.46467530  -0.23063701  1.0
  O  O12  1  0.39879870  0.78095810  -0.37088915  1.0
  O  O13  1  0.60120130  0.21904190  -0.62911085  1.0
  O  O14  1  0.60940659  0.55243469  -0.61979029  1.0
  O  O15  1  0.39059341  0.44756531  -0.38020971  1.0
  O  O16  1  0.60836074  0.89183807  -0.61445549  1.0
  O  O17  1  0.39163926  0.10816193  -0.38554451  1.0
  Mn  Mn18  1  0.59751368  0.61937759  -0.32163977  1.0
  Mn  Mn19  1  0.40248632  0.38062241  -0.67836023  1.0
  Mn  Mn20  1  0.41473888  0.71311739  -0.67889660  1.0
  Mn  Mn21  1  0.58526112  0.28688261  -0.32110340  1.0
  Mn  Mn22  1  0.60058737  0.95120462  -0.32839885  1.0
  Mn  Mn23  1  0.39941263  0.04879538  -0.67160115  1.0
