# generated using pymatgen
data_Na2Bi5AuO11
_symmetry_space_group_name_H-M   'P 1'
_cell_length_a   12.48192046
_cell_length_b   12.48192046
_cell_length_c   3.90892355
_cell_angle_alpha   90.00000000
_cell_angle_beta   90.00000000
_cell_angle_gamma   90.00000000
_symmetry_Int_Tables_number   1
_chemical_formula_structural   Na2Bi5AuO11
_chemical_formula_sum   'Na4 Bi10 Au2 O22'
_cell_volume   609.00379356
_cell_formula_units_Z   2
loop_
 _symmetry_equiv_pos_site_id
 _symmetry_equiv_pos_as_xyz
  1  'x, y, z'
loop_
 _atom_site_type_symbol
 _atom_site_label
 _atom_site_symmetry_multiplicity
 _atom_site_fract_x
 _atom_site_fract_y
 _atom_site_fract_z
 _atom_site_occupancy
  Na  Na0  1  0.79576869  0.70423131  0.00000000  1.0
  Na  Na1  1  0.29576869  0.79576869  0.00000000  1.0
  Na  Na2  1  0.20423131  0.29576869  0.00000000  1.0
  Na  Na3  1  0.70423131  0.20423131  0.00000000  1.0
  Bi  Bi4  1  0.26937964  0.54970281  0.50000000  1.0
  Bi  Bi5  1  0.76937964  0.95029719  0.50000000  1.0
  Bi  Bi6  1  0.45029719  0.26937964  0.50000000  1.0
  Bi  Bi7  1  0.95029719  0.23062036  0.50000000  1.0
  Bi  Bi8  1  0.73062036  0.45029719  0.50000000  1.0
  Bi  Bi9  1  0.23062036  0.04970281  0.50000000  1.0
  Bi  Bi10  1  0.54970281  0.73062036  0.50000000  1.0
  Bi  Bi11  1  0.04970281  0.76937964  0.50000000  1.0
  Bi  Bi12  1  0.50000000  0.00000000  0.00000000  1.0
  Bi  Bi13  1  0.00000000  0.50000000  0.00000000  1.0
  Au  Au14  1  0.50000000  0.50000000  0.00000000  1.0
  Au  Au15  1  0.00000000  0.00000000  0.00000000  1.0
  O  O16  1  0.50000000  0.00000000  0.50000000  1.0
  O  O17  1  0.00000000  0.50000000  0.50000000  1.0
  O  O18  1  0.49711085  0.82917542  0.00000000  1.0
  O  O19  1  0.99711085  0.67082458  0.00000000  1.0
  O  O20  1  0.17082458  0.49711085  -0.00000000  1.0
  O  O21  1  0.67082458  0.00288915  -0.00000000  1.0
  O  O22  1  0.50288915  0.17082458  0.00000000  1.0
  O  O23  1  0.00288915  0.32917542  0.00000000  1.0
  O  O24  1  0.82917542  0.50288915  -0.00000000  1.0
  O  O25  1  0.32917542  0.99711085  -0.00000000  1.0
  O  O26  1  0.37786988  0.60781476  0.00000000  1.0
  O  O27  1  0.87786988  0.89218524  0.00000000  1.0
  O  O28  1  0.39218524  0.37786988  0.00000000  1.0
  O  O29  1  0.89218524  0.12213012  0.00000000  1.0
  O  O30  1  0.62213012  0.39218524  0.00000000  1.0
  O  O31  1  0.12213012  0.10781476  0.00000000  1.0
  O  O32  1  0.60781476  0.62213012  0.00000000  1.0
  O  O33  1  0.10781476  0.87786988  0.00000000  1.0
  O  O34  1  0.28840452  0.21159548  0.50000000  1.0
  O  O35  1  0.78840452  0.28840452  0.50000000  1.0
  O  O36  1  0.71159548  0.78840452  0.50000000  1.0
  O  O37  1  0.21159548  0.71159548  0.50000000  1.0
