# generated using pymatgen
data_Cd(GaS2)2
_symmetry_space_group_name_H-M   'P 1'
_cell_length_a   6.53911262
_cell_length_b   6.53911262
_cell_length_c   6.53911262
_cell_angle_alpha   128.95704580
_cell_angle_beta   128.95704580
_cell_angle_gamma   75.07969869
_symmetry_Int_Tables_number   1
_chemical_formula_structural   Cd(GaS2)2
_chemical_formula_sum   'Cd1 Ga2 S4'
_cell_volume   164.62740600
_cell_formula_units_Z   1
loop_
 _symmetry_equiv_pos_site_id
 _symmetry_equiv_pos_as_xyz
  1  'x, y, z'
loop_
 _atom_site_type_symbol
 _atom_site_label
 _atom_site_symmetry_multiplicity
 _atom_site_fract_x
 _atom_site_fract_y
 _atom_site_fract_z
 _atom_site_occupancy
  Cd  Cd0  1  0.50000000  0.50000000  1.00000000  1.0
  Ga  Ga1  1  0.00000000  0.00000000  0.00000000  1.0
  Ga  Ga2  1  0.25000000  0.75000000  0.50000000  1.0
  S  S3  1  0.36385270  0.90229566  0.99543687  1.0
  S  S4  1  1.09770434  1.09314121  1.46155704  1.0
  S  S5  1  0.90685879  0.36841583  1.00456313  1.0
  S  S6  1  0.63158417  0.63614730  0.53844296  1.0
