# generated using pymatgen
data_Gd10C4Cl17
_symmetry_space_group_name_H-M   'P 1'
_cell_length_a   8.65970122
_cell_length_b   11.69134665
_cell_length_c   9.30021759
_cell_angle_alpha   105.08316588
_cell_angle_beta   109.70893699
_cell_angle_gamma   95.78151496
_symmetry_Int_Tables_number   1
_chemical_formula_structural   Gd10C4Cl17
_chemical_formula_sum   'Gd10 C4 Cl17'
_cell_volume   837.28481963
_cell_formula_units_Z   1
loop_
 _symmetry_equiv_pos_site_id
 _symmetry_equiv_pos_as_xyz
  1  'x, y, z'
loop_
 _atom_site_type_symbol
 _atom_site_label
 _atom_site_symmetry_multiplicity
 _atom_site_fract_x
 _atom_site_fract_y
 _atom_site_fract_z
 _atom_site_occupancy
  Gd  Gd0  1  -0.91272936  -0.72906572  -0.57266122  1.0
  Gd  Gd1  1  -0.08727064  -0.27093428  -0.42733878  1.0
  Gd  Gd2  1  -0.78055310  -0.69304144  -0.89962117  1.0
  Gd  Gd3  1  -0.21944690  -0.30695856  -0.10037883  1.0
  Gd  Gd4  1  -0.65196186  -0.43914411  -0.48541137  1.0
  Gd  Gd5  1  -0.34803814  -0.56085589  -0.51458863  1.0
  Gd  Gd6  1  -0.58269320  -0.86180018  -0.62787469  1.0
  Gd  Gd7  1  -0.41730680  -0.13819982  -0.37212531  1.0
  Gd  Gd8  1  -0.49150668  -0.34366704  -0.78312608  1.0
  Gd  Gd9  1  -0.50849332  -0.65633296  -0.21687392  1.0
  C  C10  1  -0.66537162  -0.66243258  -0.63454779  1.0
  C  C11  1  -0.33462838  -0.33756742  -0.36545221  1.0
  C  C12  1  -0.60127017  -0.65530080  -0.46958494  1.0
  C  C13  1  -0.39872983  -0.34469920  -0.53041506  1.0
  Cl  Cl14  1  -0.88739354  -0.95845510  -0.64683548  1.0
  Cl  Cl15  1  -0.11260646  -0.04154490  -0.35316452  1.0
  Cl  Cl16  1  -0.83270744  -0.71367241  -0.24036189  1.0
  Cl  Cl17  1  -0.16729256  -0.28632759  -0.75963811  1.0
  Cl  Cl18  1  -0.80712438  -0.44748935  -0.81932756  1.0
  Cl  Cl19  1  -0.19287562  -0.55251065  -0.18067244  1.0
  Cl  Cl20  1  -0.68830085  -0.90633894  -0.95110700  1.0
  Cl  Cl21  1  -0.31169915  -0.09366106  -0.04889300  1.0
  Cl  Cl22  1  -0.46317739  -0.88687125  -0.31419212  1.0
  Cl  Cl23  1  -0.53682261  -0.11312875  -0.68580788  1.0
  Cl  Cl24  1  -0.44819439  -0.58911545  -0.86825936  1.0
  Cl  Cl25  1  -0.55180561  -0.41088455  -0.13174064  1.0
  Cl  Cl26  1  -0.25507057  -0.78575660  -0.58449568  1.0
  Cl  Cl27  1  -0.74492943  -0.21424340  -0.41550432  1.0
  Cl  Cl28  1  -0.08090965  -0.75242873  -0.89032745  1.0
  Cl  Cl29  1  -0.91909035  -0.24757127  -0.10967255  1.0
  Cl  Cl30  1  0.00000000  -0.50000000  -0.50000000  1.0
