# generated using pymatgen
data_NaLi2(RuO2)6
_symmetry_space_group_name_H-M   'P 1'
_cell_length_a   9.46742676
_cell_length_b   5.58833263
_cell_length_c   9.84642461
_cell_angle_alpha   106.45775460
_cell_angle_beta   118.85467882
_cell_angle_gamma   89.29465660
_symmetry_Int_Tables_number   1
_chemical_formula_structural   NaLi2(RuO2)6
_chemical_formula_sum   'Na2 Li4 Ru12 O24'
_cell_volume   432.74854004
_cell_formula_units_Z   2
loop_
 _symmetry_equiv_pos_site_id
 _symmetry_equiv_pos_as_xyz
  1  'x, y, z'
loop_
 _atom_site_type_symbol
 _atom_site_label
 _atom_site_symmetry_multiplicity
 _atom_site_fract_x
 _atom_site_fract_y
 _atom_site_fract_z
 _atom_site_occupancy
  Na  Na0  1  -0.47645170  0.75481643  0.50648089  1.0
  Na  Na1  1  0.47645170  0.24518357  0.49351911  1.0
  Li  Li2  1  0.16193138  0.02871453  0.83143943  1.0
  Li  Li3  1  -0.16193138  0.97128547  0.16856057  1.0
  Li  Li4  1  0.17127568  0.51989891  0.83072763  1.0
  Li  Li5  1  -0.17127568  0.48010109  0.16927237  1.0
  Ru  Ru6  1  0.15662113  0.85954603  0.51924343  1.0
  Ru  Ru7  1  -0.15662113  0.14045397  0.48075657  1.0
  Ru  Ru8  1  0.52301207  0.82660688  0.85879811  1.0
  Ru  Ru9  1  -0.52301207  0.17339312  0.14120189  1.0
  Ru  Ru10  1  -0.51691664  0.71845305  0.13862043  1.0
  Ru  Ru11  1  0.51691664  0.28154695  0.86137957  1.0
  Ru  Ru12  1  -0.16360920  0.59410999  0.47993970  1.0
  Ru  Ru13  1  0.16360920  0.40589001  0.52006030  1.0
  Ru  Ru14  1  -0.14524872  0.52367634  0.83995671  1.0
  Ru  Ru15  1  0.14524872  0.47632366  0.16004329  1.0
  Ru  Ru16  1  -0.13540041  0.06927577  0.84071387  1.0
  Ru  Ru17  1  0.13540041  0.93072423  0.15928613  1.0
  O  O18  1  0.39821513  0.95942884  0.67448529  1.0
  O  O19  1  -0.39821513  0.04057116  0.32551471  1.0
  O  O20  1  -0.19739219  0.92950211  0.59822716  1.0
  O  O21  1  0.19739219  0.07049789  0.40177284  1.0
  O  O22  1  0.36119555  0.85752789  0.94819409  1.0
  O  O23  1  -0.36119555  0.14247211  0.05180591  1.0
  O  O24  1  0.02617479  0.82070981  0.90599204  1.0
  O  O25  1  -0.02617479  0.17929019  0.09400796  1.0
  O  O26  1  -0.09869791  0.80968016  0.37544007  1.0
  O  O27  1  0.09869791  0.19031984  0.62455993  1.0
  O  O28  1  0.70521606  0.78500133  0.80335589  1.0
  O  O29  1  -0.70521606  0.21499867  0.19664411  1.0
  O  O30  1  -0.67433416  0.74401139  0.22347260  1.0
  O  O31  1  0.67433416  0.25598861  0.77652740  1.0
  O  O32  1  0.08605929  0.68513335  0.63750802  1.0
  O  O33  1  -0.08605929  0.31486665  0.36249198  1.0
  O  O34  1  -0.40392407  0.52020375  0.29668946  1.0
  O  O35  1  0.40392407  0.47979625  0.70331054  1.0
  O  O36  1  -0.22966641  0.42290817  0.59826700  1.0
  O  O37  1  0.22966641  0.57709183  0.40173300  1.0
  O  O38  1  0.37591841  0.36434378  0.97459760  1.0
  O  O39  1  -0.37591841  0.63565622  0.02540240  1.0
  O  O40  1  0.04898087  0.33474867  0.90594751  1.0
  O  O41  1  -0.04898087  0.66525133  0.09405249  1.0
