# generated using pymatgen
data_Li2HfF6
_symmetry_space_group_name_H-M   'P 1'
_cell_length_a   5.03755801
_cell_length_b   5.03755801
_cell_length_c   4.67787091
_cell_angle_alpha   90.00000000
_cell_angle_beta   90.00000000
_cell_angle_gamma   120.00000000
_symmetry_Int_Tables_number   1
_chemical_formula_structural   Li2HfF6
_chemical_formula_sum   'Li2 Hf1 F6'
_cell_volume   102.80612388
_cell_formula_units_Z   1
loop_
 _symmetry_equiv_pos_site_id
 _symmetry_equiv_pos_as_xyz
  1  'x, y, z'
loop_
 _atom_site_type_symbol
 _atom_site_label
 _atom_site_symmetry_multiplicity
 _atom_site_fract_x
 _atom_site_fract_y
 _atom_site_fract_z
 _atom_site_occupancy
  Li  Li0  1  0.33333333  0.66666667  0.50000000  1.0
  Li  Li1  1  0.66666667  0.33333333  0.50000000  1.0
  Hf  Hf2  1  0.00000000  0.00000000  0.00000000  1.0
  F  F3  1  0.67516776  0.67516776  0.25419320  1.0
  F  F4  1  0.67516776  0.00000000  0.74580680  1.0
  F  F5  1  0.00000000  0.67516776  0.74580680  1.0
  F  F6  1  -0.00000000  0.32483224  0.25419320  1.0
  F  F7  1  0.32483224  0.32483224  0.74580680  1.0
  F  F8  1  0.32483224  0.00000000  0.25419320  1.0
