# generated using pymatgen
data_Al3Te3I
_symmetry_space_group_name_H-M   'P 1'
_cell_length_a   11.80556810
_cell_length_b   4.14615689
_cell_length_c   21.59532263
_cell_angle_alpha   90.00000000
_cell_angle_beta   90.00000000
_cell_angle_gamma   90.00000000
_symmetry_Int_Tables_number   1
_chemical_formula_structural   Al3Te3I
_chemical_formula_sum   'Al12 Te12 I4'
_cell_volume   1057.04218351
_cell_formula_units_Z   4
loop_
 _symmetry_equiv_pos_site_id
 _symmetry_equiv_pos_as_xyz
  1  'x, y, z'
loop_
 _atom_site_type_symbol
 _atom_site_label
 _atom_site_symmetry_multiplicity
 _atom_site_fract_x
 _atom_site_fract_y
 _atom_site_fract_z
 _atom_site_occupancy
  Al  Al0  1  0.96185501  0.75000000  0.59403897  1.0
  Al  Al1  1  0.46185501  0.75000000  0.90596103  1.0
  Al  Al2  1  0.03814499  0.25000000  0.40596103  1.0
  Al  Al3  1  0.53814499  0.25000000  0.09403897  1.0
  Al  Al4  1  0.81318642  0.75000000  0.12952114  1.0
  Al  Al5  1  0.31318642  0.75000000  0.37047886  1.0
  Al  Al6  1  0.18681358  0.25000000  0.87047886  1.0
  Al  Al7  1  0.68681358  0.25000000  0.62952114  1.0
  Al  Al8  1  0.83953777  0.75000000  0.49630588  1.0
  Al  Al9  1  0.33953777  0.75000000  0.00369412  1.0
  Al  Al10  1  0.16046223  0.25000000  0.50369412  1.0
  Al  Al11  1  0.66046223  0.25000000  0.99630588  1.0
  Te  Te12  1  0.90147677  0.75000000  0.37685792  1.0
  Te  Te13  1  0.40147677  0.75000000  0.12314208  1.0
  Te  Te14  1  0.09852323  0.25000000  0.62314208  1.0
  Te  Te15  1  0.59852323  0.25000000  0.87685792  1.0
  Te  Te16  1  0.80807597  0.75000000  0.00591918  1.0
  Te  Te17  1  0.30807597  0.75000000  0.49408082  1.0
  Te  Te18  1  0.19192403  0.25000000  -0.00591918  1.0
  Te  Te19  1  0.69192403  0.25000000  0.50591918  1.0
  Te  Te20  1  0.79717800  0.75000000  0.68092114  1.0
  Te  Te21  1  0.29717800  0.75000000  0.81907886  1.0
  Te  Te22  1  0.20282200  0.25000000  0.31907886  1.0
  Te  Te23  1  0.70282200  0.25000000  0.18092114  1.0
  I  I24  1  0.51662526  0.75000000  0.33402461  1.0
  I  I25  1  0.01662526  0.75000000  0.16597539  1.0
  I  I26  1  0.48337474  0.25000000  0.66597539  1.0
  I  I27  1  0.98337474  0.25000000  0.83402461  1.0
