# generated using pymatgen
data_Y4MgPt
_symmetry_space_group_name_H-M   'P 1'
_cell_length_a   9.79429007
_cell_length_b   9.79429007
_cell_length_c   9.79429007
_cell_angle_alpha   60.00000000
_cell_angle_beta   60.00000000
_cell_angle_gamma   60.00000000
_symmetry_Int_Tables_number   1
_chemical_formula_structural   Y4MgPt
_chemical_formula_sum   'Y16 Mg4 Pt4'
_cell_volume   664.36063105
_cell_formula_units_Z   4
loop_
 _symmetry_equiv_pos_site_id
 _symmetry_equiv_pos_as_xyz
  1  'x, y, z'
loop_
 _atom_site_type_symbol
 _atom_site_label
 _atom_site_symmetry_multiplicity
 _atom_site_fract_x
 _atom_site_fract_y
 _atom_site_fract_z
 _atom_site_occupancy
  Y  Y0  1  -0.34905855  0.65094145  0.65094145  1.0
  Y  Y1  1  1.04717565  0.65094145  -0.34905855  1.0
  Y  Y2  1  -0.34905855  0.65094145  1.04717565  1.0
  Y  Y3  1  0.65094145  1.04717565  -0.34905855  1.0
  Y  Y4  1  0.06543369  0.43456631  0.43456631  1.0
  Y  Y5  1  0.43456631  0.43456631  0.06543369  1.0
  Y  Y6  1  0.43456631  0.06543369  0.43456631  1.0
  Y  Y7  1  0.06543369  0.06543369  0.43456631  1.0
  Y  Y8  1  0.06543369  0.43456631  0.06543369  1.0
  Y  Y9  1  0.43456631  0.06543369  0.06543369  1.0
  Y  Y10  1  -0.81052810  0.81052810  0.81052810  1.0
  Y  Y11  1  -0.18947190  0.81052810  0.18947190  1.0
  Y  Y12  1  -0.18947190  0.18947190  0.81052810  1.0
  Y  Y13  1  0.18947190  1.18947190  -0.18947190  1.0
  Y  Y14  1  0.18947190  -0.18947190  0.18947190  1.0
  Y  Y15  1  -0.18947190  0.18947190  0.18947190  1.0
  Mg  Mg16  1  0.42014313  1.42014313  0.42014313  1.0
  Mg  Mg17  1  -0.26042939  0.42014313  0.42014313  1.0
  Mg  Mg18  1  0.42014313  1.42014313  -0.26042939  1.0
  Mg  Mg19  1  0.42014313  -0.26042939  0.42014313  1.0
  Pt  Pt20  1  0.85772884  0.85772884  -0.14227116  1.0
  Pt  Pt21  1  0.42681347  0.85772884  -0.14227116  1.0
  Pt  Pt22  1  0.85772884  0.85772884  -0.57318653  1.0
  Pt  Pt23  1  0.85772884  0.42681347  -0.14227116  1.0
