# generated using pymatgen
data_GePtS
_symmetry_space_group_name_H-M   'P 1'
_cell_length_a   5.93067433
_cell_length_b   5.96500281
_cell_length_c   5.90643445
_cell_angle_alpha   90.00000000
_cell_angle_beta   90.00000000
_cell_angle_gamma   90.00000000
_symmetry_Int_Tables_number   1
_chemical_formula_structural   GePtS
_chemical_formula_sum   'Ge4 Pt4 S4'
_cell_volume   208.94891351
_cell_formula_units_Z   4
loop_
 _symmetry_equiv_pos_site_id
 _symmetry_equiv_pos_as_xyz
  1  'x, y, z'
loop_
 _atom_site_type_symbol
 _atom_site_label
 _atom_site_symmetry_multiplicity
 _atom_site_fract_x
 _atom_site_fract_y
 _atom_site_fract_z
 _atom_site_occupancy
  Ge  Ge0  1  0.38565544  0.63131805  0.61241589  1.0
  Ge  Ge1  1  0.88565544  0.36868195  0.61241589  1.0
  Ge  Ge2  1  0.61434456  0.36868195  0.11241589  1.0
  Ge  Ge3  1  0.11434456  0.63131805  0.11241589  1.0
  Pt  Pt4  1  0.50128737  0.24812552  0.49818918  1.0
  Pt  Pt5  1  1.00128737  0.75187448  0.49818918  1.0
  Pt  Pt6  1  0.49871263  0.75187448  -0.00181082  1.0
  Pt  Pt7  1  -0.00128737  0.24812552  -0.00181082  1.0
  S  S8  1  0.38623805  0.13665203  0.88609493  1.0
  S  S9  1  0.88623805  0.86334797  0.88609493  1.0
  S  S10  1  0.61376195  0.86334797  0.38609493  1.0
  S  S11  1  0.11376195  0.13665203  0.38609493  1.0
