# generated using pymatgen
data_La3SiBr3
_symmetry_space_group_name_H-M   'P 1'
_cell_length_a   10.66045528
_cell_length_b   10.66045528
_cell_length_c   10.66045528
_cell_angle_alpha   109.47122063
_cell_angle_beta   109.47122063
_cell_angle_gamma   109.47122063
_symmetry_Int_Tables_number   1
_chemical_formula_structural   La3SiBr3
_chemical_formula_sum   'La12 Si4 Br12'
_cell_volume   932.62137992
_cell_formula_units_Z   4
loop_
 _symmetry_equiv_pos_site_id
 _symmetry_equiv_pos_as_xyz
  1  'x, y, z'
loop_
 _atom_site_type_symbol
 _atom_site_label
 _atom_site_symmetry_multiplicity
 _atom_site_fract_x
 _atom_site_fract_y
 _atom_site_fract_z
 _atom_site_occupancy
  La  La0  1  1.75000000  1.23964448  1.26035552  1.0
  La  La1  1  0.75000000  1.01035552  0.48964448  1.0
  La  La2  1  1.02071105  0.26035552  1.01035552  1.0
  La  La3  1  0.47928895  0.48964448  0.23964448  1.0
  La  La4  1  1.26035552  1.01035552  1.02071105  1.0
  La  La5  1  1.23964448  1.26035552  0.75000000  1.0
  La  La6  1  1.01035552  1.02071105  0.26035552  1.0
  La  La7  1  1.48964448  0.75000000  1.01035552  1.0
  La  La8  1  1.01035552  1.48964448  0.75000000  1.0
  La  La9  1  1.48964448  1.23964448  1.47928895  1.0
  La  La10  1  0.23964448  0.47928895  0.48964448  1.0
  La  La11  1  1.26035552  0.75000000  1.23964448  1.0
  Si  Si12  1  1.50000000  1.00000000  1.25000000  1.0
  Si  Si13  1  1.00000000  1.25000000  0.50000000  1.0
  Si  Si14  1  0.25000000  0.25000000  0.25000000  1.0
  Si  Si15  1  1.25000000  0.50000000  1.00000000  1.0
  Br  Br16  1  0.50742354  0.50371177  0.75371177  1.0
  Br  Br17  1  0.99257646  0.74628823  0.99628823  1.0
  Br  Br18  1  1.25000000  0.75371177  0.74628823  1.0
  Br  Br19  1  1.25000000  0.99628823  0.50371177  1.0
  Br  Br20  1  0.99628823  1.50371177  1.25000000  1.0
  Br  Br21  1  1.50371177  1.75371177  1.50742354  1.0
  Br  Br22  1  0.74628823  0.25000000  0.75371177  1.0
  Br  Br23  1  0.75371177  0.50742354  0.50371177  1.0
  Br  Br24  1  0.99628823  0.99257646  0.74628823  1.0
  Br  Br25  1  1.50371177  1.25000000  0.99628823  1.0
  Br  Br26  1  0.75371177  0.74628823  0.25000000  1.0
  Br  Br27  1  1.74628823  0.99628823  0.99257646  1.0
