# generated using pymatgen
data_Ca6Si3O13
_symmetry_space_group_name_H-M   'P 1'
_cell_length_a   12.94389379
_cell_length_b   7.07763236
_cell_length_c   6.85563483
_cell_angle_alpha   98.65461272
_cell_angle_beta   98.13995879
_cell_angle_gamma   90.16770097
_symmetry_Int_Tables_number   1
_chemical_formula_structural   Ca6Si3O13
_chemical_formula_sum   'Ca12 Si6 O26'
_cell_volume   614.46377266
_cell_formula_units_Z   2
loop_
 _symmetry_equiv_pos_site_id
 _symmetry_equiv_pos_as_xyz
  1  'x, y, z'
loop_
 _atom_site_type_symbol
 _atom_site_label
 _atom_site_symmetry_multiplicity
 _atom_site_fract_x
 _atom_site_fract_y
 _atom_site_fract_z
 _atom_site_occupancy
  Si  Si0  1  -0.88595606  -0.78595668  -0.81339732  1.0
  Si  Si1  1  -0.11404394  -0.21404332  -0.18660268  1.0
  Si  Si2  1  -0.50880973  -0.79727760  -0.71212020  1.0
  Si  Si3  1  -0.49119027  -0.20272240  -0.28787980  1.0
  Si  Si4  1  -0.09884918  -0.79289331  -0.62377818  1.0
  Si  Si5  1  -0.90115082  -0.20710669  -0.37622182  1.0
  O  O6  1  -0.91160389  -0.64715459  -0.98512777  1.0
  O  O7  1  -0.08839611  -0.35284541  -0.01487223  1.0
  O  O8  1  -0.82832569  -0.98631895  -0.88850801  1.0
  O  O9  1  -0.17167431  -0.01368105  -0.11149199  1.0
  O  O10  1  -0.48674615  -0.63300616  -0.84741735  1.0
  O  O11  1  -0.51325385  -0.36699384  -0.15258265  1.0
  O  O12  1  -0.57693553  -0.98644086  -0.83152195  1.0
  O  O13  1  -0.42306447  -0.01355914  -0.16847805  1.0
  O  O14  1  -0.17809510  -0.65464144  -0.75123587  1.0
  O  O15  1  -0.82190490  -0.34535856  -0.24876413  1.0
  O  O16  1  -1.00269535  -0.84341061  -0.76023564  1.0
  O  O17  1  0.00269535  -0.15658939  -0.23976436  1.0
  O  O18  1  -0.38831298  -0.85948952  -0.62746391  1.0
  O  O19  1  -0.61168702  -0.14051048  -0.37253609  1.0
  O  O20  1  -0.81057460  -0.68756775  -0.61076594  1.0
  O  O21  1  -0.18942540  -0.31243225  -0.38923406  1.0
  O  O22  1  -0.16526112  -0.99062051  -0.62293272  1.0
  O  O23  1  -0.83473888  -0.00937949  -0.37706728  1.0
  O  O24  1  -0.94748214  -0.30281259  -0.60258936  1.0
  O  O25  1  -0.05251786  -0.69718741  -0.39741064  1.0
  O  O26  1  -0.56898329  -0.71268802  -0.52253604  1.0
  O  O27  1  -0.43101671  -0.28731198  -0.47746396  1.0
  O  O28  1  -0.69272578  -0.31162806  -0.72371024  1.0
  O  O29  1  -0.30727422  -0.68837194  -0.27628976  1.0
  O  O30  1  -0.67844342  -0.71987899  -0.21084532  1.0
  O  O31  1  -0.32155658  -0.28012101  -0.78915468  1.0
  Ca  Ca32  1  -0.89285827  -0.30691369  -0.91004968  1.0
  Ca  Ca33  1  -0.10714173  -0.69308631  -0.08995032  1.0
  Ca  Ca34  1  -0.29465615  -0.97655177  -0.89389317  1.0
  Ca  Ca35  1  -0.70534385  -0.02344823  -0.10610683  1.0
  Ca  Ca36  1  -0.51491436  -0.30500103  -0.80846404  1.0
  Ca  Ca37  1  -0.48508564  -0.69499897  -0.19153596  1.0
  Ca  Ca38  1  -0.70528701  -0.97071924  -0.59623921  1.0
  Ca  Ca39  1  -0.29471299  -0.02928076  -0.40376079  1.0
  Ca  Ca40  1  -0.68455982  -0.46980696  -0.44683115  1.0
  Ca  Ca41  1  -0.31544018  -0.53019304  -0.55316885  1.0
  Ca  Ca42  1  -0.87540272  -0.69013695  -0.31029802  1.0
  Ca  Ca43  1  -0.12459728  -0.30986305  -0.68970198  1.0
