# generated using pymatgen
data_KVPO5
_symmetry_space_group_name_H-M   'P 1'
_cell_length_a   7.44703266
_cell_length_b   7.78090369
_cell_length_c   8.47934215
_cell_angle_alpha   90.00000000
_cell_angle_beta   90.00000000
_cell_angle_gamma   90.00000000
_symmetry_Int_Tables_number   1
_chemical_formula_structural   KVPO5
_chemical_formula_sum   'K4 V4 P4 O20'
_cell_volume   491.33246161
_cell_formula_units_Z   4
loop_
 _symmetry_equiv_pos_site_id
 _symmetry_equiv_pos_as_xyz
  1  'x, y, z'
loop_
 _atom_site_type_symbol
 _atom_site_label
 _atom_site_symmetry_multiplicity
 _atom_site_fract_x
 _atom_site_fract_y
 _atom_site_fract_z
 _atom_site_occupancy
  K  K0  1  0.88502945  0.95929058  0.76130888  1.0
  K  K1  1  0.38502945  0.54070942  0.23869112  1.0
  K  K2  1  0.11497055  0.45929058  0.73869112  1.0
  K  K3  1  0.61497055  0.04070942  0.26130888  1.0
  V  V4  1  0.38452338  0.94928987  0.88526582  1.0
  V  V5  1  0.88452338  0.55071013  0.11473418  1.0
  V  V6  1  0.61547662  0.44928987  0.61473418  1.0
  V  V7  1  0.11547662  0.05071013  0.38526582  1.0
  P  P8  1  0.37966701  0.81606332  0.59903983  1.0
  P  P9  1  0.87966701  0.68393668  0.40096017  1.0
  P  P10  1  0.62033299  0.31606332  0.90096017  1.0
  P  P11  1  0.12033299  0.18393668  0.09903983  1.0
  O  O12  1  0.46896977  0.41691750  0.81079440  1.0
  O  O13  1  0.96896977  0.08308250  0.18920560  1.0
  O  O14  1  0.53103023  0.91691750  0.68920560  1.0
  O  O15  1  0.03103023  0.58308250  0.31079440  1.0
  O  O16  1  0.43739485  0.63113216  0.55702195  1.0
  O  O17  1  0.93739485  0.86886784  0.44297805  1.0
  O  O18  1  0.56260515  0.13113216  0.94297805  1.0
  O  O19  1  0.06260515  0.36886784  0.05702195  1.0
  O  O20  1  0.42194067  0.81309214  0.02338762  1.0
  O  O21  1  0.92194067  0.68690786  0.97661238  1.0
  O  O22  1  0.57805933  0.31309214  0.47661238  1.0
  O  O23  1  0.07805933  0.18690786  0.52338762  1.0
  O  O24  1  0.22713544  0.82428706  0.72701959  1.0
  O  O25  1  0.72713544  0.67571294  0.27298041  1.0
  O  O26  1  0.77286456  0.32428706  0.77298041  1.0
  O  O27  1  0.27286456  0.17571294  0.22701959  1.0
  O  O28  1  0.82293968  0.59432920  0.55715186  1.0
  O  O29  1  0.32293968  0.90567080  0.44284814  1.0
  O  O30  1  0.17706032  0.09432920  0.94284814  1.0
  O  O31  1  0.67706032  0.40567080  0.05715186  1.0
