# generated using pymatgen
data_CaZn2(PO)2
_symmetry_space_group_name_H-M   'P 1'
_cell_length_a   4.49123428
_cell_length_b   4.49123428
_cell_length_c   7.00697135
_cell_angle_alpha   90.00000000
_cell_angle_beta   90.00000000
_cell_angle_gamma   120.00000000
_symmetry_Int_Tables_number   1
_chemical_formula_structural   CaZn2(PO)2
_chemical_formula_sum   'Ca1 Zn2 P2 O2'
_cell_volume   122.40309347
_cell_formula_units_Z   1
loop_
 _symmetry_equiv_pos_site_id
 _symmetry_equiv_pos_as_xyz
  1  'x, y, z'
loop_
 _atom_site_type_symbol
 _atom_site_label
 _atom_site_symmetry_multiplicity
 _atom_site_fract_x
 _atom_site_fract_y
 _atom_site_fract_z
 _atom_site_occupancy
  Ca  Ca0  1  0.00000000  0.00000000  0.00000000  1.0
  Zn  Zn1  1  0.33333333  0.66666667  0.25248306  1.0
  Zn  Zn2  1  0.66666667  0.33333333  0.74751694  1.0
  P  P3  1  0.33333333  0.66666667  0.74889097  1.0
  P  P4  1  0.66666667  0.33333333  0.25110903  1.0
  O  O5  1  0.33333333  0.66666667  0.52642895  1.0
  O  O6  1  0.66666667  0.33333333  0.47357105  1.0
