# generated using pymatgen
data_InH9(NCl)3
_symmetry_space_group_name_H-M   'P 1'
_cell_length_a   6.20503262
_cell_length_b   10.22213761
_cell_length_c   6.82018191
_cell_angle_alpha   87.73414171
_cell_angle_beta   83.29098593
_cell_angle_gamma   91.33535398
_symmetry_Int_Tables_number   1
_chemical_formula_structural   InH9(NCl)3
_chemical_formula_sum   'In2 H18 N6 Cl6'
_cell_volume   429.12707079
_cell_formula_units_Z   2
loop_
 _symmetry_equiv_pos_site_id
 _symmetry_equiv_pos_as_xyz
  1  'x, y, z'
loop_
 _atom_site_type_symbol
 _atom_site_label
 _atom_site_symmetry_multiplicity
 _atom_site_fract_x
 _atom_site_fract_y
 _atom_site_fract_z
 _atom_site_occupancy
  In  In0  1  -0.50000000  -0.50000000  -0.50000000  1.0
  In  In1  1  0.00000000  0.00000000  0.00000000  1.0
  H  H2  1  -0.77432101  -0.29007098  -0.57747801  1.0
  H  H3  1  -0.22567899  -0.70992902  -0.42252199  1.0
  H  H4  1  -0.78135830  -0.93901489  -0.67590772  1.0
  H  H5  1  -0.21864170  -0.06098511  -0.32409228  1.0
  H  H6  1  -0.77661820  -0.67145093  -0.25038833  1.0
  H  H7  1  -0.22338180  -0.32854907  -0.74961167  1.0
  H  H8  1  -0.80221059  -0.80131732  -0.80455553  1.0
  H  H9  1  -0.19778941  -0.19868268  -0.19544447  1.0
  H  H10  1  -0.60906038  -0.90218016  -0.87750552  1.0
  H  H11  1  -0.39093962  -0.09781984  -0.12249448  1.0
  H  H12  1  -0.46691087  -0.77444196  -0.44520128  1.0
  H  H13  1  -0.53308913  -0.22555804  -0.55479872  1.0
  H  H14  1  -0.29637229  -0.44519938  -0.89295508  1.0
  H  H15  1  -0.70362771  -0.55480062  -0.10704492  1.0
  H  H16  1  -0.29992697  -0.73192150  -0.64659470  1.0
  H  H17  1  -0.70007303  -0.26807850  -0.35340530  1.0
  H  H18  1  -0.10390224  -0.47151216  -0.74832863  1.0
  H  H19  1  -0.89609776  -0.52848784  -0.25167137  1.0
  N  N20  1  -0.76869379  -0.89891448  -0.81746025  1.0
  N  N21  1  -0.23130621  -0.10108552  -0.18253975  1.0
  N  N22  1  -0.74885905  -0.57190898  -0.24418186  1.0
  N  N23  1  -0.25114095  -0.42809102  -0.75581814  1.0
  N  N24  1  -0.35284184  -0.70485958  -0.50536000  1.0
  N  N25  1  -0.64715816  -0.29514042  -0.49464000  1.0
  Cl  Cl26  1  -0.76017626  -0.19975040  -1.01587429  1.0
  Cl  Cl27  1  -0.23982374  -0.80024960  0.01587429  1.0
  Cl  Cl28  1  -0.78372614  -0.89978007  -0.31926647  1.0
  Cl  Cl29  1  -0.21627386  -0.10021993  -0.68073353  1.0
  Cl  Cl30  1  -0.76676382  -0.57112714  -0.73753141  1.0
  Cl  Cl31  1  -0.23323618  -0.42887286  -0.26246859  1.0
