# generated using pymatgen
data_Ca2Mn(AsO5)2
_symmetry_space_group_name_H-M   'P 1'
_cell_length_a   5.68074959
_cell_length_b   14.69169804
_cell_length_c   5.40264817
_cell_angle_alpha   90.00000000
_cell_angle_beta   78.27805988
_cell_angle_gamma   90.00000000
_symmetry_Int_Tables_number   1
_chemical_formula_structural   Ca2Mn(AsO5)2
_chemical_formula_sum   'Ca4 Mn2 As4 O20'
_cell_volume   441.50067809
_cell_formula_units_Z   2
loop_
 _symmetry_equiv_pos_site_id
 _symmetry_equiv_pos_as_xyz
  1  'x, y, z'
loop_
 _atom_site_type_symbol
 _atom_site_label
 _atom_site_symmetry_multiplicity
 _atom_site_fract_x
 _atom_site_fract_y
 _atom_site_fract_z
 _atom_site_occupancy
  Ca  Ca0  1  0.51666138  0.34661256  0.66102180  1.0
  Ca  Ca1  1  0.48333862  0.84661256  0.83897820  1.0
  Ca  Ca2  1  0.48333862  0.65338744  0.33897820  1.0
  Ca  Ca3  1  0.51666138  0.15338744  0.16102180  1.0
  As  As4  1  0.89538213  0.36897759  0.02774240  1.0
  As  As5  1  0.10461787  0.86897759  0.47225760  1.0
  As  As6  1  0.10461787  0.63102241  0.97225760  1.0
  As  As7  1  0.89538213  0.13102241  0.52774240  1.0
  Mn  Mn8  1  -0.00000000  0.50000000  0.50000000  1.0
  Mn  Mn9  1  0.00000000  0.00000000  0.00000000  1.0
  O  O10  1  0.80423836  0.41784263  0.33093412  1.0
  O  O11  1  0.19576164  0.91784263  0.16906588  1.0
  O  O12  1  0.19576164  0.58215737  0.66906588  1.0
  O  O13  1  0.80423836  0.08215737  0.83093412  1.0
  O  O14  1  0.67481217  0.29059191  0.00657035  1.0
  O  O15  1  0.32518783  0.79059191  0.49342965  1.0
  O  O16  1  0.32518783  0.70940809  0.99342965  1.0
  O  O17  1  0.67481217  0.20940809  0.50657035  1.0
  O  O18  1  0.21281006  0.42259572  0.48869315  1.0
  O  O19  1  0.78718994  0.92259572  0.01130685  1.0
  O  O20  1  0.78718994  0.57740428  0.51130685  1.0
  O  O21  1  0.21281006  0.07740428  0.98869315  1.0
  O  O22  1  0.18202639  0.33095472  -0.03275244  1.0
  O  O23  1  0.81797361  0.83095472  0.53275244  1.0
  O  O24  1  0.81797361  0.66904528  1.03275244  1.0
  O  O25  1  0.18202639  0.16904528  0.46724756  1.0
  O  O26  1  0.81767469  0.45308928  0.81690249  1.0
  O  O27  1  0.18232531  0.95308928  0.68309751  1.0
  O  O28  1  0.18232531  0.54691072  0.18309751  1.0
  O  O29  1  0.81767469  0.04691072  0.31690249  1.0
