# generated using pymatgen
data_Re2Ni5Mo8
_symmetry_space_group_name_H-M   'P 1'
_cell_length_a   9.26843052
_cell_length_b   9.26843052
_cell_length_c   4.86084149
_cell_angle_alpha   90.00000000
_cell_angle_beta   90.00000000
_cell_angle_gamma   90.00000000
_symmetry_Int_Tables_number   1
_chemical_formula_structural   Re2Ni5Mo8
_chemical_formula_sum   'Re4 Ni10 Mo16'
_cell_volume   417.56477623
_cell_formula_units_Z   2
loop_
 _symmetry_equiv_pos_site_id
 _symmetry_equiv_pos_as_xyz
  1  'x, y, z'
loop_
 _atom_site_type_symbol
 _atom_site_label
 _atom_site_symmetry_multiplicity
 _atom_site_fract_x
 _atom_site_fract_y
 _atom_site_fract_z
 _atom_site_occupancy
  Re  Re0  1  0.09827494  0.90172506  0.50000000  1.0
  Re  Re1  1  0.90172506  0.09827494  0.50000000  1.0
  Re  Re2  1  0.40172506  0.40172506  0.00000000  1.0
  Re  Re3  1  0.59827494  0.59827494  0.00000000  1.0
  Ni  Ni4  1  0.50000000  0.50000000  0.50000000  1.0
  Ni  Ni5  1  0.00000000  0.00000000  0.00000000  1.0
  Ni  Ni6  1  0.43257343  0.24499792  0.50000000  1.0
  Ni  Ni7  1  0.56742657  0.75500208  0.50000000  1.0
  Ni  Ni8  1  0.06742657  0.74499792  0.00000000  1.0
  Ni  Ni9  1  0.93257343  0.25500208  0.00000000  1.0
  Ni  Ni10  1  0.24499792  0.43257343  0.50000000  1.0
  Ni  Ni11  1  0.75500208  0.56742657  0.50000000  1.0
  Ni  Ni12  1  0.74499792  0.06742657  0.00000000  1.0
  Ni  Ni13  1  0.25500208  0.93257343  0.00000000  1.0
  Mo  Mo14  1  0.36893165  0.96218367  0.50000000  1.0
  Mo  Mo15  1  0.63106835  0.03781633  0.50000000  1.0
  Mo  Mo16  1  0.13106835  0.46218367  0.00000000  1.0
  Mo  Mo17  1  0.86893165  0.53781633  0.00000000  1.0
  Mo  Mo18  1  0.96218367  0.36893165  0.50000000  1.0
  Mo  Mo19  1  0.03781633  0.63106835  0.50000000  1.0
  Mo  Mo20  1  0.46218367  0.13106835  0.00000000  1.0
  Mo  Mo21  1  0.53781633  0.86893165  0.00000000  1.0
  Mo  Mo22  1  0.31674648  0.68325352  0.25270848  1.0
  Mo  Mo23  1  0.68325352  0.31674648  0.25270848  1.0
  Mo  Mo24  1  0.18325352  0.18325352  0.75270848  1.0
  Mo  Mo25  1  0.81674648  0.81674648  0.75270848  1.0
  Mo  Mo26  1  0.68325352  0.31674648  0.74729152  1.0
  Mo  Mo27  1  0.31674648  0.68325352  0.74729152  1.0
  Mo  Mo28  1  0.81674648  0.81674648  0.24729152  1.0
  Mo  Mo29  1  0.18325352  0.18325352  0.24729152  1.0
