# generated using pymatgen
data_La5(In2Ir)2
_symmetry_space_group_name_H-M   'P 1'
_cell_length_a   8.41789104
_cell_length_b   18.77631664
_cell_length_c   3.88900269
_cell_angle_alpha   90.00000000
_cell_angle_beta   90.00000000
_cell_angle_gamma   90.00000000
_symmetry_Int_Tables_number   1
_chemical_formula_structural   La5(In2Ir)2
_chemical_formula_sum   'La10 In8 Ir4'
_cell_volume   614.68404958
_cell_formula_units_Z   2
loop_
 _symmetry_equiv_pos_site_id
 _symmetry_equiv_pos_as_xyz
  1  'x, y, z'
loop_
 _atom_site_type_symbol
 _atom_site_label
 _atom_site_symmetry_multiplicity
 _atom_site_fract_x
 _atom_site_fract_y
 _atom_site_fract_z
 _atom_site_occupancy
  La  La0  1  0.38476053  0.90892135  0.00000000  1.0
  La  La1  1  0.88476053  0.59107865  0.00000000  1.0
  La  La2  1  0.61523947  0.09107865  0.00000000  1.0
  La  La3  1  0.11523947  0.40892135  0.00000000  1.0
  La  La4  1  0.25340109  0.72333854  0.00000000  1.0
  La  La5  1  0.75340109  0.77666146  0.00000000  1.0
  La  La6  1  0.74659891  0.27666146  0.00000000  1.0
  La  La7  1  0.24659891  0.22333854  0.00000000  1.0
  La  La8  1  0.50000000  0.50000000  0.00000000  1.0
  La  La9  1  0.00000000  0.00000000  0.00000000  1.0
  In  In10  1  0.20969756  0.56966148  0.50000000  1.0
  In  In11  1  0.70969756  0.93033852  0.50000000  1.0
  In  In12  1  0.79030244  0.43033852  0.50000000  1.0
  In  In13  1  0.29030244  0.06966148  0.50000000  1.0
  In  In14  1  0.05438843  0.85112567  0.50000000  1.0
  In  In15  1  0.55438843  0.64887433  0.50000000  1.0
  In  In16  1  0.94561157  0.14887433  0.50000000  1.0
  In  In17  1  0.44561157  0.35112567  0.50000000  1.0
  Ir  Ir18  1  0.49907998  0.80494424  0.50000000  1.0
  Ir  Ir19  1  0.99907998  0.69505576  0.50000000  1.0
  Ir  Ir20  1  0.50092002  0.19505576  0.50000000  1.0
  Ir  Ir21  1  0.00092002  0.30494424  0.50000000  1.0
