# generated using pymatgen
data_La3(VN3)2
_symmetry_space_group_name_H-M   'P 1'
_cell_length_a   10.40631866
_cell_length_b   10.40631866
_cell_length_c   10.40631866
_cell_angle_alpha   158.35061770
_cell_angle_beta   158.35061770
_cell_angle_gamma   30.80471911
_symmetry_Int_Tables_number   1
_chemical_formula_structural   La3(VN3)2
_chemical_formula_sum   'La3 V2 N6'
_cell_volume   153.27767950
_cell_formula_units_Z   1
loop_
 _symmetry_equiv_pos_site_id
 _symmetry_equiv_pos_as_xyz
  1  'x, y, z'
loop_
 _atom_site_type_symbol
 _atom_site_label
 _atom_site_symmetry_multiplicity
 _atom_site_fract_x
 _atom_site_fract_y
 _atom_site_fract_z
 _atom_site_occupancy
  La  La0  1  0.82250282  0.82250282  1.00000000  1.0
  La  La1  1  0.17749718  0.17749718  0.00000000  1.0
  La  La2  1  0.00000000  0.00000000  0.00000000  1.0
  V  V3  1  0.60344846  0.60344846  1.00000000  1.0
  V  V4  1  0.39655154  0.39655154  0.00000000  1.0
  N  N5  1  0.41297005  0.91297005  0.50000000  1.0
  N  N6  1  0.58702995  0.08702995  0.50000000  1.0
  N  N7  1  0.91297005  0.41297005  0.50000000  1.0
  N  N8  1  0.08702995  0.58702995  0.50000000  1.0
  N  N9  1  0.69309707  0.69309707  1.00000000  1.0
  N  N10  1  0.30690293  0.30690293  0.00000000  1.0
