# generated using pymatgen
data_KIrF6
_symmetry_space_group_name_H-M   'P 1'
_cell_length_a   5.13420005
_cell_length_b   5.13420005
_cell_length_c   5.13420005
_cell_angle_alpha   97.72393776
_cell_angle_beta   97.72393776
_cell_angle_gamma   97.72393776
_symmetry_Int_Tables_number   1
_chemical_formula_structural   KIrF6
_chemical_formula_sum   'K1 Ir1 F6'
_cell_volume   131.28122705
_cell_formula_units_Z   1
loop_
 _symmetry_equiv_pos_site_id
 _symmetry_equiv_pos_as_xyz
  1  'x, y, z'
loop_
 _atom_site_type_symbol
 _atom_site_label
 _atom_site_symmetry_multiplicity
 _atom_site_fract_x
 _atom_site_fract_y
 _atom_site_fract_z
 _atom_site_occupancy
  K  K0  1  0.50000000  0.50000000  0.50000000  1.0
  Ir  Ir1  1  0.00000000  0.00000000  0.00000000  1.0
  F  F2  1  0.75893777  0.71477868  0.08023662  1.0
  F  F3  1  1.28522132  -0.08023662  0.24106223  1.0
  F  F4  1  0.91976338  0.24106223  0.28522132  1.0
  F  F5  1  1.24106223  0.28522132  -0.08023662  1.0
  F  F6  1  0.71477868  1.08023662  -0.24106223  1.0
  F  F7  1  1.08023662  0.75893777  -0.28522132  1.0
