# generated using pymatgen
data_ZnIn2(SeO3)4
_symmetry_space_group_name_H-M   'P 1'
_cell_length_a   8.95652967
_cell_length_b   4.92716120
_cell_length_c   15.80301578
_cell_angle_alpha   90.00000000
_cell_angle_beta   111.99135324
_cell_angle_gamma   90.00000000
_symmetry_Int_Tables_number   1
_chemical_formula_structural   ZnIn2(SeO3)4
_chemical_formula_sum   'Zn2 In4 Se8 O24'
_cell_volume   646.64935549
_cell_formula_units_Z   2
loop_
 _symmetry_equiv_pos_site_id
 _symmetry_equiv_pos_as_xyz
  1  'x, y, z'
loop_
 _atom_site_type_symbol
 _atom_site_label
 _atom_site_symmetry_multiplicity
 _atom_site_fract_x
 _atom_site_fract_y
 _atom_site_fract_z
 _atom_site_occupancy
  Zn  Zn0  1  0.00000000  0.50000000  0.50000000  1.0
  Zn  Zn1  1  0.00000000  0.00000000  0.00000000  1.0
  In  In2  1  0.84977832  0.97033497  0.28453564  1.0
  In  In3  1  0.84977832  0.52966503  0.78453564  1.0
  In  In4  1  0.15022168  0.47033497  0.21546436  1.0
  In  In5  1  0.15022168  0.02966503  0.71546436  1.0
  Se  Se6  1  0.66724232  0.50080327  0.36923317  1.0
  Se  Se7  1  0.66724232  -0.00080327  0.86923317  1.0
  Se  Se8  1  0.33275768  1.00080327  0.13076683  1.0
  Se  Se9  1  0.33275768  0.49919673  0.63076683  1.0
  Se  Se10  1  0.78342044  0.43095763  0.10978848  1.0
  Se  Se11  1  0.78342044  0.06904237  0.60978848  1.0
  Se  Se12  1  0.21657956  0.93095763  0.39021152  1.0
  Se  Se13  1  0.21657956  0.56904237  0.89021152  1.0
  O  O14  1  0.71390604  0.18212852  0.16116250  1.0
  O  O15  1  0.71390604  0.31787148  0.66116250  1.0
  O  O16  1  0.28609396  0.68212852  0.33883750  1.0
  O  O17  1  0.28609396  0.81787148  0.83883750  1.0
  O  O18  1  0.34913195  0.23651599  0.21432795  1.0
  O  O19  1  0.34913195  0.26348401  0.71432795  1.0
  O  O20  1  0.65086805  0.73651599  0.28567205  1.0
  O  O21  1  0.65086805  0.76348401  0.78567205  1.0
  O  O22  1  0.77805797  0.66120436  0.46931984  1.0
  O  O23  1  0.77805797  0.83879564  0.96931984  1.0
  O  O24  1  0.22194203  0.16120436  0.03068016  1.0
  O  O25  1  0.22194203  0.33879564  0.53068016  1.0
  O  O26  1  0.83142014  0.29515841  0.37418404  1.0
  O  O27  1  0.83142014  0.20484159  0.87418404  1.0
  O  O28  1  0.16857986  0.79515841  0.12581596  1.0
  O  O29  1  0.16857986  0.70484159  0.62581596  1.0
  O  O30  1  0.90522141  0.63544971  0.20102305  1.0
  O  O31  1  0.90522141  0.86455029  0.70102305  1.0
  O  O32  1  0.09477859  0.13544971  0.29897695  1.0
  O  O33  1  0.09477859  0.36455029  0.79897695  1.0
  O  O34  1  0.95226528  0.29301353  0.09696732  1.0
  O  O35  1  0.95226528  0.20698647  0.59696732  1.0
  O  O36  1  0.04773472  0.79301353  0.40303268  1.0
  O  O37  1  0.04773472  0.70698647  0.90303268  1.0
