# generated using pymatgen
data_Tl2Pd
_symmetry_space_group_name_H-M   'P 1'
_cell_length_a   5.69571418
_cell_length_b   5.69571418
_cell_length_c   5.69571418
_cell_angle_alpha   105.50144698
_cell_angle_beta   105.50144698
_cell_angle_gamma   117.74094012
_symmetry_Int_Tables_number   1
_chemical_formula_structural   Tl2Pd
_chemical_formula_sum   'Tl4 Pd2'
_cell_volume   139.98839586
_cell_formula_units_Z   2
loop_
 _symmetry_equiv_pos_site_id
 _symmetry_equiv_pos_as_xyz
  1  'x, y, z'
loop_
 _atom_site_type_symbol
 _atom_site_label
 _atom_site_symmetry_multiplicity
 _atom_site_fract_x
 _atom_site_fract_y
 _atom_site_fract_z
 _atom_site_occupancy
  Tl  Tl0  1  0.83315007  0.33315007  1.16630015  1.0
  Tl  Tl1  1  0.66684993  0.83315007  0.50000000  1.0
  Tl  Tl2  1  0.33315007  0.16684993  0.50000000  1.0
  Tl  Tl3  1  1.16684993  0.66684993  0.83369985  1.0
  Pd  Pd4  1  0.25000000  0.25000000  0.00000000  1.0
  Pd  Pd5  1  0.75000000  0.75000000  0.00000000  1.0
