# generated using pymatgen
data_Nb7As4
_symmetry_space_group_name_H-M   'P 1'
_cell_length_a   7.94717955
_cell_length_b   7.94717955
_cell_length_c   14.27215930
_cell_angle_alpha   75.61114538
_cell_angle_beta   104.38885462
_cell_angle_gamma   154.28508978
_symmetry_Int_Tables_number   1
_chemical_formula_structural   Nb7As4
_chemical_formula_sum   'Nb14 As8'
_cell_volume   378.19142014
_cell_formula_units_Z   2
loop_
 _symmetry_equiv_pos_site_id
 _symmetry_equiv_pos_as_xyz
  1  'x, y, z'
loop_
 _atom_site_type_symbol
 _atom_site_label
 _atom_site_symmetry_multiplicity
 _atom_site_fract_x
 _atom_site_fract_y
 _atom_site_fract_z
 _atom_site_occupancy
  Nb  Nb0  1  -0.00000000  0.00000000  0.50000000  1.0
  Nb  Nb1  1  1.00015003  -0.00015003  0.83837118  1.0
  Nb  Nb2  1  -0.00015003  0.00015003  0.16162882  1.0
  Nb  Nb3  1  0.82126182  0.17873818  0.95473712  1.0
  Nb  Nb4  1  0.17873818  -0.17873818  0.04526288  1.0
  Nb  Nb5  1  0.78849505  0.21150495  0.70074333  1.0
  Nb  Nb6  1  0.21150495  -0.21150495  0.29925667  1.0
  Nb  Nb7  1  0.66564907  0.33435093  0.47058331  1.0
  Nb  Nb8  1  0.33435093  -0.33435093  0.52941669  1.0
  Nb  Nb9  1  0.56952096  0.43047904  0.67362189  1.0
  Nb  Nb10  1  0.43047904  -0.43047904  0.32637811  1.0
  Nb  Nb11  1  0.19522399  -0.19522399  0.80920784  1.0
  Nb  Nb12  1  0.80477601  0.19522399  0.19079216  1.0
  Nb  Nb13  1  0.50000000  0.50000000  0.00000000  1.0
  As  As14  1  0.93615280  0.06384720  0.65218612  1.0
  As  As15  1  0.06384720  -0.06384720  0.34781388  1.0
  As  As16  1  0.82697543  0.17302457  0.39039048  1.0
  As  As17  1  0.17302457  -0.17302457  0.60960952  1.0
  As  As18  1  0.62928006  0.37071994  0.90195380  1.0
  As  As19  1  0.37071994  -0.37071994  0.09804620  1.0
  As  As20  1  0.37138379  -0.37138379  0.83364940  1.0
  As  As21  1  0.62861621  0.37138379  0.16635060  1.0
