# generated using pymatgen
data_CSNOF5
_symmetry_space_group_name_H-M   'P 1'
_cell_length_a   5.48788161
_cell_length_b   11.19120105
_cell_length_c   10.21197745
_cell_angle_alpha   71.94504761
_cell_angle_beta   85.18725406
_cell_angle_gamma   85.25712144
_symmetry_Int_Tables_number   1
_chemical_formula_structural   CSNOF5
_chemical_formula_sum   'C4 S4 N4 O4 F20'
_cell_volume   593.12941738
_cell_formula_units_Z   4
loop_
 _symmetry_equiv_pos_site_id
 _symmetry_equiv_pos_as_xyz
  1  'x, y, z'
loop_
 _atom_site_type_symbol
 _atom_site_label
 _atom_site_symmetry_multiplicity
 _atom_site_fract_x
 _atom_site_fract_y
 _atom_site_fract_z
 _atom_site_occupancy
  C  C0  1  -0.75658609  -0.88882864  -0.44297886  1.0
  C  C1  1  -0.24341391  -0.11117136  -0.55702114  1.0
  C  C2  1  -0.74151178  -0.89289767  -0.89764251  1.0
  C  C3  1  -0.25848822  -0.10710233  -0.10235749  1.0
  S  S4  1  -0.98989705  -0.71646391  -0.08025078  1.0
  S  S5  1  -0.01010295  -0.28353609  -0.91974922  1.0
  S  S6  1  -0.50671293  -0.69451911  -0.58580948  1.0
  S  S7  1  -0.49328707  -0.30548089  -0.41419052  1.0
  N  N8  1  -0.93773275  -0.83851548  -0.93688959  1.0
  N  N9  1  -0.06226725  -0.16148452  -0.06311041  1.0
  N  N10  1  -0.57249124  -0.84724755  -0.51381705  1.0
  N  N11  1  -0.42750876  -0.15275245  -0.48618295  1.0
  O  O12  1  -0.92009946  -0.94164242  -0.37525612  1.0
  O  O13  1  -0.07990054  -0.05835758  -0.62474388  1.0
  O  O14  1  -0.56958419  -0.95298931  -0.84781169  1.0
  O  O15  1  -0.43041581  -0.04701069  -0.15218831  1.0
  F  F16  1  -0.95094060  -0.39914883  -0.78397847  1.0
  F  F17  1  -0.04905940  -0.60085117  -0.21602153  1.0
  F  F18  1  -0.84284030  -0.19819297  -0.86605982  1.0
  F  F19  1  -0.15715970  -0.80180703  -0.13394018  1.0
  F  F20  1  -0.76039504  -0.64157155  -0.52390044  1.0
  F  F21  1  -0.23960496  -0.35842845  -0.47609956  1.0
  F  F22  1  -0.75292112  -0.75770119  -0.16706455  1.0
  F  F23  1  -0.24707888  -0.24229881  -0.83293545  1.0
  F  F24  1  -0.63914762  -0.68685651  -0.72408575  1.0
  F  F25  1  -0.36085238  -0.31314349  -0.27591425  1.0
  F  F26  1  -0.43524281  -0.55110741  -0.65691412  1.0
  F  F27  1  -0.56475719  -0.44889259  -0.34308588  1.0
  F  F28  1  -0.37223015  -0.69579739  -0.45081018  1.0
  F  F29  1  -0.62776985  -0.30420261  -0.54918982  1.0
  F  F30  1  -0.22685908  -0.67087219  -1.00112127  1.0
  F  F31  1  -0.77314092  -0.32912781  0.00112127  1.0
  F  F32  1  -0.25275834  -0.74069438  -0.65051144  1.0
  F  F33  1  -0.74724166  -0.25930562  -0.34948856  1.0
  F  F34  1  -0.17647799  -0.37393133  -0.96655289  1.0
  F  F35  1  -0.82352201  -0.62606867  -0.03344711  1.0
