# generated using pymatgen
data_LiVTeO5
_symmetry_space_group_name_H-M   'P 1'
_cell_length_a   5.06270953
_cell_length_b   8.50724761
_cell_length_c   9.83226178
_cell_angle_alpha   90.00000000
_cell_angle_beta   90.00000000
_cell_angle_gamma   90.00000000
_symmetry_Int_Tables_number   1
_chemical_formula_structural   LiVTeO5
_chemical_formula_sum   'Li4 V4 Te4 O20'
_cell_volume   423.47279652
_cell_formula_units_Z   4
loop_
 _symmetry_equiv_pos_site_id
 _symmetry_equiv_pos_as_xyz
  1  'x, y, z'
loop_
 _atom_site_type_symbol
 _atom_site_label
 _atom_site_symmetry_multiplicity
 _atom_site_fract_x
 _atom_site_fract_y
 _atom_site_fract_z
 _atom_site_occupancy
  Li  Li0  1  0.48136168  0.87971629  0.03894135  1.0
  Li  Li1  1  0.98136168  0.62028371  0.96105865  1.0
  Li  Li2  1  0.51863832  0.37971629  0.46105865  1.0
  Li  Li3  1  0.01863832  0.12028371  0.53894135  1.0
  V  V4  1  0.95538655  0.97389835  0.85147597  1.0
  V  V5  1  0.45538655  0.52610165  0.14852403  1.0
  V  V6  1  0.04461345  0.47389835  0.64852403  1.0
  V  V7  1  0.54461345  0.02610165  0.35147597  1.0
  Te  Te8  1  0.48716105  0.82447902  0.63568310  1.0
  Te  Te9  1  0.98716105  0.67552098  0.36431690  1.0
  Te  Te10  1  0.51283895  0.32447902  0.86431690  1.0
  Te  Te11  1  0.01283895  0.17552098  0.13568310  1.0
  O  O12  1  0.31830785  0.97959724  0.52018386  1.0
  O  O13  1  0.81830785  0.52040276  0.47981614  1.0
  O  O14  1  0.68169215  0.47959724  0.97981614  1.0
  O  O15  1  0.18169215  0.02040276  0.02018386  1.0
  O  O16  1  0.28889487  0.67885657  0.08984147  1.0
  O  O17  1  0.78889487  0.82114343  0.91015853  1.0
  O  O18  1  0.71110513  0.17885657  0.41015853  1.0
  O  O19  1  0.21110513  0.32114343  0.58984147  1.0
  O  O20  1  0.27051527  0.90370435  0.79659502  1.0
  O  O21  1  0.77051527  0.59629565  0.20340498  1.0
  O  O22  1  0.72948473  0.40370435  0.70340498  1.0
  O  O23  1  0.22948473  0.09629565  0.29659502  1.0
  O  O24  1  0.18914319  0.66880318  0.57156467  1.0
  O  O25  1  0.68914319  0.83119682  0.42843533  1.0
  O  O26  1  0.81085681  0.16880318  0.92843533  1.0
  O  O27  1  0.31085681  0.33119682  0.07156467  1.0
  O  O28  1  0.19265021  0.51036272  0.80491519  1.0
  O  O29  1  0.69265021  0.98963728  0.19508481  1.0
  O  O30  1  0.80734979  0.01036272  0.69508481  1.0
  O  O31  1  0.30734979  0.48963728  0.30491519  1.0
