# generated using pymatgen
data_CoAgO2
_symmetry_space_group_name_H-M   'P 1'
_cell_length_a   2.88906086
_cell_length_b   2.88906086
_cell_length_c   24.84920246
_cell_angle_alpha   90.00000000
_cell_angle_beta   90.00000000
_cell_angle_gamma   120.00000000
_symmetry_Int_Tables_number   1
_chemical_formula_structural   CoAgO2
_chemical_formula_sum   'Co4 Ag4 O8'
_cell_volume   179.62073475
_cell_formula_units_Z   4
loop_
 _symmetry_equiv_pos_site_id
 _symmetry_equiv_pos_as_xyz
  1  'x, y, z'
loop_
 _atom_site_type_symbol
 _atom_site_label
 _atom_site_symmetry_multiplicity
 _atom_site_fract_x
 _atom_site_fract_y
 _atom_site_fract_z
 _atom_site_occupancy
  Co  Co0  1  0.33333333  0.66666667  0.87500728  1.0
  Co  Co1  1  0.33333333  0.66666667  0.62499272  1.0
  Co  Co2  1  0.66666667  0.33333333  0.37500728  1.0
  Co  Co3  1  0.66666667  0.33333333  0.12499272  1.0
  Ag  Ag4  1  0.33333333  0.66666667  0.25000000  1.0
  Ag  Ag5  1  0.66666667  0.33333333  0.75000000  1.0
  Ag  Ag6  1  -0.00000000  -0.00000000  0.50000000  1.0
  Ag  Ag7  1  0.00000000  0.00000000  0.00000000  1.0
  O  O8  1  0.33333333  0.66666667  0.33669030  1.0
  O  O9  1  0.33333333  0.66666667  0.16330970  1.0
  O  O10  1  0.66666667  0.33333333  0.83669030  1.0
  O  O11  1  0.66666667  0.33333333  0.66330970  1.0
  O  O12  1  0.00000000  0.00000000  0.41330839  1.0
  O  O13  1  -0.00000000  -0.00000000  0.08669161  1.0
  O  O14  1  -0.00000000  -0.00000000  0.91330839  1.0
  O  O15  1  -0.00000000  0.00000000  0.58669161  1.0
