# generated using pymatgen
data_LiMnH3(CO2)3
_symmetry_space_group_name_H-M   'P 1'
_cell_length_a   8.87871702
_cell_length_b   8.87871702
_cell_length_c   8.87871702
_cell_angle_alpha   90.00000000
_cell_angle_beta   90.00000000
_cell_angle_gamma   90.00000000
_symmetry_Int_Tables_number   1
_chemical_formula_structural   LiMnH3(CO2)3
_chemical_formula_sum   'Li4 Mn4 H12 C12 O24'
_cell_volume   699.92360902
_cell_formula_units_Z   4
loop_
 _symmetry_equiv_pos_site_id
 _symmetry_equiv_pos_as_xyz
  1  'x, y, z'
loop_
 _atom_site_type_symbol
 _atom_site_label
 _atom_site_symmetry_multiplicity
 _atom_site_fract_x
 _atom_site_fract_y
 _atom_site_fract_z
 _atom_site_occupancy
  Li  Li0  1  0.66594545  0.33405455  0.83405455  1.0
  Li  Li1  1  0.16594545  0.16594545  0.16594545  1.0
  Li  Li2  1  0.83405455  0.66594545  0.33405455  1.0
  Li  Li3  1  0.33405455  0.83405455  0.66594545  1.0
  Mn  Mn4  1  0.64850831  0.64850831  0.64850831  1.0
  Mn  Mn5  1  0.35149169  0.14850831  0.85149169  1.0
  Mn  Mn6  1  0.14850831  0.85149169  0.35149169  1.0
  Mn  Mn7  1  0.85149169  0.35149169  0.14850831  1.0
  H  H8  1  0.72549565  0.77245238  0.99522386  1.0
  H  H9  1  0.00477614  0.22549565  0.72754762  1.0
  H  H10  1  0.27245238  0.50477614  0.27450435  1.0
  H  H11  1  0.22549565  0.72754762  0.00477614  1.0
  H  H12  1  0.50477614  0.27450435  0.27245238  1.0
  H  H13  1  0.77245238  0.99522386  0.72549565  1.0
  H  H14  1  0.27450435  0.27245238  0.50477614  1.0
  H  H15  1  0.99522386  0.72549565  0.77245238  1.0
  H  H16  1  0.72754762  0.00477614  0.22549565  1.0
  H  H17  1  0.77450435  0.22754762  0.49522386  1.0
  H  H18  1  0.49522386  0.77450435  0.22754762  1.0
  H  H19  1  0.22754762  0.49522386  0.77450435  1.0
  C  C20  1  0.74189546  0.64818915  0.99473028  1.0
  C  C21  1  0.00526972  0.24189546  0.85181085  1.0
  C  C22  1  0.14818915  0.50526972  0.25810454  1.0
  C  C23  1  0.24189546  0.85181085  0.00526972  1.0
  C  C24  1  0.50526972  0.25810454  0.14818915  1.0
  C  C25  1  0.64818915  0.99473028  0.74189546  1.0
  C  C26  1  0.25810454  0.14818915  0.50526972  1.0
  C  C27  1  0.99473028  0.74189546  0.64818915  1.0
  C  C28  1  0.85181085  0.00526972  0.24189546  1.0
  C  C29  1  0.75810454  0.35181085  0.49473028  1.0
  C  C30  1  0.49473028  0.75810454  0.35181085  1.0
  C  C31  1  0.35181085  0.49473028  0.75810454  1.0
  O  O32  1  0.70659719  0.57722446  0.87656897  1.0
  O  O33  1  0.12343103  0.20659719  0.92277554  1.0
  O  O34  1  0.07722446  0.62343103  0.29340281  1.0
  O  O35  1  0.20659719  0.92277554  0.12343103  1.0
  O  O36  1  0.62343103  0.29340281  0.07722446  1.0
  O  O37  1  0.57722446  0.87656897  0.70659719  1.0
  O  O38  1  0.29340281  0.07722446  0.62343103  1.0
  O  O39  1  0.87656897  0.70659719  0.57722446  1.0
  O  O40  1  0.92277554  0.12343103  0.20659719  1.0
  O  O41  1  0.79340281  0.42277554  0.37656897  1.0
  O  O42  1  0.37656897  0.79340281  0.42277554  1.0
  O  O43  1  0.42277554  0.37656897  0.79340281  1.0
  O  O44  1  0.61371982  0.70516853  0.40945763  1.0
  O  O45  1  0.59054237  0.11371982  0.79483147  1.0
  O  O46  1  0.20516853  0.09054237  0.38628018  1.0
  O  O47  1  0.11371982  0.79483147  0.59054237  1.0
  O  O48  1  0.09054237  0.38628018  0.20516853  1.0
  O  O49  1  0.70516853  0.40945763  0.61371982  1.0
  O  O50  1  0.38628018  0.20516853  0.09054237  1.0
  O  O51  1  0.40945763  0.61371982  0.70516853  1.0
  O  O52  1  0.79483147  0.59054237  0.11371982  1.0
  O  O53  1  0.88628018  0.29483147  0.90945763  1.0
  O  O54  1  0.90945763  0.88628018  0.29483147  1.0
  O  O55  1  0.29483147  0.90945763  0.88628018  1.0
