# generated using pymatgen
data_Sr2Ge2Se5
_symmetry_space_group_name_H-M   'P 1'
_cell_length_a   8.57629481
_cell_length_b   12.46833320
_cell_length_c   12.22443634
_cell_angle_alpha   90.00000000
_cell_angle_beta   130.51874470
_cell_angle_gamma   90.00000000
_symmetry_Int_Tables_number   1
_chemical_formula_structural   Sr2Ge2Se5
_chemical_formula_sum   'Sr8 Ge8 Se20'
_cell_volume   993.71322576
_cell_formula_units_Z   4
loop_
 _symmetry_equiv_pos_site_id
 _symmetry_equiv_pos_as_xyz
  1  'x, y, z'
loop_
 _atom_site_type_symbol
 _atom_site_label
 _atom_site_symmetry_multiplicity
 _atom_site_fract_x
 _atom_site_fract_y
 _atom_site_fract_z
 _atom_site_occupancy
  Sr  Sr0  1  0.96568779  0.30082892  0.02512208  1.0
  Sr  Sr1  1  0.96568779  0.19917108  0.52512208  1.0
  Sr  Sr2  1  0.03431221  0.80082892  0.47487792  1.0
  Sr  Sr3  1  0.03431221  0.69917108  0.97487792  1.0
  Sr  Sr4  1  0.48964072  0.16237492  0.03465335  1.0
  Sr  Sr5  1  0.48964072  0.33762508  0.53465335  1.0
  Sr  Sr6  1  0.51035928  0.66237492  0.46534665  1.0
  Sr  Sr7  1  0.51035928  0.83762508  0.96534665  1.0
  Ge  Ge8  1  0.98490113  0.98072425  0.18749058  1.0
  Ge  Ge9  1  0.98490113  0.51927575  0.68749058  1.0
  Ge  Ge10  1  0.01509887  0.48072425  0.31250942  1.0
  Ge  Ge11  1  0.01509887  0.01927575  0.81250942  1.0
  Ge  Ge12  1  0.34186868  0.05035223  0.33615854  1.0
  Ge  Ge13  1  0.34186868  0.44964777  0.83615854  1.0
  Ge  Ge14  1  0.65813132  0.55035223  0.16384146  1.0
  Ge  Ge15  1  0.65813132  0.94964777  0.66384146  1.0
  Se  Se16  1  0.98534084  0.28797285  0.29748140  1.0
  Se  Se17  1  0.98534084  0.21202715  0.79748140  1.0
  Se  Se18  1  0.01465916  0.78797285  0.20251860  1.0
  Se  Se19  1  0.01465916  0.71202715  0.70251860  1.0
  Se  Se20  1  0.82667752  0.00898728  0.28954232  1.0
  Se  Se21  1  0.82667752  0.49101272  0.78954232  1.0
  Se  Se22  1  0.17332248  0.50898728  0.21045768  1.0
  Se  Se23  1  0.17332248  0.99101272  0.71045768  1.0
  Se  Se24  1  0.74963506  0.44228798  0.45703807  1.0
  Se  Se25  1  0.74963506  0.05771202  0.95703807  1.0
  Se  Se26  1  0.25036494  0.94228798  0.04296193  1.0
  Se  Se27  1  0.25036494  0.55771202  0.54296193  1.0
  Se  Se28  1  0.59725275  0.90951428  0.43993096  1.0
  Se  Se29  1  0.59725275  0.59048572  0.93993096  1.0
  Se  Se30  1  0.40274725  0.40951428  0.06006904  1.0
  Se  Se31  1  0.40274725  0.09048572  0.56006904  1.0
  Se  Se32  1  0.43842678  0.20609143  0.28138526  1.0
  Se  Se33  1  0.43842678  0.29390857  0.78138526  1.0
  Se  Se34  1  0.56157322  0.70609143  0.21861474  1.0
  Se  Se35  1  0.56157322  0.79390857  0.71861474  1.0
