# generated using pymatgen
data_Nb3SiTe6
_symmetry_space_group_name_H-M   'P 1'
_cell_length_a   6.41986487
_cell_length_b   14.73012919
_cell_length_c   11.63107465
_cell_angle_alpha   90.00000000
_cell_angle_beta   90.00000000
_cell_angle_gamma   90.00000000
_symmetry_Int_Tables_number   1
_chemical_formula_structural   Nb3SiTe6
_chemical_formula_sum   'Nb12 Si4 Te24'
_cell_volume   1099.89768040
_cell_formula_units_Z   4
loop_
 _symmetry_equiv_pos_site_id
 _symmetry_equiv_pos_as_xyz
  1  'x, y, z'
loop_
 _atom_site_type_symbol
 _atom_site_label
 _atom_site_symmetry_multiplicity
 _atom_site_fract_x
 _atom_site_fract_y
 _atom_site_fract_z
 _atom_site_occupancy
  Nb  Nb0  1  0.46851795  0.25000000  0.18802829  1.0
  Nb  Nb1  1  0.96851795  0.25000000  0.31197171  1.0
  Nb  Nb2  1  0.53148205  0.75000000  0.81197171  1.0
  Nb  Nb3  1  0.03148205  0.75000000  0.68802829  1.0
  Nb  Nb4  1  0.19743973  0.25000000  0.53309774  1.0
  Nb  Nb5  1  0.69743973  0.25000000  0.96690226  1.0
  Nb  Nb6  1  0.80256027  0.75000000  0.46690226  1.0
  Nb  Nb7  1  0.30256027  0.75000000  0.03309774  1.0
  Nb  Nb8  1  0.16725196  0.25000000  0.83620081  1.0
  Nb  Nb9  1  0.66725196  0.25000000  0.66379919  1.0
  Nb  Nb10  1  0.83274804  0.75000000  0.16379919  1.0
  Nb  Nb11  1  0.33274804  0.75000000  0.33620081  1.0
  Si  Si12  1  0.07539103  0.25000000  0.07483355  1.0
  Si  Si13  1  0.57539103  0.25000000  0.42516645  1.0
  Si  Si14  1  0.92460897  0.75000000  0.92516645  1.0
  Si  Si15  1  0.42460897  0.75000000  0.57483355  1.0
  Te  Te16  1  0.35614200  0.37398021  0.99792875  1.0
  Te  Te17  1  0.35614200  0.12601979  0.99792875  1.0
  Te  Te18  1  0.85614200  0.37398021  0.50207125  1.0
  Te  Te19  1  0.85614200  0.12601979  0.50207125  1.0
  Te  Te20  1  0.64385800  0.87398021  0.00207125  1.0
  Te  Te21  1  0.64385800  0.62601979  0.00207125  1.0
  Te  Te22  1  0.14385800  0.87398021  0.49792875  1.0
  Te  Te23  1  0.14385800  0.62601979  0.49792875  1.0
  Te  Te24  1  0.34889061  0.37966329  0.68291495  1.0
  Te  Te25  1  0.34889061  0.12033671  0.68291495  1.0
  Te  Te26  1  0.84889061  0.37966329  0.81708505  1.0
  Te  Te27  1  0.84889061  0.12033671  0.81708505  1.0
  Te  Te28  1  0.65110939  0.87966329  0.31708505  1.0
  Te  Te29  1  0.65110939  0.62033671  0.31708505  1.0
  Te  Te30  1  0.15110939  0.87966329  0.18291495  1.0
  Te  Te31  1  0.15110939  0.62033671  0.18291495  1.0
  Te  Te32  1  0.20356463  0.87743613  0.84457778  1.0
  Te  Te33  1  0.20356463  0.62256387  0.84457778  1.0
  Te  Te34  1  0.70356463  0.87743613  0.65542222  1.0
  Te  Te35  1  0.70356463  0.62256387  0.65542222  1.0
  Te  Te36  1  0.79643537  0.37743613  0.15542222  1.0
  Te  Te37  1  0.79643537  0.12256387  0.15542222  1.0
  Te  Te38  1  0.29643537  0.37743613  0.34457778  1.0
  Te  Te39  1  0.29643537  0.12256387  0.34457778  1.0
