# generated using pymatgen
data_Zr6BCl14
_symmetry_space_group_name_H-M   'P 1'
_cell_length_a   9.73977872
_cell_length_b   9.73977872
_cell_length_c   11.70733542
_cell_angle_alpha   90.00000000
_cell_angle_beta   90.00000000
_cell_angle_gamma   84.05710715
_symmetry_Int_Tables_number   1
_chemical_formula_structural   Zr6BCl14
_chemical_formula_sum   'Zr12 B2 Cl28'
_cell_volume   1104.62754324
_cell_formula_units_Z   2
loop_
 _symmetry_equiv_pos_site_id
 _symmetry_equiv_pos_as_xyz
  1  'x, y, z'
loop_
 _atom_site_type_symbol
 _atom_site_label
 _atom_site_symmetry_multiplicity
 _atom_site_fract_x
 _atom_site_fract_y
 _atom_site_fract_z
 _atom_site_occupancy
  Zr  Zr0  1  0.45234030  1.31421886  0.38179331  1.0
  Zr  Zr1  1  -0.04765970  0.81421886  0.11820669  1.0
  Zr  Zr2  1  0.31421886  1.45234030  0.61820669  1.0
  Zr  Zr3  1  -0.18578114  0.95234030  0.88179331  1.0
  Zr  Zr4  1  -0.31421886  0.54765970  0.38179331  1.0
  Zr  Zr5  1  0.18578114  1.04765970  0.11820669  1.0
  Zr  Zr6  1  -0.45234030  0.68578114  0.61820669  1.0
  Zr  Zr7  1  0.04765970  1.18578114  0.88179331  1.0
  Zr  Zr8  1  -0.14732782  1.14732782  0.10738426  1.0
  Zr  Zr9  1  0.35267218  0.64732782  0.39261574  1.0
  Zr  Zr10  1  0.14732782  0.85267218  0.89261574  1.0
  Zr  Zr11  1  -0.35267218  1.35267218  0.60738426  1.0
  B  B12  1  -0.50000000  0.50000000  0.50000000  1.0
  B  B13  1  0.00000000  1.00000000  0.00000000  1.0
  Cl  Cl14  1  -0.38434691  1.13950817  0.49023478  1.0
  Cl  Cl15  1  0.11565309  0.63950817  0.00976522  1.0
  Cl  Cl16  1  0.13950817  0.61565309  0.50976522  1.0
  Cl  Cl17  1  -0.36049183  1.11565309  0.99023478  1.0
  Cl  Cl18  1  -0.13950817  1.38434691  0.49023478  1.0
  Cl  Cl19  1  0.36049183  0.88434691  0.00976522  1.0
  Cl  Cl20  1  0.38434691  0.86049183  0.50976522  1.0
  Cl  Cl21  1  -0.11565309  1.36049183  0.99023478  1.0
  Cl  Cl22  1  -0.20909869  0.96593603  0.24747368  1.0
  Cl  Cl23  1  0.29090131  1.46593603  0.25252632  1.0
  Cl  Cl24  1  -0.03406397  0.79090131  0.75252632  1.0
  Cl  Cl25  1  0.46593603  1.29090131  0.74747368  1.0
  Cl  Cl26  1  0.03406397  1.20909869  0.24747368  1.0
  Cl  Cl27  1  -0.46593603  0.70909869  0.25252632  1.0
  Cl  Cl28  1  0.20909869  1.03406397  0.75252632  1.0
  Cl  Cl29  1  -0.29090131  0.53406397  0.74747368  1.0
  Cl  Cl30  1  -0.34421645  1.34421645  0.23997902  1.0
  Cl  Cl31  1  0.15578355  0.84421645  0.26002098  1.0
  Cl  Cl32  1  0.34421645  0.65578355  0.76002098  1.0
  Cl  Cl33  1  -0.15578355  1.15578355  0.73997902  1.0
  Cl  Cl34  1  0.39387517  1.10612483  0.25000000  1.0
  Cl  Cl35  1  -0.10612483  0.60612483  0.25000000  1.0
  Cl  Cl36  1  0.10612483  1.39387517  0.75000000  1.0
  Cl  Cl37  1  -0.39387517  0.89387517  0.75000000  1.0
  Cl  Cl38  1  0.25222549  1.25222549  0.50000000  1.0
  Cl  Cl39  1  -0.24777451  0.75222549  0.00000000  1.0
  Cl  Cl40  1  -0.25222549  0.74777451  0.50000000  1.0
  Cl  Cl41  1  0.24777451  1.24777451  0.00000000  1.0
