# generated using pymatgen
data_CuHg(SeO3)2
_symmetry_space_group_name_H-M   'P 1'
_cell_length_a   7.50778993
_cell_length_b   11.58406346
_cell_length_c   7.98987414
_cell_angle_alpha   90.00000000
_cell_angle_beta   97.96574247
_cell_angle_gamma   90.00000000
_symmetry_Int_Tables_number   1
_chemical_formula_structural   CuHg(SeO3)2
_chemical_formula_sum   'Cu4 Hg4 Se8 O24'
_cell_volume   688.18019278
_cell_formula_units_Z   4
loop_
 _symmetry_equiv_pos_site_id
 _symmetry_equiv_pos_as_xyz
  1  'x, y, z'
loop_
 _atom_site_type_symbol
 _atom_site_label
 _atom_site_symmetry_multiplicity
 _atom_site_fract_x
 _atom_site_fract_y
 _atom_site_fract_z
 _atom_site_occupancy
  Cu  Cu0  1  0.68620361  0.89811012  0.97530249  1.0
  Cu  Cu1  1  0.68620361  0.60188988  0.47530249  1.0
  Cu  Cu2  1  0.31379639  0.39811012  0.52469751  1.0
  Cu  Cu3  1  0.31379639  0.10188988  0.02469751  1.0
  Hg  Hg4  1  0.75235546  0.91240074  0.50523370  1.0
  Hg  Hg5  1  0.75235546  0.58759926  0.00523370  1.0
  Hg  Hg6  1  0.24764454  0.41240074  0.99476630  1.0
  Hg  Hg7  1  0.24764454  0.08759926  0.49476630  1.0
  Se  Se8  1  0.93845032  0.41604733  0.67321673  1.0
  Se  Se9  1  0.93845032  0.08395267  0.17321673  1.0
  Se  Se10  1  0.06154968  0.91604733  0.82678327  1.0
  Se  Se11  1  0.06154968  0.58395267  0.32678327  1.0
  Se  Se12  1  0.43874176  0.70887470  0.74849949  1.0
  Se  Se13  1  0.43874176  0.79112530  0.24849949  1.0
  Se  Se14  1  0.56125824  0.20887470  0.75150051  1.0
  Se  Se15  1  0.56125824  0.29112530  0.25150051  1.0
  O  O16  1  0.97947297  0.38390977  0.88985402  1.0
  O  O17  1  0.97947297  0.11609023  0.38985402  1.0
  O  O18  1  0.02052703  0.88390977  0.61014598  1.0
  O  O19  1  0.02052703  0.61609023  0.11014598  1.0
  O  O20  1  0.85653805  0.97901840  0.84913313  1.0
  O  O21  1  0.85653805  0.52098160  0.34913313  1.0
  O  O22  1  0.14346195  0.47901840  0.65086687  1.0
  O  O23  1  0.14346195  0.02098160  0.15086687  1.0
  O  O24  1  0.80080807  0.53404582  0.68756592  1.0
  O  O25  1  0.80080807  0.96595418  0.18756592  1.0
  O  O26  1  0.19919193  0.03404582  0.81243408  1.0
  O  O27  1  0.19919193  0.46595418  0.31243408  1.0
  O  O28  1  0.63622243  0.78835743  0.78608842  1.0
  O  O29  1  0.63622243  0.71164257  0.28608842  1.0
  O  O30  1  0.36377757  0.28835743  0.71391158  1.0
  O  O31  1  0.36377757  0.21164257  0.21391158  1.0
  O  O32  1  0.46436602  0.64386544  0.56005398  1.0
  O  O33  1  0.46436602  0.85613456  0.06005398  1.0
  O  O34  1  0.53563398  0.14386544  0.93994602  1.0
  O  O35  1  0.53563398  0.35613456  0.43994602  1.0
  O  O36  1  0.48225581  0.59876195  0.89875746  1.0
  O  O37  1  0.48225581  0.90123805  0.39875746  1.0
  O  O38  1  0.51774419  0.09876195  0.60124254  1.0
  O  O39  1  0.51774419  0.40123805  0.10124254  1.0
