# generated using pymatgen
data_Te2OsCl12
_symmetry_space_group_name_H-M   'P 1'
_cell_length_a   6.76020317
_cell_length_b   11.79535437
_cell_length_c   7.12838029
_cell_angle_alpha   71.90862987
_cell_angle_beta   62.53868091
_cell_angle_gamma   75.90634449
_symmetry_Int_Tables_number   1
_chemical_formula_structural   Te2OsCl12
_chemical_formula_sum   'Te2 Os1 Cl12'
_cell_volume   476.02614175
_cell_formula_units_Z   1
loop_
 _symmetry_equiv_pos_site_id
 _symmetry_equiv_pos_as_xyz
  1  'x, y, z'
loop_
 _atom_site_type_symbol
 _atom_site_label
 _atom_site_symmetry_multiplicity
 _atom_site_fract_x
 _atom_site_fract_y
 _atom_site_fract_z
 _atom_site_occupancy
  Te  Te0  1  0.26634598  -0.76858784  1.25788705  1.0
  Te  Te1  1  0.73365402  -0.23141216  0.74211296  1.0
  Os  Os2  1  0.00000000  0.00000000  0.00000000  1.0
  Cl  Cl3  1  1.01329425  -0.81342232  1.04138018  1.0
  Cl  Cl4  1  -0.01329425  -0.18657768  0.95861982  1.0
  Cl  Cl5  1  0.97060371  -0.60683209  1.31936286  1.0
  Cl  Cl6  1  0.02939629  -0.39316791  0.68063714  1.0
  Cl  Cl7  1  0.95123632  -0.90579345  1.67966938  1.0
  Cl  Cl8  1  0.04876368  -0.09420655  0.32033062  1.0
  Cl  Cl9  1  0.60834194  -0.98135047  1.19837568  1.0
  Cl  Cl10  1  0.39165806  -0.01864953  0.80162432  1.0
  Cl  Cl11  1  0.50664254  -0.34014585  1.09210124  1.0
  Cl  Cl12  1  0.49335746  -0.65985415  0.90789876  1.0
  Cl  Cl13  1  0.43117323  -0.71087515  1.44014919  1.0
  Cl  Cl14  1  0.56882677  -0.28912485  0.55985081  1.0
