# generated using pymatgen
data_CdPdF6
_symmetry_space_group_name_H-M   'P 1'
_cell_length_a   5.71984250
_cell_length_b   5.71984250
_cell_length_c   5.71984250
_cell_angle_alpha   55.31629717
_cell_angle_beta   55.31629717
_cell_angle_gamma   55.31629717
_symmetry_Int_Tables_number   1
_chemical_formula_structural   CdPdF6
_chemical_formula_sum   'Cd1 Pd1 F6'
_cell_volume   117.92247951
_cell_formula_units_Z   1
loop_
 _symmetry_equiv_pos_site_id
 _symmetry_equiv_pos_as_xyz
  1  'x, y, z'
loop_
 _atom_site_type_symbol
 _atom_site_label
 _atom_site_symmetry_multiplicity
 _atom_site_fract_x
 _atom_site_fract_y
 _atom_site_fract_z
 _atom_site_occupancy
  Cd  Cd0  1  0.50000000  0.50000000  -0.50000000  1.0
  Pd  Pd1  1  -0.00000000  0.00000000  0.00000000  1.0
  F  F2  1  0.08056678  0.77820702  -0.62527685  1.0
  F  F3  1  0.62527685  0.91943322  -0.77820702  1.0
  F  F4  1  0.22179298  0.62527685  -0.08056678  1.0
  F  F5  1  0.91943322  0.22179298  -0.37472315  1.0
  F  F6  1  0.37472315  0.08056678  -0.22179298  1.0
  F  F7  1  0.77820702  0.37472315  -0.91943322  1.0
