# generated using pymatgen
data_Pr
_symmetry_space_group_name_H-M   'P 1'
_cell_length_a   2.84633983
_cell_length_b   4.93269365
_cell_length_c   6.41494217
_cell_angle_alpha   90.00000000
_cell_angle_beta   90.00000000
_cell_angle_gamma   90.00000000
_symmetry_Int_Tables_number   1
_chemical_formula_structural   Pr
_chemical_formula_sum   Pr4
_cell_volume   90.06657319
_cell_formula_units_Z   4
loop_
 _symmetry_equiv_pos_site_id
 _symmetry_equiv_pos_as_xyz
  1  'x, y, z'
loop_
 _atom_site_type_symbol
 _atom_site_label
 _atom_site_symmetry_multiplicity
 _atom_site_fract_x
 _atom_site_fract_y
 _atom_site_fract_z
 _atom_site_occupancy
  Pr  Pr0  1  0.50000514  0.99993448  0.66302803  1.0
  Pr  Pr1  1  1.00000514  0.50006552  0.33697197  1.0
  Pr  Pr2  1  0.49999486  0.49993448  0.83697197  1.0
  Pr  Pr3  1  -0.00000514  0.00006552  0.16302803  1.0
