# generated using pymatgen
data_La2CuBiS5
_symmetry_space_group_name_H-M   'P 1'
_cell_length_a   12.12282739
_cell_length_b   4.00430037
_cell_length_c   17.08848157
_cell_angle_alpha   90.00000000
_cell_angle_beta   90.00000000
_cell_angle_gamma   90.00000000
_symmetry_Int_Tables_number   1
_chemical_formula_structural   La2CuBiS5
_chemical_formula_sum   'La8 Cu4 Bi4 S20'
_cell_volume   829.53371640
_cell_formula_units_Z   4
loop_
 _symmetry_equiv_pos_site_id
 _symmetry_equiv_pos_as_xyz
  1  'x, y, z'
loop_
 _atom_site_type_symbol
 _atom_site_label
 _atom_site_symmetry_multiplicity
 _atom_site_fract_x
 _atom_site_fract_y
 _atom_site_fract_z
 _atom_site_occupancy
  La  La0  1  0.96217351  0.75000000  0.32670645  1.0
  La  La1  1  0.46217351  0.75000000  0.17329355  1.0
  La  La2  1  0.03782649  0.25000000  0.67329355  1.0
  La  La3  1  0.53782649  0.25000000  0.82670645  1.0
  La  La4  1  0.62585302  0.75000000  0.40282947  1.0
  La  La5  1  0.12585302  0.75000000  0.09717053  1.0
  La  La6  1  0.37414698  0.25000000  0.59717053  1.0
  La  La7  1  0.87414698  0.25000000  0.90282947  1.0
  Cu  Cu8  1  0.58711421  0.75000000  0.00294212  1.0
  Cu  Cu9  1  0.08711421  0.75000000  0.49705788  1.0
  Cu  Cu10  1  0.41288579  0.25000000  0.99705788  1.0
  Cu  Cu11  1  0.91288579  0.25000000  0.50294212  1.0
  Bi  Bi12  1  0.69889573  0.75000000  0.63720509  1.0
  Bi  Bi13  1  0.19889573  0.75000000  0.86279491  1.0
  Bi  Bi14  1  0.30110427  0.25000000  0.36279491  1.0
  Bi  Bi15  1  0.80110427  0.25000000  0.13720509  1.0
  S  S16  1  0.98852217  0.75000000  0.79826970  1.0
  S  S17  1  0.48852217  0.75000000  0.70173030  1.0
  S  S18  1  0.01147783  0.25000000  0.20173030  1.0
  S  S19  1  0.51147783  0.25000000  0.29826970  1.0
  S  S20  1  0.91540646  0.75000000  0.57623614  1.0
  S  S21  1  0.41540646  0.75000000  0.92376386  1.0
  S  S22  1  0.08459354  0.25000000  0.42376386  1.0
  S  S23  1  0.58459354  0.25000000  0.07623614  1.0
  S  S24  1  0.89553029  0.75000000  0.03107920  1.0
  S  S25  1  0.39553029  0.75000000  0.46892080  1.0
  S  S26  1  0.10446971  0.25000000  0.96892080  1.0
  S  S27  1  0.60446971  0.25000000  0.53107920  1.0
  S  S28  1  0.74053004  0.75000000  0.23622702  1.0
  S  S29  1  0.24053004  0.75000000  0.26377298  1.0
  S  S30  1  0.25946996  0.25000000  0.76377298  1.0
  S  S31  1  0.75946996  0.25000000  0.73622702  1.0
  S  S32  1  0.69208543  0.75000000  0.89158158  1.0
  S  S33  1  0.19208543  0.75000000  0.60841842  1.0
  S  S34  1  0.30791457  0.25000000  0.10841842  1.0
  S  S35  1  0.80791457  0.25000000  0.39158158  1.0
