# generated using pymatgen
data_Cu2Se2NO10
_symmetry_space_group_name_H-M   'P 1'
_cell_length_a   5.92420817
_cell_length_b   5.92420812
_cell_length_c   10.26125963
_cell_angle_alpha   55.45991397
_cell_angle_beta   124.54009092
_cell_angle_gamma   117.20289348
_symmetry_Int_Tables_number   1
_chemical_formula_structural   Cu2Se2NO10
_chemical_formula_sum   'Cu2 Se2 N1 O10'
_cell_volume   239.42566543
_cell_formula_units_Z   1
loop_
 _symmetry_equiv_pos_site_id
 _symmetry_equiv_pos_as_xyz
  1  'x, y, z'
loop_
 _atom_site_type_symbol
 _atom_site_label
 _atom_site_symmetry_multiplicity
 _atom_site_fract_x
 _atom_site_fract_y
 _atom_site_fract_z
 _atom_site_occupancy
  Se  Se0  1  0.89674380  0.10325619  0.72817213  1.0
  Se  Se1  1  0.10325600  -0.10325625  0.27182750  1.0
  O  O2  1  0.84905554  0.15094446  0.54365015  1.0
  O  O3  1  0.15094429  -0.15094439  0.45634980  1.0
  O  O4  1  1.23361603  0.22366882  0.85421104  1.0
  O  O5  1  0.77633087  0.76638402  0.85421108  1.0
  O  O6  1  1.76638396  -0.22366921  0.14578894  1.0
  O  O7  1  1.22366928  0.23361599  0.14578895  1.0
  O  O8  1  0.26206178  -0.26206194  0.91948007  1.0
  O  O9  1  0.73793813  0.26206208  0.08051982  1.0
  O  O10  1  0.71965757  -0.71965757  0.71617730  1.0
  O  O11  1  1.28034290  -0.28034288  0.28382261  1.0
  Cu  Cu12  1  1.00000000  0.50000000  -0.00000000  1.0
  Cu  Cu13  1  1.50000000  0.00000000  -0.00000000  1.0
  N  N14  1  0.50000000  -0.50000000  0.50000000  1.0
