# generated using pymatgen
data_NaAsH4O5
_symmetry_space_group_name_H-M   'P 1'
_cell_length_a   5.28927996
_cell_length_b   10.64884040
_cell_length_c   8.51235752
_cell_angle_alpha   90.00000000
_cell_angle_beta   89.99758959
_cell_angle_gamma   90.00000000
_symmetry_Int_Tables_number   1
_chemical_formula_structural   NaAsH4O5
_chemical_formula_sum   'Na4 As4 H16 O20'
_cell_volume   479.45596758
_cell_formula_units_Z   4
loop_
 _symmetry_equiv_pos_site_id
 _symmetry_equiv_pos_as_xyz
  1  'x, y, z'
loop_
 _atom_site_type_symbol
 _atom_site_label
 _atom_site_symmetry_multiplicity
 _atom_site_fract_x
 _atom_site_fract_y
 _atom_site_fract_z
 _atom_site_occupancy
  Na  Na0  1  0.31637520  0.33706170  0.40799060  1.0
  Na  Na1  1  0.68362480  0.83706170  0.59200940  1.0
  Na  Na2  1  0.18362917  0.66530814  0.90795668  1.0
  Na  Na3  1  0.81637083  0.16530814  0.09204332  1.0
  As  As4  1  0.66042374  0.41079527  0.80315022  1.0
  As  As5  1  0.33957626  0.91079527  0.19684978  1.0
  As  As6  1  0.83953199  0.59157372  0.30315387  1.0
  As  As7  1  0.16046801  0.09157372  0.69684613  1.0
  H  H8  1  0.72073571  0.55005783  0.00566573  1.0
  H  H9  1  0.27926429  0.05005783  0.99433427  1.0
  H  H10  1  0.04973033  0.34777325  0.72812632  1.0
  H  H11  1  0.95026967  0.84777325  0.27187368  1.0
  H  H12  1  0.77924338  0.45230536  0.50566305  1.0
  H  H13  1  0.22075662  0.95230536  0.49433695  1.0
  H  H14  1  0.45026701  0.65460042  0.22815158  1.0
  H  H15  1  0.54973299  0.15460042  0.77184842  1.0
  H  H16  1  0.29477759  0.30461370  0.05209391  1.0
  H  H17  1  0.70522241  0.80461370  0.94790609  1.0
  H  H18  1  0.10183001  0.40198719  0.11894377  1.0
  H  H19  1  0.89816999  0.90198719  0.88105623  1.0
  H  H20  1  0.20518599  0.69772972  0.55210390  1.0
  H  H21  1  0.79481401  0.19772972  0.44789610  1.0
  H  H22  1  0.39819993  0.60038143  0.61890683  1.0
  H  H23  1  0.60180007  0.10038143  0.38109316  1.0
  O  O24  1  0.58372622  0.54289165  0.92002465  1.0
  O  O25  1  0.41627378  0.04289165  0.07997535  1.0
  O  O26  1  0.56229753  0.27584236  0.89354171  1.0
  O  O27  1  0.43770247  0.77584236  0.10645829  1.0
  O  O28  1  0.99694474  0.42058704  0.79820153  1.0
  O  O29  1  0.00305526  0.92058704  0.20179847  1.0
  O  O30  1  0.54603145  0.44057147  0.61862013  1.0
  O  O31  1  0.45396855  0.94057147  0.38137987  1.0
  O  O32  1  0.91622747  0.45946861  0.42000151  1.0
  O  O33  1  0.08377253  0.95946861  0.57999849  1.0
  O  O34  1  0.50300286  0.58178531  0.29823386  1.0
  O  O35  1  0.49699714  0.08178531  0.70176614  1.0
  O  O36  1  0.93772996  0.72652046  0.39352636  1.0
  O  O37  1  0.06227004  0.22652046  0.60647364  1.0
  O  O38  1  0.95394802  0.56178689  0.11862901  1.0
  O  O39  1  0.04605198  0.06178689  0.88137099  1.0
  O  O40  1  0.16903571  0.31634982  0.13622977  1.0
  O  O41  1  0.83096429  0.81634982  0.86377023  1.0
  O  O42  1  0.33096155  0.68600865  0.63621733  1.0
  O  O43  1  0.66903845  0.18600865  0.36378267  1.0
