# generated using pymatgen
data_Si(Ag4S3)2
_symmetry_space_group_name_H-M   'P 1'
_cell_length_a   15.16827749
_cell_length_b   7.56262789
_cell_length_c   10.67973839
_cell_angle_alpha   90.00000000
_cell_angle_beta   90.00000000
_cell_angle_gamma   90.00000000
_symmetry_Int_Tables_number   1
_chemical_formula_structural   Si(Ag4S3)2
_chemical_formula_sum   'Si4 Ag32 S24'
_cell_volume   1225.09456061
_cell_formula_units_Z   4
loop_
 _symmetry_equiv_pos_site_id
 _symmetry_equiv_pos_as_xyz
  1  'x, y, z'
loop_
 _atom_site_type_symbol
 _atom_site_label
 _atom_site_symmetry_multiplicity
 _atom_site_fract_x
 _atom_site_fract_y
 _atom_site_fract_z
 _atom_site_occupancy
  Si  Si0  1  0.37628368  0.23779166  0.76996001  1.0
  Si  Si1  1  0.87628368  0.26220834  0.76996001  1.0
  Si  Si2  1  0.62371632  0.76220834  0.26996001  1.0
  Si  Si3  1  0.12371632  0.73779166  0.26996001  1.0
  Ag  Ag4  1  0.48651885  0.51851049  0.53309370  1.0
  Ag  Ag5  1  0.98651885  0.98148951  0.53309370  1.0
  Ag  Ag6  1  0.51348115  0.48148951  0.03309370  1.0
  Ag  Ag7  1  0.01348115  0.01851049  0.03309370  1.0
  Ag  Ag8  1  0.43493264  0.73807280  0.75550761  1.0
  Ag  Ag9  1  0.93493264  0.76192720  0.75550761  1.0
  Ag  Ag10  1  0.56506736  0.26192720  0.25550761  1.0
  Ag  Ag11  1  0.06506736  0.23807280  0.25550761  1.0
  Ag  Ag12  1  0.37065211  0.77673398  0.28724968  1.0
  Ag  Ag13  1  0.87065211  0.72326602  0.28724968  1.0
  Ag  Ag14  1  0.62934789  0.22326602  0.78724968  1.0
  Ag  Ag15  1  0.12934789  0.27673398  0.78724968  1.0
  Ag  Ag16  1  0.27136363  0.50577722  0.51126767  1.0
  Ag  Ag17  1  0.77136363  -0.00577722  0.51126767  1.0
  Ag  Ag18  1  0.72863637  0.49422278  0.01126767  1.0
  Ag  Ag19  1  0.22863637  1.00577722  0.01126767  1.0
  Ag  Ag20  1  0.23907871  0.62598820  0.82436553  1.0
  Ag  Ag21  1  0.73907871  0.87401180  0.82436553  1.0
  Ag  Ag22  1  0.76092129  0.37401180  0.32436553  1.0
  Ag  Ag23  1  0.26092129  0.12598820  0.32436553  1.0
  Ag  Ag24  1  0.23251575  0.88249859  0.61515434  1.0
  Ag  Ag25  1  0.73251575  0.61750141  0.61515434  1.0
  Ag  Ag26  1  0.76748425  0.11750141  0.11515434  1.0
  Ag  Ag27  1  0.26748425  0.38249859  0.11515434  1.0
  Ag  Ag28  1  0.08771160  0.62002274  0.60706125  1.0
  Ag  Ag29  1  0.58771160  0.87997726  0.60706125  1.0
  Ag  Ag30  1  0.91228840  0.37997726  0.10706125  1.0
  Ag  Ag31  1  0.41228840  0.12002274  0.10706125  1.0
  Ag  Ag32  1  0.06643182  0.57089924  0.94306053  1.0
  Ag  Ag33  1  0.56643182  0.92910076  0.94306053  1.0
  Ag  Ag34  1  0.93356818  0.42910076  0.44306053  1.0
  Ag  Ag35  1  0.43356818  0.07089924  0.44306053  1.0
  S  S36  1  0.50890860  0.76804592  0.15183265  1.0
  S  S37  1  0.00890860  0.73195408  0.15183265  1.0
  S  S38  1  0.49109140  0.23195408  0.65183265  1.0
  S  S39  1  0.99109140  0.26804592  0.65183265  1.0
  S  S40  1  0.37720945  0.76680716  0.52392390  1.0
  S  S41  1  0.87720945  0.73319284  0.52392390  1.0
  S  S42  1  0.62279055  0.23319284  0.02392390  1.0
  S  S43  1  0.12279055  0.26680716  0.02392390  1.0
  S  S44  1  0.37929317  1.00800015  0.89031961  1.0
  S  S45  1  0.87929317  0.49199985  0.89031961  1.0
  S  S46  1  0.62070683  -0.00800015  0.39031961  1.0
  S  S47  1  0.12070683  0.50800015  0.39031961  1.0
  S  S48  1  0.23788611  0.72959871  0.15125796  1.0
  S  S49  1  0.73788611  0.77040129  0.15125796  1.0
  S  S50  1  0.76211389  0.27040129  0.65125796  1.0
  S  S51  1  0.26211389  0.22959871  0.65125796  1.0
  S  S52  1  0.11229292  0.81751770  0.78843088  1.0
  S  S53  1  0.61229292  0.68248230  0.78843088  1.0
  S  S54  1  0.88770708  0.18248230  0.28843088  1.0
  S  S55  1  0.38770708  0.31751770  0.28843088  1.0
  S  S56  1  0.87347432  0.03111072  0.88931469  1.0
  S  S57  1  0.37347432  0.46888928  0.88931469  1.0
  S  S58  1  0.12652568  0.96888928  0.38931469  1.0
  S  S59  1  0.62652568  0.53111072  0.38931469  1.0
