# generated using pymatgen
data_Ba3ZrIr2O9
_symmetry_space_group_name_H-M   'P 1'
_cell_length_a   5.84651192
_cell_length_b   5.84651192
_cell_length_c   14.65657460
_cell_angle_alpha   90.00000000
_cell_angle_beta   90.00000000
_cell_angle_gamma   120.00000000
_symmetry_Int_Tables_number   1
_chemical_formula_structural   Ba3ZrIr2O9
_chemical_formula_sum   'Ba6 Zr2 Ir4 O18'
_cell_volume   433.86717457
_cell_formula_units_Z   2
loop_
 _symmetry_equiv_pos_site_id
 _symmetry_equiv_pos_as_xyz
  1  'x, y, z'
loop_
 _atom_site_type_symbol
 _atom_site_label
 _atom_site_symmetry_multiplicity
 _atom_site_fract_x
 _atom_site_fract_y
 _atom_site_fract_z
 _atom_site_occupancy
  Ba  Ba0  1  0.33333333  0.66666667  0.40788500  1.0
  Ba  Ba1  1  0.33333333  0.66666667  0.09211500  1.0
  Ba  Ba2  1  0.66666667  0.33333333  0.90788500  1.0
  Ba  Ba3  1  0.66666667  0.33333333  0.59211500  1.0
  Ba  Ba4  1  -0.00000000  -0.00000000  0.25000000  1.0
  Ba  Ba5  1  0.00000000  0.00000000  0.75000000  1.0
  Zr  Zr6  1  0.00000000  0.00000000  0.50000000  1.0
  Zr  Zr7  1  -0.00000000  -0.00000000  -0.00000000  1.0
  Ir  Ir8  1  0.33333333  0.66666667  0.84079730  1.0
  Ir  Ir9  1  0.33333333  0.66666667  0.65920270  1.0
  Ir  Ir10  1  0.66666667  0.33333333  0.34079730  1.0
  Ir  Ir11  1  0.66666667  0.33333333  0.15920270  1.0
  O  O12  1  0.16920458  0.83079542  0.91869194  1.0
  O  O13  1  0.16920458  0.83079542  0.58130806  1.0
  O  O14  1  0.16920458  0.33840917  0.91869194  1.0
  O  O15  1  0.16920458  0.33840917  0.58130806  1.0
  O  O16  1  0.83079542  0.16920458  0.41869194  1.0
  O  O17  1  0.83079542  0.16920458  0.08130806  1.0
  O  O18  1  0.83079542  0.66159083  0.41869194  1.0
  O  O19  1  0.83079542  0.66159083  0.08130806  1.0
  O  O20  1  0.66159083  0.83079542  0.91869194  1.0
  O  O21  1  0.66159083  0.83079542  0.58130806  1.0
  O  O22  1  0.33840917  0.16920458  0.41869194  1.0
  O  O23  1  0.33840917  0.16920458  0.08130806  1.0
  O  O24  1  0.51327607  0.48672393  0.25000000  1.0
  O  O25  1  0.51327607  0.02655214  0.25000000  1.0
  O  O26  1  0.48672393  0.51327607  0.75000000  1.0
  O  O27  1  0.48672393  0.97344786  0.75000000  1.0
  O  O28  1  0.97344786  0.48672393  0.25000000  1.0
  O  O29  1  0.02655214  0.51327607  0.75000000  1.0
