# generated using pymatgen
data_GdSi2
_symmetry_space_group_name_H-M   'P 1'
_cell_length_a   7.67795884
_cell_length_b   7.67795884
_cell_length_c   7.67795884
_cell_angle_alpha   149.32948136
_cell_angle_beta   149.32632285
_cell_angle_gamma   43.92887336
_symmetry_Int_Tables_number   1
_chemical_formula_structural   GdSi2
_chemical_formula_sum   'Gd2 Si4'
_cell_volume   117.45114451
_cell_formula_units_Z   2
loop_
 _symmetry_equiv_pos_site_id
 _symmetry_equiv_pos_as_xyz
  1  'x, y, z'
loop_
 _atom_site_type_symbol
 _atom_site_label
 _atom_site_symmetry_multiplicity
 _atom_site_fract_x
 _atom_site_fract_y
 _atom_site_fract_z
 _atom_site_occupancy
  Gd  Gd0  1  0.62500305  0.37500305  0.25000000  1.0
  Gd  Gd1  1  0.37499695  0.62499695  0.75000000  1.0
  Si  Si2  1  1.20812365  0.95812365  1.25000000  1.0
  Si  Si3  1  0.79187635  0.04187635  0.75000000  1.0
  Si  Si4  1  1.04189166  0.79189166  1.25000000  1.0
  Si  Si5  1  0.95810834  0.20810834  0.75000000  1.0
