# generated using pymatgen
data_CsTe
_symmetry_space_group_name_H-M   'P 1'
_cell_length_a   6.31724950
_cell_length_b   11.80356304
_cell_length_c   5.07586186
_cell_angle_alpha   90.00000000
_cell_angle_beta   90.00000000
_cell_angle_gamma   90.00000000
_symmetry_Int_Tables_number   1
_chemical_formula_structural   CsTe
_chemical_formula_sum   'Cs4 Te4'
_cell_volume   378.48698287
_cell_formula_units_Z   4
loop_
 _symmetry_equiv_pos_site_id
 _symmetry_equiv_pos_as_xyz
  1  'x, y, z'
loop_
 _atom_site_type_symbol
 _atom_site_label
 _atom_site_symmetry_multiplicity
 _atom_site_fract_x
 _atom_site_fract_y
 _atom_site_fract_z
 _atom_site_occupancy
  Cs  Cs0  1  0.32289769  0.86452581  0.50000000  1.0
  Cs  Cs1  1  0.82289769  0.63547419  0.50000000  1.0
  Cs  Cs2  1  0.67710231  0.13547419  0.50000000  1.0
  Cs  Cs3  1  0.17710231  0.36452581  0.50000000  1.0
  Te  Te4  1  0.36506650  0.59612000  0.00000000  1.0
  Te  Te5  1  0.86506650  0.90388000  0.00000000  1.0
  Te  Te6  1  0.63493350  0.40388000  0.00000000  1.0
  Te  Te7  1  0.13493350  0.09612000  0.00000000  1.0
