# generated using pymatgen
data_SiO2
_symmetry_space_group_name_H-M   'P 1'
_cell_length_a   6.54304088
_cell_length_b   5.19612444
_cell_length_c   5.59520503
_cell_angle_alpha   97.42633018
_cell_angle_beta   109.74513231
_cell_angle_gamma   90.30492547
_symmetry_Int_Tables_number   1
_chemical_formula_structural   SiO2
_chemical_formula_sum   'Si4 O8'
_cell_volume   177.29722013
_cell_formula_units_Z   4
loop_
 _symmetry_equiv_pos_site_id
 _symmetry_equiv_pos_as_xyz
  1  'x, y, z'
loop_
 _atom_site_type_symbol
 _atom_site_label
 _atom_site_symmetry_multiplicity
 _atom_site_fract_x
 _atom_site_fract_y
 _atom_site_fract_z
 _atom_site_occupancy
  Si  Si0  1  -0.64687491  -0.16121679  0.89365215  1.0
  Si  Si1  1  -0.20822640  -0.05591788  0.30594307  1.0
  Si  Si2  1  -0.95461180  -0.68583709  0.72976829  1.0
  Si  Si3  1  -0.24677247  -0.31072831  0.77843910  1.0
  O  O4  1  -0.80617407  -0.92256799  0.83790437  1.0
  O  O5  1  -0.06310132  -0.77935112  0.41769961  1.0
  O  O6  1  -0.79159109  -0.42851170  0.85587524  1.0
  O  O7  1  -0.12071700  -0.17177599  0.07427047  1.0
  O  O8  1  -0.47401690  -0.05804298  0.18043975  1.0
  O  O9  1  -0.17029569  -0.22009379  0.54929404  1.0
  O  O10  1  -0.17823330  -0.61598664  0.79805258  1.0
  O  O11  1  -0.50300506  -0.24258972  0.70614133  1.0
