# generated using pymatgen
data_ScFeSi2
_symmetry_space_group_name_H-M   'P 1'
_cell_length_a   8.93224573
_cell_length_b   9.75882978
_cell_length_c   7.78104202
_cell_angle_alpha   90.00000000
_cell_angle_beta   90.00000000
_cell_angle_gamma   90.00000000
_symmetry_Int_Tables_number   1
_chemical_formula_structural   ScFeSi2
_chemical_formula_sum   'Sc12 Fe12 Si24'
_cell_volume   678.25993832
_cell_formula_units_Z   12
loop_
 _symmetry_equiv_pos_site_id
 _symmetry_equiv_pos_as_xyz
  1  'x, y, z'
loop_
 _atom_site_type_symbol
 _atom_site_label
 _atom_site_symmetry_multiplicity
 _atom_site_fract_x
 _atom_site_fract_y
 _atom_site_fract_z
 _atom_site_occupancy
  Sc  Sc0  1  0.82408512  0.45114500  0.24723935  1.0
  Sc  Sc1  1  0.17591488  0.54885500  0.24723935  1.0
  Sc  Sc2  1  0.32408512  0.04885500  0.75276065  1.0
  Sc  Sc3  1  0.67591488  0.95114500  0.75276065  1.0
  Sc  Sc4  1  0.17591488  0.54885500  0.75276065  1.0
  Sc  Sc5  1  0.82408512  0.45114500  0.75276065  1.0
  Sc  Sc6  1  0.67591488  0.95114500  0.24723935  1.0
  Sc  Sc7  1  0.32408512  0.04885500  0.24723935  1.0
  Sc  Sc8  1  0.83093911  0.17786556  0.00000000  1.0
  Sc  Sc9  1  0.16906089  0.82213444  0.00000000  1.0
  Sc  Sc10  1  0.33093911  0.32213444  0.00000000  1.0
  Sc  Sc11  1  0.66906089  0.67786556  0.00000000  1.0
  Fe  Fe12  1  0.58550187  0.23942464  0.24865460  1.0
  Fe  Fe13  1  0.41449813  0.76057536  0.24865460  1.0
  Fe  Fe14  1  0.08550187  0.26057536  0.75134540  1.0
  Fe  Fe15  1  0.91449813  0.73942464  0.75134540  1.0
  Fe  Fe16  1  0.41449813  0.76057536  0.75134540  1.0
  Fe  Fe17  1  0.58550187  0.23942464  0.75134540  1.0
  Fe  Fe18  1  0.91449813  0.73942464  0.24865460  1.0
  Fe  Fe19  1  0.08550187  0.26057536  0.24865460  1.0
  Fe  Fe20  1  0.50000000  0.50000000  0.24620205  1.0
  Fe  Fe21  1  0.00000000  0.00000000  0.75379795  1.0
  Fe  Fe22  1  0.50000000  0.50000000  0.75379795  1.0
  Fe  Fe23  1  0.00000000  0.00000000  0.24620205  1.0
  Si  Si24  1  0.83979453  0.17897676  0.34675263  1.0
  Si  Si25  1  0.16020547  0.82102324  0.34675263  1.0
  Si  Si26  1  0.33979453  0.32102324  0.65324737  1.0
  Si  Si27  1  0.66020547  0.67897676  0.65324737  1.0
  Si  Si28  1  0.16020547  0.82102324  0.65324737  1.0
  Si  Si29  1  0.83979453  0.17897676  0.65324737  1.0
  Si  Si30  1  0.66020547  0.67897676  0.34675263  1.0
  Si  Si31  1  0.33979453  0.32102324  0.34675263  1.0
  Si  Si32  1  0.54178523  0.12584822  0.50000000  1.0
  Si  Si33  1  0.45821477  0.87415178  0.50000000  1.0
  Si  Si34  1  0.04178523  0.37415178  0.50000000  1.0
  Si  Si35  1  0.95821477  0.62584822  0.50000000  1.0
  Si  Si36  1  0.53668591  0.12102073  0.00000000  1.0
  Si  Si37  1  0.46331409  0.87897927  0.00000000  1.0
  Si  Si38  1  0.03668591  0.37897927  0.00000000  1.0
  Si  Si39  1  0.96331409  0.62102073  0.00000000  1.0
  Si  Si40  1  0.60434294  0.39668946  0.50000000  1.0
  Si  Si41  1  0.39565706  0.60331054  0.50000000  1.0
  Si  Si42  1  0.10434294  0.10331054  0.50000000  1.0
  Si  Si43  1  0.89565706  0.89668946  0.50000000  1.0
  Si  Si44  1  0.62160949  0.39347945  0.00000000  1.0
  Si  Si45  1  0.37839051  0.60652055  0.00000000  1.0
  Si  Si46  1  0.12160949  0.10652055  0.00000000  1.0
  Si  Si47  1  0.87839051  0.89347945  0.00000000  1.0
