# generated using pymatgen
data_BaAl4S7
_symmetry_space_group_name_H-M   'P 1'
_cell_length_a   15.03597893
_cell_length_b   6.29937096
_cell_length_c   5.95456547
_cell_angle_alpha   90.00000000
_cell_angle_beta   90.00000000
_cell_angle_gamma   90.00000000
_symmetry_Int_Tables_number   1
_chemical_formula_structural   BaAl4S7
_chemical_formula_sum   'Ba2 Al8 S14'
_cell_volume   563.99982267
_cell_formula_units_Z   2
loop_
 _symmetry_equiv_pos_site_id
 _symmetry_equiv_pos_as_xyz
  1  'x, y, z'
loop_
 _atom_site_type_symbol
 _atom_site_label
 _atom_site_symmetry_multiplicity
 _atom_site_fract_x
 _atom_site_fract_y
 _atom_site_fract_z
 _atom_site_occupancy
  Ba  Ba0  1  0.50000000  0.64713176  0.48231874  1.0
  Ba  Ba1  1  0.00000000  0.35286824  -0.01768126  1.0
  Al  Al2  1  0.38042133  0.17037373  0.08914096  1.0
  Al  Al3  1  0.88042133  0.82962627  0.58914096  1.0
  Al  Al4  1  0.61957867  0.17037373  0.08914096  1.0
  Al  Al5  1  0.11957867  0.82962627  0.58914096  1.0
  Al  Al6  1  0.25253115  0.68425835  0.07087561  1.0
  Al  Al7  1  0.75253115  0.31574165  0.57087561  1.0
  Al  Al8  1  0.74746885  0.68425835  0.07087561  1.0
  Al  Al9  1  0.24746885  0.31574165  0.57087561  1.0
  S  S10  1  0.38039778  0.19515469  0.46706909  1.0
  S  S11  1  0.88039778  0.80484531  0.96706909  1.0
  S  S12  1  0.61960222  0.19515469  0.46706909  1.0
  S  S13  1  0.11960222  0.80484531  0.96706909  1.0
  S  S14  1  0.25127084  0.33240498  0.96110513  1.0
  S  S15  1  0.75127084  0.66759502  0.46110513  1.0
  S  S16  1  0.74872916  0.33240498  0.96110513  1.0
  S  S17  1  0.24872916  0.66759502  0.46110513  1.0
  S  S18  1  0.11602886  0.17274150  0.48559648  1.0
  S  S19  1  0.61602886  0.82725850  0.98559648  1.0
  S  S20  1  0.88397114  0.17274150  0.48559648  1.0
  S  S21  1  0.38397114  0.82725850  0.98559648  1.0
  S  S22  1  0.50000000  0.35665247  0.97690673  1.0
  S  S23  1  0.00000000  0.64334753  0.47690673  1.0
