# generated using pymatgen
data_YIn2Pd
_symmetry_space_group_name_H-M   'P 1'
_cell_length_a   10.84426179
_cell_length_b   10.84426179
_cell_length_c   10.84426179
_cell_angle_alpha   100.43155951
_cell_angle_beta   100.43155951
_cell_angle_gamma   129.63378563
_symmetry_Int_Tables_number   1
_chemical_formula_structural   YIn2Pd
_chemical_formula_sum   'Y10 In20 Pd10'
_cell_volume   888.77925764
_cell_formula_units_Z   10
loop_
 _symmetry_equiv_pos_site_id
 _symmetry_equiv_pos_as_xyz
  1  'x, y, z'
loop_
 _atom_site_type_symbol
 _atom_site_label
 _atom_site_symmetry_multiplicity
 _atom_site_fract_x
 _atom_site_fract_y
 _atom_site_fract_z
 _atom_site_occupancy
  Y  Y0  1  1.33107316  0.61089328  0.72017988  1.0
  Y  Y1  1  0.61089328  0.33107316  0.72017988  1.0
  Y  Y2  1  0.61089328  0.89071340  1.27982012  1.0
  Y  Y3  1  0.89071340  0.61089328  0.27982012  1.0
  Y  Y4  1  0.32526103  0.32526103  0.40387393  1.0
  Y  Y5  1  0.32526103  0.92138710  1.00000000  1.0
  Y  Y6  1  0.92138710  1.32526103  1.00000000  1.0
  Y  Y7  1  0.92138710  0.92138710  0.59612607  1.0
  Y  Y8  1  0.01022201  0.01022201  0.00000000  1.0
  Y  Y9  1  0.53715280  0.53715280  0.00000000  1.0
  In  In10  1  0.73052200  0.52265443  0.50678978  1.0
  In  In11  1  0.73052200  1.22373222  1.20786757  1.0
  In  In12  1  1.52265443  1.73052200  1.50678978  1.0
  In  In13  1  1.52265443  1.01586465  0.79213243  1.0
  In  In14  1  1.01586465  0.52265443  0.79213243  1.0
  In  In15  1  1.01586465  1.22373222  1.49321022  1.0
  In  In16  1  1.22373222  1.73052200  1.20786757  1.0
  In  In17  1  1.22373222  1.01586465  0.49321022  1.0
  In  In18  1  1.11801718  0.28130903  0.83670815  1.0
  In  In19  1  1.28130903  1.11801718  0.83670815  1.0
  In  In20  1  1.28130903  1.44460087  1.16329185  1.0
  In  In21  1  0.44460087  0.28130903  0.16329185  1.0
  In  In22  1  0.75154839  0.13433613  0.61721227  1.0
  In  In23  1  1.13433613  0.75154839  0.61721227  1.0
  In  In24  1  1.13433613  1.51712386  1.38278773  1.0
  In  In25  1  0.51712386  0.13433613  0.38278773  1.0
  In  In26  1  0.64535857  0.64535857  0.73897398  1.0
  In  In27  1  0.64535857  0.90638459  1.00000000  1.0
  In  In28  1  0.90638459  1.64535857  1.00000000  1.0
  In  In29  1  0.90638459  0.90638459  0.26102602  1.0
  Pd  Pd30  1  0.88365251  0.38365251  0.50000000  1.0
  Pd  Pd31  1  1.38365251  0.88365251  0.50000000  1.0
  Pd  Pd32  1  1.75890179  0.97332319  0.78557860  1.0
  Pd  Pd33  1  0.97332319  0.75890179  0.78557860  1.0
  Pd  Pd34  1  0.97332319  1.18774460  1.21442140  1.0
  Pd  Pd35  1  1.18774460  0.97332319  0.21442140  1.0
  Pd  Pd36  1  0.62826810  0.62826810  0.32131397  1.0
  Pd  Pd37  1  0.62826810  1.30695413  1.00000000  1.0
  Pd  Pd38  1  1.30695413  1.62826810  1.00000000  1.0
  Pd  Pd39  1  1.30695413  1.30695413  0.67868603  1.0
