# generated using pymatgen
data_CuPS3
_symmetry_space_group_name_H-M   'P 1'
_cell_length_a   5.41633794
_cell_length_b   5.41633794
_cell_length_c   14.95226559
_cell_angle_alpha   90.00000000
_cell_angle_beta   90.00000000
_cell_angle_gamma   90.00000000
_symmetry_Int_Tables_number   1
_chemical_formula_structural   CuPS3
_chemical_formula_sum   'Cu4 P4 S12'
_cell_volume   438.65037944
_cell_formula_units_Z   4
loop_
 _symmetry_equiv_pos_site_id
 _symmetry_equiv_pos_as_xyz
  1  'x, y, z'
loop_
 _atom_site_type_symbol
 _atom_site_label
 _atom_site_symmetry_multiplicity
 _atom_site_fract_x
 _atom_site_fract_y
 _atom_site_fract_z
 _atom_site_occupancy
  Cu  Cu0  1  0.50000000  0.00000000  0.25000000  1.0
  Cu  Cu1  1  0.50000000  0.00000000  0.75000000  1.0
  Cu  Cu2  1  0.00000000  0.50000000  0.75000000  1.0
  Cu  Cu3  1  0.00000000  0.50000000  0.25000000  1.0
  P  P4  1  0.50000000  0.50000000  0.40373300  1.0
  P  P5  1  0.50000000  0.50000000  0.59626700  1.0
  P  P6  1  0.00000000  0.00000000  0.90373300  1.0
  P  P7  1  0.00000000  0.00000000  0.09626700  1.0
  S  S8  1  0.23056798  0.76943202  0.16451886  1.0
  S  S9  1  0.23056798  0.76943202  0.83548114  1.0
  S  S10  1  0.73056798  0.73056798  0.66451886  1.0
  S  S11  1  0.73056798  0.73056798  0.33548114  1.0
  S  S12  1  0.76943202  0.23056798  0.16451886  1.0
  S  S13  1  0.76943202  0.23056798  0.83548114  1.0
  S  S14  1  0.26943202  0.26943202  0.66451886  1.0
  S  S15  1  0.26943202  0.26943202  0.33548114  1.0
  S  S16  1  0.29356875  0.70643125  0.50000000  1.0
  S  S17  1  0.79356875  0.79356875  0.00000000  1.0
  S  S18  1  0.70643125  0.29356875  0.50000000  1.0
  S  S19  1  0.20643125  0.20643125  0.00000000  1.0
