# generated using pymatgen
data_PS3N5F2
_symmetry_space_group_name_H-M   'P 1'
_cell_length_a   11.74439734
_cell_length_b   11.74439734
_cell_length_c   11.74439734
_cell_angle_alpha   117.57203725
_cell_angle_beta   117.57203725
_cell_angle_gamma   117.57203725
_symmetry_Int_Tables_number   1
_chemical_formula_structural   PS3N5F2
_chemical_formula_sum   'P3 S9 N15 F6'
_cell_volume   645.82021128
_cell_formula_units_Z   3
loop_
 _symmetry_equiv_pos_site_id
 _symmetry_equiv_pos_as_xyz
  1  'x, y, z'
loop_
 _atom_site_type_symbol
 _atom_site_label
 _atom_site_symmetry_multiplicity
 _atom_site_fract_x
 _atom_site_fract_y
 _atom_site_fract_z
 _atom_site_occupancy
  P  P0  1  0.08805940  0.08805940  -0.19209719  1.0
  P  P1  1  0.08805940  0.80790281  -0.91194060  1.0
  P  P2  1  0.80790281  0.08805940  0.08805940  1.0
  S  S3  1  0.50920018  -0.08858573  0.05019930  1.0
  S  S4  1  0.91141427  0.50920018  0.05019930  1.0
  S  S5  1  0.50920018  0.05019930  -0.08858573  1.0
  S  S6  1  1.05019930  1.50920018  -0.08858573  1.0
  S  S7  1  1.05019930  0.91141427  0.50920018  1.0
  S  S8  1  0.91141427  1.05019930  -0.49079982  1.0
  S  S9  1  0.38285668  0.38285668  -0.22443373  1.0
  S  S10  1  0.38285668  0.77556627  -0.61714332  1.0
  S  S11  1  0.77556627  0.38285668  0.38285668  1.0
  N  N12  1  0.70600367  0.19857727  0.33327722  1.0
  N  N13  1  1.19857727  0.70600367  0.33327722  1.0
  N  N14  1  0.70600367  0.33327722  0.19857727  1.0
  N  N15  1  0.33327722  0.70600367  -0.80142273  1.0
  N  N16  1  0.33327722  0.19857727  -0.29399633  1.0
  N  N17  1  1.19857727  0.33327722  0.70600367  1.0
  N  N18  1  0.70689288  -0.02016488  0.11749576  1.0
  N  N19  1  0.97983512  0.70689288  0.11749576  1.0
  N  N20  1  0.70689288  0.11749576  -0.02016488  1.0
  N  N21  1  1.11749576  1.70689288  -0.02016488  1.0
  N  N22  1  1.11749576  0.97983512  0.70689288  1.0
  N  N23  1  0.97983512  1.11749576  -0.29310712  1.0
  N  N24  1  0.84657890  0.84657890  0.34696626  1.0
  N  N25  1  0.84657890  1.34696626  -0.15342110  1.0
  N  N26  1  0.34696626  -0.15342110  -0.15342110  1.0
  F  F27  1  0.34231722  0.34231722  0.10622104  1.0
  F  F28  1  0.34231722  1.10622104  -0.65768278  1.0
  F  F29  1  1.10622104  0.34231722  0.34231722  1.0
  F  F30  1  0.92340839  0.92340839  0.76481110  1.0
  F  F31  1  0.92340839  1.76481110  -0.07659161  1.0
  F  F32  1  0.76481110  -0.07659161  -0.07659161  1.0
