# generated using pymatgen
data_LaGeI
_symmetry_space_group_name_H-M   'P 1'
_cell_length_a   4.44565972
_cell_length_b   4.44565972
_cell_length_c   12.45699597
_cell_angle_alpha   90.00000000
_cell_angle_beta   90.00000000
_cell_angle_gamma   120.00000000
_symmetry_Int_Tables_number   1
_chemical_formula_structural   LaGeI
_chemical_formula_sum   'La2 Ge2 I2'
_cell_volume   213.21433097
_cell_formula_units_Z   2
loop_
 _symmetry_equiv_pos_site_id
 _symmetry_equiv_pos_as_xyz
  1  'x, y, z'
loop_
 _atom_site_type_symbol
 _atom_site_label
 _atom_site_symmetry_multiplicity
 _atom_site_fract_x
 _atom_site_fract_y
 _atom_site_fract_z
 _atom_site_occupancy
  La  La0  1  0.00000000  0.00000000  0.16382832  1.0
  La  La1  1  0.00000000  0.00000000  0.83617168  1.0
  Ge  Ge2  1  0.33333333  0.66666667  0.01038167  1.0
  Ge  Ge3  1  0.66666667  0.33333333  0.98961833  1.0
  I  I4  1  0.33333333  0.66666667  0.66815264  1.0
  I  I5  1  0.66666667  0.33333333  0.33184736  1.0
