# generated using pymatgen
data_CaTeO3
_symmetry_space_group_name_H-M   'P 1'
_cell_length_a   8.79141995
_cell_length_b   5.78062736
_cell_length_c   23.03892997
_cell_angle_alpha   90.00000000
_cell_angle_beta   111.65079986
_cell_angle_gamma   90.00000000
_symmetry_Int_Tables_number   1
_chemical_formula_structural   CaTeO3
_chemical_formula_sum   'Ca12 Te12 O36'
_cell_volume   1088.23380168
_cell_formula_units_Z   12
loop_
 _symmetry_equiv_pos_site_id
 _symmetry_equiv_pos_as_xyz
  1  'x, y, z'
loop_
 _atom_site_type_symbol
 _atom_site_label
 _atom_site_symmetry_multiplicity
 _atom_site_fract_x
 _atom_site_fract_y
 _atom_site_fract_z
 _atom_site_occupancy
  Ca  Ca0  1  0.01837832  0.22872418  0.06002996  1.0
  Ca  Ca1  1  0.98162168  0.72872418  0.43997004  1.0
  Ca  Ca2  1  0.98162168  0.77127582  0.93997004  1.0
  Ca  Ca3  1  0.01837832  0.27127582  0.56002996  1.0
  Ca  Ca4  1  0.99423563  0.64757916  0.18468495  1.0
  Ca  Ca5  1  0.00576437  0.14757916  0.31531505  1.0
  Ca  Ca6  1  0.00576437  0.35242084  0.81531505  1.0
  Ca  Ca7  1  0.99423563  0.85242084  0.68468495  1.0
  Ca  Ca8  1  0.30099622  0.16511811  0.22643858  1.0
  Ca  Ca9  1  0.69900378  0.66511811  0.27356142  1.0
  Ca  Ca10  1  0.69900378  0.83488189  0.77356142  1.0
  Ca  Ca11  1  0.30099622  0.33488189  0.72643858  1.0
  Te  Te12  1  0.31466144  0.73079566  0.12527769  1.0
  Te  Te13  1  0.68533856  0.23079566  0.37472231  1.0
  Te  Te14  1  0.68533856  0.26920434  0.87472231  1.0
  Te  Te15  1  0.31466144  0.76920434  0.62527769  1.0
  Te  Te16  1  0.69587777  0.75000050  0.01073937  1.0
  Te  Te17  1  0.30412223  0.25000050  0.48926063  1.0
  Te  Te18  1  0.30412223  0.24999950  0.98926063  1.0
  Te  Te19  1  0.69587777  0.74999950  0.51073937  1.0
  Te  Te20  1  0.74043647  0.14985360  0.16254883  1.0
  Te  Te21  1  0.25956353  0.64985360  0.33745117  1.0
  Te  Te22  1  0.25956353  0.85014640  0.83745117  1.0
  Te  Te23  1  0.74043647  0.35014640  0.66254883  1.0
  O  O24  1  0.75357566  0.78526498  0.09951801  1.0
  O  O25  1  0.24642434  0.28526498  0.40048199  1.0
  O  O26  1  0.24642434  0.21473502  0.90048199  1.0
  O  O27  1  0.75357566  0.71473502  0.59951801  1.0
  O  O28  1  0.80927893  0.99889028  0.98736945  1.0
  O  O29  1  0.19072107  0.49889028  0.51263055  1.0
  O  O30  1  0.19072107  0.00110972  0.01263055  1.0
  O  O31  1  0.80927893  0.50110972  0.48736945  1.0
  O  O32  1  0.84150611  0.51979599  1.00010244  1.0
  O  O33  1  0.15849389  0.01979599  0.49989756  1.0
  O  O34  1  0.15849389  0.48020401  -0.00010244  1.0
  O  O35  1  0.84150611  0.98020401  0.50010244  1.0
  O  O36  1  0.13691137  0.91684951  0.13130687  1.0
  O  O37  1  0.86308863  0.41684951  0.36869313  1.0
  O  O38  1  0.86308863  0.08315049  0.86869313  1.0
  O  O39  1  0.13691137  0.58315049  0.63130687  1.0
  O  O40  1  0.22961059  0.44526808  0.14764454  1.0
  O  O41  1  0.77038941  0.94526808  0.35235546  1.0
  O  O42  1  0.77038941  0.55473192  0.85235546  1.0
  O  O43  1  0.22961059  0.05473192  0.64764454  1.0
  O  O44  1  0.47174580  0.85421324  0.20340653  1.0
  O  O45  1  0.52825420  0.35421324  0.29659347  1.0
  O  O46  1  0.52825420  0.14578676  0.79659347  1.0
  O  O47  1  0.47174580  0.64578676  0.70340653  1.0
  O  O48  1  0.78754277  0.38882686  0.22637104  1.0
  O  O49  1  0.21245723  0.88882686  0.27362896  1.0
  O  O50  1  0.21245723  0.61117314  0.77362896  1.0
  O  O51  1  0.78754277  0.11117314  0.72637104  1.0
  O  O52  1  0.85131743  0.91507692  0.22514212  1.0
  O  O53  1  0.14868257  0.41507692  0.27485788  1.0
  O  O54  1  0.14868257  0.08492308  0.77485788  1.0
  O  O55  1  0.85131743  0.58492308  0.72514212  1.0
  O  O56  1  0.90986589  0.27191395  0.13630057  1.0
  O  O57  1  0.09013411  0.77191395  0.36369943  1.0
  O  O58  1  0.09013411  0.72808605  0.86369943  1.0
  O  O59  1  0.90986589  0.22808605  0.63630058  1.0
