# generated using pymatgen
data_SrLiAlF6
_symmetry_space_group_name_H-M   'P 1'
_cell_length_a   5.15960848
_cell_length_b   8.93747027
_cell_length_c   10.35606187
_cell_angle_alpha   90.00000000
_cell_angle_beta   89.99337871
_cell_angle_gamma   90.00000000
_symmetry_Int_Tables_number   1
_chemical_formula_structural   SrLiAlF6
_chemical_formula_sum   'Sr4 Li4 Al4 F24'
_cell_volume   477.55785342
_cell_formula_units_Z   4
loop_
 _symmetry_equiv_pos_site_id
 _symmetry_equiv_pos_as_xyz
  1  'x, y, z'
loop_
 _atom_site_type_symbol
 _atom_site_label
 _atom_site_symmetry_multiplicity
 _atom_site_fract_x
 _atom_site_fract_y
 _atom_site_fract_z
 _atom_site_occupancy
  Sr  Sr0  1  0.74990088  0.24983371  0.99998895  1.0
  Sr  Sr1  1  0.74990088  0.25016629  0.49998895  1.0
  Sr  Sr2  1  0.25009912  0.74983371  0.50001105  1.0
  Sr  Sr3  1  0.25009912  0.75016629  0.00001105  1.0
  Li  Li4  1  0.75015878  0.91668946  0.74991917  1.0
  Li  Li5  1  0.75015878  0.58331054  0.24991917  1.0
  Li  Li6  1  0.24984122  0.41668946  0.75008083  1.0
  Li  Li7  1  0.24984122  0.08331054  0.25008083  1.0
  Al  Al8  1  0.74986046  0.58337574  0.75005631  1.0
  Al  Al9  1  0.74986046  0.91662426  0.25005631  1.0
  Al  Al10  1  0.25013954  0.08337574  0.74994369  1.0
  Al  Al11  1  0.25013954  0.41662426  0.24994369  1.0
  F  F12  1  0.04149431  0.57280422  0.64868817  1.0
  F  F13  1  0.04149431  0.92719578  0.14868817  1.0
  F  F14  1  0.95850569  0.07280422  0.85131183  1.0
  F  F15  1  0.95850569  0.42719578  0.35131183  1.0
  F  F16  1  0.87983636  0.73431675  0.85154592  1.0
  F  F17  1  0.87983636  0.76568325  0.35154592  1.0
  F  F18  1  0.12016364  0.23431675  0.64845408  1.0
  F  F19  1  0.12016364  0.26568325  0.14845408  1.0
  F  F20  1  0.91113800  0.44273618  0.85139298  1.0
  F  F21  1  0.91113800  0.05726382  0.35139298  1.0
  F  F22  1  0.08886200  0.94273618  0.64860702  1.0
  F  F23  1  0.08886200  0.55726382  0.14860702  1.0
  F  F24  1  0.62015654  0.73447232  0.64864507  1.0
  F  F25  1  0.62015654  0.76552768  0.14864507  1.0
  F  F26  1  0.37984346  0.23447232  0.85135493  1.0
  F  F27  1  0.37984346  0.26552768  0.35135493  1.0
  F  F28  1  0.41170906  0.94301532  0.85146115  1.0
  F  F29  1  0.41170906  0.55698468  0.35146115  1.0
  F  F30  1  0.58829094  0.44301532  0.64853885  1.0
  F  F31  1  0.58829094  0.05698468  0.14853885  1.0
  F  F32  1  0.45818214  0.57288643  0.85137866  1.0
  F  F33  1  0.45818214  0.92711357  0.35137866  1.0
  F  F34  1  0.54181786  0.07288643  0.64862134  1.0
  F  F35  1  0.54181786  0.42711357  0.14862134  1.0
