# generated using pymatgen
data_SrHfO3
_symmetry_space_group_name_H-M   'P 1'
_cell_length_a   5.83459569
_cell_length_b   8.20959040
_cell_length_c   5.79641241
_cell_angle_alpha   90.00000000
_cell_angle_beta   90.00000000
_cell_angle_gamma   90.00000000
_symmetry_Int_Tables_number   1
_chemical_formula_structural   SrHfO3
_chemical_formula_sum   'Sr4 Hf4 O12'
_cell_volume   277.64607211
_cell_formula_units_Z   4
loop_
 _symmetry_equiv_pos_site_id
 _symmetry_equiv_pos_as_xyz
  1  'x, y, z'
loop_
 _atom_site_type_symbol
 _atom_site_label
 _atom_site_symmetry_multiplicity
 _atom_site_fract_x
 _atom_site_fract_y
 _atom_site_fract_z
 _atom_site_occupancy
  Sr  Sr0  1  0.52704016  0.25000000  0.50603411  1.0
  Sr  Sr1  1  1.02704016  0.25000000  -0.00603411  1.0
  Sr  Sr2  1  0.47295984  0.75000000  0.49396589  1.0
  Sr  Sr3  1  -0.02704016  0.75000000  1.00603411  1.0
  O  O4  1  0.71746690  -0.03699128  0.28267694  1.0
  O  O5  1  0.21746690  0.53699128  0.21732306  1.0
  O  O6  1  0.28253310  0.46300872  0.71732306  1.0
  O  O7  1  0.78253310  1.03699128  0.78267694  1.0
  O  O8  1  0.28253310  1.03699128  0.71732306  1.0
  O  O9  1  0.78253310  0.46300872  0.78267694  1.0
  O  O10  1  0.71746690  0.53699128  0.28267694  1.0
  O  O11  1  0.21746690  -0.03699128  0.21732306  1.0
  O  O12  1  0.48394931  0.25000000  1.07036450  1.0
  O  O13  1  0.98394931  0.25000000  0.42963550  1.0
  O  O14  1  0.51605069  0.75000000  -0.07036450  1.0
  O  O15  1  0.01605069  0.75000000  0.57036450  1.0
  Hf  Hf16  1  0.50000000  0.00000000  0.00000000  1.0
  Hf  Hf17  1  0.00000000  0.50000000  0.50000000  1.0
  Hf  Hf18  1  0.50000000  0.50000000  0.00000000  1.0
  Hf  Hf19  1  0.00000000  0.00000000  0.50000000  1.0
