# generated using pymatgen
data_La3BeGaS7
_symmetry_space_group_name_H-M   'P 1'
_cell_length_a   10.01250434
_cell_length_b   10.01250434
_cell_length_c   6.46577532
_cell_angle_alpha   90.00000000
_cell_angle_beta   90.00000000
_cell_angle_gamma   120.00000000
_symmetry_Int_Tables_number   1
_chemical_formula_structural   La3BeGaS7
_chemical_formula_sum   'La6 Be2 Ga2 S14'
_cell_volume   561.35381115
_cell_formula_units_Z   2
loop_
 _symmetry_equiv_pos_site_id
 _symmetry_equiv_pos_as_xyz
  1  'x, y, z'
loop_
 _atom_site_type_symbol
 _atom_site_label
 _atom_site_symmetry_multiplicity
 _atom_site_fract_x
 _atom_site_fract_y
 _atom_site_fract_z
 _atom_site_occupancy
  La  La0  1  0.77875924  0.62473454  0.22824954  1.0
  La  La1  1  0.62473454  0.84597530  0.72824954  1.0
  La  La2  1  0.84597530  0.22124076  0.22824954  1.0
  La  La3  1  0.37526546  0.15402470  0.22824954  1.0
  La  La4  1  0.22124076  0.37526546  0.72824954  1.0
  La  La5  1  0.15402470  0.77875924  0.72824954  1.0
  Be  Be6  1  0.00000000  0.00000000  -0.16112628  1.0
  Be  Be7  1  0.00000000  0.00000000  0.33887372  1.0
  Ga  Ga8  1  0.33333333  0.66666667  0.15096311  1.0
  Ga  Ga9  1  0.66666667  0.33333333  0.65096311  1.0
  S  S10  1  0.43137464  0.90739613  0.00441135  1.0
  S  S11  1  0.90739613  0.47602150  0.50441135  1.0
  S  S12  1  0.47602150  0.56862536  0.00441135  1.0
  S  S13  1  0.09260387  0.52397850  0.00441135  1.0
  S  S14  1  0.56862536  0.09260387  0.50441135  1.0
  S  S15  1  0.52397850  0.43137464  0.50441135  1.0
  S  S16  1  0.09729237  0.86574988  0.31230009  1.0
  S  S17  1  0.86574988  0.76845751  0.81230009  1.0
  S  S18  1  0.76845751  0.90270763  0.31230009  1.0
  S  S19  1  0.13425012  0.23154249  0.31230009  1.0
  S  S20  1  0.90270763  0.13425012  0.81230009  1.0
  S  S21  1  0.23154249  0.09729237  0.81230009  1.0
  S  S22  1  0.33333333  0.66666667  0.50628024  1.0
  S  S23  1  0.66666667  0.33333333  0.00628024  1.0
