# generated using pymatgen
data_Ta3As
_symmetry_space_group_name_H-M   'P 1'
_cell_length_a   7.82190835
_cell_length_b   7.82190835
_cell_length_c   14.62520637
_cell_angle_alpha   89.38393037
_cell_angle_beta   90.61606963
_cell_angle_gamma   141.70930441
_symmetry_Int_Tables_number   1
_chemical_formula_structural   Ta3As
_chemical_formula_sum   'Ta24 As8'
_cell_volume   554.43020095
_cell_formula_units_Z   8
loop_
 _symmetry_equiv_pos_site_id
 _symmetry_equiv_pos_as_xyz
  1  'x, y, z'
loop_
 _atom_site_type_symbol
 _atom_site_label
 _atom_site_symmetry_multiplicity
 _atom_site_fract_x
 _atom_site_fract_y
 _atom_site_fract_z
 _atom_site_occupancy
  Ta  Ta0  1  0.58774476  -0.09503061  0.99575984  1.0
  Ta  Ta1  1  0.90496939  0.58774476  0.50424016  1.0
  Ta  Ta2  1  0.41225524  0.09503061  0.00424016  1.0
  Ta  Ta3  1  1.09503061  0.41225524  0.49575984  1.0
  Ta  Ta4  1  1.20101473  0.29807773  0.99437059  1.0
  Ta  Ta5  1  0.29807773  0.20101473  0.50562941  1.0
  Ta  Ta6  1  0.79898527  0.70192227  0.00562941  1.0
  Ta  Ta7  1  0.70192227  -0.20101473  0.49437059  1.0
  Ta  Ta8  1  0.49868649  -0.01639777  0.20222811  1.0
  Ta  Ta9  1  0.98360223  0.49868649  0.29777189  1.0
  Ta  Ta10  1  0.50131351  0.01639777  0.79777189  1.0
  Ta  Ta11  1  1.01639777  0.50131351  0.70222811  1.0
  Ta  Ta12  1  0.51846883  0.02386084  0.40914405  1.0
  Ta  Ta13  1  1.02386084  0.51846883  0.09085595  1.0
  Ta  Ta14  1  0.48153117  -0.02386084  0.59085595  1.0
  Ta  Ta15  1  0.97613916  0.48153117  0.90914405  1.0
  Ta  Ta16  1  1.43280818  0.56617560  0.17072779  1.0
  Ta  Ta17  1  0.56617560  0.43280818  0.32927221  1.0
  Ta  Ta18  1  0.56719182  0.43382440  0.82927221  1.0
  Ta  Ta19  1  0.43382440  -0.43280818  0.67072779  1.0
  Ta  Ta20  1  0.93655238  0.08477834  0.32303011  1.0
  Ta  Ta21  1  0.08477834  -0.06344762  0.17696989  1.0
  Ta  Ta22  1  1.06344762  0.91522166  0.67696989  1.0
  Ta  Ta23  1  0.91522166  0.06344762  0.82303011  1.0
  As  As24  1  0.90065602  0.10249057  0.14133679  1.0
  As  As25  1  0.10249057  -0.09934398  0.35866321  1.0
  As  As26  1  1.09934398  0.89750943  0.85866321  1.0
  As  As27  1  0.89750943  0.09934398  0.64133679  1.0
  As  As28  1  0.62760888  0.40021945  0.15586416  1.0
  As  As29  1  0.40021945  -0.37239112  0.34413584  1.0
  As  As30  1  1.37239112  0.59978055  0.84413584  1.0
  As  As31  1  0.59978055  0.37239112  0.65586416  1.0
