# generated using pymatgen
data_Mo3Se3Br
_symmetry_space_group_name_H-M   'P 1'
_cell_length_a   6.83501399
_cell_length_b   6.83501399
_cell_length_c   6.83501399
_cell_angle_alpha   93.88668041
_cell_angle_beta   93.88668041
_cell_angle_gamma   93.88668041
_symmetry_Int_Tables_number   1
_chemical_formula_structural   Mo3Se3Br
_chemical_formula_sum   'Mo6 Se6 Br2'
_cell_volume   317.00572972
_cell_formula_units_Z   2
loop_
 _symmetry_equiv_pos_site_id
 _symmetry_equiv_pos_as_xyz
  1  'x, y, z'
loop_
 _atom_site_type_symbol
 _atom_site_label
 _atom_site_symmetry_multiplicity
 _atom_site_fract_x
 _atom_site_fract_y
 _atom_site_fract_z
 _atom_site_occupancy
  Mo  Mo0  1  0.73682509  0.91791692  0.04768877  1.0
  Mo  Mo1  1  1.08208308  -0.04768877  0.26317491  1.0
  Mo  Mo2  1  0.95231123  0.26317491  0.08208308  1.0
  Mo  Mo3  1  1.26317491  0.08208308  -0.04768877  1.0
  Mo  Mo4  1  0.91791692  1.04768877  -0.26317491  1.0
  Mo  Mo5  1  1.04768877  0.73682509  -0.08208308  1.0
  Se  Se6  1  0.86900243  0.62787522  0.22348099  1.0
  Se  Se7  1  1.37212478  -0.22348099  0.13099757  1.0
  Se  Se8  1  0.77651901  0.13099757  0.37212478  1.0
  Se  Se9  1  1.13099757  0.37212478  -0.22348099  1.0
  Se  Se10  1  0.62787522  1.22348099  -0.13099757  1.0
  Se  Se11  1  1.22348099  0.86900243  -0.37212478  1.0
  Br  Br12  1  0.70739588  0.70739588  0.70739588  1.0
  Br  Br13  1  0.29260412  0.29260412  0.29260412  1.0
