# generated using pymatgen
data_KP(HO2)2
_symmetry_space_group_name_H-M   'P 1'
_cell_length_a   7.56365780
_cell_length_b   7.54263324
_cell_length_c   10.67342381
_cell_angle_alpha   90.00000000
_cell_angle_beta   135.30522353
_cell_angle_gamma   90.00000000
_symmetry_Int_Tables_number   1
_chemical_formula_structural   KP(HO2)2
_chemical_formula_sum   'K4 P4 H8 O16'
_cell_volume   428.27004203
_cell_formula_units_Z   4
loop_
 _symmetry_equiv_pos_site_id
 _symmetry_equiv_pos_as_xyz
  1  'x, y, z'
loop_
 _atom_site_type_symbol
 _atom_site_label
 _atom_site_symmetry_multiplicity
 _atom_site_fract_x
 _atom_site_fract_y
 _atom_site_fract_z
 _atom_site_occupancy
  K  K0  1  0.50000000  0.32015093  0.25000000  1.0
  K  K1  1  0.50000000  0.67984907  0.75000000  1.0
  K  K2  1  -0.00000000  0.99375693  0.25000000  1.0
  K  K3  1  0.00000000  0.00624307  0.75000000  1.0
  P  P4  1  0.50000000  0.88254705  0.25000000  1.0
  P  P5  1  0.50000000  0.11745295  0.75000000  1.0
  P  P6  1  -0.00000000  0.44865237  0.25000000  1.0
  P  P7  1  0.00000000  0.55134763  0.75000000  1.0
  H  H8  1  0.83744394  0.29264587  -0.05814570  1.0
  H  H9  1  0.83744394  0.70735413  0.44185430  1.0
  H  H10  1  0.16255606  0.29264587  0.55814570  1.0
  H  H11  1  0.16255606  0.70735413  1.05814570  1.0
  H  H12  1  0.72300596  0.64171777  0.17029190  1.0
  H  H13  1  0.72300596  0.35828223  0.67029190  1.0
  H  H14  1  0.27699404  0.64171777  0.32970810  1.0
  H  H15  1  0.27699404  0.35828223  0.82970810  1.0
  O  O16  1  0.76341044  0.57989576  0.11008484  1.0
  O  O17  1  0.76341044  0.42010424  0.61008484  1.0
  O  O18  1  0.23658956  0.57989576  0.38991516  1.0
  O  O19  1  0.23658956  0.42010424  0.88991516  1.0
  O  O20  1  0.96664585  0.65568039  0.85401525  1.0
  O  O21  1  0.96664585  0.34431961  0.35401525  1.0
  O  O22  1  0.03335415  0.65568039  0.64598475  1.0
  O  O23  1  0.03335415  0.34431961  0.14598475  1.0
  O  O24  1  0.72038516  0.74712899  0.31209890  1.0
  O  O25  1  0.72038516  0.25287101  0.81209890  1.0
  O  O26  1  0.27961484  0.74712899  0.18790110  1.0
  O  O27  1  0.27961484  0.25287101  0.68790110  1.0
  O  O28  1  0.59294778  1.01528896  0.90875395  1.0
  O  O29  1  0.59294778  -0.01528896  0.40875395  1.0
  O  O30  1  0.40705222  1.01528896  0.59124605  1.0
  O  O31  1  0.40705222  -0.01528896  0.09124605  1.0
