# generated using pymatgen
data_LaP2
_symmetry_space_group_name_H-M   'P 1'
_cell_length_a   9.41715783
_cell_length_b   9.41715783
_cell_length_c   8.86001712
_cell_angle_alpha   62.03768604
_cell_angle_beta   117.96231396
_cell_angle_gamma   83.70577510
_symmetry_Int_Tables_number   1
_chemical_formula_structural   LaP2
_chemical_formula_sum   'La8 P16'
_cell_volume   555.62696206
_cell_formula_units_Z   8
loop_
 _symmetry_equiv_pos_site_id
 _symmetry_equiv_pos_as_xyz
  1  'x, y, z'
loop_
 _atom_site_type_symbol
 _atom_site_label
 _atom_site_symmetry_multiplicity
 _atom_site_fract_x
 _atom_site_fract_y
 _atom_site_fract_z
 _atom_site_occupancy
  La  La0  1  0.87516949  0.73928020  0.10376191  1.0
  La  La1  1  1.26071980  0.12483051  0.60376191  1.0
  La  La2  1  1.64819535  0.27527112  0.54466909  1.0
  La  La3  1  0.72472888  0.35180465  0.04466909  1.0
  La  La4  1  1.24782691  0.66667158  0.95548769  1.0
  La  La5  1  1.33332843  -0.24782691  0.45548769  1.0
  La  La6  1  1.09058656  0.36369627  0.79801927  1.0
  La  La7  1  1.63630373  -0.09058656  0.29801927  1.0
  P  P8  1  0.96620620  0.96660674  0.49871273  1.0
  P  P9  1  1.03339326  0.03379380  -0.00128727  1.0
  P  P10  1  0.71219094  0.54826758  0.64710398  1.0
  P  P11  1  1.45173242  0.28780906  0.14710398  1.0
  P  P12  1  0.90557421  0.60400459  0.85459741  1.0
  P  P13  1  1.39599541  0.09442579  0.35459741  1.0
  P  P14  1  1.03769272  0.73153686  0.50677369  1.0
  P  P15  1  1.26846314  -0.03769272  0.00677369  1.0
  P  P16  1  1.62043500  0.11471085  0.90323181  1.0
  P  P17  1  0.88528915  0.37956500  0.40323181  1.0
  P  P18  1  1.26957348  0.48782538  0.36239103  1.0
  P  P19  1  1.51217462  -0.26957348  0.86239103  1.0
  P  P20  1  1.85077809  -0.10888948  0.69172135  1.0
  P  P21  1  1.10888948  0.14922191  0.19172135  1.0
  P  P22  1  1.38077127  0.36461853  0.70293003  1.0
  P  P23  1  0.63538147  0.61922873  0.20293003  1.0
