# generated using pymatgen
data_K2PO3F
_symmetry_space_group_name_H-M   'P 1'
_cell_length_a   7.76920744
_cell_length_b   6.06428750
_cell_length_c   10.22366191
_cell_angle_alpha   90.00000000
_cell_angle_beta   90.00000000
_cell_angle_gamma   90.00000000
_symmetry_Int_Tables_number   1
_chemical_formula_structural   K2PO3F
_chemical_formula_sum   'K8 P4 O12 F4'
_cell_volume   481.68484158
_cell_formula_units_Z   4
loop_
 _symmetry_equiv_pos_site_id
 _symmetry_equiv_pos_as_xyz
  1  'x, y, z'
loop_
 _atom_site_type_symbol
 _atom_site_label
 _atom_site_symmetry_multiplicity
 _atom_site_fract_x
 _atom_site_fract_y
 _atom_site_fract_z
 _atom_site_occupancy
  K  K0  1  0.98644056  0.75000000  0.72545371  1.0
  K  K1  1  0.48644056  0.75000000  0.77454629  1.0
  K  K2  1  0.01355944  0.25000000  0.27454629  1.0
  K  K3  1  0.51355944  0.25000000  0.22545371  1.0
  K  K4  1  0.81720414  0.75000000  0.06878613  1.0
  K  K5  1  0.31720414  0.75000000  0.43121387  1.0
  K  K6  1  0.18279586  0.25000000  0.93121387  1.0
  K  K7  1  0.68279586  0.25000000  0.56878613  1.0
  P  P8  1  0.76091534  0.75000000  0.40515049  1.0
  P  P9  1  0.26091534  0.75000000  0.09484951  1.0
  P  P10  1  0.23908466  0.25000000  0.59484951  1.0
  P  P11  1  0.73908466  0.25000000  0.90515049  1.0
  O  O12  1  0.74682623  0.96262036  0.32595545  1.0
  O  O13  1  0.74682623  0.53737964  0.32595545  1.0
  O  O14  1  0.24682623  0.96262036  0.17404455  1.0
  O  O15  1  0.24682623  0.53737964  0.17404455  1.0
  O  O16  1  0.25317377  0.46262036  0.67404455  1.0
  O  O17  1  0.25317377  0.03737964  0.67404455  1.0
  O  O18  1  0.75317377  0.46262036  0.82595545  1.0
  O  O19  1  0.75317377  0.03737964  0.82595545  1.0
  O  O20  1  0.66341027  0.75000000  0.53512070  1.0
  O  O21  1  0.16341027  0.75000000  0.96487930  1.0
  O  O22  1  0.33658973  0.25000000  0.46487930  1.0
  O  O23  1  0.83658973  0.25000000  0.03512070  1.0
  F  F24  1  0.96806079  0.75000000  0.45256057  1.0
  F  F25  1  0.46806079  0.75000000  0.04743943  1.0
  F  F26  1  0.03193921  0.25000000  0.54743943  1.0
  F  F27  1  0.53193921  0.25000000  0.95256057  1.0
