# generated using pymatgen
data_H8AuC2S2N4Cl
_symmetry_space_group_name_H-M   'P 1'
_cell_length_a   8.73185746
_cell_length_b   8.73185746
_cell_length_c   8.39561555
_cell_angle_alpha   79.03671692
_cell_angle_beta   100.96328308
_cell_angle_gamma   61.39584505
_symmetry_Int_Tables_number   1
_chemical_formula_structural   H8AuC2S2N4Cl
_chemical_formula_sum   'H16 Au2 C4 S4 N8 Cl2'
_cell_volume   521.54589194
_cell_formula_units_Z   2
loop_
 _symmetry_equiv_pos_site_id
 _symmetry_equiv_pos_as_xyz
  1  'x, y, z'
loop_
 _atom_site_type_symbol
 _atom_site_label
 _atom_site_symmetry_multiplicity
 _atom_site_fract_x
 _atom_site_fract_y
 _atom_site_fract_z
 _atom_site_occupancy
  H  H0  1  1.30965413  -0.48824111  0.95999260  1.0
  H  H1  1  0.51175889  0.30965413  0.54000740  1.0
  H  H2  1  0.69034587  -0.51175889  0.04000740  1.0
  H  H3  1  0.48824111  -0.30965413  0.45999260  1.0
  H  H4  1  1.31058071  -0.35703607  0.77354577  1.0
  H  H5  1  0.64296393  0.31058071  0.72645423  1.0
  H  H6  1  0.68941929  -0.64296393  0.22645423  1.0
  H  H7  1  0.35703607  -0.31058071  0.27354577  1.0
  H  H8  1  1.11925588  -0.61033691  0.92223539  1.0
  H  H9  1  0.38966309  0.11925588  0.57776461  1.0
  H  H10  1  0.88074412  -0.38966309  0.07776461  1.0
  H  H11  1  0.61033691  -0.11925588  0.42223539  1.0
  H  H12  1  0.90445344  -0.46892905  0.76135631  1.0
  H  H13  1  0.53107095  -0.09554656  0.73864369  1.0
  H  H14  1  1.09554656  -0.53107095  0.23864369  1.0
  H  H15  1  0.46892905  0.09554656  0.26135631  1.0
  Au  Au16  1  0.00000000  -0.00000000  0.50000000  1.0
  Au  Au17  1  0.00000000  0.00000000  0.00000000  1.0
  C  C18  1  1.09439012  -0.39626931  0.74257832  1.0
  C  C19  1  0.60373069  0.09439012  0.75742168  1.0
  C  C20  1  0.90560988  -0.60373069  0.25742168  1.0
  C  C21  1  0.39626931  -0.09439012  0.24257832  1.0
  S  S22  1  0.96503322  -0.24808504  0.53282324  1.0
  S  S23  1  0.75191496  -0.03496678  0.96717676  1.0
  S  S24  1  1.03496678  -0.75191496  0.46717676  1.0
  S  S25  1  0.24808504  0.03496678  0.03282324  1.0
  N  N26  1  1.25011009  -0.41629892  0.83048211  1.0
  N  N27  1  0.58370108  0.25011009  0.66951789  1.0
  N  N28  1  0.74988991  -0.58370108  0.16951789  1.0
  N  N29  1  0.41629892  -0.25011009  0.33048211  1.0
  N  N30  1  1.03551869  -0.49897634  0.81352777  1.0
  N  N31  1  0.50102366  0.03551869  0.68647223  1.0
  N  N32  1  0.96448131  -0.50102366  0.18647223  1.0
  N  N33  1  0.49897634  -0.03551869  0.31352777  1.0
  Cl  Cl34  1  0.60709064  -0.39290936  0.75000000  1.0
  Cl  Cl35  1  0.39290936  0.39290936  0.25000000  1.0
