# generated using pymatgen
data_BaLa2Sc2O7
_symmetry_space_group_name_H-M   'P 1'
_cell_length_a   5.87068585
_cell_length_b   5.87068585
_cell_length_c   20.76993759
_cell_angle_alpha   90.00000000
_cell_angle_beta   90.00000000
_cell_angle_gamma   90.00000000
_symmetry_Int_Tables_number   1
_chemical_formula_structural   BaLa2Sc2O7
_chemical_formula_sum   'Ba4 La8 Sc8 O28'
_cell_volume   715.83490834
_cell_formula_units_Z   4
loop_
 _symmetry_equiv_pos_site_id
 _symmetry_equiv_pos_as_xyz
  1  'x, y, z'
loop_
 _atom_site_type_symbol
 _atom_site_label
 _atom_site_symmetry_multiplicity
 _atom_site_fract_x
 _atom_site_fract_y
 _atom_site_fract_z
 _atom_site_occupancy
  Ba  Ba0  1  0.24095229  0.24095229  0.50000000  1.0
  Ba  Ba1  1  0.74095229  0.25904771  0.00000000  1.0
  Ba  Ba2  1  0.75904771  0.75904771  0.50000000  1.0
  Ba  Ba3  1  0.25904771  0.74095229  0.00000000  1.0
  La  La4  1  0.27220044  0.72779956  0.18386736  1.0
  La  La5  1  0.27220044  0.72779956  0.81613264  1.0
  La  La6  1  0.77220044  0.77220044  0.68386736  1.0
  La  La7  1  0.77220044  0.77220044  0.31613264  1.0
  La  La8  1  0.72779956  0.27220044  0.18386736  1.0
  La  La9  1  0.72779956  0.27220044  0.81613264  1.0
  La  La10  1  0.22779956  0.22779956  0.68386736  1.0
  La  La11  1  0.22779956  0.22779956  0.31613264  1.0
  Sc  Sc12  1  0.25661210  0.74338790  0.40049937  1.0
  Sc  Sc13  1  0.25661210  0.74338790  0.59950063  1.0
  Sc  Sc14  1  0.75661210  0.75661210  0.90049937  1.0
  Sc  Sc15  1  0.75661210  0.75661210  0.09950063  1.0
  Sc  Sc16  1  0.74338790  0.25661210  0.40049937  1.0
  Sc  Sc17  1  0.74338790  0.25661210  0.59950063  1.0
  Sc  Sc18  1  0.24338790  0.24338790  0.90049937  1.0
  Sc  Sc19  1  0.24338790  0.24338790  0.09950063  1.0
  O  O20  1  0.19134710  0.80865290  0.29152150  1.0
  O  O21  1  0.19134710  0.80865290  0.70847850  1.0
  O  O22  1  0.69134710  0.69134710  0.79152150  1.0
  O  O23  1  0.69134710  0.69134710  0.20847850  1.0
  O  O24  1  0.80865290  0.19134710  0.29152150  1.0
  O  O25  1  0.80865290  0.19134710  0.70847850  1.0
  O  O26  1  0.30865290  0.30865290  0.79152150  1.0
  O  O27  1  0.30865290  0.30865290  0.20847850  1.0
  O  O28  1  0.50000000  0.00000000  0.38941925  1.0
  O  O29  1  0.50000000  0.00000000  0.61058075  1.0
  O  O30  1  0.00000000  0.50000000  0.88941925  1.0
  O  O31  1  0.00000000  0.50000000  0.11058075  1.0
  O  O32  1  0.00000000  0.50000000  0.38941925  1.0
  O  O33  1  0.00000000  0.50000000  0.61058075  1.0
  O  O34  1  0.50000000  0.00000000  0.88941925  1.0
  O  O35  1  0.50000000  0.00000000  0.11058075  1.0
  O  O36  1  0.28318572  0.71681428  0.50000000  1.0
  O  O37  1  0.78318572  0.78318572  0.00000000  1.0
  O  O38  1  0.71681428  0.28318572  0.50000000  1.0
  O  O39  1  0.21681428  0.21681428  0.00000000  1.0
  O  O40  1  0.50000000  0.50000000  0.37470183  1.0
  O  O41  1  0.50000000  0.50000000  0.62529817  1.0
  O  O42  1  0.00000000  0.00000000  0.87470183  1.0
  O  O43  1  0.00000000  0.00000000  0.12529817  1.0
  O  O44  1  0.50000000  0.50000000  0.09363608  1.0
  O  O45  1  0.50000000  0.50000000  0.90636392  1.0
  O  O46  1  0.00000000  0.00000000  0.59363608  1.0
  O  O47  1  0.00000000  0.00000000  0.40636392  1.0
