# generated using pymatgen
data_CeTi2O6
_symmetry_space_group_name_H-M   'P 1'
_cell_length_a   6.97898240
_cell_length_b   5.31650347
_cell_length_c   3.78061143
_cell_angle_alpha   69.17756993
_cell_angle_beta   89.99378046
_cell_angle_gamma   62.90819246
_symmetry_Int_Tables_number   1
_chemical_formula_structural   CeTi2O6
_chemical_formula_sum   'Ce1 Ti2 O6'
_cell_volume   114.49988070
_cell_formula_units_Z   1
loop_
 _symmetry_equiv_pos_site_id
 _symmetry_equiv_pos_as_xyz
  1  'x, y, z'
loop_
 _atom_site_type_symbol
 _atom_site_label
 _atom_site_symmetry_multiplicity
 _atom_site_fract_x
 _atom_site_fract_y
 _atom_site_fract_z
 _atom_site_occupancy
  Ce  Ce0  1  0.00000000  0.00000000  0.00000000  1.0
  Ti  Ti1  1  -0.38908599  0.64608131  0.17700301  1.0
  Ti  Ti2  1  -0.61091401  0.35391869  0.82299699  1.0
  O  O3  1  -0.30738522  0.95093094  0.02463772  1.0
  O  O4  1  -0.69261478  0.04906906  0.97536228  1.0
  O  O5  1  -0.10469319  0.30156070  0.34920545  1.0
  O  O6  1  -0.89530681  0.69843930  0.65079455  1.0
  O  O7  1  -0.40442980  0.55906310  0.72049952  1.0
  O  O8  1  -0.59557020  0.44093690  0.27950048  1.0
