# generated using pymatgen
data_Hg(NCl)2
_symmetry_space_group_name_H-M   'P 1'
_cell_length_a   6.22695384
_cell_length_b   6.22695384
_cell_length_c   3.79292589
_cell_angle_alpha   90.00000000
_cell_angle_beta   90.00000000
_cell_angle_gamma   81.42348572
_symmetry_Int_Tables_number   1
_chemical_formula_structural   Hg(NCl)2
_chemical_formula_sum   'Hg1 N2 Cl2'
_cell_volume   145.42592482
_cell_formula_units_Z   1
loop_
 _symmetry_equiv_pos_site_id
 _symmetry_equiv_pos_as_xyz
  1  'x, y, z'
loop_
 _atom_site_type_symbol
 _atom_site_label
 _atom_site_symmetry_multiplicity
 _atom_site_fract_x
 _atom_site_fract_y
 _atom_site_fract_z
 _atom_site_occupancy
  Hg  Hg0  1  0.00000000  0.00000000  0.00000000  1.0
  N  N1  1  0.29969079  1.29969079  0.00000000  1.0
  N  N2  1  -0.29969079  0.70030921  0.00000000  1.0
  Cl  Cl3  1  -0.21750382  0.21750382  0.50000000  1.0
  Cl  Cl4  1  -0.78249618  0.78249618  0.50000000  1.0
