# generated using pymatgen
data_YFe4(CuO4)3
_symmetry_space_group_name_H-M   'P 1'
_cell_length_a   6.30120112
_cell_length_b   6.30120112
_cell_length_c   6.30120112
_cell_angle_alpha   109.47122063
_cell_angle_beta   109.47122063
_cell_angle_gamma   109.47122063
_symmetry_Int_Tables_number   1
_chemical_formula_structural   YFe4(CuO4)3
_chemical_formula_sum   'Y1 Fe4 Cu3 O12'
_cell_volume   192.59638595
_cell_formula_units_Z   1
loop_
 _symmetry_equiv_pos_site_id
 _symmetry_equiv_pos_as_xyz
  1  'x, y, z'
loop_
 _atom_site_type_symbol
 _atom_site_label
 _atom_site_symmetry_multiplicity
 _atom_site_fract_x
 _atom_site_fract_y
 _atom_site_fract_z
 _atom_site_occupancy
  Y  Y0  1  0.00000000  0.00000000  0.00000000  1.0
  Fe  Fe1  1  0.50000000  1.00000000  1.00000000  1.0
  Fe  Fe2  1  0.50000000  0.50000000  0.50000000  1.0
  Fe  Fe3  1  1.00000000  1.00000000  0.50000000  1.0
  Fe  Fe4  1  1.00000000  0.50000000  1.00000000  1.0
  Cu  Cu5  1  0.50000000  0.50000000  -0.00000000  1.0
  Cu  Cu6  1  -0.00000000  0.50000000  0.50000000  1.0
  Cu  Cu7  1  0.50000000  0.00000000  0.50000000  1.0
  O  O8  1  0.82360356  1.30052743  1.12413098  1.0
  O  O9  1  0.82360356  0.69947257  0.52307613  1.0
  O  O10  1  0.17639644  0.30052743  0.47692387  1.0
  O  O11  1  0.17639644  0.69947257  0.87586902  1.0
  O  O12  1  0.52307613  0.82360356  0.69947257  1.0
  O  O13  1  1.12413098  0.82360356  1.30052743  1.0
  O  O14  1  0.69947257  0.87586902  0.17639644  1.0
  O  O15  1  0.69947257  0.52307613  0.82360356  1.0
  O  O16  1  0.87586902  0.17639644  0.69947257  1.0
  O  O17  1  0.47692387  0.17639644  0.30052743  1.0
  O  O18  1  0.30052743  0.47692387  0.17639644  1.0
  O  O19  1  1.30052743  1.12413098  0.82360356  1.0
