# generated using pymatgen
data_KLi6BiO6
_symmetry_space_group_name_H-M   'P 1'
_cell_length_a   5.48909763
_cell_length_b   5.48909763
_cell_length_c   5.48909763
_cell_angle_alpha   101.49822588
_cell_angle_beta   101.49822588
_cell_angle_gamma   101.49822588
_symmetry_Int_Tables_number   1
_chemical_formula_structural   KLi6BiO6
_chemical_formula_sum   'K1 Li6 Bi1 O6'
_cell_volume   153.81506616
_cell_formula_units_Z   1
loop_
 _symmetry_equiv_pos_site_id
 _symmetry_equiv_pos_as_xyz
  1  'x, y, z'
loop_
 _atom_site_type_symbol
 _atom_site_label
 _atom_site_symmetry_multiplicity
 _atom_site_fract_x
 _atom_site_fract_y
 _atom_site_fract_z
 _atom_site_occupancy
  K  K0  1  0.50000000  0.50000000  0.50000000  1.0
  Li  Li1  1  0.65572169  1.00000000  -0.65572169  1.0
  Li  Li2  1  0.65572169  0.34427831  0.00000000  1.0
  Li  Li3  1  1.00000000  0.65572169  -0.65572169  1.0
  Li  Li4  1  1.00000000  0.34427831  -0.34427831  1.0
  Li  Li5  1  0.34427831  1.00000000  -0.34427831  1.0
  Li  Li6  1  0.34427831  0.65572169  0.00000000  1.0
  Bi  Bi7  1  0.00000000  0.00000000  0.00000000  1.0
  O  O8  1  1.28001435  0.28001435  -0.09284713  1.0
  O  O9  1  1.28001435  -0.09284713  0.28001435  1.0
  O  O10  1  1.09284713  0.71998565  -0.28001435  1.0
  O  O11  1  0.71998565  1.09284713  -0.28001435  1.0
  O  O12  1  0.71998565  0.71998565  0.09284713  1.0
  O  O13  1  0.90715287  0.28001435  0.28001435  1.0
