# generated using pymatgen
data_NaLu(PS3)2
_symmetry_space_group_name_H-M   'P 1'
_cell_length_a   7.10434839
_cell_length_b   6.93556438
_cell_length_c   9.34982005
_cell_angle_alpha   87.45802401
_cell_angle_beta   86.36635191
_cell_angle_gamma   88.04349111
_symmetry_Int_Tables_number   1
_chemical_formula_structural   NaLu(PS3)2
_chemical_formula_sum   'Na2 Lu2 P4 S12'
_cell_volume   459.08517742
_cell_formula_units_Z   2
loop_
 _symmetry_equiv_pos_site_id
 _symmetry_equiv_pos_as_xyz
  1  'x, y, z'
loop_
 _atom_site_type_symbol
 _atom_site_label
 _atom_site_symmetry_multiplicity
 _atom_site_fract_x
 _atom_site_fract_y
 _atom_site_fract_z
 _atom_site_occupancy
  Na  Na0  1  -0.60739093  -0.52760399  -0.22502503  1.0
  Na  Na1  1  -0.39260907  -0.47239601  -0.77497497  1.0
  Lu  Lu2  1  -0.11455964  -0.96462076  -0.23760692  1.0
  Lu  Lu3  1  -0.88544036  -0.03537924  -0.76239308  1.0
  P  P4  1  -0.96503858  -0.34581548  -0.47966575  1.0
  P  P5  1  -0.03496142  -0.65418452  -0.52033425  1.0
  P  P6  1  -0.60706009  -0.06510600  -0.06465647  1.0
  P  P7  1  -0.39293991  -0.93489400  -0.93534353  1.0
  S  S8  1  -0.97517488  -0.33461205  -0.26091932  1.0
  S  S9  1  -0.02482512  -0.66538795  -0.73908068  1.0
  S  S10  1  -0.29037683  -0.70840697  -0.42071904  1.0
  S  S11  1  -0.70962317  -0.29159303  -0.57928096  1.0
  S  S12  1  -0.83372929  -0.82952762  -0.43108965  1.0
  S  S13  1  -0.16627071  -0.17047238  -0.56891035  1.0
  S  S14  1  -0.82025030  -0.85555341  -0.05720485  1.0
  S  S15  1  -0.17974970  -0.14444659  -0.94279515  1.0
  S  S16  1  -0.29565742  -0.70237465  -0.05646865  1.0
  S  S17  1  -0.70434258  -0.29762535  -0.94353135  1.0
  S  S18  1  -0.47327319  -0.12157255  -0.25624141  1.0
  S  S19  1  -0.52672681  -0.87842745  -0.74375859  1.0
