# generated using pymatgen
data_Ni2W(CN)8
_symmetry_space_group_name_H-M   'P 1'
_cell_length_a   9.98331265
_cell_length_b   9.98331265
_cell_length_c   9.98331265
_cell_angle_alpha   113.99067006
_cell_angle_beta   113.99067006
_cell_angle_gamma   100.76750846
_symmetry_Int_Tables_number   1
_chemical_formula_structural   Ni2W(CN)8
_chemical_formula_sum   'Ni4 W2 C16 N16'
_cell_volume   752.98727807
_cell_formula_units_Z   2
loop_
 _symmetry_equiv_pos_site_id
 _symmetry_equiv_pos_as_xyz
  1  'x, y, z'
loop_
 _atom_site_type_symbol
 _atom_site_label
 _atom_site_symmetry_multiplicity
 _atom_site_fract_x
 _atom_site_fract_y
 _atom_site_fract_z
 _atom_site_occupancy
  Ni  Ni0  1  0.18417507  0.31582493  0.50000000  1.0
  Ni  Ni1  1  0.31582493  0.81582493  1.13164986  1.0
  Ni  Ni2  1  0.81582493  0.68417507  0.50000000  1.0
  Ni  Ni3  1  0.68417507  1.18417507  0.86835014  1.0
  W  W4  1  0.75000000  0.75000000  -0.00000000  1.0
  W  W5  1  0.25000000  0.25000000  -0.00000000  1.0
  C  C6  1  0.91058767  0.99430007  0.21454346  1.0
  C  C7  1  0.99430007  1.77975661  1.08371240  1.0
  C  C8  1  0.77975661  0.69604421  0.78545654  1.0
  C  C9  1  0.69604421  0.91058767  0.91628760  1.0
  C  C10  1  1.41058767  1.19604421  0.91628760  1.0
  C  C11  1  0.49430007  0.41058767  0.21454346  1.0
  C  C12  1  1.27975661  0.49430007  1.08371240  1.0
  C  C13  1  1.19604421  1.27975661  0.78545654  1.0
  C  C14  1  1.08941233  1.00569993  0.78545654  1.0
  C  C15  1  1.00569993  1.22024339  0.91628760  1.0
  C  C16  1  0.22024339  0.30395579  0.21454346  1.0
  C  C17  1  0.30395579  1.08941233  1.08371240  1.0
  C  C18  1  1.58941233  0.80395579  1.08371240  1.0
  C  C19  1  0.50569993  0.58941233  0.78545654  1.0
  C  C20  1  0.72024339  0.50569993  0.91628760  1.0
  C  C21  1  0.80395579  0.72024339  0.21454346  1.0
  N  N22  1  1.00495864  1.12527443  0.33106666  1.0
  N  N23  1  1.12527443  1.79420777  1.12031579  1.0
  N  N24  1  0.79420777  0.67389198  0.66893334  1.0
  N  N25  1  0.67389198  1.00495864  0.87968421  1.0
  N  N26  1  0.50495864  1.17389198  0.87968421  1.0
  N  N27  1  0.62527443  0.50495864  0.33106666  1.0
  N  N28  1  1.29420777  1.62527443  1.12031579  1.0
  N  N29  1  1.17389198  1.29420777  0.66893334  1.0
  N  N30  1  0.99504136  0.87472557  0.66893334  1.0
  N  N31  1  0.87472557  1.20579223  0.87968421  1.0
  N  N32  1  0.20579223  0.32610802  0.33106666  1.0
  N  N33  1  0.32610802  0.99504136  1.12031579  1.0
  N  N34  1  0.49504136  0.82610802  1.12031579  1.0
  N  N35  1  0.37472557  0.49504136  0.66893334  1.0
  N  N36  1  0.70579223  1.37472557  0.87968421  1.0
  N  N37  1  0.82610802  0.70579223  0.33106666  1.0
