# generated using pymatgen
data_CsC
_symmetry_space_group_name_H-M   'P 1'
_cell_length_a   8.66582829
_cell_length_b   8.66582829
_cell_length_c   6.02955677
_cell_angle_alpha   90.00000000
_cell_angle_beta   90.00000000
_cell_angle_gamma   120.00000000
_symmetry_Int_Tables_number   1
_chemical_formula_structural   CsC
_chemical_formula_sum   'Cs6 C6'
_cell_volume   392.13551625
_cell_formula_units_Z   6
loop_
 _symmetry_equiv_pos_site_id
 _symmetry_equiv_pos_as_xyz
  1  'x, y, z'
loop_
 _atom_site_type_symbol
 _atom_site_label
 _atom_site_symmetry_multiplicity
 _atom_site_fract_x
 _atom_site_fract_y
 _atom_site_fract_z
 _atom_site_occupancy
  Cs  Cs0  1  0.40021439  0.40021439  0.50000000  1.0
  Cs  Cs1  1  0.00000000  0.59978561  0.50000000  1.0
  Cs  Cs2  1  0.59978561  0.00000000  0.50000000  1.0
  Cs  Cs3  1  0.73208075  0.73208075  0.00000000  1.0
  Cs  Cs4  1  0.00000000  0.26791925  0.00000000  1.0
  Cs  Cs5  1  0.26791925  0.00000000  0.00000000  1.0
  C  C6  1  0.33333333  0.66666667  0.89465676  1.0
  C  C7  1  0.33333333  0.66666667  0.10534324  1.0
  C  C8  1  0.66666667  0.33333333  0.89465676  1.0
  C  C9  1  0.66666667  0.33333333  0.10534324  1.0
  C  C10  1  0.00000000  0.00000000  0.60521400  1.0
  C  C11  1  0.00000000  0.00000000  0.39478600  1.0
