# generated using pymatgen
data_Na6Fe2C4SO16
_symmetry_space_group_name_H-M   'P 1'
_cell_length_a   9.97730338
_cell_length_b   9.97730338
_cell_length_c   9.97730338
_cell_angle_alpha   60.00000000
_cell_angle_beta   60.00000000
_cell_angle_gamma   60.00000000
_symmetry_Int_Tables_number   1
_chemical_formula_structural   Na6Fe2C4SO16
_chemical_formula_sum   'Na12 Fe4 C8 S2 O32'
_cell_volume   702.30301997
_cell_formula_units_Z   2
loop_
 _symmetry_equiv_pos_site_id
 _symmetry_equiv_pos_as_xyz
  1  'x, y, z'
loop_
 _atom_site_type_symbol
 _atom_site_label
 _atom_site_symmetry_multiplicity
 _atom_site_fract_x
 _atom_site_fract_y
 _atom_site_fract_z
 _atom_site_occupancy
  Na  Na0  1  0.03288950  1.03288950  0.46711050  1.0
  Na  Na1  1  0.46711050  1.46711050  0.03288950  1.0
  Na  Na2  1  0.46711050  0.03288950  0.46711050  1.0
  Na  Na3  1  0.03288950  0.46711050  1.03288950  1.0
  Na  Na4  1  0.46711050  0.03288950  0.03288950  1.0
  Na  Na5  1  0.03288950  0.46711050  0.46711050  1.0
  Na  Na6  1  0.21711050  0.21711050  0.78288950  1.0
  Na  Na7  1  0.78288950  0.78288950  0.21711050  1.0
  Na  Na8  1  0.78288950  0.21711050  -0.21711050  1.0
  Na  Na9  1  0.21711050  0.78288950  0.21711050  1.0
  Na  Na10  1  0.78288950  0.21711050  0.21711050  1.0
  Na  Na11  1  0.21711050  0.78288950  0.78288950  1.0
  Fe  Fe12  1  0.62500000  0.62500000  0.12500000  1.0
  Fe  Fe13  1  -0.37500000  0.62500000  0.62500000  1.0
  Fe  Fe14  1  0.12500000  0.62500000  0.62500000  1.0
  Fe  Fe15  1  -0.37500000  1.12500000  0.62500000  1.0
  C  C16  1  0.40645643  0.40645643  0.78063072  1.0
  C  C17  1  0.40645643  0.40645643  0.40645643  1.0
  C  C18  1  0.78063072  0.40645643  0.40645643  1.0
  C  C19  1  0.40645643  0.78063072  0.40645643  1.0
  C  C20  1  -0.15645643  0.84354357  0.46936928  1.0
  C  C21  1  -0.15645643  0.84354357  0.84354357  1.0
  C  C22  1  -0.53063072  0.84354357  0.84354357  1.0
  C  C23  1  -0.15645643  0.46936928  0.84354357  1.0
  S  S24  1  0.25000000  1.25000000  0.25000000  1.0
  S  S25  1  0.00000000  0.00000000  1.00000000  1.0
  O  O26  1  0.06150505  0.06150505  0.81548484  1.0
  O  O27  1  0.06150505  0.06150505  1.06150505  1.0
  O  O28  1  0.81548484  1.06150505  0.06150505  1.0
  O  O29  1  1.06150505  0.81548484  0.06150505  1.0
  O  O30  1  0.18849495  1.18849495  0.43451516  1.0
  O  O31  1  0.18849495  1.18849495  0.18849495  1.0
  O  O32  1  0.43451516  1.18849495  0.18849495  1.0
  O  O33  1  0.18849495  1.43451516  0.18849495  1.0
  O  O34  1  0.43037169  0.26516265  0.78239222  1.0
  O  O35  1  0.26516265  0.43037169  0.52207344  1.0
  O  O36  1  0.78239222  0.52207344  0.43037169  1.0
  O  O37  1  0.52207344  0.78239222  0.26516265  1.0
  O  O38  1  -0.21760778  1.26516265  0.52207344  1.0
  O  O39  1  0.52207344  0.43037169  -0.21760778  1.0
  O  O40  1  0.43037169  0.52207344  0.26516265  1.0
  O  O41  1  0.26516265  0.78239222  0.43037169  1.0
  O  O42  1  0.52207344  0.26516265  0.43037169  1.0
  O  O43  1  0.78239222  0.43037169  0.26516265  1.0
  O  O44  1  0.26516265  0.52207344  0.78239222  1.0
  O  O45  1  0.43037169  0.78239222  0.52207344  1.0
  O  O46  1  -0.18037169  0.98483735  0.46760778  1.0
  O  O47  1  -0.01516265  0.81962831  0.72792656  1.0
  O  O48  1  -0.53239222  0.72792656  0.81962831  1.0
  O  O49  1  -0.27207344  0.46760778  0.98483735  1.0
  O  O50  1  0.46760778  -0.01516265  0.72792656  1.0
  O  O51  1  0.72792656  -0.18037169  0.46760778  1.0
  O  O52  1  -0.18037169  0.72792656  0.98483735  1.0
  O  O53  1  -0.01516265  0.46760778  0.81962831  1.0
  O  O54  1  -0.27207344  0.98483735  0.81962831  1.0
  O  O55  1  -0.53239222  0.81962831  0.98483735  1.0
  O  O56  1  -0.01516265  0.72792656  0.46760778  1.0
  O  O57  1  -0.18037169  0.46760778  0.72792656  1.0
