# generated using pymatgen
data_LiInSe2
_symmetry_space_group_name_H-M   'P 1'
_cell_length_a   7.31218495
_cell_length_b   7.31218495
_cell_length_c   7.31218495
_cell_angle_alpha   131.25949526
_cell_angle_beta   131.25949526
_cell_angle_gamma   71.40111851
_symmetry_Int_Tables_number   1
_chemical_formula_structural   LiInSe2
_chemical_formula_sum   'Li2 In2 Se4'
_cell_volume   216.23401762
_cell_formula_units_Z   2
loop_
 _symmetry_equiv_pos_site_id
 _symmetry_equiv_pos_as_xyz
  1  'x, y, z'
loop_
 _atom_site_type_symbol
 _atom_site_label
 _atom_site_symmetry_multiplicity
 _atom_site_fract_x
 _atom_site_fract_y
 _atom_site_fract_z
 _atom_site_occupancy
  Li  Li0  1  0.25000000  0.75000000  0.50000000  1.0
  Li  Li1  1  0.50000000  0.50000000  0.00000000  1.0
  In  In2  1  0.75000000  0.25000000  0.50000000  1.0
  In  In3  1  1.00000000  1.00000000  1.00000000  1.0
  Se  Se4  1  1.13339860  1.12500000  1.50839860  1.0
  Se  Se5  1  1.37500000  0.86660140  0.99160140  1.0
  Se  Se6  1  0.87500000  1.38339860  1.00839860  1.0
  Se  Se7  1  0.61660140  0.62500000  0.49160140  1.0
