# generated using pymatgen
data_Ti3C
_symmetry_space_group_name_H-M   'P 1'
_cell_length_a   4.19128257
_cell_length_b   9.08863317
_cell_length_c   3.08010727
_cell_angle_alpha   90.00000000
_cell_angle_beta   90.00000000
_cell_angle_gamma   90.00000000
_symmetry_Int_Tables_number   1
_chemical_formula_structural   Ti3C
_chemical_formula_sum   'Ti6 C2'
_cell_volume   117.33061812
_cell_formula_units_Z   2
loop_
 _symmetry_equiv_pos_site_id
 _symmetry_equiv_pos_as_xyz
  1  'x, y, z'
loop_
 _atom_site_type_symbol
 _atom_site_label
 _atom_site_symmetry_multiplicity
 _atom_site_fract_x
 _atom_site_fract_y
 _atom_site_fract_z
 _atom_site_occupancy
  Ti  Ti0  1  0.00000000  0.50000000  0.74855848  1.0
  Ti  Ti1  1  0.50000000  0.00000000  0.25144152  1.0
  Ti  Ti2  1  0.50000000  0.34266694  0.24896533  1.0
  Ti  Ti3  1  0.50000000  0.65733306  0.24896533  1.0
  Ti  Ti4  1  0.00000000  0.84266694  0.75103467  1.0
  Ti  Ti5  1  0.00000000  0.15733306  0.75103467  1.0
  C  C6  1  0.50000000  0.50000000  0.74894710  1.0
  C  C7  1  0.00000000  0.00000000  0.25105290  1.0
