# generated using pymatgen
data_Cs(ReO)2
_symmetry_space_group_name_H-M   'P 1'
_cell_length_a   9.72392200
_cell_length_b   9.72392200
_cell_length_c   9.72392200
_cell_angle_alpha   138.49692488
_cell_angle_beta   138.49692488
_cell_angle_gamma   60.14278121
_symmetry_Int_Tables_number   1
_chemical_formula_structural   Cs(ReO)2
_chemical_formula_sum   'Cs4 Re8 O8'
_cell_volume   399.56184047
_cell_formula_units_Z   4
loop_
 _symmetry_equiv_pos_site_id
 _symmetry_equiv_pos_as_xyz
  1  'x, y, z'
loop_
 _atom_site_type_symbol
 _atom_site_label
 _atom_site_symmetry_multiplicity
 _atom_site_fract_x
 _atom_site_fract_y
 _atom_site_fract_z
 _atom_site_occupancy
  Cs  Cs0  1  0.37500000  0.12500000  0.25000000  1.0
  Cs  Cs1  1  0.87500000  0.12500000  0.75000000  1.0
  Cs  Cs2  1  0.87500000  1.12500000  1.25000000  1.0
  Cs  Cs3  1  0.87500000  0.62500000  0.75000000  1.0
  Re  Re4  1  1.25253286  0.56172485  0.69080801  1.0
  Re  Re5  1  0.87908316  0.68827515  1.19080801  1.0
  Re  Re6  1  0.87091684  0.56172485  0.30919199  1.0
  Re  Re7  1  0.49746714  0.68827515  0.80919199  1.0
  Re  Re8  1  0.43827515  0.12908316  0.69080801  1.0
  Re  Re9  1  0.31172485  0.50253286  0.19080801  1.0
  Re  Re10  1  0.43827515  0.74746714  1.30919199  1.0
  Re  Re11  1  0.31172485  1.12091684  0.80919199  1.0
  O  O12  1  1.50261312  0.29387202  1.20874110  1.0
  O  O13  1  1.66486908  0.95612798  1.70874110  1.0
  O  O14  1  0.08513092  0.29387202  -0.20874110  1.0
  O  O15  1  0.24738688  0.95612798  0.29125890  1.0
  O  O16  1  0.70612798  0.91486908  1.20874110  1.0
  O  O17  1  0.04387202  0.75261312  0.70874110  1.0
  O  O18  1  0.70612798  0.49738688  0.79125890  1.0
  O  O19  1  0.04387202  0.33513092  0.29125890  1.0
