# generated using pymatgen
data_MgPO4
_symmetry_space_group_name_H-M   'P 1'
_cell_length_a   10.13636809
_cell_length_b   10.13636809
_cell_length_c   8.89963855
_cell_angle_alpha   74.34051793
_cell_angle_beta   105.65948207
_cell_angle_gamma   133.31211997
_symmetry_Int_Tables_number   1
_chemical_formula_structural   MgPO4
_chemical_formula_sum   'Mg8 P8 O32'
_cell_volume   635.94271606
_cell_formula_units_Z   8
loop_
 _symmetry_equiv_pos_site_id
 _symmetry_equiv_pos_as_xyz
  1  'x, y, z'
loop_
 _atom_site_type_symbol
 _atom_site_label
 _atom_site_symmetry_multiplicity
 _atom_site_fract_x
 _atom_site_fract_y
 _atom_site_fract_z
 _atom_site_occupancy
  P  P0  1  1.58394514  -0.22725178  0.91412165  1.0
  P  P1  1  1.22725178  -0.58394514  0.41412165  1.0
  P  P2  1  0.77274822  -0.41605486  0.58587835  1.0
  P  P3  1  1.41605486  0.22725178  0.08587835  1.0
  P  P4  1  1.76902827  0.14339807  0.76741057  1.0
  P  P5  1  0.85660193  -0.76902827  0.26741057  1.0
  P  P6  1  1.14339807  -0.23097173  0.73258943  1.0
  P  P7  1  1.23097173  -0.14339807  0.23258943  1.0
  Mg  Mg8  1  1.42194341  -0.20493122  0.55822382  1.0
  Mg  Mg9  1  1.20493122  -0.42194341  0.05822382  1.0
  Mg  Mg10  1  0.79506878  -0.57805659  0.94177618  1.0
  Mg  Mg11  1  1.57805659  0.20493122  0.44177618  1.0
  Mg  Mg12  1  0.45215643  0.45215643  0.75000000  1.0
  Mg  Mg13  1  0.54784357  0.54784357  0.25000000  1.0
  Mg  Mg14  1  1.50000000  -0.00000000  0.00000000  1.0
  Mg  Mg15  1  1.00000000  -0.50000000  0.50000000  1.0
  O  O16  1  1.50213782  -0.31903197  0.76037563  1.0
  O  O17  1  1.31903197  -0.50213782  0.26037563  1.0
  O  O18  1  0.68096803  -0.49786218  0.73962437  1.0
  O  O19  1  1.49786218  0.31903197  0.23962437  1.0
  O  O20  1  1.76635294  -0.01717668  0.87202634  1.0
  O  O21  1  1.01717668  -0.76635294  0.37202634  1.0
  O  O22  1  0.98282332  -0.23364706  0.62797366  1.0
  O  O23  1  1.23364706  0.01717668  0.12797366  1.0
  O  O24  1  1.44939362  -0.22301665  0.95901559  1.0
  O  O25  1  1.22301665  -0.44939362  0.45901559  1.0
  O  O26  1  0.77698335  -0.55060638  0.54098441  1.0
  O  O27  1  1.55060638  0.22301665  0.04098441  1.0
  O  O28  1  1.61495573  0.05094077  0.62904244  1.0
  O  O29  1  0.94905923  -0.61495573  0.12904244  1.0
  O  O30  1  1.05094077  -0.38504427  0.87095756  1.0
  O  O31  1  1.38504427  -0.05094077  0.37095756  1.0
  O  O32  1  1.71308101  0.19423544  0.87111534  1.0
  O  O33  1  0.80576456  -0.71308101  0.37111534  1.0
  O  O34  1  1.19423544  -0.28691899  0.62888466  1.0
  O  O35  1  1.28691899  -0.19423544  0.12888466  1.0
  O  O36  1  1.35752381  0.31217185  0.95084039  1.0
  O  O37  1  0.68782815  -0.35752381  0.45084039  1.0
  O  O38  1  1.31217185  -0.64247619  0.54915961  1.0
  O  O39  1  1.64247619  -0.31217185  0.04915961  1.0
  O  O40  1  1.66070310  -0.09659851  0.47498226  1.0
  O  O41  1  1.09659851  -0.66070310  0.97498226  1.0
  O  O42  1  0.90340149  -0.33929690  0.02501774  1.0
  O  O43  1  1.33929690  0.09659851  0.52501774  1.0
  O  O44  1  1.30203744  -0.04440647  0.78946545  1.0
  O  O45  1  1.04440647  -0.30203744  0.28946545  1.0
  O  O46  1  0.95559353  -0.69796256  0.71053455  1.0
  O  O47  1  1.69796256  0.04440647  0.21053455  1.0
