# generated using pymatgen
data_Si3(BiO3)4
_symmetry_space_group_name_H-M   'P 1'
_cell_length_a   9.05326487
_cell_length_b   9.05326487
_cell_length_c   9.05326487
_cell_angle_alpha   109.47122063
_cell_angle_beta   109.47122063
_cell_angle_gamma   109.47122063
_symmetry_Int_Tables_number   1
_chemical_formula_structural   Si3(BiO3)4
_chemical_formula_sum   'Si6 Bi8 O24'
_cell_volume   571.20735264
_cell_formula_units_Z   2
loop_
 _symmetry_equiv_pos_site_id
 _symmetry_equiv_pos_as_xyz
  1  'x, y, z'
loop_
 _atom_site_type_symbol
 _atom_site_label
 _atom_site_symmetry_multiplicity
 _atom_site_fract_x
 _atom_site_fract_y
 _atom_site_fract_z
 _atom_site_occupancy
  Si  Si0  1  1.12500000  0.87500000  1.25000000  1.0
  Si  Si1  1  0.37500000  0.62500000  0.75000000  1.0
  Si  Si2  1  0.25000000  1.12500000  0.87500000  1.0
  Si  Si3  1  0.75000000  1.37500000  0.62500000  1.0
  Si  Si4  1  0.62500000  0.75000000  0.37500000  1.0
  Si  Si5  1  0.87500000  0.25000000  1.12500000  1.0
  Bi  Bi6  1  1.32874256  1.32874256  1.32874256  1.0
  Bi  Bi7  1  1.50000000  1.00000000  1.17125744  1.0
  Bi  Bi8  1  0.82874256  0.82874256  0.82874256  1.0
  Bi  Bi9  1  0.50000000  1.00000000  0.67125744  1.0
  Bi  Bi10  1  1.00000000  1.17125744  1.50000000  1.0
  Bi  Bi11  1  1.17125744  0.50000000  1.00000000  1.0
  Bi  Bi12  1  1.00000000  0.67125744  1.50000000  1.0
  Bi  Bi13  1  0.67125744  1.50000000  1.00000000  1.0
  O  O14  1  1.30861037  1.15103242  1.07891156  1.0
  O  O15  1  1.57212086  1.22969881  1.42108844  1.0
  O  O16  1  0.65103242  0.80861037  0.57891156  1.0
  O  O17  1  0.72969881  1.07212086  0.92108844  1.0
  O  O18  1  1.07891156  1.30861037  1.15103242  1.0
  O  O19  1  0.65757795  0.92787914  0.34896758  1.0
  O  O20  1  0.80861037  0.57891156  0.65103242  1.0
  O  O21  1  0.42787914  1.15757795  0.84896758  1.0
  O  O22  1  1.15103242  1.07891156  1.30861037  1.0
  O  O23  1  1.27030119  0.84242205  1.19138963  1.0
  O  O24  1  0.57891156  0.65103242  0.80861037  1.0
  O  O25  1  0.34242205  0.77030119  0.69138963  1.0
  O  O26  1  0.92787914  1.34896758  0.65757795  1.0
  O  O27  1  1.19138963  1.27030119  1.84242205  1.0
  O  O28  1  0.77030119  0.69138963  0.34242205  1.0
  O  O29  1  0.84896758  0.42787914  1.15757795  1.0
  O  O30  1  1.84242205  1.19138963  1.27030119  1.0
  O  O31  1  0.42108844  0.57212086  0.22969881  1.0
  O  O32  1  1.07212086  0.92108844  1.72969881  1.0
  O  O33  1  0.69138963  1.34242205  0.77030119  1.0
  O  O34  1  1.22969881  1.42108844  1.57212086  1.0
  O  O35  1  0.34896758  0.65757795  0.92787914  1.0
  O  O36  1  1.15757795  0.84896758  1.42787914  1.0
  O  O37  1  0.92108844  1.72969881  1.07212086  1.0
