# generated using pymatgen
data_V4H3
_symmetry_space_group_name_H-M   'P 1'
_cell_length_a   4.96205357
_cell_length_b   5.68942832
_cell_length_c   4.40340116
_cell_angle_alpha   90.00000000
_cell_angle_beta   90.00000000
_cell_angle_gamma   90.00000000
_symmetry_Int_Tables_number   1
_chemical_formula_structural   V4H3
_chemical_formula_sum   'V8 H6'
_cell_volume   124.31351070
_cell_formula_units_Z   2
loop_
 _symmetry_equiv_pos_site_id
 _symmetry_equiv_pos_as_xyz
  1  'x, y, z'
loop_
 _atom_site_type_symbol
 _atom_site_label
 _atom_site_symmetry_multiplicity
 _atom_site_fract_x
 _atom_site_fract_y
 _atom_site_fract_z
 _atom_site_occupancy
  V  V0  1  0.49999957  0.25511271  0.45865281  1.0
  V  V1  1  -0.00000043  0.74488729  0.45865281  1.0
  V  V2  1  0.50000043  0.74488729  0.45865281  1.0
  V  V3  1  0.00000043  0.25511271  0.45865281  1.0
  V  V4  1  0.50000000  0.50000000  -0.03455280  1.0
  V  V5  1  0.00000000  0.50000000  -0.03455280  1.0
  V  V6  1  0.50000000  0.00000000  -0.03644345  1.0
  V  V7  1  0.00000000  0.00000000  -0.03644345  1.0
  H  H8  1  0.75000000  0.25135365  0.79917030  1.0
  H  H9  1  0.25000000  0.74864635  0.79917030  1.0
  H  H10  1  0.75000000  -0.00002626  0.30533349  1.0
  H  H11  1  0.25000000  1.00002626  0.30533349  1.0
  H  H12  1  0.75000000  0.74863579  0.79918683  1.0
  H  H13  1  0.25000000  0.25136421  0.79918683  1.0
