# generated using pymatgen
data_FePO5
_symmetry_space_group_name_H-M   'P 1'
_cell_length_a   5.13836806
_cell_length_b   5.13836806
_cell_length_c   7.08329558
_cell_angle_alpha   71.98228150
_cell_angle_beta   108.01771850
_cell_angle_gamma   77.58734400
_symmetry_Int_Tables_number   1
_chemical_formula_structural   FePO5
_chemical_formula_sum   'Fe2 P2 O10'
_cell_volume   158.83621136
_cell_formula_units_Z   2
loop_
 _symmetry_equiv_pos_site_id
 _symmetry_equiv_pos_as_xyz
  1  'x, y, z'
loop_
 _atom_site_type_symbol
 _atom_site_label
 _atom_site_symmetry_multiplicity
 _atom_site_fract_x
 _atom_site_fract_y
 _atom_site_fract_z
 _atom_site_occupancy
  Fe  Fe0  1  1.50000000  0.00000000  0.50000000  1.0
  Fe  Fe1  1  1.00000000  -0.50000000  -0.00000000  1.0
  P  P2  1  0.92902797  -0.07097203  0.25000000  1.0
  P  P3  1  1.07097203  0.07097203  0.75000000  1.0
  O  O4  1  0.78593910  -0.15800938  0.41270982  1.0
  O  O5  1  1.15800938  0.21406090  0.91270982  1.0
  O  O6  1  0.84199062  -0.21406090  0.08729018  1.0
  O  O7  1  1.21406090  0.15800938  0.58729018  1.0
  O  O8  1  0.26683428  -0.19044983  0.37520684  1.0
  O  O9  1  1.19044983  0.73316572  0.87520684  1.0
  O  O10  1  0.80955017  -0.73316572  0.12479316  1.0
  O  O11  1  1.73316572  0.19044983  0.62479316  1.0
  O  O12  1  1.32549676  0.32549676  0.25000000  1.0
  O  O13  1  0.67450324  -0.32549676  0.75000000  1.0
