# generated using pymatgen
data_LaRh3
_symmetry_space_group_name_H-M   'P 1'
_cell_length_a   9.42680904
_cell_length_b   9.42680904
_cell_length_c   9.42680904
_cell_angle_alpha   32.96553242
_cell_angle_beta   32.96553242
_cell_angle_gamma   32.96553242
_symmetry_Int_Tables_number   1
_chemical_formula_structural   LaRh3
_chemical_formula_sum   'La3 Rh9'
_cell_volume   220.71417136
_cell_formula_units_Z   3
loop_
 _symmetry_equiv_pos_site_id
 _symmetry_equiv_pos_as_xyz
  1  'x, y, z'
loop_
 _atom_site_type_symbol
 _atom_site_label
 _atom_site_symmetry_multiplicity
 _atom_site_fract_x
 _atom_site_fract_y
 _atom_site_fract_z
 _atom_site_occupancy
  La  La0  1  0.86158830  0.86158830  0.86158830  1.0
  La  La1  1  1.13841170  1.13841170  0.13841170  1.0
  La  La2  1  0.00000000  0.00000000  0.00000000  1.0
  Rh  Rh3  1  1.41979138  1.41979138  -0.08247386  1.0
  Rh  Rh4  1  1.41979138  0.91752614  0.41979138  1.0
  Rh  Rh5  1  1.08247386  0.58020862  0.58020862  1.0
  Rh  Rh6  1  1.58020862  0.08247386  0.58020862  1.0
  Rh  Rh7  1  1.58020862  0.58020862  0.08247386  1.0
  Rh  Rh8  1  0.91752614  1.41979138  0.41979138  1.0
  Rh  Rh9  1  1.66751598  0.66751598  0.66751598  1.0
  Rh  Rh10  1  1.33248402  0.33248402  0.33248402  1.0
  Rh  Rh11  1  1.50000000  0.50000000  0.50000000  1.0
