# generated using pymatgen
data_SbO2
_symmetry_space_group_name_H-M   'P 1'
_cell_length_a   7.51414308
_cell_length_b   7.51414308
_cell_length_c   7.51414308
_cell_angle_alpha   60.00000000
_cell_angle_beta   60.00000000
_cell_angle_gamma   60.00000000
_symmetry_Int_Tables_number   1
_chemical_formula_structural   SbO2
_chemical_formula_sum   'Sb8 O16'
_cell_volume   300.00147034
_cell_formula_units_Z   8
loop_
 _symmetry_equiv_pos_site_id
 _symmetry_equiv_pos_as_xyz
  1  'x, y, z'
loop_
 _atom_site_type_symbol
 _atom_site_label
 _atom_site_symmetry_multiplicity
 _atom_site_fract_x
 _atom_site_fract_y
 _atom_site_fract_z
 _atom_site_occupancy
  Sb  Sb0  1  0.12500000  0.12500000  1.62500000  1.0
  Sb  Sb1  1  0.12500000  0.62500000  1.12500000  1.0
  Sb  Sb2  1  1.62500000  0.12500000  0.12500000  1.0
  Sb  Sb3  1  1.12500000  0.12500000  0.12500000  1.0
  Sb  Sb4  1  0.62500000  0.62500000  1.12500000  1.0
  Sb  Sb5  1  0.62500000  1.12500000  0.62500000  1.0
  Sb  Sb6  1  1.12500000  0.62500000  0.62500000  1.0
  Sb  Sb7  1  0.62500000  0.62500000  0.62500000  1.0
  O  O8  1  0.52061302  0.52061302  0.97938698  1.0
  O  O9  1  0.97938698  0.52061302  0.97938698  1.0
  O  O10  1  0.52061302  0.97938698  0.97938698  1.0
  O  O11  1  0.97938698  0.97938698  0.52061302  1.0
  O  O12  1  0.52061302  0.97938698  0.52061302  1.0
  O  O13  1  0.97938698  0.52061302  0.52061302  1.0
  O  O14  1  0.72938698  0.72938698  -0.72938698  1.0
  O  O15  1  1.27061302  -0.27061302  0.27061302  1.0
  O  O16  1  -0.27061302  0.27061302  0.27061302  1.0
  O  O17  1  0.27061302  0.27061302  -0.27061302  1.0
  O  O18  1  0.72938698  -0.72938698  0.72938698  1.0
  O  O19  1  -0.72938698  0.72938698  0.72938698  1.0
  O  O20  1  0.75000000  0.75000000  0.75000000  1.0
  O  O21  1  0.50000000  0.50000000  -0.50000000  1.0
  O  O22  1  1.25000000  0.25000000  0.25000000  1.0
  O  O23  1  0.00000000  0.00000000  -0.00000000  1.0
