# generated using pymatgen
data_Cs3CdCl5
_symmetry_space_group_name_H-M   'P 1'
_cell_length_a   10.23446449
_cell_length_b   10.23446449
_cell_length_c   10.23446449
_cell_angle_alpha   125.15904978
_cell_angle_beta   125.15904978
_cell_angle_gamma   81.27475845
_symmetry_Int_Tables_number   1
_chemical_formula_structural   Cs3CdCl5
_chemical_formula_sum   'Cs6 Cd2 Cl10'
_cell_volume   690.08204016
_cell_formula_units_Z   2
loop_
 _symmetry_equiv_pos_site_id
 _symmetry_equiv_pos_as_xyz
  1  'x, y, z'
loop_
 _atom_site_type_symbol
 _atom_site_label
 _atom_site_symmetry_multiplicity
 _atom_site_fract_x
 _atom_site_fract_y
 _atom_site_fract_z
 _atom_site_occupancy
  Cs  Cs0  1  0.83502683  0.33502683  1.17005367  1.0
  Cs  Cs1  1  0.66497317  0.83502683  1.50000000  1.0
  Cs  Cs2  1  0.33502683  0.16497317  0.50000000  1.0
  Cs  Cs3  1  0.16497317  0.66497317  0.82994633  1.0
  Cs  Cs4  1  0.75000000  0.75000000  1.00000000  1.0
  Cs  Cs5  1  0.25000000  0.25000000  -0.00000000  1.0
  Cd  Cd6  1  0.25000000  0.75000000  0.50000000  1.0
  Cd  Cd7  1  0.75000000  0.25000000  0.50000000  1.0
  Cl  Cl8  1  1.20191390  0.70191390  1.20659494  1.0
  Cl  Cl9  1  0.50468104  1.00468104  1.20659494  1.0
  Cl  Cl10  1  0.99531896  1.20191390  1.50000000  1.0
  Cl  Cl11  1  0.29808610  0.50468104  0.50000000  1.0
  Cl  Cl12  1  0.70191390  0.49531896  0.50000000  1.0
  Cl  Cl13  1  1.00468104  0.79808610  1.50000000  1.0
  Cl  Cl14  1  0.49531896  0.99531896  0.79340506  1.0
  Cl  Cl15  1  0.79808610  0.29808610  0.79340506  1.0
  Cl  Cl16  1  0.00000000  0.00000000  0.00000000  1.0
  Cl  Cl17  1  0.50000000  0.50000000  1.00000000  1.0
