# generated using pymatgen
data_Cd2SnO4
_symmetry_space_group_name_H-M   'P 1'
_cell_length_a   5.64897214
_cell_length_b   10.12413852
_cell_length_c   3.23872525
_cell_angle_alpha   90.00000000
_cell_angle_beta   90.00000000
_cell_angle_gamma   90.00000000
_symmetry_Int_Tables_number   1
_chemical_formula_structural   Cd2SnO4
_chemical_formula_sum   'Cd4 Sn2 O8'
_cell_volume   185.22585975
_cell_formula_units_Z   2
loop_
 _symmetry_equiv_pos_site_id
 _symmetry_equiv_pos_as_xyz
  1  'x, y, z'
loop_
 _atom_site_type_symbol
 _atom_site_label
 _atom_site_symmetry_multiplicity
 _atom_site_fract_x
 _atom_site_fract_y
 _atom_site_fract_z
 _atom_site_occupancy
  Cd  Cd0  1  0.44094064  0.82376225  0.50000000  1.0
  Cd  Cd1  1  0.94094064  0.67623775  0.50000000  1.0
  Cd  Cd2  1  0.55905936  0.17623775  0.50000000  1.0
  Cd  Cd3  1  0.05905936  0.32376225  0.50000000  1.0
  Sn  Sn4  1  0.50000000  0.50000000  0.00000000  1.0
  Sn  Sn5  1  0.00000000  0.00000000  0.00000000  1.0
  O  O6  1  0.26432620  0.53893925  0.50000000  1.0
  O  O7  1  0.76432620  0.96106075  0.50000000  1.0
  O  O8  1  0.73567380  0.46106075  0.50000000  1.0
  O  O9  1  0.23567380  0.03893925  0.50000000  1.0
  O  O10  1  0.13537678  0.80777309  0.00000000  1.0
  O  O11  1  0.63537678  0.69222691  0.00000000  1.0
  O  O12  1  0.86462322  0.19222691  0.00000000  1.0
  O  O13  1  0.36462322  0.30777309  0.00000000  1.0
