# generated using pymatgen
data_YOs2
_symmetry_space_group_name_H-M   'P 1'
_cell_length_a   5.32074320
_cell_length_b   5.32074320
_cell_length_c   8.85435319
_cell_angle_alpha   90.00000000
_cell_angle_beta   90.00000000
_cell_angle_gamma   120.00000000
_symmetry_Int_Tables_number   1
_chemical_formula_structural   YOs2
_chemical_formula_sum   'Y4 Os8'
_cell_volume   217.08612704
_cell_formula_units_Z   4
loop_
 _symmetry_equiv_pos_site_id
 _symmetry_equiv_pos_as_xyz
  1  'x, y, z'
loop_
 _atom_site_type_symbol
 _atom_site_label
 _atom_site_symmetry_multiplicity
 _atom_site_fract_x
 _atom_site_fract_y
 _atom_site_fract_z
 _atom_site_occupancy
  Y  Y0  1  0.33333333  0.66666667  0.93424020  1.0
  Y  Y1  1  0.33333333  0.66666667  0.56575980  1.0
  Y  Y2  1  0.66666667  0.33333333  0.43424020  1.0
  Y  Y3  1  0.66666667  0.33333333  0.06575980  1.0
  Os  Os4  1  0.17179722  0.82820278  0.25000000  1.0
  Os  Os5  1  0.17179722  0.34359445  0.25000000  1.0
  Os  Os6  1  0.82820278  0.17179722  0.75000000  1.0
  Os  Os7  1  0.82820278  0.65640555  0.75000000  1.0
  Os  Os8  1  0.65640555  0.82820278  0.25000000  1.0
  Os  Os9  1  0.34359445  0.17179722  0.75000000  1.0
  Os  Os10  1  0.00000000  0.00000000  0.50000000  1.0
  Os  Os11  1  0.00000000  0.00000000  0.00000000  1.0
