# generated using pymatgen
data_Na3Si3SnO9F
_symmetry_space_group_name_H-M   'P 1'
_cell_length_a   8.89829489
_cell_length_b   8.89829489
_cell_length_c   6.60869753
_cell_angle_alpha   77.08637263
_cell_angle_beta   102.91362737
_cell_angle_gamma   73.98093888
_symmetry_Int_Tables_number   1
_chemical_formula_structural   Na3Si3SnO9F
_chemical_formula_sum   'Na6 Si6 Sn2 O18 F2'
_cell_volume   466.97492479
_cell_formula_units_Z   2
loop_
 _symmetry_equiv_pos_site_id
 _symmetry_equiv_pos_as_xyz
  1  'x, y, z'
loop_
 _atom_site_type_symbol
 _atom_site_label
 _atom_site_symmetry_multiplicity
 _atom_site_fract_x
 _atom_site_fract_y
 _atom_site_fract_z
 _atom_site_occupancy
  Na  Na0  1  0.37673654  -0.10594738  0.57802278  1.0
  Na  Na1  1  1.10594738  0.62326346  0.57802278  1.0
  Na  Na2  1  0.89405262  -0.62326346  0.42197722  1.0
  Na  Na3  1  1.62326346  0.10594738  0.42197722  1.0
  Na  Na4  1  0.98495515  -0.98495515  0.23535721  1.0
  Na  Na5  1  0.01504485  -0.01504485  0.76464279  1.0
  Si  Si6  1  1.59265334  0.18624123  0.89850438  1.0
  Si  Si7  1  0.81375877  -0.59265334  0.89850438  1.0
  Si  Si8  1  1.18624123  0.59265334  0.10149562  1.0
  Si  Si9  1  0.40734666  -0.18624123  0.10149562  1.0
  Si  Si10  1  0.71233067  -0.28766933  0.50000000  1.0
  Si  Si11  1  1.28766933  0.28766933  0.50000000  1.0
  Sn  Sn12  1  0.77399190  -0.22600810  0.00000000  1.0
  Sn  Sn13  1  1.22600810  0.22600810  0.00000000  1.0
  O  O14  1  0.72344676  -0.17364700  0.66015671  1.0
  O  O15  1  1.17364700  0.27655324  0.66015671  1.0
  O  O16  1  0.82635300  -0.27655324  0.33984329  1.0
  O  O17  1  1.27655324  0.17364700  0.33984329  1.0
  O  O18  1  1.74987369  0.01837866  0.96337894  1.0
  O  O19  1  0.98162134  -0.74987369  0.96337894  1.0
  O  O20  1  1.01837866  0.74987369  0.03662106  1.0
  O  O21  1  0.25012631  -0.01837866  0.03662106  1.0
  O  O22  1  0.52391422  -0.17649033  0.94460507  1.0
  O  O23  1  1.17649033  0.47608578  0.94460507  1.0
  O  O24  1  0.82350967  -0.47608578  0.05539493  1.0
  O  O25  1  1.47608578  0.17649033  0.05539493  1.0
  O  O26  1  1.48384996  0.22732154  0.64034852  1.0
  O  O27  1  0.77267846  -0.48384996  0.64034852  1.0
  O  O28  1  1.22732154  0.48384996  0.35965148  1.0
  O  O29  1  0.51615004  -0.22732154  0.35965148  1.0
  O  O30  1  0.66303591  -0.66303591  0.91121627  1.0
  O  O31  1  0.33696409  -0.33696409  0.08878373  1.0
  F  F32  1  0.85162745  -0.85162745  0.43675614  1.0
  F  F33  1  0.14837255  -0.14837255  0.56324386  1.0
