# generated using pymatgen
data_BiO2
_symmetry_space_group_name_H-M   'P 1'
_cell_length_a   6.80252936
_cell_length_b   6.80252936
_cell_length_c   5.95823145
_cell_angle_alpha   79.57994382
_cell_angle_beta   100.42005618
_cell_angle_gamma   135.63813365
_symmetry_Int_Tables_number   1
_chemical_formula_structural   BiO2
_chemical_formula_sum   'Bi4 O8'
_cell_volume   189.06270974
_cell_formula_units_Z   4
loop_
 _symmetry_equiv_pos_site_id
 _symmetry_equiv_pos_as_xyz
  1  'x, y, z'
loop_
 _atom_site_type_symbol
 _atom_site_label
 _atom_site_symmetry_multiplicity
 _atom_site_fract_x
 _atom_site_fract_y
 _atom_site_fract_z
 _atom_site_occupancy
  Bi  Bi0  1  0.78214609  0.78214609  0.75000000  1.0
  Bi  Bi1  1  0.21785391  0.21785391  0.25000000  1.0
  Bi  Bi2  1  1.50000000  -0.00000000  -0.00000000  1.0
  Bi  Bi3  1  1.00000000  -0.50000000  0.50000000  1.0
  O  O4  1  1.70798304  0.34640768  0.74079995  1.0
  O  O5  1  0.65359232  -0.70798304  0.24079995  1.0
  O  O6  1  1.34640768  -0.29201696  0.75920005  1.0
  O  O7  1  1.29201696  -0.34640768  0.25920005  1.0
  O  O8  1  1.17472222  -0.01072311  0.96444246  1.0
  O  O9  1  1.01072311  -0.17472222  0.46444246  1.0
  O  O10  1  0.98927689  -0.82527778  0.53555754  1.0
  O  O11  1  1.82527778  0.01072311  0.03555754  1.0
