# generated using pymatgen
data_SbCNCl6
_symmetry_space_group_name_H-M   'P 1'
_cell_length_a   13.72823626
_cell_length_b   10.48421504
_cell_length_c   8.10837897
_cell_angle_alpha   90.00000000
_cell_angle_beta   90.00000000
_cell_angle_gamma   90.00000000
_symmetry_Int_Tables_number   1
_chemical_formula_structural   SbCNCl6
_chemical_formula_sum   'Sb4 C4 N4 Cl24'
_cell_volume   1167.03721084
_cell_formula_units_Z   4
loop_
 _symmetry_equiv_pos_site_id
 _symmetry_equiv_pos_as_xyz
  1  'x, y, z'
loop_
 _atom_site_type_symbol
 _atom_site_label
 _atom_site_symmetry_multiplicity
 _atom_site_fract_x
 _atom_site_fract_y
 _atom_site_fract_z
 _atom_site_occupancy
  Sb  Sb0  1  0.59637478  0.25000000  0.19806124  1.0
  Sb  Sb1  1  0.09637478  0.25000000  0.30193876  1.0
  Sb  Sb2  1  0.40362522  0.75000000  0.80193876  1.0
  Sb  Sb3  1  0.90362522  0.75000000  0.69806124  1.0
  C  C4  1  0.95047058  0.25000000  0.65497493  1.0
  C  C5  1  0.45047058  0.25000000  0.84502507  1.0
  C  C6  1  0.04952942  0.75000000  0.34502507  1.0
  C  C7  1  0.54952942  0.75000000  0.15497493  1.0
  N  N8  1  1.00362342  0.25000000  0.54339042  1.0
  N  N9  1  0.50362342  0.25000000  0.95660958  1.0
  N  N10  1  -0.00362342  0.75000000  0.45660958  1.0
  N  N11  1  0.49637658  0.75000000  0.04339042  1.0
  Cl  Cl12  1  0.98427158  0.40980026  0.21522044  1.0
  Cl  Cl13  1  0.98427158  0.09019974  0.21522044  1.0
  Cl  Cl14  1  0.48427158  0.40980026  0.28477956  1.0
  Cl  Cl15  1  0.48427158  0.09019974  0.28477956  1.0
  Cl  Cl16  1  0.01572842  0.90980026  0.78477956  1.0
  Cl  Cl17  1  0.01572842  0.59019974  0.78477956  1.0
  Cl  Cl18  1  0.51572842  0.90980026  0.71522044  1.0
  Cl  Cl19  1  0.51572842  0.59019974  0.71522044  1.0
  Cl  Cl20  1  0.69045503  0.40989291  0.06212946  1.0
  Cl  Cl21  1  0.69045503  0.09010709  0.06212946  1.0
  Cl  Cl22  1  0.19045503  0.40989291  0.43787054  1.0
  Cl  Cl23  1  0.19045503  0.09010709  0.43787054  1.0
  Cl  Cl24  1  0.30954497  0.90989291  0.93787054  1.0
  Cl  Cl25  1  0.30954497  0.59010709  0.93787054  1.0
  Cl  Cl26  1  0.80954497  0.90989291  0.56212946  1.0
  Cl  Cl27  1  0.80954497  0.59010709  0.56212946  1.0
  Cl  Cl28  1  0.87716215  0.25000000  0.80885701  1.0
  Cl  Cl29  1  0.37716215  0.25000000  0.69114299  1.0
  Cl  Cl30  1  0.12283785  0.75000000  0.19114299  1.0
  Cl  Cl31  1  0.62283785  0.75000000  0.30885701  1.0
  Cl  Cl32  1  0.68782626  0.25000000  0.44568967  1.0
  Cl  Cl33  1  0.18782626  0.25000000  0.05431033  1.0
  Cl  Cl34  1  0.31217374  0.75000000  0.55431033  1.0
  Cl  Cl35  1  0.81217374  0.75000000  0.94568967  1.0
