# generated using pymatgen
data_K3Ti2Cl9
_symmetry_space_group_name_H-M   'P 1'
_cell_length_a   7.13533102
_cell_length_b   7.13533102
_cell_length_c   17.74815875
_cell_angle_alpha   90.00000000
_cell_angle_beta   90.00000000
_cell_angle_gamma   120.00000000
_symmetry_Int_Tables_number   1
_chemical_formula_structural   K3Ti2Cl9
_chemical_formula_sum   'K6 Ti4 Cl18'
_cell_volume   782.55016508
_cell_formula_units_Z   2
loop_
 _symmetry_equiv_pos_site_id
 _symmetry_equiv_pos_as_xyz
  1  'x, y, z'
loop_
 _atom_site_type_symbol
 _atom_site_label
 _atom_site_symmetry_multiplicity
 _atom_site_fract_x
 _atom_site_fract_y
 _atom_site_fract_z
 _atom_site_occupancy
  K  K0  1  0.00000000  0.00000000  0.25000000  1.0
  K  K1  1  0.00000000  0.00000000  0.75000000  1.0
  K  K2  1  0.33333333  0.66666667  0.43806288  1.0
  K  K3  1  0.33333333  0.66666667  0.06193712  1.0
  K  K4  1  0.66666667  0.33333333  0.93806288  1.0
  K  K5  1  0.66666667  0.33333333  0.56193712  1.0
  Ti  Ti6  1  0.33333333  0.66666667  0.83591199  1.0
  Ti  Ti7  1  0.33333333  0.66666667  0.66408801  1.0
  Ti  Ti8  1  0.66666667  0.33333333  0.33591199  1.0
  Ti  Ti9  1  0.66666667  0.33333333  0.16408801  1.0
  Cl  Cl10  1  0.50623157  0.49376843  0.25000000  1.0
  Cl  Cl11  1  0.50623157  0.01246315  0.25000000  1.0
  Cl  Cl12  1  0.49376843  0.50623157  0.75000000  1.0
  Cl  Cl13  1  0.49376843  0.98753685  0.75000000  1.0
  Cl  Cl14  1  0.98753685  0.49376843  0.25000000  1.0
  Cl  Cl15  1  0.01246315  0.50623157  0.75000000  1.0
  Cl  Cl16  1  0.17332658  0.82667342  0.90836118  1.0
  Cl  Cl17  1  0.17332658  0.82667342  0.59163882  1.0
  Cl  Cl18  1  0.17332658  0.34665316  0.90836118  1.0
  Cl  Cl19  1  0.17332658  0.34665316  0.59163882  1.0
  Cl  Cl20  1  0.82667342  0.17332658  0.40836118  1.0
  Cl  Cl21  1  0.82667342  0.17332658  0.09163882  1.0
  Cl  Cl22  1  0.82667342  0.65334684  0.40836118  1.0
  Cl  Cl23  1  0.82667342  0.65334684  0.09163882  1.0
  Cl  Cl24  1  0.65334684  0.82667342  0.90836118  1.0
  Cl  Cl25  1  0.65334684  0.82667342  0.59163882  1.0
  Cl  Cl26  1  0.34665316  0.17332658  0.40836118  1.0
  Cl  Cl27  1  0.34665316  0.17332658  0.09163882  1.0
