# generated using pymatgen
data_CaCuO2
_symmetry_space_group_name_H-M   'P 1'
_cell_length_a   3.19192358
_cell_length_b   11.13776814
_cell_length_c   5.44261406
_cell_angle_alpha   90.00000000
_cell_angle_beta   90.02045841
_cell_angle_gamma   90.00000000
_symmetry_Int_Tables_number   1
_chemical_formula_structural   CaCuO2
_chemical_formula_sum   'Ca4 Cu4 O8'
_cell_volume   193.48984224
_cell_formula_units_Z   4
loop_
 _symmetry_equiv_pos_site_id
 _symmetry_equiv_pos_as_xyz
  1  'x, y, z'
loop_
 _atom_site_type_symbol
 _atom_site_label
 _atom_site_symmetry_multiplicity
 _atom_site_fract_x
 _atom_site_fract_y
 _atom_site_fract_z
 _atom_site_occupancy
  Ca  Ca0  1  0.49609449  0.61226409  0.75010343  1.0
  Ca  Ca1  1  0.50390551  0.11226409  0.24989657  1.0
  Ca  Ca2  1  0.49584472  0.38723678  0.24995941  1.0
  Ca  Ca3  1  0.50415528  0.88723678  0.75004059  1.0
  Cu  Cu4  1  1.00260783  0.12860553  0.74988691  1.0
  Cu  Cu5  1  -0.00260783  0.62860553  0.25011309  1.0
  Cu  Cu6  1  0.99752326  0.37089532  0.74990430  1.0
  Cu  Cu7  1  0.00247674  0.87089532  0.25009570  1.0
  O  O8  1  0.00402520  -0.00027459  0.99995787  1.0
  O  O9  1  -0.00402520  0.49972541  0.00004213  1.0
  O  O10  1  0.00388039  -0.00022339  0.49996852  1.0
  O  O11  1  -0.00388039  0.49977661  0.50003148  1.0
  O  O12  1  1.00075249  0.24973118  0.00944935  1.0
  O  O13  1  -0.00075249  0.74973118  -0.00944935  1.0
  O  O14  1  0.99953154  0.24976508  0.49015279  1.0
  O  O15  1  0.00046846  0.74976508  0.50984721  1.0
