# generated using pymatgen
data_CsP(HO)2
_symmetry_space_group_name_H-M   'P 1'
_cell_length_a   8.75420254
_cell_length_b   6.69053804
_cell_length_c   8.18354604
_cell_angle_alpha   90.00000000
_cell_angle_beta   90.00000000
_cell_angle_gamma   90.00000000
_symmetry_Int_Tables_number   1
_chemical_formula_structural   CsP(HO)2
_chemical_formula_sum   'Cs4 P4 H8 O8'
_cell_volume   479.31295210
_cell_formula_units_Z   4
loop_
 _symmetry_equiv_pos_site_id
 _symmetry_equiv_pos_as_xyz
  1  'x, y, z'
loop_
 _atom_site_type_symbol
 _atom_site_label
 _atom_site_symmetry_multiplicity
 _atom_site_fract_x
 _atom_site_fract_y
 _atom_site_fract_z
 _atom_site_occupancy
  Cs  Cs0  1  0.36059110  0.75000000  0.14145091  1.0
  Cs  Cs1  1  0.86059110  0.75000000  0.35854909  1.0
  Cs  Cs2  1  0.63940890  0.25000000  0.85854909  1.0
  Cs  Cs3  1  0.13940890  0.25000000  0.64145091  1.0
  P  P4  1  0.39592312  0.75000000  0.68187113  1.0
  P  P5  1  0.89592312  0.75000000  0.81812887  1.0
  P  P6  1  0.60407688  0.25000000  0.31812887  1.0
  P  P7  1  0.10407688  0.25000000  0.18187113  1.0
  H  H8  1  0.53285282  0.75000000  0.58552393  1.0
  H  H9  1  0.03285282  0.75000000  0.91447607  1.0
  H  H10  1  0.46714718  0.25000000  0.41447607  1.0
  H  H11  1  0.96714718  0.25000000  0.08552393  1.0
  H  H12  1  0.28071546  0.75000000  0.55665576  1.0
  H  H13  1  0.78071546  0.75000000  0.94334424  1.0
  H  H14  1  0.71928454  0.25000000  0.44334424  1.0
  H  H15  1  0.21928454  0.25000000  0.05665576  1.0
  O  O16  1  0.38616867  0.94668107  0.77491356  1.0
  O  O17  1  0.38616867  0.55331893  0.77491356  1.0
  O  O18  1  0.88616867  0.94668107  0.72508644  1.0
  O  O19  1  0.88616867  0.55331893  0.72508644  1.0
  O  O20  1  0.61383133  0.44668107  0.22508644  1.0
  O  O21  1  0.61383133  0.05331893  0.22508644  1.0
  O  O22  1  0.11383133  0.44668107  0.27491356  1.0
  O  O23  1  0.11383133  0.05331893  0.27491356  1.0
