# generated using pymatgen
data_CsGdS2
_symmetry_space_group_name_H-M   'P 1'
_cell_length_a   4.15361700
_cell_length_b   4.15361700
_cell_length_c   16.09043005
_cell_angle_alpha   90.00000000
_cell_angle_beta   90.00000000
_cell_angle_gamma   120.00000000
_symmetry_Int_Tables_number   1
_chemical_formula_structural   CsGdS2
_chemical_formula_sum   'Cs2 Gd2 S4'
_cell_volume   240.40925358
_cell_formula_units_Z   2
loop_
 _symmetry_equiv_pos_site_id
 _symmetry_equiv_pos_as_xyz
  1  'x, y, z'
loop_
 _atom_site_type_symbol
 _atom_site_label
 _atom_site_symmetry_multiplicity
 _atom_site_fract_x
 _atom_site_fract_y
 _atom_site_fract_z
 _atom_site_occupancy
  Cs  Cs0  1  0.33333333  0.66666667  0.25000000  1.0
  Cs  Cs1  1  0.66666667  0.33333333  0.75000000  1.0
  Gd  Gd2  1  0.00000000  0.00000000  0.50000000  1.0
  Gd  Gd3  1  0.00000000  0.00000000  0.00000000  1.0
  S  S4  1  0.33333333  0.66666667  0.90839003  1.0
  S  S5  1  0.33333333  0.66666667  0.59160997  1.0
  S  S6  1  0.66666667  0.33333333  0.40839003  1.0
  S  S7  1  0.66666667  0.33333333  0.09160997  1.0
