# generated using pymatgen
data_P2H4RhO9
_symmetry_space_group_name_H-M   'P 1'
_cell_length_a   7.35495191
_cell_length_b   7.35495191
_cell_length_c   8.67132181
_cell_angle_alpha   106.12331315
_cell_angle_beta   73.87668685
_cell_angle_gamma   78.48690482
_symmetry_Int_Tables_number   1
_chemical_formula_structural   P2H4RhO9
_chemical_formula_sum   'P4 H8 Rh2 O18'
_cell_volume   412.98496745
_cell_formula_units_Z   2
loop_
 _symmetry_equiv_pos_site_id
 _symmetry_equiv_pos_as_xyz
  1  'x, y, z'
loop_
 _atom_site_type_symbol
 _atom_site_label
 _atom_site_symmetry_multiplicity
 _atom_site_fract_x
 _atom_site_fract_y
 _atom_site_fract_z
 _atom_site_occupancy
  P  P0  1  0.80567018  -0.85850855  0.77081598  1.0
  P  P1  1  0.14149145  -0.19432982  0.22918402  1.0
  P  P2  1  1.15284868  -0.51463247  0.75565963  1.0
  P  P3  1  0.48536753  0.15284868  0.24434037  1.0
  Rh  Rh4  1  1.03077160  -0.74816396  0.45757950  1.0
  Rh  Rh5  1  0.25183604  0.03077160  0.54242050  1.0
  O  O6  1  0.80241181  -0.74145014  0.64328977  1.0
  O  O7  1  0.25854986  -0.19758819  0.35671023  1.0
  O  O8  1  0.96750077  -0.41298156  0.92401739  1.0
  O  O9  1  0.58701844  -0.03249923  0.07598261  1.0
  O  O10  1  0.02444242  -0.00846828  0.69192670  1.0
  O  O11  1  0.99153172  -0.97555758  0.30807330  1.0
  O  O12  1  0.45971266  -0.16624515  0.60543544  1.0
  O  O13  1  0.83375485  -0.54028734  0.39456456  1.0
  O  O14  1  0.65348889  0.02990002  0.78830285  1.0
  O  O15  1  1.02990002  -0.34651111  0.21169715  1.0
  O  O16  1  1.31194598  -0.41133311  0.75666501  1.0
  O  O17  1  0.58866689  0.31194598  0.24333499  1.0
  O  O18  1  1.07182676  -0.51654941  0.60590020  1.0
  O  O19  1  0.48345059  0.07182676  0.39409980  1.0
  O  O20  1  1.25781871  -0.75972346  0.27089909  1.0
  O  O21  1  0.24027654  0.25781871  0.72910091  1.0
  O  O22  1  0.78390047  -0.70433948  0.94437877  1.0
  O  O23  1  0.29566052  -0.21609953  0.05562123  1.0
  H  H24  1  0.29674400  -0.30020269  0.93821413  1.0
  H  H25  1  0.69979731  -0.70325600  0.06178587  1.0
  H  H26  1  0.60678706  -0.01122456  0.96153235  1.0
  H  H27  1  0.98877544  -0.39321294  0.03846765  1.0
  H  H28  1  0.40599507  -0.25637064  0.65981708  1.0
  H  H29  1  0.74362936  -0.59400493  0.34018292  1.0
  H  H30  1  0.53174285  -0.09711447  0.67280850  1.0
  H  H31  1  0.90288553  -0.46825715  0.32719150  1.0
