# generated using pymatgen
data_Tl3PSe4
_symmetry_space_group_name_H-M   'P 1'
_cell_length_a   9.40736415
_cell_length_b   11.26375713
_cell_length_c   9.62062312
_cell_angle_alpha   90.00000000
_cell_angle_beta   90.00000000
_cell_angle_gamma   90.00000000
_symmetry_Int_Tables_number   1
_chemical_formula_structural   Tl3PSe4
_chemical_formula_sum   'Tl12 P4 Se16'
_cell_volume   1019.42301707
_cell_formula_units_Z   4
loop_
 _symmetry_equiv_pos_site_id
 _symmetry_equiv_pos_as_xyz
  1  'x, y, z'
loop_
 _atom_site_type_symbol
 _atom_site_label
 _atom_site_symmetry_multiplicity
 _atom_site_fract_x
 _atom_site_fract_y
 _atom_site_fract_z
 _atom_site_occupancy
  Tl  Tl0  1  0.43261932  0.94622724  0.80630493  1.0
  Tl  Tl1  1  0.43261932  0.55377276  0.80630493  1.0
  Tl  Tl2  1  0.93261932  0.94622724  0.69369507  1.0
  Tl  Tl3  1  0.93261932  0.55377276  0.69369507  1.0
  Tl  Tl4  1  0.56738068  0.44622724  0.19369507  1.0
  Tl  Tl5  1  0.56738068  0.05377276  0.19369507  1.0
  Tl  Tl6  1  0.06738068  0.44622724  0.30630493  1.0
  Tl  Tl7  1  0.06738068  0.05377276  0.30630493  1.0
  Tl  Tl8  1  0.39990326  0.25000000  0.60968289  1.0
  Tl  Tl9  1  0.89990326  0.25000000  0.89031711  1.0
  Tl  Tl10  1  0.60009674  0.75000000  0.39031711  1.0
  Tl  Tl11  1  0.10009674  0.75000000  0.10968289  1.0
  P  P12  1  0.27937822  0.25000000  0.02825985  1.0
  P  P13  1  0.77937822  0.25000000  0.47174015  1.0
  P  P14  1  0.72062178  0.75000000  0.97174015  1.0
  P  P15  1  0.22062178  0.75000000  0.52825985  1.0
  Se  Se16  1  0.30890164  0.25000000  0.26105265  1.0
  Se  Se17  1  0.80890164  0.25000000  0.23894735  1.0
  Se  Se18  1  0.69109836  0.75000000  0.73894735  1.0
  Se  Se19  1  0.19109836  0.75000000  0.76105265  1.0
  Se  Se20  1  0.15833290  0.41273888  0.96854450  1.0
  Se  Se21  1  0.15833290  0.08726112  0.96854450  1.0
  Se  Se22  1  0.65833290  0.41273888  0.53145550  1.0
  Se  Se23  1  0.65833290  0.08726112  0.53145550  1.0
  Se  Se24  1  0.84166710  0.91273888  0.03145550  1.0
  Se  Se25  1  0.84166710  0.58726112  0.03145550  1.0
  Se  Se26  1  0.34166710  0.91273888  0.46854450  1.0
  Se  Se27  1  0.34166710  0.58726112  0.46854450  1.0
  Se  Se28  1  0.49586736  0.25000000  0.93328745  1.0
  Se  Se29  1  0.99586736  0.25000000  0.56671255  1.0
  Se  Se30  1  0.50413264  0.75000000  0.06671255  1.0
  Se  Se31  1  0.00413264  0.75000000  0.43328745  1.0
