# generated using pymatgen
data_Bi2Pd3S2
_symmetry_space_group_name_H-M   'P 1'
_cell_length_a   7.31836629
_cell_length_b   7.31836629
_cell_length_c   11.99513397
_cell_angle_alpha   90.82274617
_cell_angle_beta   89.17725383
_cell_angle_gamma   109.48434640
_symmetry_Int_Tables_number   1
_chemical_formula_structural   Bi2Pd3S2
_chemical_formula_sum   'Bi8 Pd12 S8'
_cell_volume   605.55665366
_cell_formula_units_Z   4
loop_
 _symmetry_equiv_pos_site_id
 _symmetry_equiv_pos_as_xyz
  1  'x, y, z'
loop_
 _atom_site_type_symbol
 _atom_site_label
 _atom_site_symmetry_multiplicity
 _atom_site_fract_x
 _atom_site_fract_y
 _atom_site_fract_z
 _atom_site_occupancy
  Bi  Bi0  1  0.87182296  -0.87182296  0.88126405  1.0
  Bi  Bi1  1  0.12817704  -0.12817704  0.11873595  1.0
  Bi  Bi2  1  0.88560157  -0.88560157  0.38794624  1.0
  Bi  Bi3  1  0.11439843  -0.11439843  0.61205376  1.0
  Bi  Bi4  1  0.62814785  -0.62814785  0.61867929  1.0
  Bi  Bi5  1  0.37185215  -0.37185215  0.38132071  1.0
  Bi  Bi6  1  0.38563050  -0.38563050  0.88803863  1.0
  Bi  Bi7  1  0.61436950  -0.61436950  0.11196137  1.0
  Pd  Pd8  1  0.87555311  -0.87555311  0.65098327  1.0
  Pd  Pd9  1  0.12444689  -0.12444689  0.34901673  1.0
  Pd  Pd10  1  0.62444997  -0.62444997  0.84898214  1.0
  Pd  Pd11  1  0.37555003  -0.37555003  0.15101786  1.0
  Pd  Pd12  1  0.72675413  -0.27324587  0.50000000  1.0
  Pd  Pd13  1  1.27324587  0.27324587  0.50000000  1.0
  Pd  Pd14  1  0.77336484  -0.22663516  -0.00000000  1.0
  Pd  Pd15  1  1.22663516  0.22663516  -0.00000000  1.0
  Pd  Pd16  1  1.50000000  -0.00000000  0.50000000  1.0
  Pd  Pd17  1  1.00000000  -0.50000000  0.50000000  1.0
  Pd  Pd18  1  1.50000000  -0.00000000  -0.00000000  1.0
  Pd  Pd19  1  1.00000000  -0.50000000  -0.00000000  1.0
  S  S20  1  0.59355010  -0.15020214  0.65164977  1.0
  S  S21  1  1.15020214  0.40644990  0.65164977  1.0
  S  S22  1  0.84979786  -0.40644990  0.34835023  1.0
  S  S23  1  1.40644990  0.15020214  0.34835023  1.0
  S  S24  1  1.34979931  0.09354810  0.84835268  1.0
  S  S25  1  0.90645190  -0.34979931  0.84835268  1.0
  S  S26  1  1.09354810  0.34979931  0.15164732  1.0
  S  S27  1  0.65020069  -0.09354810  0.15164732  1.0
