# generated using pymatgen
data_InSiCN
_symmetry_space_group_name_H-M   'P 1'
_cell_length_a   3.26303432
_cell_length_b   5.84684385
_cell_length_c   5.35561259
_cell_angle_alpha   90.00000000
_cell_angle_beta   90.00000000
_cell_angle_gamma   90.00000000
_symmetry_Int_Tables_number   1
_chemical_formula_structural   InSiCN
_chemical_formula_sum   'In2 Si2 C2 N2'
_cell_volume   102.17679862
_cell_formula_units_Z   2
loop_
 _symmetry_equiv_pos_site_id
 _symmetry_equiv_pos_as_xyz
  1  'x, y, z'
loop_
 _atom_site_type_symbol
 _atom_site_label
 _atom_site_symmetry_multiplicity
 _atom_site_fract_x
 _atom_site_fract_y
 _atom_site_fract_z
 _atom_site_occupancy
  In  In0  1  0.50000000  0.60425006  0.50466380  1.0
  In  In1  1  0.00000000  0.39574994  0.00466380  1.0
  Si  Si2  1  0.50000000  0.91738082  -0.00593132  1.0
  Si  Si3  1  0.00000000  0.08261918  0.49406868  1.0
  C  C4  1  0.50000000  0.95665248  0.35152104  1.0
  C  C5  1  0.00000000  0.04334752  0.85152104  1.0
  N  N6  1  0.50000000  0.62255267  0.91364648  1.0
  N  N7  1  0.00000000  0.37744733  0.41364648  1.0
