# generated using pymatgen
data_GdTl(WO4)2
_symmetry_space_group_name_H-M   'P 1'
_cell_length_a   7.64147282
_cell_length_b   7.64147282
_cell_length_c   7.66495812
_cell_angle_alpha   62.00395034
_cell_angle_beta   117.99604966
_cell_angle_gamma   91.48956018
_symmetry_Int_Tables_number   1
_chemical_formula_structural   GdTl(WO4)2
_chemical_formula_sum   'Gd2 Tl2 W4 O16'
_cell_volume   337.93609414
_cell_formula_units_Z   2
loop_
 _symmetry_equiv_pos_site_id
 _symmetry_equiv_pos_as_xyz
  1  'x, y, z'
loop_
 _atom_site_type_symbol
 _atom_site_label
 _atom_site_symmetry_multiplicity
 _atom_site_fract_x
 _atom_site_fract_y
 _atom_site_fract_z
 _atom_site_occupancy
  Gd  Gd0  1  0.77375734  0.77375734  0.25000000  1.0
  Gd  Gd1  1  0.22624266  0.22624266  0.75000000  1.0
  Tl  Tl2  1  0.20634164  0.20634164  0.25000000  1.0
  Tl  Tl3  1  0.79365836  0.79365836  0.75000000  1.0
  W  W4  1  0.69483640  0.30582610  0.23199245  1.0
  W  W5  1  0.69417390  0.30516360  0.73199245  1.0
  W  W6  1  1.30582610  -0.30516360  0.26800755  1.0
  W  W7  1  1.30516360  -0.30582610  0.76800755  1.0
  O  O8  1  1.58484926  -0.37165471  0.03090594  1.0
  O  O9  1  1.37165471  -0.58484926  0.53090594  1.0
  O  O10  1  0.62834529  0.58484926  0.46909406  1.0
  O  O11  1  0.41515074  0.37165471  0.96909406  1.0
  O  O12  1  0.61810959  0.24009207  0.44082173  1.0
  O  O13  1  0.75990793  0.38189041  0.94082173  1.0
  O  O14  1  1.24009207  -0.38189041  0.05917827  1.0
  O  O15  1  1.38189041  -0.24009207  0.55917827  1.0
  O  O16  1  1.37777143  -0.06948397  0.12707508  1.0
  O  O17  1  1.06948397  -0.37777143  0.62707508  1.0
  O  O18  1  0.93051603  0.37777143  0.37292492  1.0
  O  O19  1  0.62222857  0.06948397  0.87292492  1.0
  O  O20  1  0.78280229  0.05010984  0.30584775  1.0
  O  O21  1  0.94989016  0.21719771  0.80584775  1.0
  O  O22  1  1.05010984  -0.21719771  0.19415225  1.0
  O  O23  1  1.21719771  -0.05010984  0.69415225  1.0
