# generated using pymatgen
data_MgGeAs2
_symmetry_space_group_name_H-M   'P 1'
_cell_length_a   7.06056702
_cell_length_b   7.06056702
_cell_length_c   7.06056702
_cell_angle_alpha   129.55306746
_cell_angle_beta   129.55306746
_cell_angle_gamma   74.12227766
_symmetry_Int_Tables_number   1
_chemical_formula_structural   MgGeAs2
_chemical_formula_sum   'Mg2 Ge2 As4'
_cell_volume   204.03393411
_cell_formula_units_Z   2
loop_
 _symmetry_equiv_pos_site_id
 _symmetry_equiv_pos_as_xyz
  1  'x, y, z'
loop_
 _atom_site_type_symbol
 _atom_site_label
 _atom_site_symmetry_multiplicity
 _atom_site_fract_x
 _atom_site_fract_y
 _atom_site_fract_z
 _atom_site_occupancy
  Mg  Mg0  1  1.00000000  1.00000000  1.00000000  1.0
  Mg  Mg1  1  0.75000000  0.25000000  0.50000000  1.0
  Ge  Ge2  1  0.50000000  0.50000000  -0.00000000  1.0
  Ge  Ge3  1  0.25000000  0.75000000  0.50000000  1.0
  As  As4  1  1.37500000  0.85206276  0.97706276  1.0
  As  As5  1  0.87500000  1.39793724  1.02293724  1.0
  As  As6  1  0.60206276  0.62500000  0.47706276  1.0
  As  As7  1  1.14793724  1.12500000  1.52293724  1.0
