# generated using pymatgen
data_GdCoSn2
_symmetry_space_group_name_H-M   'P 1'
_cell_length_a   9.46440393
_cell_length_b   9.46440393
_cell_length_c   4.47395303
_cell_angle_alpha   90.00000000
_cell_angle_beta   90.00000000
_cell_angle_gamma   153.13159393
_symmetry_Int_Tables_number   1
_chemical_formula_structural   GdCoSn2
_chemical_formula_sum   'Gd2 Co2 Sn4'
_cell_volume   181.11795700
_cell_formula_units_Z   2
loop_
 _symmetry_equiv_pos_site_id
 _symmetry_equiv_pos_as_xyz
  1  'x, y, z'
loop_
 _atom_site_type_symbol
 _atom_site_label
 _atom_site_symmetry_multiplicity
 _atom_site_fract_x
 _atom_site_fract_y
 _atom_site_fract_z
 _atom_site_occupancy
  Gd  Gd0  1  -0.11456203  0.11456203  0.25000000  1.0
  Gd  Gd1  1  0.11456203  0.88543797  0.75000000  1.0
  Co  Co2  1  -0.32034235  0.32034235  0.25000000  1.0
  Co  Co3  1  0.32034235  0.67965765  0.75000000  1.0
  Sn  Sn4  1  -0.45217548  0.45217548  0.25000000  1.0
  Sn  Sn5  1  0.45217548  0.54782452  0.75000000  1.0
  Sn  Sn6  1  0.25089487  0.74910513  0.25000000  1.0
  Sn  Sn7  1  -0.25089487  0.25089487  0.75000000  1.0
