# generated using pymatgen
data_AuSeClO3
_symmetry_space_group_name_H-M   'P 1'
_cell_length_a   4.69332949
_cell_length_b   11.14532082
_cell_length_c   9.90086113
_cell_angle_alpha   86.11087030
_cell_angle_beta   89.14905375
_cell_angle_gamma   92.78799118
_symmetry_Int_Tables_number   1
_chemical_formula_structural   AuSeClO3
_chemical_formula_sum   'Au4 Se4 Cl4 O12'
_cell_volume   516.01095471
_cell_formula_units_Z   4
loop_
 _symmetry_equiv_pos_site_id
 _symmetry_equiv_pos_as_xyz
  1  'x, y, z'
loop_
 _atom_site_type_symbol
 _atom_site_label
 _atom_site_symmetry_multiplicity
 _atom_site_fract_x
 _atom_site_fract_y
 _atom_site_fract_z
 _atom_site_occupancy
  Au  Au0  1  -0.96862911  -0.82301411  -0.40610543  1.0
  Au  Au1  1  -0.03137089  -0.17698589  -0.59389457  1.0
  Au  Au2  1  -0.00000000  -0.50000000  -0.00000000  1.0
  Au  Au3  1  0.00000000  0.00000000  0.00000000  1.0
  Se  Se4  1  -0.73737086  -0.25385703  -0.87652051  1.0
  Se  Se5  1  -0.26262914  -0.74614297  -0.12347949  1.0
  Se  Se6  1  -0.17221847  -0.90542683  -0.70662237  1.0
  Se  Se7  1  -0.82778153  -0.09457317  -0.29337763  1.0
  Cl  Cl8  1  -0.72630923  -0.52581321  -0.81057022  1.0
  Cl  Cl9  1  -0.27369077  -0.47418679  -0.18942978  1.0
  Cl  Cl10  1  -0.72723687  -0.31819602  -0.51715480  1.0
  Cl  Cl11  1  -0.27276313  -0.68180398  -0.48284520  1.0
  O  O12  1  -0.95188255  -0.76256268  -0.21938336  1.0
  O  O13  1  -0.04811745  -0.23743732  -0.78061664  1.0
  O  O14  1  -0.91223480  -0.32092262  -1.00928271  1.0
  O  O15  1  -0.08776520  -0.67907738  0.00928271  1.0
  O  O16  1  -0.90203491  -0.88157347  -0.59029082  1.0
  O  O17  1  -0.09796509  -0.11842653  -0.40970918  1.0
  O  O18  1  -0.90370124  -0.92507592  -0.82688396  1.0
  O  O19  1  -0.09629876  -0.07492408  -0.17311604  1.0
  O  O20  1  -0.69109895  -0.94993764  -0.33919622  1.0
  O  O21  1  -0.30890105  -0.05006236  -0.66080378  1.0
  O  O22  1  -0.68134525  -0.11242120  -0.96140507  1.0
  O  O23  1  -0.31865475  -0.88757880  -0.03859493  1.0
