# generated using pymatgen
data_Ba2LiGe3
_symmetry_space_group_name_H-M   'P 1'
_cell_length_a   12.53928226
_cell_length_b   10.81012322
_cell_length_c   8.96474571
_cell_angle_alpha   78.09234684
_cell_angle_beta   57.51685465
_cell_angle_gamma   44.39079851
_symmetry_Int_Tables_number   1
_chemical_formula_structural   Ba2LiGe3
_chemical_formula_sum   'Ba8 Li4 Ge12'
_cell_volume   683.89990518
_cell_formula_units_Z   4
loop_
 _symmetry_equiv_pos_site_id
 _symmetry_equiv_pos_as_xyz
  1  'x, y, z'
loop_
 _atom_site_type_symbol
 _atom_site_label
 _atom_site_symmetry_multiplicity
 _atom_site_fract_x
 _atom_site_fract_y
 _atom_site_fract_z
 _atom_site_occupancy
  Ba  Ba0  1  0.37795073  1.37795073  -0.37795073  1.0
  Ba  Ba1  1  -0.37795073  0.62204927  0.37795073  1.0
  Ba  Ba2  1  0.87204927  0.87204927  0.62795073  1.0
  Ba  Ba3  1  0.62795073  0.62795073  0.87204927  1.0
  Ba  Ba4  1  0.12404629  0.12404629  -0.12404629  1.0
  Ba  Ba5  1  0.87595371  0.87595371  -0.87595371  1.0
  Ba  Ba6  1  1.12595371  0.12595371  0.37404629  1.0
  Ba  Ba7  1  1.37404629  0.37404629  0.12595371  1.0
  Li  Li8  1  0.16777117  -0.16777117  1.16777117  1.0
  Li  Li9  1  0.83222883  -0.83222883  0.83222883  1.0
  Li  Li10  1  0.08222883  1.41777117  0.08222883  1.0
  Li  Li11  1  1.41777117  0.08222883  0.41777117  1.0
  Ge  Ge12  1  0.33601381  -0.33601381  1.33601381  1.0
  Ge  Ge13  1  0.66398619  -0.66398619  0.66398619  1.0
  Ge  Ge14  1  0.91398619  0.58601381  0.91398619  1.0
  Ge  Ge15  1  0.58601381  0.91398619  -0.41398619  1.0
  Ge  Ge16  1  1.65972380  0.33270910  0.17655484  1.0
  Ge  Ge17  1  -0.16898775  0.17655484  0.33270910  1.0
  Ge  Ge18  1  0.17655484  -0.16898775  1.65972380  1.0
  Ge  Ge19  1  0.33270910  1.65972380  -0.16898775  1.0
  Ge  Ge20  1  0.59027620  0.91729090  1.07344516  1.0
  Ge  Ge21  1  0.41898775  1.07344516  0.91729090  1.0
  Ge  Ge22  1  1.07344516  0.41898775  0.59027620  1.0
  Ge  Ge23  1  0.91729090  0.59027620  0.41898775  1.0
