# generated using pymatgen
data_Sr3TiSi4O15
_symmetry_space_group_name_H-M   'P 1'
_cell_length_a   7.81075007
_cell_length_b   7.69263048
_cell_length_c   11.26513031
_cell_angle_alpha   90.00000000
_cell_angle_beta   103.64724857
_cell_angle_gamma   90.00000000
_symmetry_Int_Tables_number   1
_chemical_formula_structural   Sr3TiSi4O15
_chemical_formula_sum   'Sr6 Ti2 Si8 O30'
_cell_volume   657.75759690
_cell_formula_units_Z   2
loop_
 _symmetry_equiv_pos_site_id
 _symmetry_equiv_pos_as_xyz
  1  'x, y, z'
loop_
 _atom_site_type_symbol
 _atom_site_label
 _atom_site_symmetry_multiplicity
 _atom_site_fract_x
 _atom_site_fract_y
 _atom_site_fract_z
 _atom_site_occupancy
  Ti  Ti0  1  0.00000000  0.50000000  0.00000000  1.0
  Ti  Ti1  1  0.00000000  0.00000000  0.00000000  1.0
  Si  Si2  1  0.87014988  0.45469253  0.69851841  1.0
  Si  Si3  1  0.87014988  0.04530747  0.69851841  1.0
  Si  Si4  1  0.12985012  0.95469253  0.30148159  1.0
  Si  Si5  1  0.12985012  0.54530747  0.30148159  1.0
  Si  Si6  1  0.74783281  0.46223303  0.20024137  1.0
  Si  Si7  1  0.74783281  0.03776697  0.20024137  1.0
  Si  Si8  1  0.25216719  0.96223303  0.79975863  1.0
  Si  Si9  1  0.25216719  0.53776697  0.79975863  1.0
  O  O10  1  0.91781089  0.95701959  0.30493072  1.0
  O  O11  1  0.91781089  0.54298041  0.30493072  1.0
  O  O12  1  0.08218911  0.45701959  0.69506928  1.0
  O  O13  1  0.08218911  0.04298041  0.69506928  1.0
  O  O14  1  0.84919029  0.97437048  0.83178443  1.0
  O  O15  1  0.84919029  0.52562952  0.83178443  1.0
  O  O16  1  0.15080971  0.47437048  0.16821557  1.0
  O  O17  1  0.15080971  0.02562952  0.16821557  1.0
  O  O18  1  0.42725241  0.45923584  0.76810392  1.0
  O  O19  1  0.42725241  0.04076416  0.76810392  1.0
  O  O20  1  0.57274759  0.95923584  0.23189608  1.0
  O  O21  1  0.57274759  0.54076416  0.23189608  1.0
  O  O22  1  0.80520872  0.25000000  0.69113666  1.0
  O  O23  1  0.19479128  0.75000000  0.30886334  1.0
  O  O24  1  0.74265646  0.25000000  0.22175637  1.0
  O  O25  1  0.25734354  0.75000000  0.77824363  1.0
  O  O26  1  0.57990612  0.25000000  0.50447387  1.0
  O  O27  1  0.42009388  0.75000000  0.49552613  1.0
  O  O28  1  0.39947807  0.25000000  0.02143967  1.0
  O  O29  1  0.60052193  0.75000000  0.97856033  1.0
  O  O30  1  0.97666111  0.25000000  0.98358134  1.0
  O  O31  1  0.02333889  0.75000000  0.01641866  1.0
  O  O32  1  0.74323251  0.93742213  0.59141792  1.0
  O  O33  1  0.74323251  0.56257787  0.59141792  1.0
  O  O34  1  0.25676749  0.43742213  0.40858208  1.0
  O  O35  1  0.25676749  0.06257787  0.40858208  1.0
  O  O36  1  0.22520314  0.99620803  0.93840775  1.0
  O  O37  1  0.22520314  0.50379197  0.93840775  1.0
  O  O38  1  0.77479686  0.49620803  0.06159225  1.0
  O  O39  1  0.77479686  0.00379197  0.06159225  1.0
  Sr  Sr40  1  0.64022963  0.25000000  0.89439137  1.0
  Sr  Sr41  1  0.35977037  0.75000000  0.10560863  1.0
  Sr  Sr42  1  0.40079602  0.25000000  0.25912108  1.0
  Sr  Sr43  1  0.59920398  0.75000000  0.74087892  1.0
  Sr  Sr44  1  0.29366225  0.25000000  0.58553792  1.0
  Sr  Sr45  1  0.70633775  0.75000000  0.41446208  1.0
