# generated using pymatgen
data_KNaTe
_symmetry_space_group_name_H-M   'P 1'
_cell_length_a   8.63637246
_cell_length_b   5.14874578
_cell_length_c   9.39766863
_cell_angle_alpha   90.00000000
_cell_angle_beta   90.00000000
_cell_angle_gamma   90.00000000
_symmetry_Int_Tables_number   1
_chemical_formula_structural   KNaTe
_chemical_formula_sum   'K4 Na4 Te4'
_cell_volume   417.88130303
_cell_formula_units_Z   4
loop_
 _symmetry_equiv_pos_site_id
 _symmetry_equiv_pos_as_xyz
  1  'x, y, z'
loop_
 _atom_site_type_symbol
 _atom_site_label
 _atom_site_symmetry_multiplicity
 _atom_site_fract_x
 _atom_site_fract_y
 _atom_site_fract_z
 _atom_site_occupancy
  K  K0  1  0.98446145  0.75000000  0.68481254  1.0
  K  K1  1  0.48446145  0.75000000  0.81518746  1.0
  K  K2  1  0.01553855  0.25000000  0.31518746  1.0
  K  K3  1  0.51553855  0.25000000  0.18481254  1.0
  Na  Na4  1  0.85486253  0.75000000  0.07262508  1.0
  Na  Na5  1  0.35486253  0.75000000  0.42737492  1.0
  Na  Na6  1  0.14513747  0.25000000  0.92737492  1.0
  Na  Na7  1  0.64513747  0.25000000  0.57262508  1.0
  Te  Te8  1  0.72335614  0.75000000  0.39163951  1.0
  Te  Te9  1  0.22335614  0.75000000  0.10836049  1.0
  Te  Te10  1  0.27664386  0.25000000  0.60836049  1.0
  Te  Te11  1  0.77664386  0.25000000  0.89163951  1.0
