# generated using pymatgen
data_BaAs2Pd
_symmetry_space_group_name_H-M   'P 1'
_cell_length_a   9.06492813
_cell_length_b   9.06492813
_cell_length_c   4.64991255
_cell_angle_alpha   90.00000000
_cell_angle_beta   90.00000000
_cell_angle_gamma   149.76535998
_symmetry_Int_Tables_number   1
_chemical_formula_structural   BaAs2Pd
_chemical_formula_sum   'Ba2 As4 Pd2'
_cell_volume   192.40198340
_cell_formula_units_Z   2
loop_
 _symmetry_equiv_pos_site_id
 _symmetry_equiv_pos_as_xyz
  1  'x, y, z'
loop_
 _atom_site_type_symbol
 _atom_site_label
 _atom_site_symmetry_multiplicity
 _atom_site_fract_x
 _atom_site_fract_y
 _atom_site_fract_z
 _atom_site_occupancy
  Ba  Ba0  1  0.39437762  0.60562238  0.75000000  1.0
  Ba  Ba1  1  -0.39437762  0.39437762  0.25000000  1.0
  As  As2  1  0.03716731  0.96283269  0.75000000  1.0
  As  As3  1  -0.03716731  0.03716731  0.25000000  1.0
  As  As4  1  -0.24998139  0.24998139  0.75000000  1.0
  As  As5  1  0.24998139  0.75001861  0.25000000  1.0
  Pd  Pd6  1  0.18545677  0.81454323  0.75000000  1.0
  Pd  Pd7  1  -0.18545677  0.18545677  0.25000000  1.0
