# generated using pymatgen
data_YbGaO3
_symmetry_space_group_name_H-M   'P 1'
_cell_length_a   5.58403473
_cell_length_b   7.58707552
_cell_length_c   5.29325599
_cell_angle_alpha   90.00000000
_cell_angle_beta   90.00000000
_cell_angle_gamma   90.00000000
_symmetry_Int_Tables_number   1
_chemical_formula_structural   YbGaO3
_chemical_formula_sum   'Yb4 Ga4 O12'
_cell_volume   224.25669408
_cell_formula_units_Z   4
loop_
 _symmetry_equiv_pos_site_id
 _symmetry_equiv_pos_as_xyz
  1  'x, y, z'
loop_
 _atom_site_type_symbol
 _atom_site_label
 _atom_site_symmetry_multiplicity
 _atom_site_fract_x
 _atom_site_fract_y
 _atom_site_fract_z
 _atom_site_occupancy
  Yb  Yb0  1  0.06772179  0.75000000  0.51760015  1.0
  Yb  Yb1  1  0.56772179  0.75000000  0.98239985  1.0
  Yb  Yb2  1  0.93227821  0.25000000  0.48239985  1.0
  Yb  Yb3  1  0.43227821  0.25000000  0.01760015  1.0
  Ga  Ga4  1  0.50000000  0.00000000  0.50000000  1.0
  Ga  Ga5  1  0.50000000  0.50000000  0.50000000  1.0
  Ga  Ga6  1  0.00000000  0.00000000  0.00000000  1.0
  Ga  Ga7  1  -0.00000000  0.50000000  0.00000000  1.0
  O  O8  1  0.30698156  0.94341883  0.80794622  1.0
  O  O9  1  0.30698156  0.55658117  0.80794622  1.0
  O  O10  1  0.80698156  0.94341883  0.69205378  1.0
  O  O11  1  0.80698156  0.55658117  0.69205378  1.0
  O  O12  1  0.69301844  0.44341883  0.19205378  1.0
  O  O13  1  0.69301844  0.05658117  0.19205378  1.0
  O  O14  1  0.19301844  0.44341883  0.30794622  1.0
  O  O15  1  0.19301844  0.05658117  0.30794622  1.0
  O  O16  1  0.95945849  0.75000000  0.11251904  1.0
  O  O17  1  0.45945849  0.75000000  0.38748096  1.0
  O  O18  1  0.04054151  0.25000000  0.88748096  1.0
  O  O19  1  0.54054151  0.25000000  0.61251904  1.0
