# generated using pymatgen
data_MgSO4
_symmetry_space_group_name_H-M   'P 1'
_cell_length_a   4.78643064
_cell_length_b   4.78643064
_cell_length_c   6.61535145
_cell_angle_alpha   90.00000000
_cell_angle_beta   90.00000000
_cell_angle_gamma   113.84187640
_symmetry_Int_Tables_number   1
_chemical_formula_structural   MgSO4
_chemical_formula_sum   'Mg2 S2 O8'
_cell_volume   138.62395200
_cell_formula_units_Z   2
loop_
 _symmetry_equiv_pos_site_id
 _symmetry_equiv_pos_as_xyz
  1  'x, y, z'
loop_
 _atom_site_type_symbol
 _atom_site_label
 _atom_site_symmetry_multiplicity
 _atom_site_fract_x
 _atom_site_fract_y
 _atom_site_fract_z
 _atom_site_occupancy
  Mg  Mg0  1  0.00000000  0.00000000  0.50000000  1.0
  Mg  Mg1  1  0.00000000  0.00000000  0.00000000  1.0
  S  S2  1  0.34802367  0.65197633  0.25000000  1.0
  S  S3  1  -0.34802367  1.34802367  0.75000000  1.0
  O  O4  1  0.22348826  0.30596707  0.25000000  1.0
  O  O5  1  -0.69403293  1.22348826  0.75000000  1.0
  O  O6  1  0.69403293  0.77651174  0.25000000  1.0
  O  O7  1  -0.22348826  1.69403293  0.75000000  1.0
  O  O8  1  0.24667503  0.75332497  0.43540603  1.0
  O  O9  1  0.24667503  0.75332497  0.06459397  1.0
  O  O10  1  -0.24667503  1.24667503  0.93540603  1.0
  O  O11  1  -0.24667503  1.24667503  0.56459397  1.0
