# generated using pymatgen
data_BaCoAs2O7
_symmetry_space_group_name_H-M   'P 1'
_cell_length_a   5.76544431
_cell_length_b   8.59618492
_cell_length_c   14.87941577
_cell_angle_alpha   90.00000000
_cell_angle_beta   113.08139639
_cell_angle_gamma   90.00000000
_symmetry_Int_Tables_number   1
_chemical_formula_structural   BaCoAs2O7
_chemical_formula_sum   'Ba4 Co4 As8 O28'
_cell_volume   678.40350923
_cell_formula_units_Z   4
loop_
 _symmetry_equiv_pos_site_id
 _symmetry_equiv_pos_as_xyz
  1  'x, y, z'
loop_
 _atom_site_type_symbol
 _atom_site_label
 _atom_site_symmetry_multiplicity
 _atom_site_fract_x
 _atom_site_fract_y
 _atom_site_fract_z
 _atom_site_occupancy
  Ba  Ba0  1  -0.00028811  0.15522286  0.28594141  1.0
  Ba  Ba1  1  -0.00028811  0.34477714  0.78594141  1.0
  Ba  Ba2  1  1.00028811  0.65522286  0.21405859  1.0
  Ba  Ba3  1  1.00028811  0.84477714  0.71405859  1.0
  Co  Co4  1  0.72212793  0.85332222  0.39187527  1.0
  Co  Co5  1  0.72212793  0.64667778  0.89187527  1.0
  Co  Co6  1  0.27787207  0.35332222  0.10812473  1.0
  Co  Co7  1  0.27787207  0.14667778  0.60812473  1.0
  As  As8  1  0.66217532  0.18609663  0.48689608  1.0
  As  As9  1  0.66217532  0.31390337  0.98689608  1.0
  As  As10  1  0.33782468  0.68609663  0.01310392  1.0
  As  As11  1  0.33782468  0.81390337  0.51310392  1.0
  As  As12  1  0.58955545  0.46918561  0.33925405  1.0
  As  As13  1  0.58955545  0.03081439  0.83925405  1.0
  As  As14  1  0.41044455  0.96918561  0.16074595  1.0
  As  As15  1  0.41044455  0.53081439  0.66074595  1.0
  O  O16  1  0.91688302  0.33407310  0.09804169  1.0
  O  O17  1  0.91688302  0.16592690  0.59804169  1.0
  O  O18  1  0.08311698  0.83407310  0.40195831  1.0
  O  O19  1  0.08311698  0.66592690  0.90195831  1.0
  O  O20  1  0.83585763  0.44217587  0.30498753  1.0
  O  O21  1  0.83585763  0.05782413  0.80498753  1.0
  O  O22  1  0.16414237  0.94217587  0.19501247  1.0
  O  O23  1  0.16414237  0.55782413  0.69501247  1.0
  O  O24  1  0.70266579  0.08583332  0.39183926  1.0
  O  O25  1  0.70266579  0.41416668  0.89183926  1.0
  O  O26  1  0.29733421  0.58583332  0.10816074  1.0
  O  O27  1  0.29733421  0.91416668  0.60816074  1.0
  O  O28  1  0.68171577  0.39123768  0.46175895  1.0
  O  O29  1  0.68171577  0.10876232  0.96175895  1.0
  O  O30  1  0.31828423  0.89123768  0.03824105  1.0
  O  O31  1  0.31828423  0.60876232  0.53824105  1.0
  O  O32  1  0.48521412  0.16136905  0.15105684  1.0
  O  O33  1  0.48521412  0.33863095  0.65105684  1.0
  O  O34  1  0.51478588  0.66136905  0.34894316  1.0
  O  O35  1  0.51478588  0.83863095  0.84894316  1.0
  O  O36  1  0.36257208  0.15227256  0.48349189  1.0
  O  O37  1  0.36257208  0.34772744  0.98349189  1.0
  O  O38  1  0.63742792  0.65227256  0.01650811  1.0
  O  O39  1  0.63742792  0.84772744  0.51650811  1.0
  O  O40  1  0.31373254  0.37982207  0.26304376  1.0
  O  O41  1  0.31373254  0.12017793  0.76304376  1.0
  O  O42  1  0.68626746  0.87982207  0.23695624  1.0
  O  O43  1  0.68626746  0.62017793  0.73695624  1.0
