# generated using pymatgen
data_Lu2TeO6
_symmetry_space_group_name_H-M   'P 1'
_cell_length_a   9.16225206
_cell_length_b   9.16225206
_cell_length_c   5.13569142
_cell_angle_alpha   90.00000000
_cell_angle_beta   90.00000000
_cell_angle_gamma   120.00000000
_symmetry_Int_Tables_number   1
_chemical_formula_structural   Lu2TeO6
_chemical_formula_sum   'Lu6 Te3 O18'
_cell_volume   373.36536102
_cell_formula_units_Z   3
loop_
 _symmetry_equiv_pos_site_id
 _symmetry_equiv_pos_as_xyz
  1  'x, y, z'
loop_
 _atom_site_type_symbol
 _atom_site_label
 _atom_site_symmetry_multiplicity
 _atom_site_fract_x
 _atom_site_fract_y
 _atom_site_fract_z
 _atom_site_occupancy
  Lu  Lu0  1  0.71240423  0.71240423  0.50000000  1.0
  Lu  Lu1  1  0.00000000  0.28759577  0.50000000  1.0
  Lu  Lu2  1  0.28759577  0.00000000  0.50000000  1.0
  Lu  Lu3  1  0.37607607  0.37607607  0.00000000  1.0
  Lu  Lu4  1  -0.00000000  0.62392393  0.00000000  1.0
  Lu  Lu5  1  0.62392393  0.00000000  0.00000000  1.0
  Te  Te6  1  0.33333333  0.66666667  0.50006341  1.0
  Te  Te7  1  0.66666667  0.33333333  0.49993659  1.0
  Te  Te8  1  0.00000000  0.00000000  0.00000000  1.0
  O  O9  1  0.08395554  0.87686416  0.21604130  1.0
  O  O10  1  0.87686416  0.08395554  0.78395870  1.0
  O  O11  1  0.79290863  0.91604446  0.21604130  1.0
  O  O12  1  0.12313584  0.20709137  0.21604130  1.0
  O  O13  1  0.91604446  0.79290863  0.78395870  1.0
  O  O14  1  0.20709137  0.12313584  0.78395870  1.0
  O  O15  1  0.41479211  0.87333065  0.28036685  1.0
  O  O16  1  0.87333065  0.41479211  0.71963315  1.0
  O  O17  1  0.45853854  0.58520789  0.28036685  1.0
  O  O18  1  0.12666935  0.54146146  0.28036685  1.0
  O  O19  1  0.58520789  0.45853854  0.71963315  1.0
  O  O20  1  0.54146146  0.12666935  0.71963315  1.0
  O  O21  1  0.77649695  0.54185354  0.27953098  1.0
  O  O22  1  0.54185354  0.77649695  0.72046902  1.0
  O  O23  1  0.76535658  0.22350305  0.27953098  1.0
  O  O24  1  0.45814646  0.23464342  0.27953098  1.0
  O  O25  1  0.22350305  0.76535658  0.72046902  1.0
  O  O26  1  0.23464342  0.45814646  0.72046902  1.0
