# generated using pymatgen
data_Lu3Ni11Ge4
_symmetry_space_group_name_H-M   'P 1'
_cell_length_a   8.24198591
_cell_length_b   8.24198591
_cell_length_c   8.52342462
_cell_angle_alpha   90.00000000
_cell_angle_beta   90.00000000
_cell_angle_gamma   120.00000000
_symmetry_Int_Tables_number   1
_chemical_formula_structural   Lu3Ni11Ge4
_chemical_formula_sum   'Lu6 Ni22 Ge8'
_cell_volume   501.42789631
_cell_formula_units_Z   2
loop_
 _symmetry_equiv_pos_site_id
 _symmetry_equiv_pos_as_xyz
  1  'x, y, z'
loop_
 _atom_site_type_symbol
 _atom_site_label
 _atom_site_symmetry_multiplicity
 _atom_site_fract_x
 _atom_site_fract_y
 _atom_site_fract_z
 _atom_site_occupancy
  Lu  Lu0  1  0.19612052  0.80387948  0.25000000  1.0
  Lu  Lu1  1  0.19612052  0.39224104  0.25000000  1.0
  Lu  Lu2  1  0.80387948  0.19612052  0.75000000  1.0
  Lu  Lu3  1  0.80387948  0.60775896  0.75000000  1.0
  Lu  Lu4  1  0.60775896  0.80387948  0.25000000  1.0
  Lu  Lu5  1  0.39224104  0.19612052  0.75000000  1.0
  Ni  Ni6  1  0.15615611  0.84384389  0.90525590  1.0
  Ni  Ni7  1  0.15615611  0.84384389  0.59474410  1.0
  Ni  Ni8  1  0.15615611  0.31231223  0.90525590  1.0
  Ni  Ni9  1  0.15615611  0.31231223  0.59474410  1.0
  Ni  Ni10  1  0.84384389  0.15615611  0.40525590  1.0
  Ni  Ni11  1  0.84384389  0.15615611  0.09474410  1.0
  Ni  Ni12  1  0.84384389  0.68768777  0.40525590  1.0
  Ni  Ni13  1  0.84384389  0.68768777  0.09474410  1.0
  Ni  Ni14  1  0.68768777  0.84384389  0.90525590  1.0
  Ni  Ni15  1  0.68768777  0.84384389  0.59474410  1.0
  Ni  Ni16  1  0.31231223  0.15615611  0.40525590  1.0
  Ni  Ni17  1  0.31231223  0.15615611  0.09474410  1.0
  Ni  Ni18  1  0.56473865  0.43526135  0.25000000  1.0
  Ni  Ni19  1  0.56473865  0.12947730  0.25000000  1.0
  Ni  Ni20  1  0.43526135  0.56473865  0.75000000  1.0
  Ni  Ni21  1  0.43526135  0.87052270  0.75000000  1.0
  Ni  Ni22  1  0.87052270  0.43526135  0.25000000  1.0
  Ni  Ni23  1  0.12947730  0.56473865  0.75000000  1.0
  Ni  Ni24  1  0.33333333  0.66666667  0.50129438  1.0
  Ni  Ni25  1  0.33333333  0.66666667  -0.00129438  1.0
  Ni  Ni26  1  0.66666667  0.33333333  1.00129438  1.0
  Ni  Ni27  1  0.66666667  0.33333333  0.49870562  1.0
  Ge  Ge28  1  0.50000000  0.50000000  0.50000000  1.0
  Ge  Ge29  1  0.50000000  0.50000000  0.00000000  1.0
  Ge  Ge30  1  0.50000000  0.00000000  0.50000000  1.0
  Ge  Ge31  1  0.50000000  0.00000000  0.00000000  1.0
  Ge  Ge32  1  0.00000000  0.50000000  0.50000000  1.0
  Ge  Ge33  1  0.00000000  0.50000000  0.00000000  1.0
  Ge  Ge34  1  0.00000000  0.00000000  0.25000000  1.0
  Ge  Ge35  1  0.00000000  0.00000000  0.75000000  1.0
