# generated using pymatgen
data_Y4C5
_symmetry_space_group_name_H-M   'P 1'
_cell_length_a   6.59055863
_cell_length_b   11.96700487
_cell_length_c   3.67386186
_cell_angle_alpha   90.00000000
_cell_angle_beta   90.00000000
_cell_angle_gamma   90.00000000
_symmetry_Int_Tables_number   1
_chemical_formula_structural   Y4C5
_chemical_formula_sum   'Y8 C10'
_cell_volume   289.75471911
_cell_formula_units_Z   2
loop_
 _symmetry_equiv_pos_site_id
 _symmetry_equiv_pos_as_xyz
  1  'x, y, z'
loop_
 _atom_site_type_symbol
 _atom_site_label
 _atom_site_symmetry_multiplicity
 _atom_site_fract_x
 _atom_site_fract_y
 _atom_site_fract_z
 _atom_site_occupancy
  Y  Y0  1  0.10695709  0.80438590  0.50000000  1.0
  Y  Y1  1  0.60695709  0.69561410  0.50000000  1.0
  Y  Y2  1  0.89304291  0.19561410  0.50000000  1.0
  Y  Y3  1  0.39304291  0.30438590  0.50000000  1.0
  Y  Y4  1  0.25605210  0.54268121  0.00000000  1.0
  Y  Y5  1  0.75605210  0.95731879  0.00000000  1.0
  Y  Y6  1  0.74394790  0.45731879  0.00000000  1.0
  Y  Y7  1  0.24394790  0.04268121  0.00000000  1.0
  C  C8  1  0.36091610  0.73559029  0.00000000  1.0
  C  C9  1  0.86091610  0.76440971  0.00000000  1.0
  C  C10  1  0.63908390  0.26440971  0.00000000  1.0
  C  C11  1  0.13908390  0.23559029  0.00000000  1.0
  C  C12  1  0.50000000  0.50000000  0.50000000  1.0
  C  C13  1  0.00000000  0.00000000  0.50000000  1.0
  C  C14  1  0.40148830  0.84449050  0.00000000  1.0
  C  C15  1  0.90148830  0.65550950  0.00000000  1.0
  C  C16  1  0.59851170  0.15550950  0.00000000  1.0
  C  C17  1  0.09851170  0.34449050  0.00000000  1.0
