# generated using pymatgen
data_Zn4B6O13
_symmetry_space_group_name_H-M   'P 1'
_cell_length_a   6.52676045
_cell_length_b   6.52676045
_cell_length_c   6.52676045
_cell_angle_alpha   109.47122063
_cell_angle_beta   109.47122063
_cell_angle_gamma   109.47122063
_symmetry_Int_Tables_number   1
_chemical_formula_structural   Zn4B6O13
_chemical_formula_sum   'Zn4 B6 O13'
_cell_volume   214.02826441
_cell_formula_units_Z   1
loop_
 _symmetry_equiv_pos_site_id
 _symmetry_equiv_pos_as_xyz
  1  'x, y, z'
loop_
 _atom_site_type_symbol
 _atom_site_label
 _atom_site_symmetry_multiplicity
 _atom_site_fract_x
 _atom_site_fract_y
 _atom_site_fract_z
 _atom_site_occupancy
  Zn  Zn0  1  0.69331538  0.69331538  0.69331538  1.0
  Zn  Zn1  1  1.00000000  1.00000000  0.30668462  1.0
  Zn  Zn2  1  1.00000000  0.30668462  1.00000000  1.0
  Zn  Zn3  1  0.30668462  1.00000000  1.00000000  1.0
  B  B4  1  0.25000000  0.75000000  0.50000000  1.0
  B  B5  1  0.75000000  0.25000000  0.50000000  1.0
  B  B6  1  0.25000000  0.50000000  0.75000000  1.0
  B  B7  1  0.50000000  0.25000000  0.75000000  1.0
  B  B8  1  0.75000000  0.50000000  0.25000000  1.0
  B  B9  1  0.50000000  0.75000000  0.25000000  1.0
  O  O10  1  0.71915034  0.44294438  0.44294438  1.0
  O  O11  1  0.44294438  0.71915034  0.44294438  1.0
  O  O12  1  1.00000000  1.27620596  0.55705562  1.0
  O  O13  1  1.27620596  1.00000000  0.55705562  1.0
  O  O14  1  0.44294438  0.44294438  0.71915034  1.0
  O  O15  1  0.72379404  0.72379404  0.28084966  1.0
  O  O16  1  1.00000000  0.55705562  1.27620596  1.0
  O  O17  1  0.72379404  0.28084966  0.72379404  1.0
  O  O18  1  0.28084966  0.72379404  0.72379404  1.0
  O  O19  1  0.55705562  1.00000000  1.27620596  1.0
  O  O20  1  1.27620596  0.55705562  1.00000000  1.0
  O  O21  1  0.55705562  1.27620596  1.00000000  1.0
  O  O22  1  0.00000000  0.00000000  0.00000000  1.0
