# generated using pymatgen
data_CoH4S(NO2)2
_symmetry_space_group_name_H-M   'P 1'
_cell_length_a   6.43097460
_cell_length_b   7.61277066
_cell_length_c   8.95113208
_cell_angle_alpha   90.00000000
_cell_angle_beta   90.00000000
_cell_angle_gamma   90.00000000
_symmetry_Int_Tables_number   1
_chemical_formula_structural   CoH4S(NO2)2
_chemical_formula_sum   'Co4 H16 S4 N8 O16'
_cell_volume   438.22535956
_cell_formula_units_Z   4
loop_
 _symmetry_equiv_pos_site_id
 _symmetry_equiv_pos_as_xyz
  1  'x, y, z'
loop_
 _atom_site_type_symbol
 _atom_site_label
 _atom_site_symmetry_multiplicity
 _atom_site_fract_x
 _atom_site_fract_y
 _atom_site_fract_z
 _atom_site_occupancy
  Co  Co0  1  0.50000000  0.50000000  0.00000000  1.0
  Co  Co1  1  0.50000000  0.00000000  0.50000000  1.0
  Co  Co2  1  0.00000000  0.00000000  0.00000000  1.0
  Co  Co3  1  0.00000000  0.50000000  0.50000000  1.0
  H  H4  1  0.31088700  0.88216919  0.17114871  1.0
  H  H5  1  0.31088700  0.61783081  0.67114871  1.0
  H  H6  1  0.81088700  0.38216919  0.82885129  1.0
  H  H7  1  0.81088700  0.11783081  0.32885129  1.0
  H  H8  1  0.68911300  0.38216919  0.32885129  1.0
  H  H9  1  0.68911300  0.11783081  0.82885129  1.0
  H  H10  1  0.18911300  0.88216919  0.67114871  1.0
  H  H11  1  0.18911300  0.61783081  0.17114871  1.0
  H  H12  1  0.37387505  0.87355024  -0.00761755  1.0
  H  H13  1  0.37387505  0.62644976  0.49238245  1.0
  H  H14  1  0.87387505  0.37355024  1.00761755  1.0
  H  H15  1  0.87387505  0.12644976  0.50761755  1.0
  H  H16  1  0.62612495  0.37355024  0.50761755  1.0
  H  H17  1  0.62612495  0.12644976  1.00761755  1.0
  H  H18  1  0.12612495  0.87355024  0.49238245  1.0
  H  H19  1  0.12612495  0.62644976  -0.00761755  1.0
  S  S20  1  0.25000000  0.25000000  0.24184969  1.0
  S  S21  1  0.25000000  0.25000000  0.74184969  1.0
  S  S22  1  0.75000000  0.75000000  0.75815031  1.0
  S  S23  1  0.75000000  0.75000000  0.25815031  1.0
  N  N24  1  0.25767152  0.84548950  0.06740891  1.0
  N  N25  1  0.25767152  0.65451050  0.56740891  1.0
  N  N26  1  0.75767152  0.34548950  0.93259109  1.0
  N  N27  1  0.75767152  0.15451050  0.43259109  1.0
  N  N28  1  0.74232848  0.34548950  0.43259109  1.0
  N  N29  1  0.74232848  0.15451050  0.93259109  1.0
  N  N30  1  0.24232848  0.84548950  0.56740891  1.0
  N  N31  1  0.24232848  0.65451050  0.06740891  1.0
  O  O32  1  0.43810452  0.28321453  0.14643350  1.0
  O  O33  1  0.43810452  0.21678547  0.64643350  1.0
  O  O34  1  0.93810452  0.78321453  0.85356650  1.0
  O  O35  1  0.93810452  0.71678547  0.35356650  1.0
  O  O36  1  0.56189548  0.78321453  0.35356650  1.0
  O  O37  1  0.56189548  0.71678547  0.85356650  1.0
  O  O38  1  0.06189548  0.28321453  0.64643350  1.0
  O  O39  1  0.06189548  0.21678547  0.14643350  1.0
  O  O40  1  0.21238500  0.40942437  0.33581730  1.0
  O  O41  1  0.21238500  0.09057563  0.83581730  1.0
  O  O42  1  0.71238500  0.90942437  0.66418270  1.0
  O  O43  1  0.71238500  0.59057563  0.16418270  1.0
  O  O44  1  0.78761500  0.90942437  0.16418270  1.0
  O  O45  1  0.78761500  0.59057563  0.66418270  1.0
  O  O46  1  0.28761500  0.40942437  0.83581730  1.0
  O  O47  1  0.28761500  0.09057563  0.33581730  1.0
