# generated using pymatgen
data_Li(MoSe)3
_symmetry_space_group_name_H-M   'P 1'
_cell_length_a   8.55852346
_cell_length_b   8.55852346
_cell_length_c   4.49264747
_cell_angle_alpha   90.00000000
_cell_angle_beta   90.00000000
_cell_angle_gamma   120.00000000
_symmetry_Int_Tables_number   1
_chemical_formula_structural   Li(MoSe)3
_chemical_formula_sum   'Li2 Mo6 Se6'
_cell_volume   284.99068483
_cell_formula_units_Z   2
loop_
 _symmetry_equiv_pos_site_id
 _symmetry_equiv_pos_as_xyz
  1  'x, y, z'
loop_
 _atom_site_type_symbol
 _atom_site_label
 _atom_site_symmetry_multiplicity
 _atom_site_fract_x
 _atom_site_fract_y
 _atom_site_fract_z
 _atom_site_occupancy
  Li  Li0  1  0.33333333  0.66666667  0.25000000  1.0
  Li  Li1  1  0.66666667  0.33333333  0.75000000  1.0
  Mo  Mo2  1  0.05453726  0.85401727  0.25000000  1.0
  Mo  Mo3  1  0.85401727  0.79948001  0.75000000  1.0
  Mo  Mo4  1  0.79948001  0.94546274  0.25000000  1.0
  Mo  Mo5  1  0.14598273  0.20051999  0.25000000  1.0
  Mo  Mo6  1  0.94546274  0.14598273  0.75000000  1.0
  Mo  Mo7  1  0.20051999  0.05453726  0.75000000  1.0
  Se  Se8  1  0.71000403  0.60405571  0.25000000  1.0
  Se  Se9  1  0.60405571  0.89405167  0.75000000  1.0
  Se  Se10  1  0.89405167  0.28999597  0.25000000  1.0
  Se  Se11  1  0.39594429  0.10594833  0.25000000  1.0
  Se  Se12  1  0.28999597  0.39594429  0.75000000  1.0
  Se  Se13  1  0.10594833  0.71000403  0.75000000  1.0
