# generated using pymatgen
data_CdReO14
_symmetry_space_group_name_H-M   'P 1'
_cell_length_a   7.58878958
_cell_length_b   7.58878958
_cell_length_c   7.58878958
_cell_angle_alpha   60.00000000
_cell_angle_beta   60.00000000
_cell_angle_gamma   60.00000000
_symmetry_Int_Tables_number   1
_chemical_formula_structural   CdReO14
_chemical_formula_sum   'Cd2 Re2 O28'
_cell_volume   309.03134708
_cell_formula_units_Z   2
loop_
 _symmetry_equiv_pos_site_id
 _symmetry_equiv_pos_as_xyz
  1  'x, y, z'
loop_
 _atom_site_type_symbol
 _atom_site_label
 _atom_site_symmetry_multiplicity
 _atom_site_fract_x
 _atom_site_fract_y
 _atom_site_fract_z
 _atom_site_occupancy
  Re  Re0  1  0.00000000  1.00000000  -0.00000000  1.0
  Re  Re1  1  0.25000000  0.25000000  0.25000000  1.0
  Cd  Cd2  1  0.50000000  0.50000000  -0.50000000  1.0
  Cd  Cd3  1  0.75000000  -0.25000000  0.75000000  1.0
  O  O4  1  0.62500000  -0.37500000  1.12500000  1.0
  O  O5  1  0.62500000  0.12500000  0.62500000  1.0
  O  O6  1  0.62500000  -0.37500000  0.62500000  1.0
  O  O7  1  1.12500000  -0.37500000  0.62500000  1.0
  O  O8  1  0.98422647  -0.69768302  0.72923009  1.0
  O  O9  1  -0.01577353  0.72923009  0.30231698  1.0
  O  O10  1  -0.05231698  0.26577353  0.26577353  1.0
  O  O11  1  0.52076991  0.26577353  0.26577353  1.0
  O  O12  1  -0.69768302  0.98422647  0.72923009  1.0
  O  O13  1  0.98422647  -0.01577353  0.72923009  1.0
  O  O14  1  0.98422647  -0.27076991  0.98422647  1.0
  O  O15  1  -0.69768302  0.72923009  0.98422647  1.0
  O  O16  1  0.26577353  -0.05231698  0.26577353  1.0
  O  O17  1  0.26577353  0.26577353  -0.05231698  1.0
  O  O18  1  0.52076991  0.26577353  -0.05231698  1.0
  O  O19  1  0.52076991  -0.05231698  0.26577353  1.0
  O  O20  1  0.72923009  -0.01577353  0.98422647  1.0
  O  O21  1  -0.69768302  0.98422647  0.98422647  1.0
  O  O22  1  0.26577353  0.52076991  -0.05231698  1.0
  O  O23  1  0.26577353  -0.05231698  0.52076991  1.0
  O  O24  1  -0.27076991  0.98422647  0.30231698  1.0
  O  O25  1  0.72923009  -0.69768302  0.98422647  1.0
  O  O26  1  0.98422647  -0.69768302  0.98422647  1.0
  O  O27  1  -0.01577353  0.98422647  0.30231698  1.0
  O  O28  1  0.26577353  0.52076991  0.26577353  1.0
  O  O29  1  -0.05231698  0.52076991  0.26577353  1.0
  O  O30  1  -0.05231698  0.26577353  0.52076991  1.0
  O  O31  1  0.26577353  0.26577353  0.52076991  1.0
