# generated using pymatgen
data_K3SI
_symmetry_space_group_name_H-M   'P 1'
_cell_length_a   14.23814936
_cell_length_b   14.23814936
_cell_length_c   8.41680637
_cell_angle_alpha   90.00000000
_cell_angle_beta   90.00000000
_cell_angle_gamma   120.00000000
_symmetry_Int_Tables_number   1
_chemical_formula_structural   K3SI
_chemical_formula_sum   'K18 S6 I6'
_cell_volume   1477.69585993
_cell_formula_units_Z   6
loop_
 _symmetry_equiv_pos_site_id
 _symmetry_equiv_pos_as_xyz
  1  'x, y, z'
loop_
 _atom_site_type_symbol
 _atom_site_label
 _atom_site_symmetry_multiplicity
 _atom_site_fract_x
 _atom_site_fract_y
 _atom_site_fract_z
 _atom_site_occupancy
  K  K0  1  0.27338561  0.78295651  0.02748292  1.0
  K  K1  1  0.27338561  0.49042910  0.52748292  1.0
  K  K2  1  0.78295651  0.27338561  0.02748292  1.0
  K  K3  1  0.78295651  0.50957090  0.52748292  1.0
  K  K4  1  0.50957090  0.78295651  0.52748292  1.0
  K  K5  1  0.50957090  0.72661439  0.02748292  1.0
  K  K6  1  0.21704349  0.72661439  0.52748292  1.0
  K  K7  1  0.21704349  0.49042910  0.02748292  1.0
  K  K8  1  0.72661439  0.50957090  0.02748292  1.0
  K  K9  1  0.72661439  0.21704349  0.52748292  1.0
  K  K10  1  0.49042910  0.27338561  0.52748292  1.0
  K  K11  1  0.49042910  0.21704349  0.02748292  1.0
  K  K12  1  0.84903130  0.84903130  0.36721298  1.0
  K  K13  1  0.84903130  0.00000000  0.86721298  1.0
  K  K14  1  -0.00000000  0.84903130  0.86721298  1.0
  K  K15  1  0.00000000  0.15096870  0.36721298  1.0
  K  K16  1  0.15096870  0.15096870  0.86721298  1.0
  K  K17  1  0.15096870  0.00000000  0.36721298  1.0
  S  S18  1  0.33333333  0.66666667  0.27896605  1.0
  S  S19  1  0.33333333  0.66666667  0.77896605  1.0
  S  S20  1  0.66666667  0.33333333  0.27896605  1.0
  S  S21  1  0.66666667  0.33333333  0.77896605  1.0
  S  S22  1  0.00000000  0.00000000  0.11391842  1.0
  S  S23  1  0.00000000  0.00000000  0.61391842  1.0
  I  I24  1  0.30540733  0.30540733  0.25113766  1.0
  I  I25  1  0.30540733  0.00000000  0.75113766  1.0
  I  I26  1  0.00000000  0.30540733  0.75113766  1.0
  I  I27  1  -0.00000000  0.69459267  0.25113766  1.0
  I  I28  1  0.69459267  0.69459267  0.75113766  1.0
  I  I29  1  0.69459267  0.00000000  0.25113766  1.0
