# generated using pymatgen
data_CdIClO3
_symmetry_space_group_name_H-M   'P 1'
_cell_length_a   8.97750500
_cell_length_b   8.97750500
_cell_length_c   7.46038657
_cell_angle_alpha   90.00000000
_cell_angle_beta   90.00000000
_cell_angle_gamma   132.08232617
_symmetry_Int_Tables_number   1
_chemical_formula_structural   CdIClO3
_chemical_formula_sum   'Cd4 I4 Cl4 O12'
_cell_volume   446.25533028
_cell_formula_units_Z   4
loop_
 _symmetry_equiv_pos_site_id
 _symmetry_equiv_pos_as_xyz
  1  'x, y, z'
loop_
 _atom_site_type_symbol
 _atom_site_label
 _atom_site_symmetry_multiplicity
 _atom_site_fract_x
 _atom_site_fract_y
 _atom_site_fract_z
 _atom_site_occupancy
  Cd  Cd0  1  -0.14703813  0.64703813  0.75000000  1.0
  Cd  Cd1  1  0.35296187  1.14703813  0.75000000  1.0
  Cd  Cd2  1  0.64703813  0.85296187  0.25000000  1.0
  Cd  Cd3  1  0.14703813  0.35296187  0.25000000  1.0
  I  I4  1  0.40162991  0.59837009  0.77304833  1.0
  I  I5  1  -0.09837009  0.09837009  0.72695167  1.0
  I  I6  1  -0.40162991  0.40162991  0.22695167  1.0
  I  I7  1  0.09837009  0.90162991  0.27304833  1.0
  Cl  Cl8  1  0.20910981  0.79089019  0.82856257  1.0
  Cl  Cl9  1  -0.29089019  0.29089019  0.67143743  1.0
  Cl  Cl10  1  -0.20910981  0.20910981  0.17143743  1.0
  Cl  Cl11  1  0.29089019  0.70910981  0.32856257  1.0
  O  O12  1  0.19844966  0.39971039  0.93445717  1.0
  O  O13  1  0.69844966  0.89971039  0.56554283  1.0
  O  O14  1  0.39971039  1.19844966  0.06554283  1.0
  O  O15  1  -0.10028961  0.69844966  0.43445717  1.0
  O  O16  1  0.60028961  0.80155034  0.93445717  1.0
  O  O17  1  0.10028961  0.30155034  0.56554283  1.0
  O  O18  1  -0.19844966  0.60028961  0.06554283  1.0
  O  O19  1  0.30155034  1.10028961  0.43445717  1.0
  O  O20  1  0.01628633  0.98371367  0.77779432  1.0
  O  O21  1  -0.48371367  0.48371367  0.72220568  1.0
  O  O22  1  -0.01628633  0.01628633  0.22220568  1.0
  O  O23  1  0.48371367  0.51628633  0.27779432  1.0
