# generated using pymatgen
data_KLuBeF6
_symmetry_space_group_name_H-M   'P 1'
_cell_length_a   6.45261363
_cell_length_b   5.78615871
_cell_length_c   7.10943932
_cell_angle_alpha   90.00000000
_cell_angle_beta   113.25658014
_cell_angle_gamma   90.00000000
_symmetry_Int_Tables_number   1
_chemical_formula_structural   KLuBeF6
_chemical_formula_sum   'K2 Lu2 Be2 F12'
_cell_volume   243.86908821
_cell_formula_units_Z   2
loop_
 _symmetry_equiv_pos_site_id
 _symmetry_equiv_pos_as_xyz
  1  'x, y, z'
loop_
 _atom_site_type_symbol
 _atom_site_label
 _atom_site_symmetry_multiplicity
 _atom_site_fract_x
 _atom_site_fract_y
 _atom_site_fract_z
 _atom_site_occupancy
  K  K0  1  0.07162071  0.25000000  0.20283121  1.0
  K  K1  1  0.92837929  0.75000000  0.79716879  1.0
  Lu  Lu2  1  0.39064222  0.25000000  0.82034378  1.0
  Lu  Lu3  1  0.60935778  0.75000000  0.17965622  1.0
  Be  Be4  1  0.76942076  0.25000000  0.53853296  1.0
  Be  Be5  1  0.23057924  0.75000000  0.46146704  1.0
  F  F6  1  0.76369109  0.46871969  0.40618355  1.0
  F  F7  1  0.76369109  0.03128031  0.40618355  1.0
  F  F8  1  0.23630891  0.96871969  0.59381645  1.0
  F  F9  1  0.23630891  0.53128031  0.59381645  1.0
  F  F10  1  0.67780372  0.49860680  0.96864704  1.0
  F  F11  1  0.67780372  0.00139320  0.96864704  1.0
  F  F12  1  0.32219628  0.99860680  0.03135296  1.0
  F  F13  1  0.32219628  0.50139320  0.03135296  1.0
  F  F14  1  0.99488354  0.25000000  0.73636032  1.0
  F  F15  1  0.00511646  0.75000000  0.26363968  1.0
  F  F16  1  0.56701863  0.25000000  0.60280137  1.0
  F  F17  1  0.43298137  0.75000000  0.39719863  1.0
