# generated using pymatgen
data_LiCaGaN2
_symmetry_space_group_name_H-M   'P 1'
_cell_length_a   5.81145022
_cell_length_b   6.95863560
_cell_length_c   5.92580517
_cell_angle_alpha   90.00000000
_cell_angle_beta   90.04317615
_cell_angle_gamma   90.00000000
_symmetry_Int_Tables_number   1
_chemical_formula_structural   LiCaGaN2
_chemical_formula_sum   'Li4 Ca4 Ga4 N8'
_cell_volume   239.63809660
_cell_formula_units_Z   4
loop_
 _symmetry_equiv_pos_site_id
 _symmetry_equiv_pos_as_xyz
  1  'x, y, z'
loop_
 _atom_site_type_symbol
 _atom_site_label
 _atom_site_symmetry_multiplicity
 _atom_site_fract_x
 _atom_site_fract_y
 _atom_site_fract_z
 _atom_site_occupancy
  Li  Li0  1  0.63226428  0.39572661  0.09045493  1.0
  Li  Li1  1  0.63226428  0.10427339  0.59045493  1.0
  Li  Li2  1  0.36773572  0.89572661  0.40954507  1.0
  Li  Li3  1  0.36773572  0.60427339  0.90954507  1.0
  Ca  Ca4  1  0.97676533  0.12732284  0.25692181  1.0
  Ca  Ca5  1  0.97676533  0.37267716  0.75692181  1.0
  Ca  Ca6  1  0.02323467  0.62732284  0.24307819  1.0
  Ca  Ca7  1  0.02323467  0.87267716  0.74307819  1.0
  Ga  Ga8  1  0.37565785  0.35946211  0.42163138  1.0
  Ga  Ga9  1  0.37565785  0.14053789  0.92163138  1.0
  Ga  Ga10  1  0.62434215  0.85946211  0.07836862  1.0
  Ga  Ga11  1  0.62434215  0.64053789  0.57836862  1.0
  N  N12  1  0.74084487  0.86321172  0.40256101  1.0
  N  N13  1  0.74084487  0.63678828  0.90256101  1.0
  N  N14  1  0.25915513  0.36321172  0.09743899  1.0
  N  N15  1  0.25915513  0.13678828  0.59743899  1.0
  N  N16  1  0.72192137  0.38805417  0.42970282  1.0
  N  N17  1  0.72192137  0.11194583  0.92970282  1.0
  N  N18  1  0.27807863  0.88805417  0.07029718  1.0
  N  N19  1  0.27807863  0.61194583  0.57029718  1.0
