# generated using pymatgen
data_Sr5P3O13
_symmetry_space_group_name_H-M   'P 1'
_cell_length_a   9.90203982
_cell_length_b   9.90203982
_cell_length_c   7.34760823
_cell_angle_alpha   90.00000000
_cell_angle_beta   90.00000000
_cell_angle_gamma   120.00000000
_symmetry_Int_Tables_number   1
_chemical_formula_structural   Sr5P3O13
_chemical_formula_sum   'Sr10 P6 O26'
_cell_volume   623.91576676
_cell_formula_units_Z   2
loop_
 _symmetry_equiv_pos_site_id
 _symmetry_equiv_pos_as_xyz
  1  'x, y, z'
loop_
 _atom_site_type_symbol
 _atom_site_label
 _atom_site_symmetry_multiplicity
 _atom_site_fract_x
 _atom_site_fract_y
 _atom_site_fract_z
 _atom_site_occupancy
  O  O0  1  0.73939000  0.65465903  0.42221365  1.0
  O  O1  1  0.73939000  0.65465903  0.07778635  1.0
  O  O2  1  0.65465903  0.91526903  0.92221365  1.0
  O  O3  1  0.65465903  0.91526903  0.57778635  1.0
  O  O4  1  0.91526903  0.26061000  0.42221365  1.0
  O  O5  1  0.91526903  0.26061000  0.07778635  1.0
  O  O6  1  0.34534097  0.08473097  0.42221365  1.0
  O  O7  1  0.34534097  0.08473097  0.07778635  1.0
  O  O8  1  0.26061000  0.34534097  0.92221365  1.0
  O  O9  1  0.26061000  0.34534097  0.57778635  1.0
  O  O10  1  0.08473097  0.73939000  0.92221365  1.0
  O  O11  1  0.08473097  0.73939000  0.57778635  1.0
  O  O12  1  0.33233949  0.85176102  0.25000000  1.0
  O  O13  1  0.85176102  0.51942153  0.75000000  1.0
  O  O14  1  0.51942153  0.66766051  0.25000000  1.0
  O  O15  1  0.14823898  0.48057847  0.25000000  1.0
  O  O16  1  0.66766051  0.14823898  0.75000000  1.0
  O  O17  1  0.48057847  0.33233949  0.75000000  1.0
  O  O18  1  0.53888693  0.41783998  0.25000000  1.0
  O  O19  1  0.41783998  0.87895304  0.75000000  1.0
  O  O20  1  0.87895304  0.46111307  0.25000000  1.0
  O  O21  1  0.58216002  0.12104696  0.25000000  1.0
  O  O22  1  0.46111307  0.58216002  0.75000000  1.0
  O  O23  1  0.12104696  0.53888693  0.75000000  1.0
  O  O24  1  0.00000000  0.00000000  0.25000000  1.0
  O  O25  1  0.00000000  0.00000000  0.75000000  1.0
  Sr  Sr26  1  0.33333333  0.66666667  0.50001945  1.0
  Sr  Sr27  1  0.33333333  0.66666667  -0.00001945  1.0
  Sr  Sr28  1  0.66666667  0.33333333  1.00001945  1.0
  Sr  Sr29  1  0.66666667  0.33333333  0.49998055  1.0
  Sr  Sr30  1  0.01054757  0.75328673  0.25000000  1.0
  Sr  Sr31  1  0.75328673  0.74273916  0.75000000  1.0
  Sr  Sr32  1  0.74273916  0.98945243  0.25000000  1.0
  Sr  Sr33  1  0.24671327  0.25726084  0.25000000  1.0
  Sr  Sr34  1  0.98945243  0.24671327  0.75000000  1.0
  Sr  Sr35  1  0.25726084  0.01054757  0.75000000  1.0
  P  P36  1  0.63272289  0.60061332  0.25000000  1.0
  P  P37  1  0.60061332  0.96789043  0.75000000  1.0
  P  P38  1  0.96789043  0.36727711  0.25000000  1.0
  P  P39  1  0.39938668  0.03210957  0.25000000  1.0
  P  P40  1  0.36727711  0.39938668  0.75000000  1.0
  P  P41  1  0.03210957  0.63272289  0.75000000  1.0
