# generated using pymatgen
data_Hg4SbO6
_symmetry_space_group_name_H-M   'P 1'
_cell_length_a   8.67345482
_cell_length_b   8.67345482
_cell_length_c   4.83274197
_cell_angle_alpha   73.36511689
_cell_angle_beta   106.63488311
_cell_angle_gamma   47.06248049
_symmetry_Int_Tables_number   1
_chemical_formula_structural   Hg4SbO6
_chemical_formula_sum   'Hg4 Sb1 O6'
_cell_volume   185.52756386
_cell_formula_units_Z   1
loop_
 _symmetry_equiv_pos_site_id
 _symmetry_equiv_pos_as_xyz
  1  'x, y, z'
loop_
 _atom_site_type_symbol
 _atom_site_label
 _atom_site_symmetry_multiplicity
 _atom_site_fract_x
 _atom_site_fract_y
 _atom_site_fract_z
 _atom_site_occupancy
  Hg  Hg0  1  0.97102868  0.24312490  0.15428192  1.0
  Hg  Hg1  1  1.75687510  0.02897132  0.15428192  1.0
  Hg  Hg2  1  1.14093605  0.41493720  0.15388409  1.0
  Hg  Hg3  1  1.58506280  -0.14093605  0.15388409  1.0
  Sb  Sb4  1  0.36406848  -0.36406848  0.15441577  1.0
  O  O5  1  1.06698209  0.72038998  0.77046978  1.0
  O  O6  1  1.27961002  -0.06698209  0.77046978  1.0
  O  O7  1  1.44865875  0.33865663  0.53811614  1.0
  O  O8  1  1.66134337  -0.44865875  0.53811614  1.0
  O  O9  1  0.08116449  -0.08116449  0.15181536  1.0
  O  O10  1  0.64687016  -0.64687016  0.15686502  1.0
