# generated using pymatgen
data_YRhO3
_symmetry_space_group_name_H-M   'P 1'
_cell_length_a   5.79162277
_cell_length_b   7.63525783
_cell_length_c   5.26364763
_cell_angle_alpha   90.00000000
_cell_angle_beta   90.00000000
_cell_angle_gamma   90.00000000
_symmetry_Int_Tables_number   1
_chemical_formula_structural   YRhO3
_chemical_formula_sum   'Y4 Rh4 O12'
_cell_volume   232.76130424
_cell_formula_units_Z   4
loop_
 _symmetry_equiv_pos_site_id
 _symmetry_equiv_pos_as_xyz
  1  'x, y, z'
loop_
 _atom_site_type_symbol
 _atom_site_label
 _atom_site_symmetry_multiplicity
 _atom_site_fract_x
 _atom_site_fract_y
 _atom_site_fract_z
 _atom_site_occupancy
  Y  Y0  1  0.08437307  0.75000000  0.53065011  1.0
  Y  Y1  1  0.58437307  0.75000000  0.96934989  1.0
  Y  Y2  1  0.91562693  0.25000000  0.46934989  1.0
  Y  Y3  1  0.41562693  0.25000000  0.03065011  1.0
  Rh  Rh4  1  0.50000000  0.00000000  0.50000000  1.0
  Rh  Rh5  1  0.50000000  0.50000000  0.50000000  1.0
  Rh  Rh6  1  0.00000000  0.00000000  0.00000000  1.0
  Rh  Rh7  1  0.00000000  0.50000000  0.00000000  1.0
  O  O8  1  0.30952929  0.93693335  0.82280277  1.0
  O  O9  1  0.30952929  0.56306665  0.82280277  1.0
  O  O10  1  0.80952929  0.93693335  0.67719723  1.0
  O  O11  1  0.80952929  0.56306665  0.67719723  1.0
  O  O12  1  0.69047071  0.43693335  0.17719723  1.0
  O  O13  1  0.69047071  0.06306665  0.17719723  1.0
  O  O14  1  0.19047071  0.43693335  0.32280277  1.0
  O  O15  1  0.19047071  0.06306665  0.32280277  1.0
  O  O16  1  0.94734491  0.75000000  0.13403540  1.0
  O  O17  1  0.44734491  0.75000000  0.36596460  1.0
  O  O18  1  0.05265509  0.25000000  0.86596460  1.0
  O  O19  1  0.55265509  0.25000000  0.63403540  1.0
