# generated using pymatgen
data_Co3B7ClO13
_symmetry_space_group_name_H-M   'P 1'
_cell_length_a   8.62068686
_cell_length_b   8.62068686
_cell_length_c   8.62068686
_cell_angle_alpha   59.91253713
_cell_angle_beta   59.91253713
_cell_angle_gamma   59.91253713
_symmetry_Int_Tables_number   1
_chemical_formula_structural   Co3B7ClO13
_chemical_formula_sum   'Co6 B14 Cl2 O26'
_cell_volume   452.11412677
_cell_formula_units_Z   2
loop_
 _symmetry_equiv_pos_site_id
 _symmetry_equiv_pos_as_xyz
  1  'x, y, z'
loop_
 _atom_site_type_symbol
 _atom_site_label
 _atom_site_symmetry_multiplicity
 _atom_site_fract_x
 _atom_site_fract_y
 _atom_site_fract_z
 _atom_site_occupancy
  Co  Co0  1  0.98581248  -0.45387821  -0.01766006  1.0
  Co  Co1  1  0.48581248  0.48233994  -0.95387821  1.0
  Co  Co2  1  0.48233994  0.04612179  -0.51418752  1.0
  Co  Co3  1  0.98233994  -0.01418752  -0.45387821  1.0
  Co  Co4  1  0.04612179  0.48581248  -0.51766006  1.0
  Co  Co5  1  0.54612179  -0.01766006  -0.01418752  1.0
  B  B6  1  0.75913316  0.75864792  -0.73406147  1.0
  B  B7  1  0.25913316  0.76593853  -0.74135208  1.0
  B  B8  1  0.76593853  0.25864792  -0.74086684  1.0
  B  B9  1  0.26593853  0.75913316  -0.24135208  1.0
  B  B10  1  0.25864792  0.25913316  -0.23406147  1.0
  B  B11  1  0.75864792  0.26593853  -0.24086684  1.0
  B  B12  1  1.08535000  -0.22180417  0.08452091  1.0
  B  B13  1  0.58535000  0.58452091  -0.72180417  1.0
  B  B14  1  0.58452091  0.27819583  -0.41465000  1.0
  B  B15  1  1.08452091  0.08535000  -0.22180417  1.0
  B  B16  1  0.27819583  0.58535000  -0.41547909  1.0
  B  B17  1  0.77819583  0.08452091  0.08535000  1.0
  B  B18  1  0.61520059  0.61520059  -0.38479941  1.0
  B  B19  1  0.11520059  0.11520059  0.11520059  1.0
  Cl  Cl20  1  0.78458649  -0.21541351  -0.21541351  1.0
  Cl  Cl21  1  0.28458649  0.28458649  0.28458649  1.0
  O  O22  1  0.71250040  -0.05302412  0.26529130  1.0
  O  O23  1  0.21250040  0.76529130  -0.55302412  1.0
  O  O24  1  0.76529130  0.44697588  -0.78749960  1.0
  O  O25  1  1.26529130  -0.28749960  -0.05302412  1.0
  O  O26  1  0.44697588  0.21250040  -0.23470870  1.0
  O  O27  1  0.94697588  0.26529130  -0.28749960  1.0
  O  O28  1  0.61098432  0.76060353  -0.77239237  1.0
  O  O29  1  0.11098432  0.72760763  -0.73939647  1.0
  O  O30  1  0.72760763  0.26060353  -0.88901568  1.0
  O  O31  1  0.22760763  0.61098432  -0.23939647  1.0
  O  O32  1  0.26060353  0.11098432  -0.27239237  1.0
  O  O33  1  0.76060353  0.22760763  -0.38901568  1.0
  O  O34  1  0.61783891  0.45761248  -0.22255988  1.0
  O  O35  1  0.11783891  0.27744012  -0.04238752  1.0
  O  O36  1  0.27744012  0.95761248  -0.88216109  1.0
  O  O37  1  0.77744012  0.61783891  -0.54238752  1.0
  O  O38  1  0.95761248  0.11783891  -0.72255988  1.0
  O  O39  1  0.45761248  0.77744012  -0.38216109  1.0
  O  O40  1  0.94675792  -0.30032510  0.12393955  1.0
  O  O41  1  0.44675792  0.62393955  -0.80032510  1.0
  O  O42  1  0.62393955  0.19967490  -0.55324208  1.0
  O  O43  1  1.12393955  -0.05324208  -0.30032510  1.0
  O  O44  1  0.19967490  0.44675792  -0.37606045  1.0
  O  O45  1  0.69967490  0.12393955  -0.05324208  1.0
  O  O46  1  -0.00097460  -0.00097460  -0.00097460  1.0
  O  O47  1  0.49902540  0.49902540  -0.50097460  1.0
