# generated using pymatgen
data_AsNO4
_symmetry_space_group_name_H-M   'P 1'
_cell_length_a   7.06465238
_cell_length_b   7.06465238
_cell_length_c   7.06465238
_cell_angle_alpha   110.63271761
_cell_angle_beta   110.63271761
_cell_angle_gamma   107.17239605
_symmetry_Int_Tables_number   1
_chemical_formula_structural   AsNO4
_chemical_formula_sum   'As2 N2 O8'
_cell_volume   271.09935005
_cell_formula_units_Z   2
loop_
 _symmetry_equiv_pos_site_id
 _symmetry_equiv_pos_as_xyz
  1  'x, y, z'
loop_
 _atom_site_type_symbol
 _atom_site_label
 _atom_site_symmetry_multiplicity
 _atom_site_fract_x
 _atom_site_fract_y
 _atom_site_fract_z
 _atom_site_occupancy
  As  As0  1  0.00000000  0.00000000  0.00000000  1.0
  As  As1  1  0.75000000  1.25000000  0.50000000  1.0
  N  N2  1  0.50000000  0.50000000  0.00000000  1.0
  N  N3  1  1.25000000  0.75000000  0.50000000  1.0
  O  O4  1  0.98903807  1.09186324  0.76821676  1.0
  O  O5  1  0.76096193  1.02917869  0.60282517  1.0
  O  O6  1  1.84186324  1.23903807  1.26821676  1.0
  O  O7  1  0.90813676  1.67635352  0.89717483  1.0
  O  O8  1  1.42635352  1.15813676  1.39717483  1.0
  O  O9  1  1.32364648  1.22082131  1.23178324  1.0
  O  O10  1  1.77917869  1.01096193  1.10282517  1.0
  O  O11  1  0.97082131  1.57364648  0.73178324  1.0
