# generated using pymatgen
data_Mg(BC)2
_symmetry_space_group_name_H-M   'P 1'
_cell_length_a   7.22049057
_cell_length_b   7.22049057
_cell_length_c   7.45078354
_cell_angle_alpha   90.00000000
_cell_angle_beta   90.00000000
_cell_angle_gamma   81.82731450
_symmetry_Int_Tables_number   1
_chemical_formula_structural   Mg(BC)2
_chemical_formula_sum   'Mg8 B16 C16'
_cell_volume   384.50514992
_cell_formula_units_Z   8
loop_
 _symmetry_equiv_pos_site_id
 _symmetry_equiv_pos_as_xyz
  1  'x, y, z'
loop_
 _atom_site_type_symbol
 _atom_site_label
 _atom_site_symmetry_multiplicity
 _atom_site_fract_x
 _atom_site_fract_y
 _atom_site_fract_z
 _atom_site_occupancy
  Mg  Mg0  1  -0.15243247  0.84756753  0.00000000  1.0
  Mg  Mg1  1  0.34756753  1.34756753  0.50000000  1.0
  Mg  Mg2  1  0.15243247  1.15243247  -0.00000000  1.0
  Mg  Mg3  1  -0.34756753  0.65243247  0.50000000  1.0
  Mg  Mg4  1  0.27881563  0.72118437  0.01034955  1.0
  Mg  Mg5  1  -0.27881563  1.27881563  0.98965045  1.0
  Mg  Mg6  1  0.22118437  0.77881563  0.51034955  1.0
  Mg  Mg7  1  -0.22118437  1.22118437  0.48965045  1.0
  B  B8  1  0.15611898  1.34388102  0.25000000  1.0
  B  B9  1  0.34388102  1.15611898  0.75000000  1.0
  B  B10  1  -0.15611898  0.65611898  0.75000000  1.0
  B  B11  1  -0.34388102  0.84388102  0.25000000  1.0
  B  B12  1  0.41164624  0.58835376  0.27530279  1.0
  B  B13  1  -0.41164624  1.41164624  0.72469721  1.0
  B  B14  1  0.08835376  0.91164624  0.77530279  1.0
  B  B15  1  -0.08835376  1.08835376  0.22469721  1.0
  B  B16  1  0.03163393  0.71303788  0.25490885  1.0
  B  B17  1  -0.28696212  1.03163393  0.74509115  1.0
  B  B18  1  0.21303788  0.53163393  0.75490885  1.0
  B  B19  1  -0.46836607  1.21303788  0.24509115  1.0
  B  B20  1  -0.03163393  1.28696212  0.74509115  1.0
  B  B21  1  0.28696212  0.96836607  0.25490885  1.0
  B  B22  1  -0.21303788  1.46836607  0.24509115  1.0
  B  B23  1  0.46836607  0.78696212  0.75490885  1.0
  C  C24  1  -0.17661495  0.67661495  0.25000000  1.0
  C  C25  1  -0.32338505  0.82338505  0.75000000  1.0
  C  C26  1  0.17661495  1.32338505  0.75000000  1.0
  C  C27  1  0.32338505  1.17661495  0.25000000  1.0
  C  C28  1  0.07937217  0.92062783  0.23096346  1.0
  C  C29  1  -0.07937217  1.07937217  0.76903654  1.0
  C  C30  1  0.42062783  0.57937217  0.73096346  1.0
  C  C31  1  -0.42062783  1.42062783  0.26903654  1.0
  C  C32  1  0.20090452  0.55000719  0.27512983  1.0
  C  C33  1  -0.44999281  1.20090452  0.72487017  1.0
  C  C34  1  0.05000719  0.70090452  0.77512983  1.0
  C  C35  1  -0.29909548  1.05000719  0.22487017  1.0
  C  C36  1  -0.20090452  1.44999281  0.72487017  1.0
  C  C37  1  0.44999281  0.79909548  0.27512983  1.0
  C  C38  1  -0.05000719  1.29909548  0.22487017  1.0
  C  C39  1  0.29909548  0.94999281  0.77512983  1.0
