# generated using pymatgen
data_Sr2Mn3(AsO)2
_symmetry_space_group_name_H-M   'P 1'
_cell_length_a   9.82286502
_cell_length_b   9.82286502
_cell_length_c   9.82286502
_cell_angle_alpha   156.72071700
_cell_angle_beta   156.72071700
_cell_angle_gamma   33.15661598
_symmetry_Int_Tables_number   1
_chemical_formula_structural   Sr2Mn3(AsO)2
_chemical_formula_sum   'Sr2 Mn3 As2 O2'
_cell_volume   147.90623687
_cell_formula_units_Z   1
loop_
 _symmetry_equiv_pos_site_id
 _symmetry_equiv_pos_as_xyz
  1  'x, y, z'
loop_
 _atom_site_type_symbol
 _atom_site_label
 _atom_site_symmetry_multiplicity
 _atom_site_fract_x
 _atom_site_fract_y
 _atom_site_fract_z
 _atom_site_occupancy
  Sr  Sr0  1  0.59159892  0.59159892  1.00000000  1.0
  Sr  Sr1  1  0.40840108  0.40840108  0.00000000  1.0
  Mn  Mn2  1  0.25000000  0.75000000  0.50000000  1.0
  Mn  Mn3  1  0.75000000  0.25000000  0.50000000  1.0
  Mn  Mn4  1  0.00000000  0.00000000  0.00000000  1.0
  As  As5  1  0.82520141  0.82520141  1.00000000  1.0
  As  As6  1  0.17479859  0.17479859  -0.00000000  1.0
  O  O7  1  0.50000000  0.00000000  0.50000000  1.0
  O  O8  1  -0.00000000  0.50000000  0.50000000  1.0
