# generated using pymatgen
data_Li8ZrO6
_symmetry_space_group_name_H-M   'P 1'
_cell_length_a   6.08113424
_cell_length_b   6.08113424
_cell_length_c   6.08113424
_cell_angle_alpha   53.81172405
_cell_angle_beta   53.81172405
_cell_angle_gamma   53.81172405
_symmetry_Int_Tables_number   1
_chemical_formula_structural   Li8ZrO6
_chemical_formula_sum   'Li8 Zr1 O6'
_cell_volume   136.01497725
_cell_formula_units_Z   1
loop_
 _symmetry_equiv_pos_site_id
 _symmetry_equiv_pos_as_xyz
  1  'x, y, z'
loop_
 _atom_site_type_symbol
 _atom_site_label
 _atom_site_symmetry_multiplicity
 _atom_site_fract_x
 _atom_site_fract_y
 _atom_site_fract_z
 _atom_site_occupancy
  Li  Li0  1  0.23405222  0.89737962  -0.49560335  1.0
  Li  Li1  1  0.49560335  -0.23405222  0.10262038  1.0
  Li  Li2  1  1.10262038  -0.50439665  -0.23405222  1.0
  Li  Li3  1  0.76594778  0.10262038  -0.50439665  1.0
  Li  Li4  1  0.50439665  0.23405222  -0.10262038  1.0
  Li  Li5  1  0.89737962  0.50439665  -0.76594778  1.0
  Li  Li6  1  0.34550250  0.34550250  -0.65449750  1.0
  Li  Li7  1  0.65449750  0.65449750  -0.34550250  1.0
  Zr  Zr8  1  0.00000000  0.00000000  0.00000000  1.0
  O  O9  1  0.09293726  0.76469979  -0.61323879  1.0
  O  O10  1  0.61323879  -0.09293726  0.23530021  1.0
  O  O11  1  1.23530021  -0.38676121  -0.09293726  1.0
  O  O12  1  0.90706274  0.23530021  -0.38676121  1.0
  O  O13  1  0.38676121  0.09293726  -0.23530021  1.0
  O  O14  1  0.76469979  0.38676121  -0.90706274  1.0
