# generated using pymatgen
data_Ca2Si
_symmetry_space_group_name_H-M   'P 1'
_cell_length_a   7.60232048
_cell_length_b   4.81963043
_cell_length_c   9.03435598
_cell_angle_alpha   90.00000000
_cell_angle_beta   90.00000000
_cell_angle_gamma   90.00000000
_symmetry_Int_Tables_number   1
_chemical_formula_structural   Ca2Si
_chemical_formula_sum   'Ca8 Si4'
_cell_volume   331.02219235
_cell_formula_units_Z   4
loop_
 _symmetry_equiv_pos_site_id
 _symmetry_equiv_pos_as_xyz
  1  'x, y, z'
loop_
 _atom_site_type_symbol
 _atom_site_label
 _atom_site_symmetry_multiplicity
 _atom_site_fract_x
 _atom_site_fract_y
 _atom_site_fract_z
 _atom_site_occupancy
  Ca  Ca0  1  0.98041442  0.75000000  0.67782721  1.0
  Ca  Ca1  1  0.48041442  0.75000000  0.82217279  1.0
  Ca  Ca2  1  0.01958558  0.25000000  0.32217279  1.0
  Ca  Ca3  1  0.51958558  0.25000000  0.17782721  1.0
  Ca  Ca4  1  0.84583042  0.75000000  0.07427897  1.0
  Ca  Ca5  1  0.34583042  0.75000000  0.42572103  1.0
  Ca  Ca6  1  0.15416958  0.25000000  0.92572103  1.0
  Ca  Ca7  1  0.65416958  0.25000000  0.57427897  1.0
  Si  Si8  1  0.74757326  0.75000000  0.39487211  1.0
  Si  Si9  1  0.24757326  0.75000000  0.10512789  1.0
  Si  Si10  1  0.25242674  0.25000000  0.60512789  1.0
  Si  Si11  1  0.75242674  0.25000000  0.89487211  1.0
