# generated using pymatgen
data_Gd3CCl3
_symmetry_space_group_name_H-M   'P 1'
_cell_length_a   9.39695733
_cell_length_b   9.39695733
_cell_length_c   9.39695733
_cell_angle_alpha   109.47122063
_cell_angle_beta   109.47122063
_cell_angle_gamma   109.47122063
_symmetry_Int_Tables_number   1
_chemical_formula_structural   Gd3CCl3
_chemical_formula_sum   'Gd12 C4 Cl12'
_cell_volume   638.76317899
_cell_formula_units_Z   4
loop_
 _symmetry_equiv_pos_site_id
 _symmetry_equiv_pos_as_xyz
  1  'x, y, z'
loop_
 _atom_site_type_symbol
 _atom_site_label
 _atom_site_symmetry_multiplicity
 _atom_site_fract_x
 _atom_site_fract_y
 _atom_site_fract_z
 _atom_site_occupancy
  Gd  Gd0  1  1.75000000  1.23220013  1.26779987  1.0
  Gd  Gd1  1  0.75000000  1.01779987  0.48220013  1.0
  Gd  Gd2  1  1.03559975  0.26779987  1.01779987  1.0
  Gd  Gd3  1  0.46440025  0.48220013  0.23220013  1.0
  Gd  Gd4  1  1.26779987  1.01779987  1.03559975  1.0
  Gd  Gd5  1  1.23220013  1.26779987  0.75000000  1.0
  Gd  Gd6  1  1.01779987  1.03559975  0.26779987  1.0
  Gd  Gd7  1  1.48220013  0.75000000  1.01779987  1.0
  Gd  Gd8  1  1.01779987  1.48220013  0.75000000  1.0
  Gd  Gd9  1  1.48220013  1.23220013  1.46440025  1.0
  Gd  Gd10  1  0.23220013  0.46440025  0.48220013  1.0
  Gd  Gd11  1  1.26779987  0.75000000  1.23220013  1.0
  C  C12  1  1.50000000  1.00000000  1.25000000  1.0
  C  C13  1  1.00000000  1.25000000  0.50000000  1.0
  C  C14  1  0.25000000  0.25000000  0.25000000  1.0
  C  C15  1  1.25000000  0.50000000  1.00000000  1.0
  Cl  Cl16  1  0.51316347  0.50658173  0.75658173  1.0
  Cl  Cl17  1  0.98683653  0.74341827  0.99341827  1.0
  Cl  Cl18  1  1.25000000  0.75658173  0.74341827  1.0
  Cl  Cl19  1  1.25000000  0.99341827  0.50658173  1.0
  Cl  Cl20  1  0.99341827  1.50658173  1.25000000  1.0
  Cl  Cl21  1  1.50658173  1.75658173  1.51316347  1.0
  Cl  Cl22  1  0.74341827  0.25000000  0.75658173  1.0
  Cl  Cl23  1  0.75658173  0.51316347  0.50658173  1.0
  Cl  Cl24  1  0.99341827  0.98683653  0.74341827  1.0
  Cl  Cl25  1  1.50658173  1.25000000  0.99341827  1.0
  Cl  Cl26  1  0.75658173  0.74341827  0.25000000  1.0
  Cl  Cl27  1  1.74341827  0.99341827  0.98683653  1.0
