# generated using pymatgen
data_Fe3BO5
_symmetry_space_group_name_H-M   'P 1'
_cell_length_a   9.45864561
_cell_length_b   12.55344148
_cell_length_c   3.05987464
_cell_angle_alpha   90.00000000
_cell_angle_beta   90.00000000
_cell_angle_gamma   90.00000000
_symmetry_Int_Tables_number   1
_chemical_formula_structural   Fe3BO5
_chemical_formula_sum   'Fe12 B4 O20'
_cell_volume   363.32508998
_cell_formula_units_Z   4
loop_
 _symmetry_equiv_pos_site_id
 _symmetry_equiv_pos_as_xyz
  1  'x, y, z'
loop_
 _atom_site_type_symbol
 _atom_site_label
 _atom_site_symmetry_multiplicity
 _atom_site_fract_x
 _atom_site_fract_y
 _atom_site_fract_z
 _atom_site_occupancy
  Fe  Fe0  1  0.50025087  0.72274795  0.50000000  1.0
  Fe  Fe1  1  1.00025087  0.77725205  0.50000000  1.0
  Fe  Fe2  1  0.49974913  0.27725205  0.50000000  1.0
  Fe  Fe3  1  -0.00025087  0.22274795  0.50000000  1.0
  Fe  Fe4  1  0.25772678  0.88853584  0.00000000  1.0
  Fe  Fe5  1  0.75772678  0.61146416  0.00000000  1.0
  Fe  Fe6  1  0.74227322  0.11146416  0.00000000  1.0
  Fe  Fe7  1  0.24227322  0.38853584  0.00000000  1.0
  Fe  Fe8  1  0.50000000  0.00000000  0.50000000  1.0
  Fe  Fe9  1  0.00000000  0.50000000  0.50000000  1.0
  Fe  Fe10  1  0.50000000  0.50000000  0.00000000  1.0
  Fe  Fe11  1  0.00000000  0.00000000  0.00000000  1.0
  B  B12  1  0.22653467  0.64027621  0.00000000  1.0
  B  B13  1  0.72653467  0.85972379  0.00000000  1.0
  B  B14  1  0.77346533  0.35972379  0.00000000  1.0
  B  B15  1  0.27346533  0.14027621  0.00000000  1.0
  O  O16  1  0.39675658  0.85729134  0.50000000  1.0
  O  O17  1  0.89675658  0.64270866  0.50000000  1.0
  O  O18  1  0.60324342  0.14270866  0.50000000  1.0
  O  O19  1  0.10324342  0.35729134  0.50000000  1.0
  O  O20  1  0.10924151  0.92143234  0.50000000  1.0
  O  O21  1  0.60924151  0.57856766  0.50000000  1.0
  O  O22  1  0.89075849  0.07856766  0.50000000  1.0
  O  O23  1  0.39075849  0.42143234  0.50000000  1.0
  O  O24  1  0.37283785  0.64072598  0.00000000  1.0
  O  O25  1  0.87283785  0.85927402  0.00000000  1.0
  O  O26  1  0.62716215  0.35927402  0.00000000  1.0
  O  O27  1  0.12716215  0.14072598  0.00000000  1.0
  O  O28  1  0.15379717  0.73606154  0.00000000  1.0
  O  O29  1  0.65379717  0.76393846  0.00000000  1.0
  O  O30  1  0.84620283  0.26393846  0.00000000  1.0
  O  O31  1  0.34620283  0.23606154  0.00000000  1.0
  O  O32  1  0.15203389  0.54507902  0.00000000  1.0
  O  O33  1  0.65203389  0.95492098  0.00000000  1.0
  O  O34  1  0.84796611  0.45492098  0.00000000  1.0
  O  O35  1  0.34796611  0.04507902  0.00000000  1.0
