# generated using pymatgen
data_SrCa2In2Ge
_symmetry_space_group_name_H-M   'P 1'
_cell_length_a   11.83865808
_cell_length_b   13.68250898
_cell_length_c   4.57577028
_cell_angle_alpha   90.00000000
_cell_angle_beta   90.00000000
_cell_angle_gamma   90.00000000
_symmetry_Int_Tables_number   1
_chemical_formula_structural   SrCa2In2Ge
_chemical_formula_sum   'Sr4 Ca8 In8 Ge4'
_cell_volume   741.19491830
_cell_formula_units_Z   4
loop_
 _symmetry_equiv_pos_site_id
 _symmetry_equiv_pos_as_xyz
  1  'x, y, z'
loop_
 _atom_site_type_symbol
 _atom_site_label
 _atom_site_symmetry_multiplicity
 _atom_site_fract_x
 _atom_site_fract_y
 _atom_site_fract_z
 _atom_site_occupancy
  Sr  Sr0  1  0.90629004  0.75000000  0.25000000  1.0
  Sr  Sr1  1  0.40629004  0.75000000  0.75000000  1.0
  Sr  Sr2  1  0.09370996  0.25000000  0.75000000  1.0
  Sr  Sr3  1  0.59370996  0.25000000  0.25000000  1.0
  Ca  Ca4  1  0.11988070  0.90213980  0.75001996  1.0
  Ca  Ca5  1  0.11988070  0.59786020  0.74998004  1.0
  Ca  Ca6  1  0.61988070  0.90213980  0.24998004  1.0
  Ca  Ca7  1  0.61988070  0.59786020  0.25001996  1.0
  Ca  Ca8  1  0.88011930  0.40213980  0.25001996  1.0
  Ca  Ca9  1  0.88011930  0.09786020  0.24998004  1.0
  Ca  Ca10  1  0.38011930  0.40213980  0.74998004  1.0
  Ca  Ca11  1  0.38011930  0.09786020  0.75001996  1.0
  In  In12  1  0.33261569  0.91849135  0.25001200  1.0
  In  In13  1  0.33261569  0.58150865  0.24998800  1.0
  In  In14  1  0.83261569  0.91849135  0.74998800  1.0
  In  In15  1  0.83261569  0.58150865  0.75001200  1.0
  In  In16  1  0.66738431  0.41849135  0.75001200  1.0
  In  In17  1  0.66738431  0.08150865  0.74998800  1.0
  In  In18  1  0.16738431  0.41849135  0.24998800  1.0
  In  In19  1  0.16738431  0.08150865  0.25001200  1.0
  Ge  Ge20  1  0.18661687  0.75000000  0.25000000  1.0
  Ge  Ge21  1  0.68661687  0.75000000  0.75000000  1.0
  Ge  Ge22  1  0.81338313  0.25000000  0.75000000  1.0
  Ge  Ge23  1  0.31338313  0.25000000  0.25000000  1.0
