# generated using pymatgen
data_In2(Ni7P2)3
_symmetry_space_group_name_H-M   'P 1'
_cell_length_a   7.86780118
_cell_length_b   7.86780118
_cell_length_c   7.86780118
_cell_angle_alpha   60.00000000
_cell_angle_beta   60.00000000
_cell_angle_gamma   60.00000000
_symmetry_Int_Tables_number   1
_chemical_formula_structural   In2(Ni7P2)3
_chemical_formula_sum   'In2 Ni21 P6'
_cell_volume   344.38571841
_cell_formula_units_Z   1
loop_
 _symmetry_equiv_pos_site_id
 _symmetry_equiv_pos_as_xyz
  1  'x, y, z'
loop_
 _atom_site_type_symbol
 _atom_site_label
 _atom_site_symmetry_multiplicity
 _atom_site_fract_x
 _atom_site_fract_y
 _atom_site_fract_z
 _atom_site_occupancy
  In  In0  1  0.75000000  0.75000000  -0.25000000  1.0
  In  In1  1  1.25000000  0.25000000  0.25000000  1.0
  Ni  Ni2  1  1.65245489  0.00000000  -0.00000000  1.0
  Ni  Ni3  1  1.00000000  0.34754511  -0.34754511  1.0
  Ni  Ni4  1  1.00000000  0.65245489  -0.65245489  1.0
  Ni  Ni5  1  1.34754511  -0.00000000  0.00000000  1.0
  Ni  Ni6  1  0.00000000  1.65245489  -0.00000000  1.0
  Ni  Ni7  1  0.34754511  1.00000000  -0.34754511  1.0
  Ni  Ni8  1  -0.00000000  0.00000000  0.65245489  1.0
  Ni  Ni9  1  0.34754511  -0.34754511  1.00000000  1.0
  Ni  Ni10  1  0.65245489  1.00000000  -0.65245489  1.0
  Ni  Ni11  1  -0.00000000  1.34754511  0.00000000  1.0
  Ni  Ni12  1  0.65245489  -0.65245489  1.00000000  1.0
  Ni  Ni13  1  0.00000000  -0.00000000  0.34754511  1.0
  Ni  Ni14  1  0.61507258  0.61507258  -0.38492742  1.0
  Ni  Ni15  1  0.38492742  1.38492742  -0.15478227  1.0
  Ni  Ni16  1  1.38492742  -0.15478227  0.38492742  1.0
  Ni  Ni17  1  1.15478227  0.61507258  0.61507258  1.0
  Ni  Ni18  1  -0.15478227  1.38492742  0.38492742  1.0
  Ni  Ni19  1  0.61507258  1.15478227  -0.38492742  1.0
  Ni  Ni20  1  0.61507258  0.61507258  1.15478227  1.0
  Ni  Ni21  1  1.38492742  0.38492742  0.38492742  1.0
  Ni  Ni22  1  -0.00000000  -0.00000000  0.00000000  1.0
  P  P23  1  -0.73778992  0.73778992  0.73778992  1.0
  P  P24  1  -0.26221008  0.26221008  0.73778992  1.0
  P  P25  1  0.73778992  0.73778992  -0.73778992  1.0
  P  P26  1  0.26221008  1.26221008  -0.26221008  1.0
  P  P27  1  0.26221008  -0.26221008  1.26221008  1.0
  P  P28  1  -0.26221008  0.26221008  0.26221008  1.0
