# generated using pymatgen
data_LiMnVF6
_symmetry_space_group_name_H-M   'P 1'
_cell_length_a   8.81108119
_cell_length_b   8.81108119
_cell_length_c   4.69671943
_cell_angle_alpha   90.00000000
_cell_angle_beta   90.00000000
_cell_angle_gamma   120.00000000
_symmetry_Int_Tables_number   1
_chemical_formula_structural   LiMnVF6
_chemical_formula_sum   'Li3 Mn3 V3 F18'
_cell_volume   315.77929837
_cell_formula_units_Z   3
loop_
 _symmetry_equiv_pos_site_id
 _symmetry_equiv_pos_as_xyz
  1  'x, y, z'
loop_
 _atom_site_type_symbol
 _atom_site_label
 _atom_site_symmetry_multiplicity
 _atom_site_fract_x
 _atom_site_fract_y
 _atom_site_fract_z
 _atom_site_occupancy
  Li  Li0  1  0.33333333  0.66666667  0.51147524  1.0
  Li  Li1  1  0.66666667  0.33333333  0.48852476  1.0
  Li  Li2  1  0.00000000  0.00000000  0.00000000  1.0
  Mn  Mn3  1  0.35406769  0.35406769  0.00000000  1.0
  Mn  Mn4  1  0.00000000  0.64593231  0.00000000  1.0
  Mn  Mn5  1  0.64593231  0.00000000  0.00000000  1.0
  V  V6  1  0.68560273  0.68560273  0.50000000  1.0
  V  V7  1  0.00000000  0.31439727  0.50000000  1.0
  V  V8  1  0.31439727  0.00000000  0.50000000  1.0
  F  F9  1  0.11554064  0.89264156  0.24287323  1.0
  F  F10  1  0.89264156  0.11554064  0.75712677  1.0
  F  F11  1  0.77710092  0.88445936  0.24287323  1.0
  F  F12  1  0.10735844  0.22289908  0.24287323  1.0
  F  F13  1  0.88445936  0.77710092  0.75712677  1.0
  F  F14  1  0.22289908  0.10735844  0.75712677  1.0
  F  F15  1  0.42384449  0.89344503  0.27316900  1.0
  F  F16  1  0.89344503  0.42384449  0.72683100  1.0
  F  F17  1  0.46960053  0.57615551  0.27316900  1.0
  F  F18  1  0.10655497  0.53039947  0.27316900  1.0
  F  F19  1  0.57615551  0.46960053  0.72683100  1.0
  F  F20  1  0.53039947  0.10655497  0.72683100  1.0
  F  F21  1  0.78384419  0.56204722  0.27225888  1.0
  F  F22  1  0.56204722  0.78384419  0.72774112  1.0
  F  F23  1  0.77820304  0.21615581  0.27225888  1.0
  F  F24  1  0.43795278  0.22179696  0.27225888  1.0
  F  F25  1  0.21615581  0.77820304  0.72774112  1.0
  F  F26  1  0.22179696  0.43795278  0.72774112  1.0
