# generated using pymatgen
data_ReCl6
_symmetry_space_group_name_H-M   'P 1'
_cell_length_a   6.89158410
_cell_length_b   6.89158410
_cell_length_c   6.89158410
_cell_angle_alpha   55.41204422
_cell_angle_beta   55.41204422
_cell_angle_gamma   55.41204422
_symmetry_Int_Tables_number   1
_chemical_formula_structural   ReCl6
_chemical_formula_sum   'Re1 Cl6'
_cell_volume   206.77856245
_cell_formula_units_Z   1
loop_
 _symmetry_equiv_pos_site_id
 _symmetry_equiv_pos_as_xyz
  1  'x, y, z'
loop_
 _atom_site_type_symbol
 _atom_site_label
 _atom_site_symmetry_multiplicity
 _atom_site_fract_x
 _atom_site_fract_y
 _atom_site_fract_z
 _atom_site_occupancy
  Re  Re0  1  0.00000000  0.00000000  0.00000000  1.0
  Cl  Cl1  1  0.08540083  0.77844477  -0.63658027  1.0
  Cl  Cl2  1  0.63658027  -0.08540083  0.22155523  1.0
  Cl  Cl3  1  1.22155523  -0.36341973  -0.08540083  1.0
  Cl  Cl4  1  0.91459917  0.22155523  -0.36341973  1.0
  Cl  Cl5  1  0.36341973  0.08540083  -0.22155523  1.0
  Cl  Cl6  1  0.77844477  0.36341973  -0.91459917  1.0
