# generated using pymatgen
data_NaBi(WO4)2
_symmetry_space_group_name_H-M   'P 1'
_cell_length_a   6.92330051
_cell_length_b   6.92330051
_cell_length_c   6.92330051
_cell_angle_alpha   134.59344755
_cell_angle_beta   134.59344755
_cell_angle_gamma   66.16255074
_symmetry_Int_Tables_number   1
_chemical_formula_structural   NaBi(WO4)2
_chemical_formula_sum   'Na1 Bi1 W2 O8'
_cell_volume   165.68077954
_cell_formula_units_Z   1
loop_
 _symmetry_equiv_pos_site_id
 _symmetry_equiv_pos_as_xyz
  1  'x, y, z'
loop_
 _atom_site_type_symbol
 _atom_site_label
 _atom_site_symmetry_multiplicity
 _atom_site_fract_x
 _atom_site_fract_y
 _atom_site_fract_z
 _atom_site_occupancy
  Na  Na0  1  0.50000000  0.50000000  1.00000000  1.0
  Bi  Bi1  1  0.75000000  0.25000000  0.50000000  1.0
  W  W2  1  0.25000000  0.75000000  0.50000000  1.0
  W  W3  1  0.00000000  0.00000000  0.00000000  1.0
  O  O4  1  0.48905954  1.07292709  0.89600385  1.0
  O  O5  1  0.92707291  0.82307676  1.41613245  1.0
  O  O6  1  1.17692324  0.59305569  1.10399615  1.0
  O  O7  1  0.40694431  0.51094046  0.58386755  1.0
  O  O8  1  0.32665395  0.94196821  1.09395248  1.0
  O  O9  1  1.05803179  1.15198426  1.38468574  1.0
  O  O10  1  0.84801574  0.23270148  0.90604752  1.0
  O  O11  1  0.76729852  0.67334605  0.61531426  1.0
