# generated using pymatgen
data_Rb2MnBr4
_symmetry_space_group_name_H-M   'P 1'
_cell_length_a   9.95196185
_cell_length_b   7.78458513
_cell_length_c   14.15014737
_cell_angle_alpha   90.00000000
_cell_angle_beta   90.00000000
_cell_angle_gamma   90.00000000
_symmetry_Int_Tables_number   1
_chemical_formula_structural   Rb2MnBr4
_chemical_formula_sum   'Rb8 Mn4 Br16'
_cell_volume   1096.23872039
_cell_formula_units_Z   4
loop_
 _symmetry_equiv_pos_site_id
 _symmetry_equiv_pos_as_xyz
  1  'x, y, z'
loop_
 _atom_site_type_symbol
 _atom_site_label
 _atom_site_symmetry_multiplicity
 _atom_site_fract_x
 _atom_site_fract_y
 _atom_site_fract_z
 _atom_site_occupancy
  Rb  Rb0  1  0.52038119  0.75000000  0.67594213  1.0
  Rb  Rb1  1  0.02038119  0.75000000  0.82405787  1.0
  Rb  Rb2  1  0.47961881  0.25000000  0.32405787  1.0
  Rb  Rb3  1  0.97961881  0.25000000  0.17594213  1.0
  Rb  Rb4  1  0.87992086  0.75000000  0.43502743  1.0
  Rb  Rb5  1  0.37992086  0.75000000  0.06497257  1.0
  Rb  Rb6  1  0.12007914  0.25000000  0.56497257  1.0
  Rb  Rb7  1  0.62007914  0.25000000  0.93502743  1.0
  Mn  Mn8  1  0.77921889  0.75000000  0.07249362  1.0
  Mn  Mn9  1  0.27921889  0.75000000  0.42750638  1.0
  Mn  Mn10  1  0.22078111  0.25000000  0.92750638  1.0
  Mn  Mn11  1  0.72078111  0.25000000  0.57249362  1.0
  Br  Br12  1  0.67444631  1.00433466  0.14948471  1.0
  Br  Br13  1  0.67444631  0.49566534  0.14948471  1.0
  Br  Br14  1  0.17444631  1.00433466  0.35051529  1.0
  Br  Br15  1  0.17444631  0.49566534  0.35051529  1.0
  Br  Br16  1  0.32555369  0.50433466  0.85051529  1.0
  Br  Br17  1  0.32555369  -0.00433466  0.85051529  1.0
  Br  Br18  1  0.82555369  0.50433466  0.64948471  1.0
  Br  Br19  1  0.82555369  -0.00433466  0.64948471  1.0
  Br  Br20  1  1.02779377  0.75000000  0.07944535  1.0
  Br  Br21  1  0.52779377  0.75000000  0.42055465  1.0
  Br  Br22  1  -0.02779377  0.25000000  0.92055465  1.0
  Br  Br23  1  0.47220623  0.25000000  0.57944535  1.0
  Br  Br24  1  0.18882944  0.75000000  0.59373068  1.0
  Br  Br25  1  0.68882944  0.75000000  0.90626932  1.0
  Br  Br26  1  0.81117056  0.25000000  0.40626932  1.0
  Br  Br27  1  0.31117056  0.25000000  0.09373068  1.0
