# generated using pymatgen
data_Ba2LuNbO6
_symmetry_space_group_name_H-M   'P 1'
_cell_length_a   5.98342790
_cell_length_b   5.97437433
_cell_length_c   10.35041806
_cell_angle_alpha   90.00000000
_cell_angle_beta   125.33291219
_cell_angle_gamma   90.00000000
_symmetry_Int_Tables_number   1
_chemical_formula_structural   Ba2LuNbO6
_chemical_formula_sum   'Ba4 Lu2 Nb2 O12'
_cell_volume   301.84711033
_cell_formula_units_Z   2
loop_
 _symmetry_equiv_pos_site_id
 _symmetry_equiv_pos_as_xyz
  1  'x, y, z'
loop_
 _atom_site_type_symbol
 _atom_site_label
 _atom_site_symmetry_multiplicity
 _atom_site_fract_x
 _atom_site_fract_y
 _atom_site_fract_z
 _atom_site_occupancy
  Ba  Ba0  1  0.74976568  0.00004795  0.25015127  1.0
  Ba  Ba1  1  0.74976568  0.49995205  0.75015127  1.0
  Ba  Ba2  1  0.25023432  0.50004795  0.24984873  1.0
  Ba  Ba3  1  0.25023432  0.99995205  0.74984873  1.0
  Lu  Lu4  1  0.50000000  0.50000000  -0.00000000  1.0
  Lu  Lu5  1  0.50000000  0.00000000  0.50000000  1.0
  Nb  Nb6  1  -0.00000000  0.50000000  0.50000000  1.0
  Nb  Nb7  1  0.00000000  0.00000000  0.00000000  1.0
  O  O8  1  0.78798868  0.49999056  0.26233036  1.0
  O  O9  1  0.78798868  0.00000944  0.76233036  1.0
  O  O10  1  0.21201132  0.99999056  0.23766964  1.0
  O  O11  1  0.21201132  0.50000944  0.73766964  1.0
  O  O12  1  0.74949807  0.73800891  0.48697250  1.0
  O  O13  1  0.74949807  0.76199109  0.98697250  1.0
  O  O14  1  0.25050193  0.23800891  0.01302750  1.0
  O  O15  1  0.25050193  0.26199109  0.51302750  1.0
  O  O16  1  0.74948633  0.26203514  0.48700538  1.0
  O  O17  1  0.74948633  0.23796486  0.98700538  1.0
  O  O18  1  0.25051367  0.76203514  0.01299462  1.0
  O  O19  1  0.25051367  0.73796486  0.51299462  1.0
