# generated using pymatgen
data_Gd2SCl4
_symmetry_space_group_name_H-M   'P 1'
_cell_length_a   8.35162476
_cell_length_b   8.35162476
_cell_length_c   6.96699857
_cell_angle_alpha   82.53565688
_cell_angle_beta   97.46434312
_cell_angle_gamma   134.74769357
_symmetry_Int_Tables_number   1
_chemical_formula_structural   Gd2SCl4
_chemical_formula_sum   'Gd4 S2 Cl8'
_cell_volume   341.69000159
_cell_formula_units_Z   2
loop_
 _symmetry_equiv_pos_site_id
 _symmetry_equiv_pos_as_xyz
  1  'x, y, z'
loop_
 _atom_site_type_symbol
 _atom_site_label
 _atom_site_symmetry_multiplicity
 _atom_site_fract_x
 _atom_site_fract_y
 _atom_site_fract_z
 _atom_site_occupancy
  Gd  Gd0  1  0.90221446  -0.31238860  0.07749745  1.0
  Gd  Gd1  1  1.68761140  -0.09778554  0.42250255  1.0
  Gd  Gd2  1  1.09778554  -0.68761140  0.92250255  1.0
  Gd  Gd3  1  1.31238860  0.09778554  0.57749745  1.0
  S  S4  1  0.93848520  0.93848520  0.75000000  1.0
  S  S5  1  0.06151480  0.06151480  0.25000000  1.0
  Cl  Cl6  1  1.50829517  -0.31188868  0.07925083  1.0
  Cl  Cl7  1  0.68811132  -0.49170483  0.42074917  1.0
  Cl  Cl8  1  1.49170483  0.31188868  0.92074917  1.0
  Cl  Cl9  1  1.31188868  -0.50829517  0.57925083  1.0
  Cl  Cl10  1  1.70347107  0.13919450  0.67860558  1.0
  Cl  Cl11  1  1.13919450  -0.29652893  0.82139442  1.0
  Cl  Cl12  1  1.29652893  -0.13919450  0.32139442  1.0
  Cl  Cl13  1  0.86080550  -0.70347107  0.17860558  1.0
