# generated using pymatgen
data_LaPIr
_symmetry_space_group_name_H-M   'P 1'
_cell_length_a   7.76185421
_cell_length_b   7.76185421
_cell_length_c   7.76185421
_cell_angle_alpha   148.85268422
_cell_angle_beta   148.85268422
_cell_angle_gamma   44.62819265
_symmetry_Int_Tables_number   1
_chemical_formula_structural   LaPIr
_chemical_formula_sum   'La2 P2 Ir2'
_cell_volume   124.72883489
_cell_formula_units_Z   2
loop_
 _symmetry_equiv_pos_site_id
 _symmetry_equiv_pos_as_xyz
  1  'x, y, z'
loop_
 _atom_site_type_symbol
 _atom_site_label
 _atom_site_symmetry_multiplicity
 _atom_site_fract_x
 _atom_site_fract_y
 _atom_site_fract_z
 _atom_site_occupancy
  La  La0  1  0.57963434  0.57963434  1.00000000  1.0
  La  La1  1  0.32963434  0.82963434  0.50000000  1.0
  P  P2  1  0.00057739  0.00057739  0.00000000  1.0
  P  P3  1  0.75057739  0.25057739  0.50000000  1.0
  Ir  Ir4  1  0.16778828  0.16778828  0.00000000  1.0
  Ir  Ir5  1  0.91778828  0.41778828  0.50000000  1.0
