# generated using pymatgen
data_Fe3(Ni10B3)2
_symmetry_space_group_name_H-M   'P 1'
_cell_length_a   7.40553551
_cell_length_b   7.40553551
_cell_length_c   7.40553551
_cell_angle_alpha   60.00000000
_cell_angle_beta   60.00000000
_cell_angle_gamma   60.00000000
_symmetry_Int_Tables_number   1
_chemical_formula_structural   Fe3(Ni10B3)2
_chemical_formula_sum   'Fe3 Ni20 B6'
_cell_volume   287.18014347
_cell_formula_units_Z   1
loop_
 _symmetry_equiv_pos_site_id
 _symmetry_equiv_pos_as_xyz
  1  'x, y, z'
loop_
 _atom_site_type_symbol
 _atom_site_label
 _atom_site_symmetry_multiplicity
 _atom_site_fract_x
 _atom_site_fract_y
 _atom_site_fract_z
 _atom_site_occupancy
  Fe  Fe0  1  0.00000000  0.00000000  0.00000000  1.0
  Fe  Fe1  1  0.75000000  0.75000000  -0.25000000  1.0
  Fe  Fe2  1  1.25000000  0.25000000  0.25000000  1.0
  Ni  Ni3  1  0.00000000  0.00000000  0.33850227  1.0
  Ni  Ni4  1  0.66149773  1.00000000  -0.66149773  1.0
  Ni  Ni5  1  1.00000000  0.66149773  -0.66149773  1.0
  Ni  Ni6  1  0.66149773  -0.66149773  1.00000000  1.0
  Ni  Ni7  1  0.00000000  1.33850227  -0.00000000  1.0
  Ni  Ni8  1  1.00000000  0.33850227  -0.33850227  1.0
  Ni  Ni9  1  0.33850227  -0.33850227  1.00000000  1.0
  Ni  Ni10  1  0.33850227  1.00000000  -0.33850227  1.0
  Ni  Ni11  1  1.33850227  0.00000000  -0.00000000  1.0
  Ni  Ni12  1  0.00000000  -0.00000000  0.66149773  1.0
  Ni  Ni13  1  0.00000000  1.66149773  -0.00000000  1.0
  Ni  Ni14  1  1.66149773  0.00000000  -0.00000000  1.0
  Ni  Ni15  1  0.61792873  0.61792873  1.14621382  1.0
  Ni  Ni16  1  0.61792873  1.14621382  -0.38207127  1.0
  Ni  Ni17  1  1.14621382  0.61792873  0.61792873  1.0
  Ni  Ni18  1  0.61792873  0.61792873  -0.38207127  1.0
  Ni  Ni19  1  0.38207127  1.38207127  -0.14621382  1.0
  Ni  Ni20  1  1.38207127  -0.14621382  0.38207127  1.0
  Ni  Ni21  1  -0.14621382  1.38207127  0.38207127  1.0
  Ni  Ni22  1  1.38207127  0.38207127  0.38207127  1.0
  B  B23  1  0.72790238  0.72790238  -0.72790238  1.0
  B  B24  1  0.27209762  -0.27209762  1.27209762  1.0
  B  B25  1  -0.27209762  0.27209762  0.27209762  1.0
  B  B26  1  0.27209762  1.27209762  -0.27209762  1.0
  B  B27  1  -0.27209762  0.27209762  0.72790238  1.0
  B  B28  1  -0.72790238  0.72790238  0.72790238  1.0
