# generated using pymatgen
data_Na4Ga3Si3ClO12
_symmetry_space_group_name_H-M   'P 1'
_cell_length_a   9.04433532
_cell_length_b   9.04433532
_cell_length_c   9.04433532
_cell_angle_alpha   90.00000000
_cell_angle_beta   90.00000000
_cell_angle_gamma   90.00000000
_symmetry_Int_Tables_number   1
_chemical_formula_structural   Na4Ga3Si3ClO12
_chemical_formula_sum   'Na8 Ga6 Si6 Cl2 O24'
_cell_volume   739.82664074
_cell_formula_units_Z   2
loop_
 _symmetry_equiv_pos_site_id
 _symmetry_equiv_pos_as_xyz
  1  'x, y, z'
loop_
 _atom_site_type_symbol
 _atom_site_label
 _atom_site_symmetry_multiplicity
 _atom_site_fract_x
 _atom_site_fract_y
 _atom_site_fract_z
 _atom_site_occupancy
  Na  Na0  1  0.32785650  0.32785650  0.67214350  1.0
  Na  Na1  1  0.32785650  0.67214350  0.32785650  1.0
  Na  Na2  1  0.82785650  0.82785650  0.17214350  1.0
  Na  Na3  1  0.82785650  0.17214350  0.82785650  1.0
  Na  Na4  1  0.67214350  0.32785650  0.32785650  1.0
  Na  Na5  1  0.67214350  0.67214350  0.67214350  1.0
  Na  Na6  1  0.17214350  0.82785650  0.82785650  1.0
  Na  Na7  1  0.17214350  0.17214350  0.17214350  1.0
  Ga  Ga8  1  0.25000000  -0.00000000  0.50000000  1.0
  Ga  Ga9  1  0.75000000  -0.00000000  0.50000000  1.0
  Ga  Ga10  1  0.50000000  0.25000000  -0.00000000  1.0
  Ga  Ga11  1  0.50000000  0.75000000  -0.00000000  1.0
  Ga  Ga12  1  0.00000000  0.50000000  0.25000000  1.0
  Ga  Ga13  1  0.00000000  0.50000000  0.75000000  1.0
  Si  Si14  1  0.25000000  0.50000000  0.00000000  1.0
  Si  Si15  1  0.75000000  0.50000000  -0.00000000  1.0
  Si  Si16  1  0.00000000  0.25000000  0.50000000  1.0
  Si  Si17  1  0.00000000  0.75000000  0.50000000  1.0
  Si  Si18  1  0.50000000  -0.00000000  0.25000000  1.0
  Si  Si19  1  0.50000000  -0.00000000  0.75000000  1.0
  Cl  Cl20  1  0.50000000  0.50000000  0.50000000  1.0
  Cl  Cl21  1  0.00000000  0.00000000  0.00000000  1.0
  O  O22  1  0.36619084  0.07388372  0.65124207  1.0
  O  O23  1  0.36619084  0.92611628  0.34875793  1.0
  O  O24  1  0.86619084  0.84875793  0.42611628  1.0
  O  O25  1  0.86619084  0.15124207  0.57388372  1.0
  O  O26  1  0.34875793  0.36619084  0.92611628  1.0
  O  O27  1  0.34875793  0.63380916  0.07388372  1.0
  O  O28  1  0.84875793  0.57388372  0.13380916  1.0
  O  O29  1  0.84875793  0.42611628  0.86619084  1.0
  O  O30  1  0.07388372  0.34875793  0.63380916  1.0
  O  O31  1  0.07388372  0.65124207  0.36619084  1.0
  O  O32  1  0.57388372  0.86619084  0.15124207  1.0
  O  O33  1  0.57388372  0.13380916  0.84875793  1.0
  O  O34  1  0.63380916  0.07388372  0.34875793  1.0
  O  O35  1  0.63380916  0.92611628  0.65124207  1.0
  O  O36  1  0.13380916  0.84875793  0.57388372  1.0
  O  O37  1  0.13380916  0.15124207  0.42611628  1.0
  O  O38  1  0.65124207  0.36619084  0.07388372  1.0
  O  O39  1  0.65124207  0.63380916  0.92611628  1.0
  O  O40  1  0.15124207  0.57388372  0.86619084  1.0
  O  O41  1  0.15124207  0.42611628  0.13380916  1.0
  O  O42  1  0.92611628  0.34875793  0.36619084  1.0
  O  O43  1  0.92611628  0.65124207  0.63380916  1.0
  O  O44  1  0.42611628  0.86619084  0.84875793  1.0
  O  O45  1  0.42611628  0.13380916  0.15124207  1.0
