# generated using pymatgen
data_Ta3B4
_symmetry_space_group_name_H-M   'P 1'
_cell_length_a   7.38460104
_cell_length_b   7.38460104
_cell_length_c   7.38460104
_cell_angle_alpha   155.45636327
_cell_angle_beta   154.18821913
_cell_angle_gamma   35.91633461
_symmetry_Int_Tables_number   1
_chemical_formula_structural   Ta3B4
_chemical_formula_sum   'Ta3 B4'
_cell_volume   72.74407062
_cell_formula_units_Z   1
loop_
 _symmetry_equiv_pos_site_id
 _symmetry_equiv_pos_as_xyz
  1  'x, y, z'
loop_
 _atom_site_type_symbol
 _atom_site_label
 _atom_site_symmetry_multiplicity
 _atom_site_fract_x
 _atom_site_fract_y
 _atom_site_fract_z
 _atom_site_occupancy
  Ta  Ta0  1  0.81483987  0.31483987  0.50000000  1.0
  Ta  Ta1  1  0.18516013  0.68516013  0.50000000  1.0
  Ta  Ta2  1  0.00000000  0.00000000  0.00000000  1.0
  B  B3  1  0.63317967  0.13317967  0.50000000  1.0
  B  B4  1  0.36682033  0.86682033  0.50000000  1.0
  B  B5  1  0.56414924  0.56414924  1.00000000  1.0
  B  B6  1  0.43585076  0.43585076  0.00000000  1.0
