# generated using pymatgen
data_Sc7BCl12
_symmetry_space_group_name_H-M   'P 1'
_cell_length_a   8.18765710
_cell_length_b   8.18765710
_cell_length_c   8.18765710
_cell_angle_alpha   107.50434304
_cell_angle_beta   107.50434304
_cell_angle_gamma   107.50434304
_symmetry_Int_Tables_number   1
_chemical_formula_structural   Sc7BCl12
_chemical_formula_sum   'Sc7 B1 Cl12'
_cell_volume   450.67731494
_cell_formula_units_Z   1
loop_
 _symmetry_equiv_pos_site_id
 _symmetry_equiv_pos_as_xyz
  1  'x, y, z'
loop_
 _atom_site_type_symbol
 _atom_site_label
 _atom_site_symmetry_multiplicity
 _atom_site_fract_x
 _atom_site_fract_y
 _atom_site_fract_z
 _atom_site_occupancy
  Sc  Sc0  1  1.68919528  0.89673328  -0.02922213  1.0
  Sc  Sc1  1  1.10326672  0.02922213  -0.68919528  1.0
  Sc  Sc2  1  1.02922213  -0.68919528  0.10326672  1.0
  Sc  Sc3  1  0.31080472  0.10326672  0.02922213  1.0
  Sc  Sc4  1  0.89673328  0.97077787  0.68919528  1.0
  Sc  Sc5  1  0.97077787  1.68919528  -0.10326672  1.0
  Sc  Sc6  1  0.50000000  0.50000000  0.50000000  1.0
  B  B7  1  0.00000000  0.00000000  0.00000000  1.0
  Cl  Cl8  1  1.61691706  0.53913285  -0.15814806  1.0
  Cl  Cl9  1  0.46086715  1.15814806  -0.61691706  1.0
  Cl  Cl10  1  1.15814806  0.38308294  -0.53913285  1.0
  Cl  Cl11  1  0.38308294  0.46086715  0.15814806  1.0
  Cl  Cl12  1  1.53913285  -0.15814806  0.61691706  1.0
  Cl  Cl13  1  0.84185194  0.61691706  0.53913285  1.0
  Cl  Cl14  1  0.68658394  0.22246861  0.07530129  1.0
  Cl  Cl15  1  0.77753139  0.92469871  0.31341606  1.0
  Cl  Cl16  1  0.92469871  1.31341606  -0.22246861  1.0
  Cl  Cl17  1  1.31341606  0.77753139  -0.07530129  1.0
  Cl  Cl18  1  1.22246861  0.07530129  -0.31341606  1.0
  Cl  Cl19  1  1.07530129  -0.31341606  0.22246861  1.0
