# generated using pymatgen
data_Mn2Pb2O5
_symmetry_space_group_name_H-M   'P 1'
_cell_length_a   5.75979847
_cell_length_b   3.89011134
_cell_length_c   21.48340819
_cell_angle_alpha   90.00000000
_cell_angle_beta   90.00000000
_cell_angle_gamma   90.00000000
_symmetry_Int_Tables_number   1
_chemical_formula_structural   Mn2Pb2O5
_chemical_formula_sum   'Mn8 Pb8 O20'
_cell_volume   481.36277329
_cell_formula_units_Z   4
loop_
 _symmetry_equiv_pos_site_id
 _symmetry_equiv_pos_as_xyz
  1  'x, y, z'
loop_
 _atom_site_type_symbol
 _atom_site_label
 _atom_site_symmetry_multiplicity
 _atom_site_fract_x
 _atom_site_fract_y
 _atom_site_fract_z
 _atom_site_occupancy
  Mn  Mn0  1  0.56006118  0.75000000  0.31478132  1.0
  Mn  Mn1  1  0.06006118  0.75000000  0.18521868  1.0
  Mn  Mn2  1  0.43993882  0.25000000  0.68521868  1.0
  Mn  Mn3  1  0.93993882  0.25000000  0.81478132  1.0
  Mn  Mn4  1  0.56180535  0.75000000  0.05211642  1.0
  Mn  Mn5  1  0.06180535  0.75000000  0.44788358  1.0
  Mn  Mn6  1  0.43819465  0.25000000  0.94788358  1.0
  Mn  Mn7  1  0.93819465  0.25000000  0.55211642  1.0
  O  O8  1  0.95771001  0.75000000  0.81864729  1.0
  O  O9  1  0.45771001  0.75000000  0.68135271  1.0
  O  O10  1  0.04228999  0.25000000  0.18135271  1.0
  O  O11  1  0.54228999  0.25000000  0.31864729  1.0
  O  O12  1  0.91871635  0.75000000  0.53324926  1.0
  O  O13  1  0.41871635  0.75000000  0.96675074  1.0
  O  O14  1  0.08128365  0.25000000  0.46675074  1.0
  O  O15  1  0.58128365  0.25000000  0.03324926  1.0
  O  O16  1  0.80420757  0.75000000  0.11208208  1.0
  O  O17  1  0.30420757  0.75000000  0.38791792  1.0
  O  O18  1  0.19579243  0.25000000  0.88791792  1.0
  O  O19  1  0.69579243  0.25000000  0.61208208  1.0
  O  O20  1  0.79911217  0.75000000  0.24656026  1.0
  O  O21  1  0.29911217  0.75000000  0.25343974  1.0
  O  O22  1  0.20088783  0.25000000  0.75343974  1.0
  O  O23  1  0.70088783  0.25000000  0.74656026  1.0
  O  O24  1  0.78683478  0.75000000  0.38643067  1.0
  O  O25  1  0.28683478  0.75000000  0.11356933  1.0
  O  O26  1  0.21316522  0.25000000  0.61356933  1.0
  O  O27  1  0.71316522  0.25000000  0.88643067  1.0
  Pb  Pb28  1  0.90777655  0.75000000  0.69065389  1.0
  Pb  Pb29  1  0.40777655  0.75000000  0.80934611  1.0
  Pb  Pb30  1  0.09222345  0.25000000  0.30934611  1.0
  Pb  Pb31  1  0.59222345  0.25000000  0.19065389  1.0
  Pb  Pb32  1  0.43456031  0.75000000  0.57126433  1.0
  Pb  Pb33  1  0.93456031  0.75000000  0.92873567  1.0
  Pb  Pb34  1  0.56543969  0.25000000  0.42873567  1.0
  Pb  Pb35  1  0.06543969  0.25000000  0.07126433  1.0
