# generated using pymatgen
data_Ba2P2O7
_symmetry_space_group_name_H-M   'P 1'
_cell_length_a   9.41788810
_cell_length_b   5.68540621
_cell_length_c   14.02218730
_cell_angle_alpha   90.00000000
_cell_angle_beta   90.00000000
_cell_angle_gamma   90.00000000
_symmetry_Int_Tables_number   1
_chemical_formula_structural   Ba2P2O7
_chemical_formula_sum   'Ba8 P8 O28'
_cell_volume   750.81128190
_cell_formula_units_Z   4
loop_
 _symmetry_equiv_pos_site_id
 _symmetry_equiv_pos_as_xyz
  1  'x, y, z'
loop_
 _atom_site_type_symbol
 _atom_site_label
 _atom_site_symmetry_multiplicity
 _atom_site_fract_x
 _atom_site_fract_y
 _atom_site_fract_z
 _atom_site_occupancy
  Ba  Ba0  1  0.86129138  0.75000000  0.41711380  1.0
  Ba  Ba1  1  0.36129138  0.75000000  0.08288620  1.0
  Ba  Ba2  1  0.13870862  0.25000000  0.58288620  1.0
  Ba  Ba3  1  0.63870862  0.25000000  0.91711380  1.0
  Ba  Ba4  1  0.83938245  0.75000000  0.74402787  1.0
  Ba  Ba5  1  0.33938245  0.75000000  0.75597213  1.0
  Ba  Ba6  1  0.16061755  0.25000000  0.25597213  1.0
  Ba  Ba7  1  0.66061755  0.25000000  0.24402787  1.0
  P  P8  1  0.95427341  0.75000000  0.18506112  1.0
  P  P9  1  0.45427341  0.75000000  0.31493888  1.0
  P  P10  1  0.04572659  0.25000000  0.81493888  1.0
  P  P11  1  0.54572659  0.25000000  0.68506112  1.0
  P  P12  1  0.71952878  0.75000000  0.04227601  1.0
  P  P13  1  0.21952878  0.75000000  0.45772399  1.0
  P  P14  1  0.28047122  0.25000000  0.95772399  1.0
  P  P15  1  0.78047122  0.25000000  0.54227601  1.0
  O  O16  1  0.90570543  0.97440148  0.23785282  1.0
  O  O17  1  0.90570543  0.52559852  0.23785282  1.0
  O  O18  1  0.40570543  0.97440148  0.26214718  1.0
  O  O19  1  0.40570543  0.52559852  0.26214718  1.0
  O  O20  1  0.09429457  0.47440148  0.76214718  1.0
  O  O21  1  0.09429457  0.02559852  0.76214718  1.0
  O  O22  1  0.59429457  0.47440148  0.73785282  1.0
  O  O23  1  0.59429457  0.02559852  0.73785282  1.0
  O  O24  1  0.64475488  0.97368917  0.07986171  1.0
  O  O25  1  0.64475488  0.52631083  0.07986171  1.0
  O  O26  1  0.14475488  0.97368917  0.42013829  1.0
  O  O27  1  0.14475488  0.52631083  0.42013829  1.0
  O  O28  1  0.35524512  0.47368917  0.92013829  1.0
  O  O29  1  0.35524512  0.02631083  0.92013829  1.0
  O  O30  1  0.85524512  0.47368917  0.57986171  1.0
  O  O31  1  0.85524512  0.02631083  0.57986171  1.0
  O  O32  1  0.88382564  0.75000000  0.07819852  1.0
  O  O33  1  0.38382564  0.75000000  0.42180148  1.0
  O  O34  1  0.11617436  0.25000000  0.92180148  1.0
  O  O35  1  0.61617436  0.25000000  0.57819852  1.0
  O  O36  1  0.61485858  0.75000000  0.33231596  1.0
  O  O37  1  0.11485858  0.75000000  0.16768404  1.0
  O  O38  1  0.38514142  0.25000000  0.66768404  1.0
  O  O39  1  0.88514142  0.25000000  0.83231596  1.0
  O  O40  1  0.22820042  0.75000000  0.56745443  1.0
  O  O41  1  0.72820042  0.75000000  0.93254557  1.0
  O  O42  1  0.77179958  0.25000000  0.43254557  1.0
  O  O43  1  0.27179958  0.25000000  0.06745443  1.0
