# generated using pymatgen
data_VH2O3
_symmetry_space_group_name_H-M   'P 1'
_cell_length_a   5.72706113
_cell_length_b   5.72706113
_cell_length_c   6.06826813
_cell_angle_alpha   57.07623934
_cell_angle_beta   122.92376066
_cell_angle_gamma   139.94119895
_symmetry_Int_Tables_number   1
_chemical_formula_structural   VH2O3
_chemical_formula_sum   'V2 H4 O6'
_cell_volume   104.48231001
_cell_formula_units_Z   2
loop_
 _symmetry_equiv_pos_site_id
 _symmetry_equiv_pos_as_xyz
  1  'x, y, z'
loop_
 _atom_site_type_symbol
 _atom_site_label
 _atom_site_symmetry_multiplicity
 _atom_site_fract_x
 _atom_site_fract_y
 _atom_site_fract_z
 _atom_site_occupancy
  O  O0  1  0.64571459  -0.64926288  0.15039862  1.0
  O  O1  1  0.64926288  0.35428541  0.65039862  1.0
  O  O2  1  0.35428541  -0.35073712  0.84960138  1.0
  O  O3  1  1.35073712  -0.35428541  0.34960138  1.0
  O  O4  1  1.00071944  1.00071944  0.75000000  1.0
  O  O5  1  -0.00071944  -0.00071944  0.25000000  1.0
  H  H6  1  0.91217330  -0.53472242  0.21064663  1.0
  H  H7  1  0.53472242  0.08782670  0.71064663  1.0
  H  H8  1  1.08782670  0.53472242  0.78935337  1.0
  H  H9  1  1.46527758  -0.08782670  0.28935337  1.0
  V  V10  1  0.41521175  0.41521175  0.75000000  1.0
  V  V11  1  0.58478825  0.58478825  0.25000000  1.0
