# generated using pymatgen
data_Li2MnF6
_symmetry_space_group_name_H-M   'P 1'
_cell_length_a   8.64710033
_cell_length_b   8.64710033
_cell_length_c   4.47988081
_cell_angle_alpha   90.00000000
_cell_angle_beta   90.00000000
_cell_angle_gamma   120.00000000
_symmetry_Int_Tables_number   1
_chemical_formula_structural   Li2MnF6
_chemical_formula_sum   'Li6 Mn3 F18'
_cell_volume   290.09355916
_cell_formula_units_Z   3
loop_
 _symmetry_equiv_pos_site_id
 _symmetry_equiv_pos_as_xyz
  1  'x, y, z'
loop_
 _atom_site_type_symbol
 _atom_site_label
 _atom_site_symmetry_multiplicity
 _atom_site_fract_x
 _atom_site_fract_y
 _atom_site_fract_z
 _atom_site_occupancy
  Li  Li0  1  0.65677327  0.65677327  0.00000000  1.0
  Li  Li1  1  0.65677327  -0.00000000  -0.00000000  1.0
  Li  Li2  1  0.00000000  0.65677327  0.00000000  1.0
  Li  Li3  1  0.00000000  0.34322673  0.00000000  1.0
  Li  Li4  1  0.34322673  0.34322673  -0.00000000  1.0
  Li  Li5  1  0.34322673  0.00000000  -0.00000000  1.0
  Mn  Mn6  1  0.33333333  0.66666667  0.48656603  1.0
  Mn  Mn7  1  0.66666667  0.33333333  0.51343397  1.0
  Mn  Mn8  1  0.00000000  0.00000000  0.00000000  1.0
  F  F9  1  0.46658260  0.23329130  0.28056475  1.0
  F  F10  1  0.23329130  0.46658260  0.71943525  1.0
  F  F11  1  0.23329130  0.76670870  0.71943525  1.0
  F  F12  1  0.76670870  0.23329130  0.28056475  1.0
  F  F13  1  0.76670870  0.53341740  0.28056475  1.0
  F  F14  1  0.53341740  0.76670870  0.71943525  1.0
  F  F15  1  0.79144444  0.89572222  0.21337466  1.0
  F  F16  1  0.89572222  0.79144444  0.78662534  1.0
  F  F17  1  0.89572222  0.10427778  0.78662534  1.0
  F  F18  1  0.10427778  0.89572222  0.21337466  1.0
  F  F19  1  0.10427778  0.20855556  0.21337466  1.0
  F  F20  1  0.20855556  0.10427778  0.78662534  1.0
  F  F21  1  0.13134088  0.56567044  0.24720782  1.0
  F  F22  1  0.56567044  0.13134088  0.75279218  1.0
  F  F23  1  0.56567044  0.43432956  0.75279218  1.0
  F  F24  1  0.43432956  0.56567044  0.24720782  1.0
  F  F25  1  0.43432956  0.86865912  0.24720782  1.0
  F  F26  1  0.86865912  0.43432956  0.75279218  1.0
