# generated using pymatgen
data_Ge(BrF5)2
_symmetry_space_group_name_H-M   'P 1'
_cell_length_a   5.07366714
_cell_length_b   15.83364637
_cell_length_c   6.55094118
_cell_angle_alpha   90.00000000
_cell_angle_beta   114.50840473
_cell_angle_gamma   90.00000000
_symmetry_Int_Tables_number   1
_chemical_formula_structural   Ge(BrF5)2
_chemical_formula_sum   'Ge2 Br4 F20'
_cell_volume   478.85109316
_cell_formula_units_Z   2
loop_
 _symmetry_equiv_pos_site_id
 _symmetry_equiv_pos_as_xyz
  1  'x, y, z'
loop_
 _atom_site_type_symbol
 _atom_site_label
 _atom_site_symmetry_multiplicity
 _atom_site_fract_x
 _atom_site_fract_y
 _atom_site_fract_z
 _atom_site_occupancy
  Ge  Ge0  1  -0.00000000  0.50000000  0.50000000  1.0
  Ge  Ge1  1  0.00000000  0.00000000  0.00000000  1.0
  Br  Br2  1  0.66407597  0.12999089  0.30665565  1.0
  Br  Br3  1  0.66407597  0.37000911  0.80665565  1.0
  Br  Br4  1  0.33592403  0.62999089  0.19334435  1.0
  Br  Br5  1  0.33592403  0.87000911  0.69334435  1.0
  F  F6  1  1.00501675  0.33441601  0.01483817  1.0
  F  F7  1  1.00501675  0.16558399  0.51483817  1.0
  F  F8  1  -0.00501675  0.83441601  0.48516183  1.0
  F  F9  1  -0.00501675  0.66558399  0.98516183  1.0
  F  F10  1  0.91185371  0.02877018  0.24461207  1.0
  F  F11  1  0.91185371  0.47122982  0.74461207  1.0
  F  F12  1  0.08814629  0.52877018  0.25538793  1.0
  F  F13  1  0.08814629  0.97122982  0.75538793  1.0
  F  F14  1  0.70500671  0.44014745  0.31650432  1.0
  F  F15  1  0.70500671  0.05985255  0.81650432  1.0
  F  F16  1  0.29499329  0.94014745  0.18349568  1.0
  F  F17  1  0.29499329  0.55985255  0.68349568  1.0
  F  F18  1  0.76218414  0.90369485  0.94877874  1.0
  F  F19  1  0.76218414  0.59630515  0.44877874  1.0
  F  F20  1  0.23781586  0.40369485  0.55122126  1.0
  F  F21  1  0.23781586  0.09630515  0.05122126  1.0
  F  F22  1  0.47696573  0.21405733  0.37501063  1.0
  F  F23  1  0.47696573  0.28594267  0.87501063  1.0
  F  F24  1  0.52303427  0.71405733  0.12498937  1.0
  F  F25  1  0.52303427  0.78594267  0.62498937  1.0
