# generated using pymatgen
data_As2O5
_symmetry_space_group_name_H-M   'P 1'
_cell_length_a   4.73974169
_cell_length_b   8.81602025
_cell_length_c   8.84036058
_cell_angle_alpha   90.00000000
_cell_angle_beta   90.00000000
_cell_angle_gamma   90.00000000
_symmetry_Int_Tables_number   1
_chemical_formula_structural   As2O5
_chemical_formula_sum   'As8 O20'
_cell_volume   369.40028988
_cell_formula_units_Z   4
loop_
 _symmetry_equiv_pos_site_id
 _symmetry_equiv_pos_as_xyz
  1  'x, y, z'
loop_
 _atom_site_type_symbol
 _atom_site_label
 _atom_site_symmetry_multiplicity
 _atom_site_fract_x
 _atom_site_fract_y
 _atom_site_fract_z
 _atom_site_occupancy
  As  As0  1  0.37592861  0.96568223  0.71611092  1.0
  As  As1  1  0.87592861  0.53431777  0.28388908  1.0
  As  As2  1  0.62407139  0.46568223  0.78388908  1.0
  As  As3  1  0.12407139  0.03431777  0.21611092  1.0
  As  As4  1  0.12516264  0.65268776  0.59694035  1.0
  As  As5  1  0.62516264  0.84731224  0.40305965  1.0
  As  As6  1  0.87483736  0.15268776  0.90305965  1.0
  As  As7  1  0.37483736  0.34731224  0.09694035  1.0
  O  O8  1  0.44762787  0.99640346  0.52308943  1.0
  O  O9  1  0.94762787  0.50359654  0.47691057  1.0
  O  O10  1  0.55237213  0.49640346  0.97691057  1.0
  O  O11  1  0.05237213  0.00359654  0.02308943  1.0
  O  O12  1  0.39286494  0.90221534  0.23376492  1.0
  O  O13  1  0.89286494  0.59778466  0.76623508  1.0
  O  O14  1  0.60713506  0.40221534  0.26623508  1.0
  O  O15  1  0.10713506  0.09778466  0.73376492  1.0
  O  O16  1  0.35019122  0.48130442  0.65474428  1.0
  O  O17  1  0.85019122  0.01869558  0.34525572  1.0
  O  O18  1  0.64980878  0.98130442  0.84525572  1.0
  O  O19  1  0.14980878  0.51869558  0.15474428  1.0
  O  O20  1  0.30197066  0.77239989  0.74667624  1.0
  O  O21  1  0.80197066  0.72760011  0.25332376  1.0
  O  O22  1  0.69802934  0.27239989  0.75332376  1.0
  O  O23  1  0.19802934  0.22760011  0.24667624  1.0
  O  O24  1  0.87930563  0.81028753  0.55726512  1.0
  O  O25  1  0.37930563  0.68971247  0.44273488  1.0
  O  O26  1  0.12069437  0.31028753  0.94273488  1.0
  O  O27  1  0.62069437  0.18971247  0.05726512  1.0
