# generated using pymatgen
data_LuSF
_symmetry_space_group_name_H-M   'P 1'
_cell_length_a   4.00228294
_cell_length_b   4.00228294
_cell_length_c   16.47443938
_cell_angle_alpha   90.00000000
_cell_angle_beta   90.00000000
_cell_angle_gamma   120.00000000
_symmetry_Int_Tables_number   1
_chemical_formula_structural   LuSF
_chemical_formula_sum   'Lu4 S4 F4'
_cell_volume   228.53717289
_cell_formula_units_Z   4
loop_
 _symmetry_equiv_pos_site_id
 _symmetry_equiv_pos_as_xyz
  1  'x, y, z'
loop_
 _atom_site_type_symbol
 _atom_site_label
 _atom_site_symmetry_multiplicity
 _atom_site_fract_x
 _atom_site_fract_y
 _atom_site_fract_z
 _atom_site_occupancy
  Lu  Lu0  1  0.33333333  0.66666667  0.25000000  1.0
  Lu  Lu1  1  0.66666667  0.33333333  0.75000000  1.0
  Lu  Lu2  1  0.00000000  0.00000000  0.50000000  1.0
  Lu  Lu3  1  0.00000000  0.00000000  0.00000000  1.0
  S  S4  1  0.33333333  0.66666667  0.41436316  1.0
  S  S5  1  0.33333333  0.66666667  0.08563684  1.0
  S  S6  1  0.66666667  0.33333333  0.91436316  1.0
  S  S7  1  0.66666667  0.33333333  0.58563684  1.0
  F  F8  1  0.33333333  0.66666667  0.75000000  1.0
  F  F9  1  0.66666667  0.33333333  0.25000000  1.0
  F  F10  1  0.00000000  0.00000000  0.25000000  1.0
  F  F11  1  0.00000000  0.00000000  0.75000000  1.0
