# generated using pymatgen
data_LiGaSiO4
_symmetry_space_group_name_H-M   'P 1'
_cell_length_a   10.23188726
_cell_length_b   6.71004088
_cell_length_c   5.03147070
_cell_angle_alpha   90.00000000
_cell_angle_beta   90.00000000
_cell_angle_gamma   90.00000000
_symmetry_Int_Tables_number   1
_chemical_formula_structural   LiGaSiO4
_chemical_formula_sum   'Li4 Ga4 Si4 O16'
_cell_volume   345.44257317
_cell_formula_units_Z   4
loop_
 _symmetry_equiv_pos_site_id
 _symmetry_equiv_pos_as_xyz
  1  'x, y, z'
loop_
 _atom_site_type_symbol
 _atom_site_label
 _atom_site_symmetry_multiplicity
 _atom_site_fract_x
 _atom_site_fract_y
 _atom_site_fract_z
 _atom_site_occupancy
  Li  Li0  1  0.14948271  0.98933500  0.35717033  1.0
  Li  Li1  1  0.64948271  0.51066500  0.35717033  1.0
  Li  Li2  1  0.85051729  0.01066500  0.85717033  1.0
  Li  Li3  1  0.35051729  0.48933500  0.85717033  1.0
  Ga  Ga4  1  0.16922716  0.48844939  0.35460205  1.0
  Ga  Ga5  1  0.66922716  0.01155061  0.35460205  1.0
  Ga  Ga6  1  0.83077284  0.51155061  0.85460205  1.0
  Ga  Ga7  1  0.33077284  0.98844939  0.85460205  1.0
  Si  Si8  1  0.40648624  0.22910976  0.35372460  1.0
  Si  Si9  1  0.90648624  0.27089024  0.35372460  1.0
  Si  Si10  1  0.59351376  0.77089024  0.85372460  1.0
  Si  Si11  1  0.09351376  0.72910976  0.85372460  1.0
  O  O12  1  0.37937148  0.21999929  0.03094981  1.0
  O  O13  1  0.87937148  0.28000071  0.03094981  1.0
  O  O14  1  0.62062852  0.78000071  0.53094981  1.0
  O  O15  1  0.12062852  0.71999929  0.53094981  1.0
  O  O16  1  0.33992623  0.43601522  0.46733119  1.0
  O  O17  1  0.83992623  0.06398478  0.46733119  1.0
  O  O18  1  0.66007377  0.56398478  0.96733119  1.0
  O  O19  1  0.16007377  0.93601522  0.96733119  1.0
  O  O20  1  0.33149850  0.03790690  0.49068215  1.0
  O  O21  1  0.83149850  0.46209310  0.49068215  1.0
  O  O22  1  0.66850150  0.96209310  -0.00931785  1.0
  O  O23  1  0.16850150  0.53790690  -0.00931785  1.0
  O  O24  1  0.06387915  0.26508514  0.41813987  1.0
  O  O25  1  0.56387915  0.23491486  0.41813987  1.0
  O  O26  1  0.93612085  0.73491486  0.91813987  1.0
  O  O27  1  0.43612085  0.76508514  0.91813987  1.0
