# generated using pymatgen
data_Zr4Pd2O
_symmetry_space_group_name_H-M   'P 1'
_cell_length_a   8.86504770
_cell_length_b   8.86504770
_cell_length_c   8.86504770
_cell_angle_alpha   60.00000000
_cell_angle_beta   60.00000000
_cell_angle_gamma   60.00000000
_symmetry_Int_Tables_number   1
_chemical_formula_structural   Zr4Pd2O
_chemical_formula_sum   'Zr16 Pd8 O4'
_cell_volume   492.63836832
_cell_formula_units_Z   4
loop_
 _symmetry_equiv_pos_site_id
 _symmetry_equiv_pos_as_xyz
  1  'x, y, z'
loop_
 _atom_site_type_symbol
 _atom_site_label
 _atom_site_symmetry_multiplicity
 _atom_site_fract_x
 _atom_site_fract_y
 _atom_site_fract_z
 _atom_site_occupancy
  Zr  Zr0  1  0.31893530  1.31893530  -0.31893530  1.0
  Zr  Zr1  1  0.68106470  0.68106470  -0.68106470  1.0
  Zr  Zr2  1  0.31893530  -0.31893530  0.31893530  1.0
  Zr  Zr3  1  0.68106470  -0.68106470  0.68106470  1.0
  Zr  Zr4  1  -0.31893530  0.31893530  0.31893530  1.0
  Zr  Zr5  1  -0.68106470  0.68106470  0.68106470  1.0
  Zr  Zr6  1  0.93106470  0.93106470  -0.43106470  1.0
  Zr  Zr7  1  -0.43106470  0.56893530  0.93106470  1.0
  Zr  Zr8  1  0.93106470  0.56893530  0.93106470  1.0
  Zr  Zr9  1  0.56893530  0.93106470  0.56893530  1.0
  Zr  Zr10  1  0.56893530  0.93106470  -0.06893530  1.0
  Zr  Zr11  1  0.93106470  0.56893530  -0.43106470  1.0
  Zr  Zr12  1  0.62500000  1.12500000  0.12500000  1.0
  Zr  Zr13  1  0.12500000  1.62500000  0.12500000  1.0
  Zr  Zr14  1  0.12500000  0.12500000  1.62500000  1.0
  Zr  Zr15  1  0.12500000  0.12500000  0.12500000  1.0
  Pd  Pd16  1  -0.72986366  0.90995455  0.90995455  1.0
  Pd  Pd17  1  0.90995455  -0.72986366  0.90995455  1.0
  Pd  Pd18  1  0.90995455  0.90995455  -0.72986366  1.0
  Pd  Pd19  1  0.90995455  0.90995455  0.90995455  1.0
  Pd  Pd20  1  -0.02013634  1.34004545  0.34004545  1.0
  Pd  Pd21  1  0.34004545  0.97986366  0.34004545  1.0
  Pd  Pd22  1  0.34004545  1.34004545  -0.02013634  1.0
  Pd  Pd23  1  0.34004545  1.34004545  0.34004545  1.0
  O  O24  1  1.12500000  0.62500000  0.62500000  1.0
  O  O25  1  0.62500000  1.12500000  -0.37500000  1.0
  O  O26  1  -0.37500000  0.62500000  1.12500000  1.0
  O  O27  1  -0.37500000  0.62500000  0.62500000  1.0
