# generated using pymatgen
data_Hg2P3Br
_symmetry_space_group_name_H-M   'P 1'
_cell_length_a   8.13586968
_cell_length_b   9.11822931
_cell_length_c   7.94331888
_cell_angle_alpha   90.00000000
_cell_angle_beta   90.00000000
_cell_angle_gamma   90.00000000
_symmetry_Int_Tables_number   1
_chemical_formula_structural   Hg2P3Br
_chemical_formula_sum   'Hg8 P12 Br4'
_cell_volume   589.27292944
_cell_formula_units_Z   4
loop_
 _symmetry_equiv_pos_site_id
 _symmetry_equiv_pos_as_xyz
  1  'x, y, z'
loop_
 _atom_site_type_symbol
 _atom_site_label
 _atom_site_symmetry_multiplicity
 _atom_site_fract_x
 _atom_site_fract_y
 _atom_site_fract_z
 _atom_site_occupancy
  Hg  Hg0  1  0.28322209  0.17324535  0.89389810  1.0
  Hg  Hg1  1  0.28322209  0.82675465  0.39389810  1.0
  Hg  Hg2  1  0.78322209  0.67324535  0.60610190  1.0
  Hg  Hg3  1  0.78322209  0.32675465  0.10610190  1.0
  Hg  Hg4  1  0.71677791  0.17324535  0.60610190  1.0
  Hg  Hg5  1  0.71677791  0.82675465  0.10610190  1.0
  Hg  Hg6  1  0.21677791  0.67324535  0.89389810  1.0
  Hg  Hg7  1  0.21677791  0.32675465  0.39389810  1.0
  P  P8  1  0.38705906  0.48408274  0.57719931  1.0
  P  P9  1  0.38705906  0.51591726  0.07719931  1.0
  P  P10  1  0.88705906  0.98408274  0.92280069  1.0
  P  P11  1  0.88705906  0.01591726  0.42280069  1.0
  P  P12  1  0.61294094  0.48408274  0.92280069  1.0
  P  P13  1  0.61294094  0.51591726  0.42280069  1.0
  P  P14  1  0.11294094  0.98408274  0.57719931  1.0
  P  P15  1  0.11294094  0.01591726  0.07719931  1.0
  P  P16  1  0.50000000  0.32109979  0.75000000  1.0
  P  P17  1  0.50000000  0.67890021  0.25000000  1.0
  P  P18  1  0.00000000  0.82109979  0.75000000  1.0
  P  P19  1  0.00000000  0.17890021  0.25000000  1.0
  Br  Br20  1  0.50000000  0.88680672  0.75000000  1.0
  Br  Br21  1  0.50000000  0.11319328  0.25000000  1.0
  Br  Br22  1  0.00000000  0.38680672  0.75000000  1.0
  Br  Br23  1  0.00000000  0.61319328  0.25000000  1.0
