# generated using pymatgen
data_MnSeO4
_symmetry_space_group_name_H-M   'P 1'
_cell_length_a   5.08406769
_cell_length_b   5.08406769
_cell_length_c   6.89349855
_cell_angle_alpha   90.00000000
_cell_angle_beta   90.00000000
_cell_angle_gamma   112.88866465
_symmetry_Int_Tables_number   1
_chemical_formula_structural   MnSeO4
_chemical_formula_sum   'Mn2 Se2 O8'
_cell_volume   164.15180801
_cell_formula_units_Z   2
loop_
 _symmetry_equiv_pos_site_id
 _symmetry_equiv_pos_as_xyz
  1  'x, y, z'
loop_
 _atom_site_type_symbol
 _atom_site_label
 _atom_site_symmetry_multiplicity
 _atom_site_fract_x
 _atom_site_fract_y
 _atom_site_fract_z
 _atom_site_occupancy
  Mn  Mn0  1  -0.00000000  -0.00000000  0.50000000  1.0
  Mn  Mn1  1  0.00000000  0.00000000  -0.00000000  1.0
  Se  Se2  1  0.34902723  0.65097277  0.25000000  1.0
  Se  Se3  1  -0.34902723  1.34902723  0.75000000  1.0
  O  O4  1  0.22036309  0.28792204  0.25000000  1.0
  O  O5  1  -0.71207796  1.22036309  0.75000000  1.0
  O  O6  1  0.71207796  0.77963691  0.25000000  1.0
  O  O7  1  -0.22036309  1.71207796  0.75000000  1.0
  O  O8  1  0.24160337  0.75839663  0.45094273  1.0
  O  O9  1  0.24160337  0.75839663  0.04905727  1.0
  O  O10  1  -0.24160337  1.24160337  0.95094273  1.0
  O  O11  1  -0.24160337  1.24160337  0.54905727  1.0
