# generated using pymatgen
data_NbNiP
_symmetry_space_group_name_H-M   'P 1'
_cell_length_a   6.13039903
_cell_length_b   3.59449229
_cell_length_c   7.11803012
_cell_angle_alpha   90.00000000
_cell_angle_beta   90.00000000
_cell_angle_gamma   90.00000000
_symmetry_Int_Tables_number   1
_chemical_formula_structural   NbNiP
_chemical_formula_sum   'Nb4 Ni4 P4'
_cell_volume   156.85057715
_cell_formula_units_Z   4
loop_
 _symmetry_equiv_pos_site_id
 _symmetry_equiv_pos_as_xyz
  1  'x, y, z'
loop_
 _atom_site_type_symbol
 _atom_site_label
 _atom_site_symmetry_multiplicity
 _atom_site_fract_x
 _atom_site_fract_y
 _atom_site_fract_z
 _atom_site_occupancy
  Nb  Nb0  1  0.97767073  0.75000000  0.66685836  1.0
  Nb  Nb1  1  0.47767073  0.75000000  0.83314164  1.0
  Nb  Nb2  1  0.02232927  0.25000000  0.33314164  1.0
  Nb  Nb3  1  0.52232927  0.25000000  0.16685836  1.0
  Ni  Ni4  1  0.85074773  0.75000000  0.06711142  1.0
  Ni  Ni5  1  0.35074773  0.75000000  0.43288858  1.0
  Ni  Ni6  1  0.14925227  0.25000000  0.93288858  1.0
  Ni  Ni7  1  0.64925227  0.25000000  0.56711142  1.0
  P  P8  1  0.71881366  0.75000000  0.37747889  1.0
  P  P9  1  0.21881366  0.75000000  0.12252111  1.0
  P  P10  1  0.28118634  0.25000000  0.62252111  1.0
  P  P11  1  0.78118634  0.25000000  0.87747889  1.0
