# generated using pymatgen
data_SrGe2(BO4)2
_symmetry_space_group_name_H-M   'P 1'
_cell_length_a   8.39159217
_cell_length_b   8.18223714
_cell_length_c   9.27111877
_cell_angle_alpha   90.00000000
_cell_angle_beta   90.00000000
_cell_angle_gamma   90.00000000
_symmetry_Int_Tables_number   1
_chemical_formula_structural   SrGe2(BO4)2
_chemical_formula_sum   'Sr4 Ge8 B8 O32'
_cell_volume   636.57353001
_cell_formula_units_Z   4
loop_
 _symmetry_equiv_pos_site_id
 _symmetry_equiv_pos_as_xyz
  1  'x, y, z'
loop_
 _atom_site_type_symbol
 _atom_site_label
 _atom_site_symmetry_multiplicity
 _atom_site_fract_x
 _atom_site_fract_y
 _atom_site_fract_z
 _atom_site_occupancy
  Sr  Sr0  1  0.60813994  0.75000000  0.43078759  1.0
  Sr  Sr1  1  0.10813994  0.75000000  0.06921241  1.0
  Sr  Sr2  1  0.39186006  0.25000000  0.56921241  1.0
  Sr  Sr3  1  0.89186006  0.25000000  0.93078759  1.0
  Ge  Ge4  1  0.94604470  0.44765227  0.31107656  1.0
  Ge  Ge5  1  0.94604470  0.05234773  0.31107656  1.0
  Ge  Ge6  1  0.44604470  0.44765227  0.18892344  1.0
  Ge  Ge7  1  0.44604470  0.05234773  0.18892344  1.0
  Ge  Ge8  1  0.05395530  0.94765227  0.68892344  1.0
  Ge  Ge9  1  0.05395530  0.55234773  0.68892344  1.0
  Ge  Ge10  1  0.55395530  0.94765227  0.81107656  1.0
  Ge  Ge11  1  0.55395530  0.55234773  0.81107656  1.0
  B  B12  1  0.73893395  0.91402012  0.08320295  1.0
  B  B13  1  0.73893395  0.58597988  0.08320295  1.0
  B  B14  1  0.23893395  0.91402012  0.41679705  1.0
  B  B15  1  0.23893395  0.58597988  0.41679705  1.0
  B  B16  1  0.26106605  0.41402012  0.91679705  1.0
  B  B17  1  0.26106605  0.08597988  0.91679705  1.0
  B  B18  1  0.76106605  0.41402012  0.58320295  1.0
  B  B19  1  0.76106605  0.08597988  0.58320295  1.0
  O  O20  1  0.87355184  0.47419786  0.13304980  1.0
  O  O21  1  0.87355184  0.02580214  0.13304980  1.0
  O  O22  1  0.37355184  0.47419786  0.36695020  1.0
  O  O23  1  0.37355184  0.02580214  0.36695020  1.0
  O  O24  1  0.12644816  0.97419786  0.86695020  1.0
  O  O25  1  0.12644816  0.52580214  0.86695020  1.0
  O  O26  1  0.62644816  0.97419786  0.63304980  1.0
  O  O27  1  0.62644816  0.52580214  0.63304980  1.0
  O  O28  1  0.80464297  0.49787696  0.44417001  1.0
  O  O29  1  0.80464297  0.00212304  0.44417001  1.0
  O  O30  1  0.30464297  0.49787696  0.05582999  1.0
  O  O31  1  0.30464297  0.00212304  0.05582999  1.0
  O  O32  1  0.19535703  0.99787696  0.55582999  1.0
  O  O33  1  0.19535703  0.50212304  0.55582999  1.0
  O  O34  1  0.69535703  0.99787696  0.94417001  1.0
  O  O35  1  0.69535703  0.50212304  0.94417001  1.0
  O  O36  1  0.60704552  0.91398092  0.18661257  1.0
  O  O37  1  0.60704552  0.58601908  0.18661257  1.0
  O  O38  1  0.10704552  0.91398092  0.31338743  1.0
  O  O39  1  0.10704552  0.58601908  0.31338743  1.0
  O  O40  1  0.39295448  0.41398092  0.81338743  1.0
  O  O41  1  0.39295448  0.08601908  0.81338743  1.0
  O  O42  1  0.89295448  0.41398092  0.68661257  1.0
  O  O43  1  0.89295448  0.08601908  0.68661257  1.0
  O  O44  1  0.97090467  0.75000000  0.67253364  1.0
  O  O45  1  0.47090467  0.75000000  0.82746636  1.0
  O  O46  1  0.02909533  0.25000000  0.32746636  1.0
  O  O47  1  0.52909533  0.25000000  0.17253364  1.0
  O  O48  1  0.80473866  0.75000000  0.06578436  1.0
  O  O49  1  0.30473866  0.75000000  0.43421564  1.0
  O  O50  1  0.19526134  0.25000000  0.93421564  1.0
  O  O51  1  0.69526134  0.25000000  0.56578436  1.0
