# generated using pymatgen
data_NaAlF4
_symmetry_space_group_name_H-M   'P 1'
_cell_length_a   7.84894151
_cell_length_b   7.84894151
_cell_length_c   5.35352562
_cell_angle_alpha   90.00000000
_cell_angle_beta   90.00000000
_cell_angle_gamma   152.90703291
_symmetry_Int_Tables_number   1
_chemical_formula_structural   NaAlF4
_chemical_formula_sum   'Na2 Al2 F8'
_cell_volume   150.20662105
_cell_formula_units_Z   2
loop_
 _symmetry_equiv_pos_site_id
 _symmetry_equiv_pos_as_xyz
  1  'x, y, z'
loop_
 _atom_site_type_symbol
 _atom_site_label
 _atom_site_symmetry_multiplicity
 _atom_site_fract_x
 _atom_site_fract_y
 _atom_site_fract_z
 _atom_site_occupancy
  Na  Na0  1  -0.69537690  0.69537690  0.25000000  1.0
  Na  Na1  1  -0.30462310  1.30462310  0.75000000  1.0
  Al  Al2  1  -0.91590059  0.91590059  0.25000000  1.0
  Al  Al3  1  -0.08409941  1.08409941  0.75000000  1.0
  F  F4  1  -0.83147074  0.83147074  0.48519652  1.0
  F  F5  1  -0.83147074  0.83147074  1.01480348  1.0
  F  F6  1  -0.16852926  1.16852926  -0.01480348  1.0
  F  F7  1  -0.16852926  1.16852926  0.51480348  1.0
  F  F8  1  -0.42009234  1.42009234  0.25000000  1.0
  F  F9  1  -0.57990766  0.57990766  0.75000000  1.0
  F  F10  1  0.00000000  0.00000000  0.50000000  1.0
  F  F11  1  0.00000000  0.00000000  0.00000000  1.0
