# generated using pymatgen
data_CaFe2Cu3(SbO6)2
_symmetry_space_group_name_H-M   'P 1'
_cell_length_a   7.51763363
_cell_length_b   7.51763363
_cell_length_c   7.51763363
_cell_angle_alpha   90.00000000
_cell_angle_beta   90.00000000
_cell_angle_gamma   90.00000000
_symmetry_Int_Tables_number   1
_chemical_formula_structural   CaFe2Cu3(SbO6)2
_chemical_formula_sum   'Ca2 Fe4 Cu6 Sb4 O24'
_cell_volume   424.85767750
_cell_formula_units_Z   2
loop_
 _symmetry_equiv_pos_site_id
 _symmetry_equiv_pos_as_xyz
  1  'x, y, z'
loop_
 _atom_site_type_symbol
 _atom_site_label
 _atom_site_symmetry_multiplicity
 _atom_site_fract_x
 _atom_site_fract_y
 _atom_site_fract_z
 _atom_site_occupancy
  Ca  Ca0  1  0.50000000  0.50000000  0.50000000  1.0
  Ca  Ca1  1  0.00000000  0.00000000  0.00000000  1.0
  Fe  Fe2  1  0.75000000  0.25000000  0.25000000  1.0
  Fe  Fe3  1  0.25000000  0.25000000  0.75000000  1.0
  Fe  Fe4  1  0.25000000  0.75000000  0.25000000  1.0
  Fe  Fe5  1  0.75000000  0.75000000  0.75000000  1.0
  Cu  Cu6  1  0.00000000  0.50000000  0.00000000  1.0
  Cu  Cu7  1  0.00000000  0.00000000  0.50000000  1.0
  Cu  Cu8  1  0.50000000  0.00000000  0.00000000  1.0
  Cu  Cu9  1  0.50000000  0.00000000  0.50000000  1.0
  Cu  Cu10  1  0.50000000  0.50000000  0.00000000  1.0
  Cu  Cu11  1  0.00000000  0.50000000  0.50000000  1.0
  Sb  Sb12  1  0.25000000  0.75000000  0.75000000  1.0
  Sb  Sb13  1  0.75000000  0.75000000  0.25000000  1.0
  Sb  Sb14  1  0.75000000  0.25000000  0.75000000  1.0
  Sb  Sb15  1  0.25000000  0.25000000  0.25000000  1.0
  O  O16  1  0.69624374  0.00822477  0.17569943  1.0
  O  O17  1  0.30375626  0.00822477  0.82430057  1.0
  O  O18  1  0.30375626  0.99177523  0.17569943  1.0
  O  O19  1  0.69624374  0.99177523  0.82430057  1.0
  O  O20  1  0.17569943  0.69624374  0.00822477  1.0
  O  O21  1  0.82430057  0.30375626  0.00822477  1.0
  O  O22  1  0.17569943  0.30375626  0.99177523  1.0
  O  O23  1  0.82430057  0.69624374  0.99177523  1.0
  O  O24  1  0.00822477  0.17569943  0.69624374  1.0
  O  O25  1  0.00822477  0.82430057  0.30375626  1.0
  O  O26  1  0.99177523  0.17569943  0.30375626  1.0
  O  O27  1  0.99177523  0.82430057  0.69624374  1.0
  O  O28  1  0.80375626  0.49177523  0.32430057  1.0
  O  O29  1  0.19624374  0.49177523  0.67569943  1.0
  O  O30  1  0.19624374  0.50822477  0.32430057  1.0
  O  O31  1  0.80375626  0.50822477  0.67569943  1.0
  O  O32  1  0.32430057  0.80375626  0.49177523  1.0
  O  O33  1  0.67569943  0.19624374  0.49177523  1.0
  O  O34  1  0.32430057  0.19624374  0.50822477  1.0
  O  O35  1  0.67569943  0.80375626  0.50822477  1.0
  O  O36  1  0.49177523  0.32430057  0.80375626  1.0
  O  O37  1  0.49177523  0.67569943  0.19624374  1.0
  O  O38  1  0.50822477  0.32430057  0.19624374  1.0
  O  O39  1  0.50822477  0.67569943  0.80375626  1.0
