# generated using pymatgen
data_Li2ZrF6
_symmetry_space_group_name_H-M   'P 1'
_cell_length_a   6.89547296
_cell_length_b   6.89547296
_cell_length_c   5.05433261
_cell_angle_alpha   68.51106079
_cell_angle_beta   111.48893921
_cell_angle_gamma   101.19584730
_symmetry_Int_Tables_number   1
_chemical_formula_structural   Li2ZrF6
_chemical_formula_sum   'Li4 Zr2 F12'
_cell_volume   207.57231032
_cell_formula_units_Z   2
loop_
 _symmetry_equiv_pos_site_id
 _symmetry_equiv_pos_as_xyz
  1  'x, y, z'
loop_
 _atom_site_type_symbol
 _atom_site_label
 _atom_site_symmetry_multiplicity
 _atom_site_fract_x
 _atom_site_fract_y
 _atom_site_fract_z
 _atom_site_occupancy
  Li  Li0  1  0.66662049  0.16667737  0.49993559  1.0
  Li  Li1  1  0.83332263  0.33337951  0.99993559  1.0
  Li  Li2  1  1.16667737  -0.33337951  0.00006441  1.0
  Li  Li3  1  1.33337951  -0.16667737  0.50006441  1.0
  Zr  Zr4  1  0.75002473  0.75002473  0.25000000  1.0
  Zr  Zr5  1  0.24997527  0.24997527  0.75000000  1.0
  F  F6  1  0.78533958  0.04054244  0.95950111  1.0
  F  F7  1  0.95945756  0.21466042  0.45950111  1.0
  F  F8  1  1.04054244  -0.21466042  0.54049889  1.0
  F  F9  1  1.21466042  -0.04054244  0.04049889  1.0
  F  F10  1  1.62237374  -0.12233587  0.44821388  1.0
  F  F11  1  1.12233587  -0.62237374  0.94821388  1.0
  F  F12  1  0.87766413  0.62237374  0.05178612  1.0
  F  F13  1  0.37762626  0.12233587  0.55178612  1.0
  F  F14  1  0.54049559  0.28535051  1.04041546  1.0
  F  F15  1  0.71464949  0.45950441  0.54041546  1.0
  F  F16  1  1.28535051  -0.45950441  0.45958454  1.0
  F  F17  1  1.45950441  -0.28535051  -0.04041546  1.0
