# generated using pymatgen
data_Ca6Ag16N
_symmetry_space_group_name_H-M   'P 1'
_cell_length_a   8.55502658
_cell_length_b   8.55502658
_cell_length_c   8.55502658
_cell_angle_alpha   109.47122063
_cell_angle_beta   109.47122063
_cell_angle_gamma   109.47122063
_symmetry_Int_Tables_number   1
_chemical_formula_structural   Ca6Ag16N
_chemical_formula_sum   'Ca6 Ag16 N1'
_cell_volume   481.99462979
_cell_formula_units_Z   1
loop_
 _symmetry_equiv_pos_site_id
 _symmetry_equiv_pos_as_xyz
  1  'x, y, z'
loop_
 _atom_site_type_symbol
 _atom_site_label
 _atom_site_symmetry_multiplicity
 _atom_site_fract_x
 _atom_site_fract_y
 _atom_site_fract_z
 _atom_site_occupancy
  Ca  Ca0  1  0.00000000  0.74484075  0.74484075  1.0
  Ca  Ca1  1  0.74484075  0.00000000  0.74484075  1.0
  Ca  Ca2  1  0.74484075  0.74484075  -0.00000000  1.0
  Ca  Ca3  1  0.25515925  0.25515925  -0.00000000  1.0
  Ca  Ca4  1  0.25515925  -0.00000000  0.25515925  1.0
  Ca  Ca5  1  0.00000000  0.25515925  0.25515925  1.0
  Ag  Ag6  1  0.30660650  0.65330325  0.65330325  1.0
  Ag  Ag7  1  1.00000000  1.34669675  0.65330325  1.0
  Ag  Ag8  1  1.00000000  0.65330325  0.34669675  1.0
  Ag  Ag9  1  1.69339350  1.34669675  1.34669675  1.0
  Ag  Ag10  1  0.65330325  0.30660650  0.65330325  1.0
  Ag  Ag11  1  1.34669675  1.00000000  0.65330325  1.0
  Ag  Ag12  1  0.65330325  0.65330325  0.30660650  1.0
  Ag  Ag13  1  1.34669675  0.65330325  1.00000000  1.0
  Ag  Ag14  1  0.65330325  1.00000000  0.34669675  1.0
  Ag  Ag15  1  1.34669675  1.69339350  1.34669675  1.0
  Ag  Ag16  1  0.65330325  1.34669675  1.00000000  1.0
  Ag  Ag17  1  0.34669675  0.34669675  0.69339350  1.0
  Ag  Ag18  1  0.50000000  0.50000000  0.50000000  1.0
  Ag  Ag19  1  1.00000000  1.00000000  0.50000000  1.0
  Ag  Ag20  1  1.00000000  1.50000000  1.00000000  1.0
  Ag  Ag21  1  1.50000000  1.00000000  1.00000000  1.0
  N  N22  1  -0.00000000  -0.00000000  -0.00000000  1.0
