# generated using pymatgen
data_Ba2CaCu(HgO3)2
_symmetry_space_group_name_H-M   'P 1'
_cell_length_a   4.24284853
_cell_length_b   4.24284853
_cell_length_c   12.00634754
_cell_angle_alpha   90.00000000
_cell_angle_beta   90.00000000
_cell_angle_gamma   90.00000000
_symmetry_Int_Tables_number   1
_chemical_formula_structural   Ba2CaCu(HgO3)2
_chemical_formula_sum   'Ba2 Ca1 Cu1 Hg2 O6'
_cell_volume   216.13543074
_cell_formula_units_Z   1
loop_
 _symmetry_equiv_pos_site_id
 _symmetry_equiv_pos_as_xyz
  1  'x, y, z'
loop_
 _atom_site_type_symbol
 _atom_site_label
 _atom_site_symmetry_multiplicity
 _atom_site_fract_x
 _atom_site_fract_y
 _atom_site_fract_z
 _atom_site_occupancy
  Ba  Ba0  1  0.50000000  0.50000000  0.80470442  1.0
  Ba  Ba1  1  0.50000000  0.50000000  0.19529558  1.0
  Ca  Ca2  1  0.50000000  0.50000000  0.50000000  1.0
  Cu  Cu3  1  0.00000000  0.00000000  0.00000000  1.0
  Hg  Hg4  1  0.00000000  0.00000000  0.63837722  1.0
  Hg  Hg5  1  0.00000000  0.00000000  0.36162278  1.0
  O  O6  1  0.00000000  0.50000000  0.62919894  1.0
  O  O7  1  0.00000000  0.50000000  0.37080106  1.0
  O  O8  1  0.50000000  0.00000000  0.62919894  1.0
  O  O9  1  0.50000000  0.00000000  0.37080106  1.0
  O  O10  1  0.00000000  0.00000000  0.84999975  1.0
  O  O11  1  0.00000000  0.00000000  0.15000025  1.0
