# generated using pymatgen
data_Ba2GeS4
_symmetry_space_group_name_H-M   'P 1'
_cell_length_a   9.01232476
_cell_length_b   6.90132873
_cell_length_c   12.70868575
_cell_angle_alpha   90.00000000
_cell_angle_beta   90.00000000
_cell_angle_gamma   90.00000000
_symmetry_Int_Tables_number   1
_chemical_formula_structural   Ba2GeS4
_chemical_formula_sum   'Ba8 Ge4 S16'
_cell_volume   790.44232811
_cell_formula_units_Z   4
loop_
 _symmetry_equiv_pos_site_id
 _symmetry_equiv_pos_as_xyz
  1  'x, y, z'
loop_
 _atom_site_type_symbol
 _atom_site_label
 _atom_site_symmetry_multiplicity
 _atom_site_fract_x
 _atom_site_fract_y
 _atom_site_fract_z
 _atom_site_occupancy
  Ba  Ba0  1  0.87632885  0.75000000  0.42871787  1.0
  Ba  Ba1  1  0.37632885  0.75000000  0.07128213  1.0
  Ba  Ba2  1  0.12367115  0.25000000  0.57128213  1.0
  Ba  Ba3  1  0.62367115  0.25000000  0.92871787  1.0
  Ba  Ba4  1  0.51593279  0.75000000  0.66955203  1.0
  Ba  Ba5  1  0.01593279  0.75000000  0.83044797  1.0
  Ba  Ba6  1  0.48406721  0.25000000  0.33044797  1.0
  Ba  Ba7  1  0.98406721  0.25000000  0.16955203  1.0
  Ge  Ge8  1  0.77496039  0.75000000  0.07531240  1.0
  Ge  Ge9  1  0.27496039  0.75000000  0.42468760  1.0
  Ge  Ge10  1  0.22503961  0.25000000  0.92468760  1.0
  Ge  Ge11  1  0.72503961  0.25000000  0.57531240  1.0
  S  S12  1  0.67573284  0.01329361  0.14606622  1.0
  S  S13  1  0.67573284  0.48670639  0.14606622  1.0
  S  S14  1  0.17573284  0.01329361  0.35393378  1.0
  S  S15  1  0.17573284  0.48670639  0.35393378  1.0
  S  S16  1  0.32426716  0.51329361  0.85393378  1.0
  S  S17  1  0.32426716  0.98670639  0.85393378  1.0
  S  S18  1  0.82426716  0.51329361  0.64606622  1.0
  S  S19  1  0.82426716  0.98670639  0.64606622  1.0
  S  S20  1  0.01987558  0.75000000  0.08919198  1.0
  S  S21  1  0.51987558  0.75000000  0.41080802  1.0
  S  S22  1  0.98012442  0.25000000  0.91080802  1.0
  S  S23  1  0.48012442  0.25000000  0.58919198  1.0
  S  S24  1  0.18627630  0.75000000  0.58982831  1.0
  S  S25  1  0.68627630  0.75000000  0.91017169  1.0
  S  S26  1  0.81372370  0.25000000  0.41017169  1.0
  S  S27  1  0.31372370  0.25000000  0.08982831  1.0
