# generated using pymatgen
data_Co5B16
_symmetry_space_group_name_H-M   'P 1'
_cell_length_a   19.02936814
_cell_length_b   2.92579784
_cell_length_c   5.44784504
_cell_angle_alpha   90.00000000
_cell_angle_beta   90.00000000
_cell_angle_gamma   90.00000000
_symmetry_Int_Tables_number   1
_chemical_formula_structural   Co5B16
_chemical_formula_sum   'Co10 B32'
_cell_volume   303.31467959
_cell_formula_units_Z   2
loop_
 _symmetry_equiv_pos_site_id
 _symmetry_equiv_pos_as_xyz
  1  'x, y, z'
loop_
 _atom_site_type_symbol
 _atom_site_label
 _atom_site_symmetry_multiplicity
 _atom_site_fract_x
 _atom_site_fract_y
 _atom_site_fract_z
 _atom_site_occupancy
  Co  Co0  1  0.31653755  0.50000000  0.04603128  1.0
  Co  Co1  1  0.81653755  0.50000000  0.95396872  1.0
  Co  Co2  1  0.68346245  0.50000000  0.95396872  1.0
  Co  Co3  1  0.18346245  0.50000000  0.04603128  1.0
  Co  Co4  1  0.34638055  0.00000000  0.42596614  1.0
  Co  Co5  1  0.84638055  0.00000000  0.57403386  1.0
  Co  Co6  1  0.65361945  0.00000000  0.57403386  1.0
  Co  Co7  1  0.15361945  0.00000000  0.42596614  1.0
  Co  Co8  1  0.50000000  0.00000000  0.00000000  1.0
  Co  Co9  1  0.00000000  0.00000000  0.00000000  1.0
  B  B10  1  0.42892544  0.50000000  0.49247135  1.0
  B  B11  1  0.92892544  0.50000000  0.50752865  1.0
  B  B12  1  0.57107456  0.50000000  0.50752865  1.0
  B  B13  1  0.07107456  0.50000000  0.49247135  1.0
  B  B14  1  0.42322461  0.50000000  0.17679392  1.0
  B  B15  1  0.92322461  0.50000000  0.82320608  1.0
  B  B16  1  0.57677539  0.50000000  0.82320608  1.0
  B  B17  1  0.07677539  0.50000000  0.17679392  1.0
  B  B18  1  0.29728913  0.50000000  0.66596864  1.0
  B  B19  1  0.79728913  0.50000000  0.33403136  1.0
  B  B20  1  0.70271087  0.50000000  0.33403136  1.0
  B  B21  1  0.20271087  0.50000000  0.66596864  1.0
  B  B22  1  0.99086625  0.50000000  0.29308444  1.0
  B  B23  1  0.49086625  0.50000000  0.70691556  1.0
  B  B24  1  0.00913375  0.50000000  0.70691556  1.0
  B  B25  1  0.50913375  0.50000000  0.29308444  1.0
  B  B26  1  0.39510665  0.00000000  0.01532219  1.0
  B  B27  1  0.89510665  0.00000000  0.98467781  1.0
  B  B28  1  0.60489335  0.00000000  0.98467781  1.0
  B  B29  1  0.10489335  0.00000000  0.01532219  1.0
  B  B30  1  0.93155467  0.00000000  0.30679983  1.0
  B  B31  1  0.43155467  0.00000000  0.69320017  1.0
  B  B32  1  0.06844533  0.00000000  0.69320017  1.0
  B  B33  1  0.56844533  0.00000000  0.30679983  1.0
  B  B34  1  0.83840527  0.00000000  0.21330646  1.0
  B  B35  1  0.33840527  0.00000000  0.78669354  1.0
  B  B36  1  0.16159473  0.00000000  0.78669354  1.0
  B  B37  1  0.66159473  0.00000000  0.21330646  1.0
  B  B38  1  0.25000000  0.50000000  0.38850071  1.0
  B  B39  1  0.75000000  0.50000000  0.61149929  1.0
  B  B40  1  0.25000000  0.00000000  0.21366810  1.0
  B  B41  1  0.75000000  0.00000000  0.78633190  1.0
