# generated using pymatgen
data_Sr2CuH2(SeO3)4
_symmetry_space_group_name_H-M   'P 1'
_cell_length_a   7.12018760
_cell_length_b   5.35709271
_cell_length_c   9.25831282
_cell_angle_alpha   75.60355308
_cell_angle_beta   66.83663852
_cell_angle_gamma   79.43569764
_symmetry_Int_Tables_number   1
_chemical_formula_structural   Sr2CuH2(SeO3)4
_chemical_formula_sum   'Sr2 Cu1 H2 Se4 O12'
_cell_volume   313.02700657
_cell_formula_units_Z   1
loop_
 _symmetry_equiv_pos_site_id
 _symmetry_equiv_pos_as_xyz
  1  'x, y, z'
loop_
 _atom_site_type_symbol
 _atom_site_label
 _atom_site_symmetry_multiplicity
 _atom_site_fract_x
 _atom_site_fract_y
 _atom_site_fract_z
 _atom_site_occupancy
  Sr  Sr0  1  -0.30869704  -0.83022759  -0.94052546  1.0
  Sr  Sr1  1  -0.69130296  -0.16977241  -0.05947454  1.0
  Cu  Cu2  1  -0.50000000  0.00000000  -0.50000000  1.0
  H  H3  1  -0.90626788  -0.63345803  -0.25548463  1.0
  H  H4  1  -0.09373212  -0.36654197  -0.74451537  1.0
  Se  Se5  1  -0.95125680  -0.80091062  -0.72557253  1.0
  Se  Se6  1  -0.04874320  -0.19908938  -0.27442747  1.0
  Se  Se7  1  -0.53415184  -0.39800985  -0.68535463  1.0
  Se  Se8  1  -0.46584816  -0.60199015  -0.31464537  1.0
  O  O9  1  -0.96881172  -0.87134915  -0.88790370  1.0
  O  O10  1  -0.03118828  -0.12865085  -0.11209630  1.0
  O  O11  1  -0.70314495  -0.87248048  -0.74759325  1.0
  O  O12  1  -0.29685505  -0.12751952  -0.25240675  1.0
  O  O13  1  -0.63297909  -0.79305109  -0.32909567  1.0
  O  O14  1  -0.36702091  -0.20694891  -0.67090433  1.0
  O  O15  1  -0.38801395  -0.69655285  -0.65972219  1.0
  O  O16  1  -0.61198605  -0.30344715  -0.34027781  1.0
  O  O17  1  -0.94842808  -0.44295303  -0.78186699  1.0
  O  O18  1  -0.05157192  -0.55704697  -0.21813301  1.0
  O  O19  1  -0.46381243  -0.34168822  -0.88767685  1.0
  O  O20  1  -0.53618757  -0.65831178  -0.11232315  1.0
