# generated using pymatgen
data_LiO3
_symmetry_space_group_name_H-M   'P 1'
_cell_length_a   4.02470181
_cell_length_b   4.02470181
_cell_length_c   4.02470181
_cell_angle_alpha   133.90336812
_cell_angle_beta   103.31845356
_cell_angle_gamma   94.36975240
_symmetry_Int_Tables_number   1
_chemical_formula_structural   LiO3
_chemical_formula_sum   'Li1 O3'
_cell_volume   43.04319817
_cell_formula_units_Z   1
loop_
 _symmetry_equiv_pos_site_id
 _symmetry_equiv_pos_as_xyz
  1  'x, y, z'
loop_
 _atom_site_type_symbol
 _atom_site_label
 _atom_site_symmetry_multiplicity
 _atom_site_fract_x
 _atom_site_fract_y
 _atom_site_fract_z
 _atom_site_occupancy
  Li  Li0  1  0.51473976  0.51473976  1.00000000  1.0
  O  O1  1  1.01440638  1.01440638  1.00000000  1.0
  O  O2  1  1.65045546  0.87552693  0.77492853  1.0
  O  O3  1  1.10059840  0.87552693  0.22507147  1.0
