# generated using pymatgen
data_K3GeSe3
_symmetry_space_group_name_H-M   'P 1'
_cell_length_a   7.99174392
_cell_length_b   7.99174392
_cell_length_c   8.57290214
_cell_angle_alpha   74.92985231
_cell_angle_beta   105.07014769
_cell_angle_gamma   70.18617047
_symmetry_Int_Tables_number   1
_chemical_formula_structural   K3GeSe3
_chemical_formula_sum   'K6 Ge2 Se6'
_cell_volume   459.43039085
_cell_formula_units_Z   2
loop_
 _symmetry_equiv_pos_site_id
 _symmetry_equiv_pos_as_xyz
  1  'x, y, z'
loop_
 _atom_site_type_symbol
 _atom_site_label
 _atom_site_symmetry_multiplicity
 _atom_site_fract_x
 _atom_site_fract_y
 _atom_site_fract_z
 _atom_site_occupancy
  K  K0  1  0.79043973  -0.79043973  0.31802726  1.0
  K  K1  1  0.20956027  -0.20956027  0.68197274  1.0
  K  K2  1  0.66244721  -0.33755279  0.50000000  1.0
  K  K3  1  1.33755279  0.33755279  0.50000000  1.0
  K  K4  1  1.50000000  -0.00000000  -0.00000000  1.0
  K  K5  1  1.00000000  -0.50000000  -0.00000000  1.0
  Ge  Ge6  1  0.88289685  -0.88289685  0.84747706  1.0
  Ge  Ge7  1  0.11710315  -0.11710315  0.15252294  1.0
  Se  Se8  1  0.75084825  -0.05070019  0.69763922  1.0
  Se  Se9  1  1.05070019  0.24915175  0.69763922  1.0
  Se  Se10  1  0.94929981  -0.24915175  0.30236078  1.0
  Se  Se11  1  1.24915175  0.05070019  0.30236078  1.0
  Se  Se12  1  0.63030029  -0.63030029  0.86669281  1.0
  Se  Se13  1  0.36969971  -0.36969971  0.13330719  1.0
