# generated using pymatgen
data_Cu2GeO4
_symmetry_space_group_name_H-M   'P 1'
_cell_length_a   6.63086757
_cell_length_b   6.63086757
_cell_length_c   6.63086757
_cell_angle_alpha   130.13963954
_cell_angle_beta   130.13963954
_cell_angle_gamma   73.18362659
_symmetry_Int_Tables_number   1
_chemical_formula_structural   Cu2GeO4
_chemical_formula_sum   'Cu4 Ge2 O8'
_cell_volume   166.36309837
_cell_formula_units_Z   2
loop_
 _symmetry_equiv_pos_site_id
 _symmetry_equiv_pos_as_xyz
  1  'x, y, z'
loop_
 _atom_site_type_symbol
 _atom_site_label
 _atom_site_symmetry_multiplicity
 _atom_site_fract_x
 _atom_site_fract_y
 _atom_site_fract_z
 _atom_site_occupancy
  Cu  Cu0  1  0.37500000  1.12500000  0.75000000  1.0
  Cu  Cu1  1  0.37500000  0.62500000  0.25000000  1.0
  Cu  Cu2  1  0.87500000  0.62500000  1.25000000  1.0
  Cu  Cu3  1  0.37500000  0.62500000  0.75000000  1.0
  Ge  Ge4  1  0.75000000  0.25000000  0.50000000  1.0
  Ge  Ge5  1  0.00000000  0.00000000  0.00000000  1.0
  O  O6  1  0.09606702  0.83182612  0.73575910  1.0
  O  O7  1  0.09606702  0.36030793  0.26424090  1.0
  O  O8  1  0.65393298  0.88969207  1.23575910  1.0
  O  O9  1  0.65393298  0.41817388  0.76424090  1.0
  O  O10  1  1.16817388  0.90393298  1.26424090  1.0
  O  O11  1  0.63969207  0.90393298  0.73575910  1.0
  O  O12  1  1.11030793  0.34606702  0.76424090  1.0
  O  O13  1  0.58182612  0.34606702  0.23575910  1.0
