# generated using pymatgen
data_Mn(FeO2)2
_symmetry_space_group_name_H-M   'P 1'
_cell_length_a   2.84602942
_cell_length_b   9.67627152
_cell_length_c   10.15222747
_cell_angle_alpha   90.00000000
_cell_angle_beta   90.00000000
_cell_angle_gamma   90.00000000
_symmetry_Int_Tables_number   1
_chemical_formula_structural   Mn(FeO2)2
_chemical_formula_sum   'Mn4 Fe8 O16'
_cell_volume   279.58171943
_cell_formula_units_Z   4
loop_
 _symmetry_equiv_pos_site_id
 _symmetry_equiv_pos_as_xyz
  1  'x, y, z'
loop_
 _atom_site_type_symbol
 _atom_site_label
 _atom_site_symmetry_multiplicity
 _atom_site_fract_x
 _atom_site_fract_y
 _atom_site_fract_z
 _atom_site_occupancy
  Mn  Mn0  1  0.24996532  0.62778660  0.75000000  1.0
  Mn  Mn1  1  0.75003468  0.37221340  0.25000000  1.0
  Mn  Mn2  1  0.24996532  0.87221340  0.25000000  1.0
  Mn  Mn3  1  0.75003468  0.12778660  0.75000000  1.0
  Fe  Fe4  1  0.74985480  0.62077153  0.43228296  1.0
  Fe  Fe5  1  0.25014520  0.37922847  0.93228296  1.0
  Fe  Fe6  1  0.74985480  0.87922847  0.56771704  1.0
  Fe  Fe7  1  0.25014520  0.12077153  0.06771704  1.0
  Fe  Fe8  1  0.25014520  0.37922847  0.56771704  1.0
  Fe  Fe9  1  0.74985480  0.62077153  0.06771704  1.0
  Fe  Fe10  1  0.25014520  0.12077153  0.43228296  1.0
  Fe  Fe11  1  0.74985480  0.87922847  0.93228296  1.0
  O  O12  1  0.24988568  0.75000000  0.50000000  1.0
  O  O13  1  0.75011432  0.25000000  -0.00000000  1.0
  O  O14  1  0.75011432  0.25000000  0.50000000  1.0
  O  O15  1  0.24988568  0.75000000  -0.00000000  1.0
  O  O16  1  0.74992175  0.73476702  0.25000000  1.0
  O  O17  1  0.25007825  0.26523298  0.75000000  1.0
  O  O18  1  0.74992175  0.76523298  0.75000000  1.0
  O  O19  1  0.25007825  0.23476702  0.25000000  1.0
  O  O20  1  0.24986887  0.48045298  0.37859343  1.0
  O  O21  1  0.75013113  0.51954702  0.87859343  1.0
  O  O22  1  0.24986887  0.01954702  0.62140657  1.0
  O  O23  1  0.75013113  0.98045298  0.12140657  1.0
  O  O24  1  0.75013113  0.51954702  0.62140657  1.0
  O  O25  1  0.24986887  0.48045298  0.12140657  1.0
  O  O26  1  0.75013113  0.98045298  0.37859343  1.0
  O  O27  1  0.24986887  0.01954702  0.87859343  1.0
