# generated using pymatgen
data_VPH7N2O5
_symmetry_space_group_name_H-M   'P 1'
_cell_length_a   6.88348256
_cell_length_b   4.95898854
_cell_length_c   8.55946340
_cell_angle_alpha   90.00000000
_cell_angle_beta   91.52477278
_cell_angle_gamma   90.00000000
_symmetry_Int_Tables_number   1
_chemical_formula_structural   VPH7N2O5
_chemical_formula_sum   'V2 P2 H14 N4 O10'
_cell_volume   292.07477784
_cell_formula_units_Z   2
loop_
 _symmetry_equiv_pos_site_id
 _symmetry_equiv_pos_as_xyz
  1  'x, y, z'
loop_
 _atom_site_type_symbol
 _atom_site_label
 _atom_site_symmetry_multiplicity
 _atom_site_fract_x
 _atom_site_fract_y
 _atom_site_fract_z
 _atom_site_occupancy
  V  V0  1  0.64891754  0.66446313  0.34255210  1.0
  V  V1  1  0.35108246  0.16446313  0.65744790  1.0
  P  P2  1  0.37362122  0.20704572  0.27638685  1.0
  P  P3  1  0.62637878  0.70704572  0.72361315  1.0
  H  H4  1  0.92787318  0.29410189  0.35896836  1.0
  H  H5  1  0.07212682  0.79410189  0.64103164  1.0
  H  H6  1  0.75781992  0.18587777  0.47884504  1.0
  H  H7  1  0.24218008  0.68587777  0.52115496  1.0
  H  H8  1  0.91397351  0.41494205  0.53782307  1.0
  H  H9  1  0.08602649  0.91494205  0.46217693  1.0
  H  H10  1  0.81072268  0.05113658  0.92539227  1.0
  H  H11  1  0.18927732  0.55113658  0.07460773  1.0
  H  H12  1  0.94798201  0.22082830  0.06223690  1.0
  H  H13  1  0.05201799  0.72082830  0.93776310  1.0
  H  H14  1  0.83016884  0.39074874  0.91528790  1.0
  H  H15  1  0.16983116  0.89074874  0.08471210  1.0
  H  H16  1  0.70428051  0.25479959  0.06182632  1.0
  H  H17  1  0.29571949  0.75479959  0.93817368  1.0
  N  N18  1  0.83239932  0.35299966  0.44270277  1.0
  N  N19  1  0.16760068  0.85299966  0.55729723  1.0
  N  N20  1  0.82412243  0.22823043  0.99121280  1.0
  N  N21  1  0.17587757  0.72823043  0.00878720  1.0
  O  O22  1  0.42757906  0.90376883  0.27676827  1.0
  O  O23  1  0.57242094  0.40376883  0.72323173  1.0
  O  O24  1  0.53734786  0.38128713  0.19997397  1.0
  O  O25  1  0.46265214  0.88128713  0.80002603  1.0
  O  O26  1  0.62919729  0.82591618  0.55149492  1.0
  O  O27  1  0.37080271  0.32591618  0.44850508  1.0
  O  O28  1  0.82682924  0.80327271  0.25591934  1.0
  O  O29  1  0.17317076  0.30327271  0.74408066  1.0
  O  O30  1  0.17696217  0.24496132  0.18998983  1.0
  O  O31  1  0.82303783  0.74496132  0.81001017  1.0
