# generated using pymatgen
data_CoP4(H5O8)2
_symmetry_space_group_name_H-M   'P 1'
_cell_length_a   7.23175387
_cell_length_b   5.33234329
_cell_length_c   8.51800070
_cell_angle_alpha   97.44872722
_cell_angle_beta   100.34052623
_cell_angle_gamma   92.30260106
_symmetry_Int_Tables_number   1
_chemical_formula_structural   CoP4(H5O8)2
_chemical_formula_sum   'Co1 P4 H10 O16'
_cell_volume   319.73248282
_cell_formula_units_Z   1
loop_
 _symmetry_equiv_pos_site_id
 _symmetry_equiv_pos_as_xyz
  1  'x, y, z'
loop_
 _atom_site_type_symbol
 _atom_site_label
 _atom_site_symmetry_multiplicity
 _atom_site_fract_x
 _atom_site_fract_y
 _atom_site_fract_z
 _atom_site_occupancy
  Co  Co0  1  0.00000000  0.00000000  0.00000000  1.0
  P  P1  1  -0.68024237  -0.94983847  -0.23691786  1.0
  P  P2  1  -0.31975763  -0.05016153  -0.76308214  1.0
  P  P3  1  -0.82520276  -0.43546097  -0.78122191  1.0
  P  P4  1  -0.17479724  -0.56453903  -0.21877809  1.0
  H  H5  1  -0.37429454  -0.98200820  -0.22942205  1.0
  H  H6  1  -0.62570547  -0.01799180  -0.77057795  1.0
  H  H7  1  -0.87087353  -0.76406838  -0.39720831  1.0
  H  H8  1  -0.12912647  -0.23593162  -0.60279169  1.0
  H  H9  1  -0.57726691  -0.60331879  -0.66229306  1.0
  H  H10  1  -0.42273309  -0.39668121  -0.33770694  1.0
  H  H11  1  -0.91773597  -0.36278356  -0.25580085  1.0
  H  H12  1  -0.08226403  -0.63721644  -0.74419915  1.0
  H  H13  1  -0.31048107  -0.33746473  -0.96774474  1.0
  H  H14  1  -0.68951893  -0.66253527  -0.03225526  1.0
  O  O15  1  -0.49946113  -0.90780952  -0.73473873  1.0
  O  O16  1  -0.50053887  -0.09219048  -0.26526127  1.0
  O  O17  1  -0.18209955  -0.88795589  -0.83098831  1.0
  O  O18  1  -0.81790045  -0.11204411  -0.16901169  1.0
  O  O19  1  -0.77138983  -0.88522686  -0.40915154  1.0
  O  O20  1  -0.22861017  -0.11477314  -0.59084846  1.0
  O  O21  1  -0.83489498  -0.65252791  -0.92031852  1.0
  O  O22  1  -0.16510502  -0.34747209  -0.07968148  1.0
  O  O23  1  -0.99631851  -0.53015711  -0.30176783  1.0
  O  O24  1  -0.00368149  -0.46984289  -0.69823217  1.0
  O  O25  1  -0.64469204  -0.44662962  -0.64615991  1.0
  O  O26  1  -0.35530796  -0.55337038  -0.35384009  1.0
  O  O27  1  -0.38957555  -0.30079661  -0.87974597  1.0
  O  O28  1  -0.61042445  -0.69920339  -0.12025403  1.0
  O  O29  1  -0.81720383  -0.16528256  -0.82618856  1.0
  O  O30  1  -0.18279617  -0.83471744  -0.17381144  1.0
