# generated using pymatgen
data_Lu4MgNi
_symmetry_space_group_name_H-M   'P 1'
_cell_length_a   9.41643190
_cell_length_b   9.41643190
_cell_length_c   9.41643190
_cell_angle_alpha   60.00000000
_cell_angle_beta   60.00000000
_cell_angle_gamma   60.00000000
_symmetry_Int_Tables_number   1
_chemical_formula_structural   Lu4MgNi
_chemical_formula_sum   'Lu16 Mg4 Ni4'
_cell_volume   590.39695862
_cell_formula_units_Z   4
loop_
 _symmetry_equiv_pos_site_id
 _symmetry_equiv_pos_as_xyz
  1  'x, y, z'
loop_
 _atom_site_type_symbol
 _atom_site_label
 _atom_site_symmetry_multiplicity
 _atom_site_fract_x
 _atom_site_fract_y
 _atom_site_fract_z
 _atom_site_occupancy
  Lu  Lu0  1  -0.34613997  0.65386003  0.65386003  1.0
  Lu  Lu1  1  1.03841990  0.65386003  -0.34613997  1.0
  Lu  Lu2  1  -0.34613997  0.65386003  1.03841990  1.0
  Lu  Lu3  1  0.65386003  1.03841990  -0.34613997  1.0
  Lu  Lu4  1  0.06466044  0.43533956  0.43533956  1.0
  Lu  Lu5  1  0.43533956  0.43533956  0.06466044  1.0
  Lu  Lu6  1  0.43533956  0.06466044  0.43533956  1.0
  Lu  Lu7  1  0.06466044  0.06466044  0.43533956  1.0
  Lu  Lu8  1  0.06466044  0.43533956  0.06466044  1.0
  Lu  Lu9  1  0.43533956  0.06466044  0.06466044  1.0
  Lu  Lu10  1  -0.81237098  0.81237098  0.81237098  1.0
  Lu  Lu11  1  -0.18762902  0.81237098  0.18762902  1.0
  Lu  Lu12  1  -0.18762902  0.18762902  0.81237098  1.0
  Lu  Lu13  1  0.18762902  1.18762902  -0.18762902  1.0
  Lu  Lu14  1  0.18762902  -0.18762902  0.18762902  1.0
  Lu  Lu15  1  -0.18762902  0.18762902  0.18762902  1.0
  Mg  Mg16  1  0.42029287  1.42029287  0.42029287  1.0
  Mg  Mg17  1  -0.26087862  0.42029287  0.42029287  1.0
  Mg  Mg18  1  0.42029287  1.42029287  -0.26087862  1.0
  Mg  Mg19  1  0.42029287  -0.26087862  0.42029287  1.0
  Ni  Ni20  1  0.85827883  0.85827883  -0.14172117  1.0
  Ni  Ni21  1  0.42516352  0.85827883  -0.14172117  1.0
  Ni  Ni22  1  0.85827883  0.85827883  -0.57483648  1.0
  Ni  Ni23  1  0.85827883  0.42516352  -0.14172117  1.0
