# generated using pymatgen
data_Ca5VN5
_symmetry_space_group_name_H-M   'P 1'
_cell_length_a   6.03510701
_cell_length_b   16.63321688
_cell_length_c   6.78454166
_cell_angle_alpha   90.00000000
_cell_angle_beta   90.00000000
_cell_angle_gamma   90.00000000
_symmetry_Int_Tables_number   1
_chemical_formula_structural   Ca5VN5
_chemical_formula_sum   'Ca20 V4 N20'
_cell_volume   681.05430040
_cell_formula_units_Z   4
loop_
 _symmetry_equiv_pos_site_id
 _symmetry_equiv_pos_as_xyz
  1  'x, y, z'
loop_
 _atom_site_type_symbol
 _atom_site_label
 _atom_site_symmetry_multiplicity
 _atom_site_fract_x
 _atom_site_fract_y
 _atom_site_fract_z
 _atom_site_occupancy
  Ca  Ca0  1  0.29447771  0.42457925  0.50695467  1.0
  Ca  Ca1  1  0.70552229  0.57542075  0.00695467  1.0
  Ca  Ca2  1  0.29447771  0.07542075  0.49304533  1.0
  Ca  Ca3  1  0.70552229  0.92457925  0.99304533  1.0
  Ca  Ca4  1  0.70552229  0.57542075  0.49304533  1.0
  Ca  Ca5  1  0.29447771  0.42457925  0.99304533  1.0
  Ca  Ca6  1  0.70552229  0.92457925  0.50695467  1.0
  Ca  Ca7  1  0.29447771  0.07542075  0.00695467  1.0
  Ca  Ca8  1  0.18567571  0.58150357  0.25000000  1.0
  Ca  Ca9  1  0.81432429  0.41849643  0.75000000  1.0
  Ca  Ca10  1  0.18567571  0.91849643  0.75000000  1.0
  Ca  Ca11  1  0.81432429  0.08150357  0.25000000  1.0
  Ca  Ca12  1  0.50969838  0.73677597  0.25000000  1.0
  Ca  Ca13  1  0.49030162  0.26322403  0.75000000  1.0
  Ca  Ca14  1  0.50969838  0.76322403  0.75000000  1.0
  Ca  Ca15  1  0.49030162  0.23677597  0.25000000  1.0
  Ca  Ca16  1  0.04265527  0.75000000  0.00000000  1.0
  Ca  Ca17  1  0.95734473  0.25000000  0.50000000  1.0
  Ca  Ca18  1  0.95734473  0.25000000  0.00000000  1.0
  Ca  Ca19  1  0.04265527  0.75000000  0.50000000  1.0
  V  V20  1  0.28395177  0.90645141  0.25000000  1.0
  V  V21  1  0.71604823  0.09354859  0.75000000  1.0
  V  V22  1  0.28395177  0.59354859  0.75000000  1.0
  V  V23  1  0.71604823  0.40645141  0.25000000  1.0
  N  N24  1  0.35700757  0.84513584  0.03080490  1.0
  N  N25  1  0.64299243  0.15486416  0.53080490  1.0
  N  N26  1  0.35700757  0.65486416  0.96919510  1.0
  N  N27  1  0.64299243  0.34513584  0.46919510  1.0
  N  N28  1  0.64299243  0.15486416  0.96919510  1.0
  N  N29  1  0.35700757  0.84513584  0.46919510  1.0
  N  N30  1  0.64299243  0.34513584  0.03080490  1.0
  N  N31  1  0.35700757  0.65486416  0.53080490  1.0
  N  N32  1  0.00288708  0.94601008  0.25000000  1.0
  N  N33  1  -0.00288708  0.05398992  0.75000000  1.0
  N  N34  1  0.00288708  0.55398992  0.75000000  1.0
  N  N35  1  -0.00288708  0.44601008  0.25000000  1.0
  N  N36  1  0.47908506  0.98920336  0.25000000  1.0
  N  N37  1  0.52091494  0.01079664  0.75000000  1.0
  N  N38  1  0.47908506  0.51079664  0.75000000  1.0
  N  N39  1  0.52091494  0.48920336  0.25000000  1.0
  N  N40  1  0.13824725  0.17458995  0.25000000  1.0
  N  N41  1  0.86175275  0.82541005  0.75000000  1.0
  N  N42  1  0.13824725  0.32541005  0.75000000  1.0
  N  N43  1  0.86175275  0.67458995  0.25000000  1.0
