# generated using pymatgen
data_LiBF4
_symmetry_space_group_name_H-M   'P 1'
_cell_length_a   5.06184392
_cell_length_b   5.06184392
_cell_length_c   11.28118643
_cell_angle_alpha   90.00000000
_cell_angle_beta   90.00000000
_cell_angle_gamma   120.00000000
_symmetry_Int_Tables_number   1
_chemical_formula_structural   LiBF4
_chemical_formula_sum   'Li3 B3 F12'
_cell_volume   250.32424025
_cell_formula_units_Z   3
loop_
 _symmetry_equiv_pos_site_id
 _symmetry_equiv_pos_as_xyz
  1  'x, y, z'
loop_
 _atom_site_type_symbol
 _atom_site_label
 _atom_site_symmetry_multiplicity
 _atom_site_fract_x
 _atom_site_fract_y
 _atom_site_fract_z
 _atom_site_occupancy
  Li  Li0  1  0.52990186  0.52990186  0.50000000  1.0
  Li  Li1  1  -0.00000000  0.47009814  0.16666667  1.0
  Li  Li2  1  0.47009814  0.00000000  0.83333333  1.0
  B  B3  1  0.52936853  0.52936853  0.00000000  1.0
  B  B4  1  -0.00000000  0.47063147  0.66666667  1.0
  B  B5  1  0.47063147  0.00000000  0.33333333  1.0
  F  F6  1  0.11837758  0.69167938  0.75806817  1.0
  F  F7  1  0.69167938  0.11837758  0.24193183  1.0
  F  F8  1  0.57330180  0.88162242  0.42473484  1.0
  F  F9  1  0.30832062  0.42669820  0.09140151  1.0
  F  F10  1  0.88162242  0.57330180  0.57526516  1.0
  F  F11  1  0.42669820  0.30832062  0.90859849  1.0
  F  F12  1  0.80851152  0.57399225  0.04630091  1.0
  F  F13  1  0.57399225  0.80851152  0.95369909  1.0
  F  F14  1  0.76548072  0.19148848  0.71296758  1.0
  F  F15  1  0.42600775  0.23451928  0.37963425  1.0
  F  F16  1  0.19148848  0.76548072  0.28703242  1.0
  F  F17  1  0.23451928  0.42600775  0.62036575  1.0
