# generated using pymatgen
data_Rb2As3
_symmetry_space_group_name_H-M   'P 1'
_cell_length_a   9.31339748
_cell_length_b   9.04955023
_cell_length_c   6.94481906
_cell_angle_alpha   69.80813587
_cell_angle_beta   65.77669143
_cell_angle_gamma   44.41517270
_symmetry_Int_Tables_number   1
_chemical_formula_structural   Rb2As3
_chemical_formula_sum   'Rb4 As6'
_cell_volume   372.32611518
_cell_formula_units_Z   2
loop_
 _symmetry_equiv_pos_site_id
 _symmetry_equiv_pos_as_xyz
  1  'x, y, z'
loop_
 _atom_site_type_symbol
 _atom_site_label
 _atom_site_symmetry_multiplicity
 _atom_site_fract_x
 _atom_site_fract_y
 _atom_site_fract_z
 _atom_site_occupancy
  Rb  Rb0  1  -0.26111119  0.26111119  0.73888881  1.0
  Rb  Rb1  1  0.26111119  -0.26111119  1.26111119  1.0
  Rb  Rb2  1  -0.25000000  0.75000000  0.75000000  1.0
  Rb  Rb3  1  0.25000000  0.25000000  1.25000000  1.0
  As  As4  1  0.14717320  0.69669990  -0.14717320  1.0
  As  As5  1  -0.69669990  0.85282680  0.69669990  1.0
  As  As6  1  -0.30330010  1.14717320  0.30330010  1.0
  As  As7  1  -0.14717320  0.30330010  0.14717320  1.0
  As  As8  1  -0.15686654  0.84313346  0.15686654  1.0
  As  As9  1  0.15686654  0.15686654  -0.15686654  1.0
