# generated using pymatgen
data_La3AlZnS7
_symmetry_space_group_name_H-M   'P 1'
_cell_length_a   10.29654527
_cell_length_b   10.29654527
_cell_length_c   6.13203019
_cell_angle_alpha   90.00000000
_cell_angle_beta   90.00000000
_cell_angle_gamma   120.00000000
_symmetry_Int_Tables_number   1
_chemical_formula_structural   La3AlZnS7
_chemical_formula_sum   'La6 Al2 Zn2 S14'
_cell_volume   563.01242923
_cell_formula_units_Z   2
loop_
 _symmetry_equiv_pos_site_id
 _symmetry_equiv_pos_as_xyz
  1  'x, y, z'
loop_
 _atom_site_type_symbol
 _atom_site_label
 _atom_site_symmetry_multiplicity
 _atom_site_fract_x
 _atom_site_fract_y
 _atom_site_fract_z
 _atom_site_occupancy
  La  La0  1  0.76231684  0.62502669  0.24597585  1.0
  La  La1  1  0.62502669  0.86270985  0.74597585  1.0
  La  La2  1  0.86270985  0.23768316  0.24597585  1.0
  La  La3  1  0.37497331  0.13729015  0.24597585  1.0
  La  La4  1  0.23768316  0.37497331  0.74597585  1.0
  La  La5  1  0.13729015  0.76231684  0.74597585  1.0
  Al  Al6  1  0.33333333  0.66666667  0.16445777  1.0
  Al  Al7  1  0.66666667  0.33333333  0.66445777  1.0
  Zn  Zn8  1  0.00000000  0.00000000  -0.18951456  1.0
  Zn  Zn9  1  0.00000000  0.00000000  0.31048544  1.0
  S  S10  1  0.41628798  0.89673493  0.01630681  1.0
  S  S11  1  0.89673493  0.48044695  0.51630681  1.0
  S  S12  1  0.48044695  0.58371202  0.01630681  1.0
  S  S13  1  0.10326507  0.51955305  0.01630681  1.0
  S  S14  1  0.58371202  0.10326507  0.51630681  1.0
  S  S15  1  0.51955305  0.41628798  0.51630681  1.0
  S  S16  1  0.09325633  0.84298482  0.27972464  1.0
  S  S17  1  0.84298482  0.74972849  0.77972464  1.0
  S  S18  1  0.74972849  0.90674367  0.27972464  1.0
  S  S19  1  0.15701518  0.25027151  0.27972464  1.0
  S  S20  1  0.90674367  0.15701518  0.77972464  1.0
  S  S21  1  0.25027151  0.09325633  0.77972464  1.0
  S  S22  1  0.33333333  0.66666667  0.53003490  1.0
  S  S23  1  0.66666667  0.33333333  0.03003490  1.0
