# generated using pymatgen
data_Zr6PI14
_symmetry_space_group_name_H-M   'P 1'
_cell_length_a   10.99847251
_cell_length_b   10.99847251
_cell_length_c   13.09182184
_cell_angle_alpha   90.00000000
_cell_angle_beta   90.00000000
_cell_angle_gamma   85.15860846
_symmetry_Int_Tables_number   1
_chemical_formula_structural   Zr6PI14
_chemical_formula_sum   'Zr12 P2 I28'
_cell_volume   1578.02022566
_cell_formula_units_Z   2
loop_
 _symmetry_equiv_pos_site_id
 _symmetry_equiv_pos_as_xyz
  1  'x, y, z'
loop_
 _atom_site_type_symbol
 _atom_site_label
 _atom_site_symmetry_multiplicity
 _atom_site_fract_x
 _atom_site_fract_y
 _atom_site_fract_z
 _atom_site_occupancy
  Zr  Zr0  1  0.45377732  1.32534593  0.38472664  1.0
  Zr  Zr1  1  -0.04622268  0.82534593  0.11527336  1.0
  Zr  Zr2  1  0.32534593  1.45377732  0.61527336  1.0
  Zr  Zr3  1  -0.17465407  0.95377732  0.88472664  1.0
  Zr  Zr4  1  -0.32534593  0.54622268  0.38472664  1.0
  Zr  Zr5  1  0.17465407  1.04622268  0.11527336  1.0
  Zr  Zr6  1  -0.45377732  0.67465407  0.61527336  1.0
  Zr  Zr7  1  0.04622268  1.17465407  0.88472664  1.0
  Zr  Zr8  1  -0.13828560  1.13828560  0.10228218  1.0
  Zr  Zr9  1  0.36171440  0.63828560  0.39771782  1.0
  Zr  Zr10  1  0.13828560  0.86171440  0.89771782  1.0
  Zr  Zr11  1  -0.36171440  1.36171440  0.60228218  1.0
  P  P12  1  -0.50000000  0.50000000  0.50000000  1.0
  P  P13  1  -0.00000000  1.00000000  0.00000000  1.0
  I  I14  1  -0.38770737  1.13914592  0.48971780  1.0
  I  I15  1  0.11229263  0.63914592  0.01028220  1.0
  I  I16  1  0.13914592  0.61229263  0.51028220  1.0
  I  I17  1  -0.36085408  1.11229263  0.98971780  1.0
  I  I18  1  -0.13914592  1.38770737  0.48971780  1.0
  I  I19  1  0.36085408  0.88770737  0.01028220  1.0
  I  I20  1  0.38770737  0.86085408  0.51028220  1.0
  I  I21  1  -0.11229263  1.36085408  0.98971780  1.0
  I  I22  1  -0.21429663  0.96611955  0.25026814  1.0
  I  I23  1  0.28570337  1.46611955  0.24973186  1.0
  I  I24  1  -0.03388045  0.78570337  0.74973186  1.0
  I  I25  1  0.46611955  1.28570337  0.75026814  1.0
  I  I26  1  0.03388045  1.21429663  0.25026814  1.0
  I  I27  1  -0.46611955  0.71429663  0.24973186  1.0
  I  I28  1  0.21429663  1.03388045  0.74973186  1.0
  I  I29  1  -0.28570337  0.53388045  0.75026814  1.0
  I  I30  1  -0.35056601  1.35056601  0.23221754  1.0
  I  I31  1  0.14943399  0.85056601  0.26778246  1.0
  I  I32  1  0.35056601  0.64943399  0.76778246  1.0
  I  I33  1  -0.14943399  1.14943399  0.73221754  1.0
  I  I34  1  0.39752937  1.10247063  0.25000000  1.0
  I  I35  1  -0.10247063  0.60247063  0.25000000  1.0
  I  I36  1  0.10247063  1.39752937  0.75000000  1.0
  I  I37  1  -0.39752937  0.89752937  0.75000000  1.0
  I  I38  1  0.24947776  1.24947776  0.50000000  1.0
  I  I39  1  -0.25052224  0.74947776  0.00000000  1.0
  I  I40  1  -0.24947776  0.75052224  0.50000000  1.0
  I  I41  1  0.25052224  1.25052224  -0.00000000  1.0
