# generated using pymatgen
data_V2NiO7
_symmetry_space_group_name_H-M   'P 1'
_cell_length_a   7.73320374
_cell_length_b   6.70451549
_cell_length_c   5.89858838
_cell_angle_alpha   75.70579006
_cell_angle_beta   83.62369167
_cell_angle_gamma   82.12596598
_symmetry_Int_Tables_number   1
_chemical_formula_structural   V2NiO7
_chemical_formula_sum   'V4 Ni2 O14'
_cell_volume   292.61225945
_cell_formula_units_Z   2
loop_
 _symmetry_equiv_pos_site_id
 _symmetry_equiv_pos_as_xyz
  1  'x, y, z'
loop_
 _atom_site_type_symbol
 _atom_site_label
 _atom_site_symmetry_multiplicity
 _atom_site_fract_x
 _atom_site_fract_y
 _atom_site_fract_z
 _atom_site_occupancy
  Ni  Ni0  1  -0.85340055  -0.84852132  -0.60119685  1.0
  Ni  Ni1  1  -0.14659945  -0.15147868  -0.39880315  1.0
  O  O2  1  -0.63486436  -0.30123875  -0.90131661  1.0
  O  O3  1  -0.36513564  -0.69876125  -0.09868339  1.0
  O  O4  1  -0.60863648  -0.90415939  -0.74689699  1.0
  O  O5  1  -0.39136352  -0.09584061  -0.25310301  1.0
  O  O6  1  -0.39643866  -0.65415514  -0.61063923  1.0
  O  O7  1  -0.60356134  -0.34584486  -0.38936077  1.0
  O  O8  1  -0.81837908  -0.56963473  -0.55497756  1.0
  O  O9  1  -0.18162092  -0.43036527  -0.44502244  1.0
  O  O10  1  -0.94522652  -0.74905342  -0.86291124  1.0
  O  O11  1  -0.05477348  -0.25094658  -0.13708876  1.0
  O  O12  1  -0.90761989  -0.15136913  -0.59277577  1.0
  O  O13  1  -0.09238011  -0.84863087  -0.40722423  1.0
  O  O14  1  -0.74230465  -0.97684529  -0.29089405  1.0
  O  O15  1  -0.25769535  -0.02315471  -0.70910595  1.0
  V  V16  1  -0.40828545  -0.82551810  -0.79416122  1.0
  V  V17  1  -0.59171455  -0.17448190  -0.20583878  1.0
  V  V18  1  -0.73985349  -0.34500926  -0.61661719  1.0
  V  V19  1  -0.26014651  -0.65499074  -0.38338281  1.0
