# generated using pymatgen
data_Cu6GeWS8
_symmetry_space_group_name_H-M   'P 1'
_cell_length_a   7.59132895
_cell_length_b   7.59132895
_cell_length_c   12.46091940
_cell_angle_alpha   90.00000000
_cell_angle_beta   90.00000000
_cell_angle_gamma   120.00000000
_symmetry_Int_Tables_number   1
_chemical_formula_structural   Cu6GeWS8
_chemical_formula_sum   'Cu12 Ge2 W2 S16'
_cell_volume   621.89396259
_cell_formula_units_Z   2
loop_
 _symmetry_equiv_pos_site_id
 _symmetry_equiv_pos_as_xyz
  1  'x, y, z'
loop_
 _atom_site_type_symbol
 _atom_site_label
 _atom_site_symmetry_multiplicity
 _atom_site_fract_x
 _atom_site_fract_y
 _atom_site_fract_z
 _atom_site_occupancy
  Cu  Cu0  1  0.99406634  0.49703317  0.17766322  1.0
  Cu  Cu1  1  0.49703317  0.99406634  0.67766322  1.0
  Cu  Cu2  1  0.49703317  0.50296683  0.67766322  1.0
  Cu  Cu3  1  0.50296683  0.49703317  0.17766322  1.0
  Cu  Cu4  1  0.50296683  0.00593366  0.17766322  1.0
  Cu  Cu5  1  0.00593366  0.50296683  0.67766322  1.0
  Cu  Cu6  1  0.32317337  0.16158668  0.42619997  1.0
  Cu  Cu7  1  0.16158668  0.32317337  0.92619997  1.0
  Cu  Cu8  1  0.16158668  0.83841332  0.92619997  1.0
  Cu  Cu9  1  0.83841332  0.16158668  0.42619997  1.0
  Cu  Cu10  1  0.83841332  0.67682663  0.42619997  1.0
  Cu  Cu11  1  0.67682663  0.83841332  0.92619997  1.0
  Ge  Ge12  1  0.00000000  0.00000000  0.17871981  1.0
  Ge  Ge13  1  -0.00000000  -0.00000000  0.67871981  1.0
  W  W14  1  0.33333333  0.66666667  0.05000950  1.0
  W  W15  1  0.66666667  0.33333333  0.55000950  1.0
  S  S16  1  0.99262572  0.49631286  0.49009366  1.0
  S  S17  1  0.49631286  0.99262572  0.99009366  1.0
  S  S18  1  0.49631286  0.50368714  0.99009366  1.0
  S  S19  1  0.50368714  0.49631286  0.49009366  1.0
  S  S20  1  0.50368714  0.00737428  0.49009366  1.0
  S  S21  1  0.00737428  0.50368714  0.99009366  1.0
  S  S22  1  0.32986874  0.16493437  0.24104791  1.0
  S  S23  1  0.16493437  0.32986874  0.74104791  1.0
  S  S24  1  0.16493437  0.83506563  0.74104791  1.0
  S  S25  1  0.83506563  0.16493437  0.24104791  1.0
  S  S26  1  0.83506563  0.67013126  0.24104791  1.0
  S  S27  1  0.67013126  0.83506563  0.74104791  1.0
  S  S28  1  0.33333333  0.66666667  0.23211132  1.0
  S  S29  1  0.66666667  0.33333333  0.73211132  1.0
  S  S30  1  0.00000000  0.00000000  -0.00425493  1.0
  S  S31  1  -0.00000000  -0.00000000  0.49574507  1.0
