# generated using pymatgen
data_Sr2ZnGe2O7
_symmetry_space_group_name_H-M   'P 1'
_cell_length_a   8.24571416
_cell_length_b   8.24571416
_cell_length_c   5.39376003
_cell_angle_alpha   90.00000000
_cell_angle_beta   90.00000000
_cell_angle_gamma   90.00000000
_symmetry_Int_Tables_number   1
_chemical_formula_structural   Sr2ZnGe2O7
_chemical_formula_sum   'Sr4 Zn2 Ge4 O14'
_cell_volume   366.73146354
_cell_formula_units_Z   2
loop_
 _symmetry_equiv_pos_site_id
 _symmetry_equiv_pos_as_xyz
  1  'x, y, z'
loop_
 _atom_site_type_symbol
 _atom_site_label
 _atom_site_symmetry_multiplicity
 _atom_site_fract_x
 _atom_site_fract_y
 _atom_site_fract_z
 _atom_site_occupancy
  Sr  Sr0  1  0.83423958  0.33423958  0.49251061  1.0
  Sr  Sr1  1  0.66576042  0.83423958  0.50748939  1.0
  Sr  Sr2  1  0.16576042  0.66576042  0.49251061  1.0
  Sr  Sr3  1  0.33423958  0.16576042  0.50748939  1.0
  Zn  Zn4  1  0.50000000  0.50000000  0.00000000  1.0
  Zn  Zn5  1  0.00000000  0.00000000  0.00000000  1.0
  Ge  Ge6  1  0.35703439  0.85703439  0.04745512  1.0
  Ge  Ge7  1  0.14296561  0.35703439  0.95254488  1.0
  Ge  Ge8  1  0.64296561  0.14296561  0.04745512  1.0
  Ge  Ge9  1  0.85703439  0.64296561  0.95254488  1.0
  O  O10  1  0.32149278  0.41714349  0.79190175  1.0
  O  O11  1  0.17850722  0.91714349  0.20809825  1.0
  O  O12  1  0.58285651  0.32149278  0.20809825  1.0
  O  O13  1  0.91714349  0.82149278  0.79190175  1.0
  O  O14  1  0.67850722  0.58285651  0.79190175  1.0
  O  O15  1  0.82149278  0.08285651  0.20809825  1.0
  O  O16  1  0.41714349  0.67850722  0.20809825  1.0
  O  O17  1  0.08285651  0.17850722  0.79190175  1.0
  O  O18  1  0.36156817  0.86156817  0.72471940  1.0
  O  O19  1  0.13843183  0.36156817  0.27528060  1.0
  O  O20  1  0.63843183  0.13843183  0.72471940  1.0
  O  O21  1  0.86156817  0.63843183  0.27528060  1.0
  O  O22  1  0.00000000  0.50000000  0.81585716  1.0
  O  O23  1  0.50000000  0.00000000  0.18414284  1.0
