# generated using pymatgen
data_Sr3MgRhO6
_symmetry_space_group_name_H-M   'P 1'
_cell_length_a   6.71658526
_cell_length_b   6.71658526
_cell_length_c   6.71658526
_cell_angle_alpha   92.61679599
_cell_angle_beta   92.61679599
_cell_angle_gamma   92.61679599
_symmetry_Int_Tables_number   1
_chemical_formula_structural   Sr3MgRhO6
_chemical_formula_sum   'Sr6 Mg2 Rh2 O12'
_cell_volume   302.02426530
_cell_formula_units_Z   2
loop_
 _symmetry_equiv_pos_site_id
 _symmetry_equiv_pos_as_xyz
  1  'x, y, z'
loop_
 _atom_site_type_symbol
 _atom_site_label
 _atom_site_symmetry_multiplicity
 _atom_site_fract_x
 _atom_site_fract_y
 _atom_site_fract_z
 _atom_site_occupancy
  Sr  Sr0  1  0.88506015  1.25000000  -0.38506015  1.0
  Sr  Sr1  1  1.38506015  0.11493985  -0.25000000  1.0
  Sr  Sr2  1  0.75000000  0.38506015  0.11493985  1.0
  Sr  Sr3  1  1.25000000  0.61493985  -0.11493985  1.0
  Sr  Sr4  1  1.11493985  -0.25000000  0.38506015  1.0
  Sr  Sr5  1  0.61493985  0.88506015  0.25000000  1.0
  Mg  Mg6  1  0.25000000  0.25000000  0.25000000  1.0
  Mg  Mg7  1  0.75000000  0.75000000  0.75000000  1.0
  Rh  Rh8  1  0.50000000  0.50000000  0.50000000  1.0
  Rh  Rh9  1  0.00000000  0.00000000  0.00000000  1.0
  O  O10  1  1.21314746  0.40683893  -0.46290937  1.0
  O  O11  1  0.71314746  1.03709063  -0.09316107  1.0
  O  O12  1  0.96290937  0.09316107  0.28685254  1.0
  O  O13  1  1.46290937  -0.21314746  0.59316107  1.0
  O  O14  1  1.59316107  0.46290937  -0.21314746  1.0
  O  O15  1  1.09316107  0.28685254  -0.03709063  1.0
  O  O16  1  0.78685254  0.59316107  0.46290937  1.0
  O  O17  1  1.28685254  -0.03709063  0.09316107  1.0
  O  O18  1  0.53709063  1.21314746  -0.59316107  1.0
  O  O19  1  1.03709063  0.90683893  -0.28685254  1.0
  O  O20  1  0.90683893  0.71314746  0.03709063  1.0
  O  O21  1  0.40683893  0.53709063  0.21314746  1.0
