# generated using pymatgen
data_FeO
_symmetry_space_group_name_H-M   'P 1'
_cell_length_a   5.39865277
_cell_length_b   5.21400805
_cell_length_c   8.91348544
_cell_angle_alpha   90.00000000
_cell_angle_beta   90.00153562
_cell_angle_gamma   90.00000000
_symmetry_Int_Tables_number   1
_chemical_formula_structural   FeO
_chemical_formula_sum   'Fe8 O8'
_cell_volume   250.90230545
_cell_formula_units_Z   8
loop_
 _symmetry_equiv_pos_site_id
 _symmetry_equiv_pos_as_xyz
  1  'x, y, z'
loop_
 _atom_site_type_symbol
 _atom_site_label
 _atom_site_symmetry_multiplicity
 _atom_site_fract_x
 _atom_site_fract_y
 _atom_site_fract_z
 _atom_site_occupancy
  Fe  Fe0  1  0.25002160  0.00000000  0.49300839  1.0
  Fe  Fe1  1  0.74997840  0.00000000  0.50699161  1.0
  Fe  Fe2  1  0.75005808  0.74222731  0.25004857  1.0
  Fe  Fe3  1  0.75005808  0.25777269  0.25004857  1.0
  Fe  Fe4  1  0.24994192  0.74222731  0.74995143  1.0
  Fe  Fe5  1  0.24994192  0.25777269  0.74995143  1.0
  Fe  Fe6  1  0.50000000  0.00000000  -0.00000000  1.0
  Fe  Fe7  1  0.00000000  0.00000000  0.00000000  1.0
  O  O8  1  0.74999921  0.75957698  0.03966160  1.0
  O  O9  1  0.74999921  0.24042302  0.03966160  1.0
  O  O10  1  0.25000079  0.75957698  0.96033840  1.0
  O  O11  1  0.25000079  0.24042302  0.96033840  1.0
  O  O12  1  0.99039726  0.00000000  0.35301492  1.0
  O  O13  1  0.00960274  0.00000000  0.64698508  1.0
  O  O14  1  0.50956320  0.00000000  0.35299435  1.0
  O  O15  1  0.49043680  0.00000000  0.64700565  1.0
