# generated using pymatgen
data_BaClO
_symmetry_space_group_name_H-M   'P 1'
_cell_length_a   7.65360442
_cell_length_b   4.16788484
_cell_length_c   9.50046846
_cell_angle_alpha   90.00000000
_cell_angle_beta   90.00000000
_cell_angle_gamma   90.00000000
_symmetry_Int_Tables_number   1
_chemical_formula_structural   BaClO
_chemical_formula_sum   'Ba4 Cl4 O4'
_cell_volume   303.05869146
_cell_formula_units_Z   4
loop_
 _symmetry_equiv_pos_site_id
 _symmetry_equiv_pos_as_xyz
  1  'x, y, z'
loop_
 _atom_site_type_symbol
 _atom_site_label
 _atom_site_symmetry_multiplicity
 _atom_site_fract_x
 _atom_site_fract_y
 _atom_site_fract_z
 _atom_site_occupancy
  Ba  Ba0  1  0.72149777  0.75000000  0.38050056  1.0
  Ba  Ba1  1  0.22149777  0.75000000  0.11949944  1.0
  Ba  Ba2  1  0.27850223  0.25000000  0.61949944  1.0
  Ba  Ba3  1  0.77850223  0.25000000  0.88050056  1.0
  Cl  Cl4  1  0.95426552  0.75000000  0.66254942  1.0
  Cl  Cl5  1  0.45426552  0.75000000  0.83745058  1.0
  Cl  Cl6  1  0.04573448  0.25000000  0.33745058  1.0
  Cl  Cl7  1  0.54573448  0.25000000  0.16254942  1.0
  O  O8  1  0.90302448  0.75000000  0.03066786  1.0
  O  O9  1  0.40302448  0.75000000  0.46933214  1.0
  O  O10  1  0.09697552  0.25000000  0.96933214  1.0
  O  O11  1  0.59697552  0.25000000  0.53066786  1.0
