# generated using pymatgen
data_GeS2
_symmetry_space_group_name_H-M   'P 1'
_cell_length_a   16.20918237
_cell_length_b   16.20918237
_cell_length_c   16.20918237
_cell_angle_alpha   96.75560946
_cell_angle_beta   96.75560946
_cell_angle_gamma   139.88304484
_symmetry_Int_Tables_number   1
_chemical_formula_structural   GeS2
_chemical_formula_sum   'Ge16 S32'
_cell_volume   2577.68213274
_cell_formula_units_Z   16
loop_
 _symmetry_equiv_pos_site_id
 _symmetry_equiv_pos_as_xyz
  1  'x, y, z'
loop_
 _atom_site_type_symbol
 _atom_site_label
 _atom_site_symmetry_multiplicity
 _atom_site_fract_x
 _atom_site_fract_y
 _atom_site_fract_z
 _atom_site_occupancy
  Ge  Ge0  1  0.98110432  1.57356889  1.23863909  1.0
  Ge  Ge1  1  1.33492980  0.74246522  0.76136091  1.0
  Ge  Ge2  1  1.25753478  1.01889568  0.59246457  1.0
  Ge  Ge3  1  1.42643111  1.66507020  1.40753543  1.0
  Ge  Ge4  1  1.25758411  1.66510012  1.23866887  1.0
  Ge  Ge5  1  1.42643125  1.01891524  0.76133113  1.0
  Ge  Ge6  1  0.98108476  0.74241589  0.40751601  1.0
  Ge  Ge7  1  1.33489988  1.57356875  1.59248399  1.0
  Ge  Ge8  1  0.94573305  1.37886532  1.07826231  1.0
  Ge  Ge9  1  1.30060301  0.86747074  0.92173769  1.0
  Ge  Ge10  1  1.13252926  1.05426695  0.43313227  1.0
  Ge  Ge11  1  1.62113468  1.69939699  1.56686773  1.0
  Ge  Ge12  1  1.13262493  1.69949105  1.07827226  1.0
  Ge  Ge13  1  1.62121880  1.05435268  0.92172774  1.0
  Ge  Ge14  1  0.94564732  0.86737507  0.56686612  1.0
  Ge  Ge15  1  1.30050895  1.37878120  1.43313388  1.0
  S  S16  1  1.16607076  1.66608282  1.33210740  1.0
  S  S17  1  1.33397542  0.83396336  0.66789260  1.0
  S  S18  1  1.16603664  0.83392924  0.50001206  1.0
  S  S19  1  1.33391718  1.66602458  1.49998794  1.0
  S  S20  1  0.82853911  1.35604703  1.15811920  1.0
  S  S21  1  1.19792783  0.67041991  0.84188080  1.0
  S  S22  1  1.32958009  1.17146089  0.52750792  1.0
  S  S23  1  1.64395297  1.80207217  1.47249208  1.0
  S  S24  1  1.03027179  1.70265237  1.15842341  1.0
  S  S25  1  1.54422896  0.87184838  0.84157659  1.0
  S  S26  1  1.12815162  0.96972821  0.67238058  1.0
  S  S27  1  1.29734763  1.45577104  1.32761942  1.0
  S  S28  1  1.12820449  1.45581148  1.15843798  1.0
  S  S29  1  1.29737351  0.96976651  0.84156202  1.0
  S  S30  1  1.03023349  0.87179551  0.32760699  1.0
  S  S31  1  1.54418852  1.70262649  1.67239301  1.0
  S  S32  1  1.32964152  1.80214840  1.15818653  1.0
  S  S33  1  1.64396187  1.17145499  0.84181347  1.0
  S  S34  1  0.82854501  0.67035848  0.47250688  1.0
  S  S35  1  1.19785160  1.35603813  1.52749312  1.0
  S  S36  1  0.99244307  0.49240456  0.98466593  1.0
  S  S37  1  0.50773863  1.00777714  1.01533407  1.0
  S  S38  1  0.99222286  1.00755693  1.49996149  1.0
  S  S39  1  0.50759544  0.49226137  0.50003851  1.0
  S  S40  1  0.85650369  1.54053773  1.31593179  1.0
  S  S41  1  1.22460594  0.54057190  0.68406821  1.0
  S  S42  1  1.45942810  1.14349631  0.68403404  1.0
  S  S43  1  1.45946227  1.77539406  1.31596596  1.0
  S  S44  1  0.82674112  0.17336307  0.99998255  1.0
  S  S45  1  0.17338052  0.82675857  1.00001745  1.0
  S  S46  1  1.17324143  1.17325888  1.34662195  1.0
  S  S47  1  0.82663693  0.82661948  0.65337805  1.0
