# generated using pymatgen
data_CoCN2
_symmetry_space_group_name_H-M   'P 1'
_cell_length_a   3.09457066
_cell_length_b   3.09457066
_cell_length_c   9.54104389
_cell_angle_alpha   90.00000000
_cell_angle_beta   90.00000000
_cell_angle_gamma   120.00000000
_symmetry_Int_Tables_number   1
_chemical_formula_structural   CoCN2
_chemical_formula_sum   'Co2 C2 N4'
_cell_volume   79.12747965
_cell_formula_units_Z   2
loop_
 _symmetry_equiv_pos_site_id
 _symmetry_equiv_pos_as_xyz
  1  'x, y, z'
loop_
 _atom_site_type_symbol
 _atom_site_label
 _atom_site_symmetry_multiplicity
 _atom_site_fract_x
 _atom_site_fract_y
 _atom_site_fract_z
 _atom_site_occupancy
  Co  Co0  1  0.00000000  0.00000000  0.50000000  1.0
  Co  Co1  1  0.00000000  0.00000000  0.00000000  1.0
  C  C2  1  0.33333333  0.66666667  0.25000000  1.0
  C  C3  1  0.66666667  0.33333333  0.75000000  1.0
  N  N4  1  0.33333333  0.66666667  0.37949192  1.0
  N  N5  1  0.33333333  0.66666667  0.12050808  1.0
  N  N6  1  0.66666667  0.33333333  0.87949192  1.0
  N  N7  1  0.66666667  0.33333333  0.62050808  1.0
