# generated using pymatgen
data_ZnPtO6
_symmetry_space_group_name_H-M   'P 1'
_cell_length_a   4.85403095
_cell_length_b   4.85403095
_cell_length_c   8.65161523
_cell_angle_alpha   90.00000000
_cell_angle_beta   90.00000000
_cell_angle_gamma   120.00000000
_symmetry_Int_Tables_number   1
_chemical_formula_structural   ZnPtO6
_chemical_formula_sum   'Zn2 Pt2 O12'
_cell_volume   176.53584880
_cell_formula_units_Z   2
loop_
 _symmetry_equiv_pos_site_id
 _symmetry_equiv_pos_as_xyz
  1  'x, y, z'
loop_
 _atom_site_type_symbol
 _atom_site_label
 _atom_site_symmetry_multiplicity
 _atom_site_fract_x
 _atom_site_fract_y
 _atom_site_fract_z
 _atom_site_occupancy
  Zn  Zn0  1  -0.00000000  0.00000000  -0.00000000  1.0
  Zn  Zn1  1  -0.00000000  -0.00000000  0.50000000  1.0
  Pt  Pt2  1  0.33333333  0.66666667  0.25000000  1.0
  Pt  Pt3  1  0.66666667  0.33333333  0.75000000  1.0
  O  O4  1  0.34740969  -0.00347273  0.12602679  1.0
  O  O5  1  0.34740969  0.35088243  0.37397321  1.0
  O  O6  1  -0.00347273  0.34740969  0.62602679  1.0
  O  O7  1  -0.00347273  0.64911757  0.87397321  1.0
  O  O8  1  0.64911757  -0.00347273  0.37397321  1.0
  O  O9  1  0.64911757  0.65259031  0.12602679  1.0
  O  O10  1  0.00347273  0.65259031  0.37397321  1.0
  O  O11  1  0.00347273  0.35088243  0.12602679  1.0
  O  O12  1  0.65259031  0.64911757  0.62602679  1.0
  O  O13  1  0.65259031  0.00347273  0.87397321  1.0
  O  O14  1  0.35088243  0.34740969  0.87397321  1.0
  O  O15  1  0.35088243  0.00347273  0.62602679  1.0
