# generated using pymatgen
data_Eu4Zn11
_symmetry_space_group_name_H-M   'P 1'
_cell_length_a   10.27639159
_cell_length_b   10.27639159
_cell_length_c   10.27639159
_cell_angle_alpha   97.42265250
_cell_angle_beta   97.42265250
_cell_angle_gamma   137.86999887
_symmetry_Int_Tables_number   1
_chemical_formula_structural   Eu4Zn11
_chemical_formula_sum   'Eu8 Zn22'
_cell_volume   679.33972978
_cell_formula_units_Z   2
loop_
 _symmetry_equiv_pos_site_id
 _symmetry_equiv_pos_as_xyz
  1  'x, y, z'
loop_
 _atom_site_type_symbol
 _atom_site_label
 _atom_site_symmetry_multiplicity
 _atom_site_fract_x
 _atom_site_fract_y
 _atom_site_fract_z
 _atom_site_occupancy
  Eu  Eu0  1  1.32304584  1.48648898  0.83655686  1.0
  Eu  Eu1  1  1.10006788  0.76351102  1.33655686  1.0
  Eu  Eu2  1  1.64993212  1.48648898  1.16344314  1.0
  Eu  Eu3  1  0.42695416  0.76351102  0.66344314  1.0
  Eu  Eu4  1  0.51351102  1.35006788  0.83655686  1.0
  Eu  Eu5  1  0.23648898  0.57304584  0.33655686  1.0
  Eu  Eu6  1  0.51351102  0.67695416  0.16344314  1.0
  Eu  Eu7  1  0.23648898  0.89993212  0.66344314  1.0
  Zn  Zn8  1  1.03295753  1.01720215  1.66870622  1.0
  Zn  Zn9  1  1.40150407  0.88574869  1.16870622  1.0
  Zn  Zn10  1  0.34849593  1.01720215  0.98424462  1.0
  Zn  Zn11  1  0.71704247  0.88574869  0.48424462  1.0
  Zn  Zn12  1  0.63574869  0.65150407  0.66870622  1.0
  Zn  Zn13  1  1.76720215  1.28295753  1.16870622  1.0
  Zn  Zn14  1  0.98279785  0.65150407  1.01575538  1.0
  Zn  Zn15  1  1.11425131  1.28295753  0.51575538  1.0
  Zn  Zn16  1  1.03295753  0.36425131  1.01575538  1.0
  Zn  Zn17  1  1.40150407  1.23279785  1.51575538  1.0
  Zn  Zn18  1  0.34849593  0.36425131  0.33129378  1.0
  Zn  Zn19  1  0.71704247  1.23279785  0.83129378  1.0
  Zn  Zn20  1  0.63574869  0.96704247  0.98424462  1.0
  Zn  Zn21  1  1.76720215  1.59849593  1.48424462  1.0
  Zn  Zn22  1  0.98279785  0.96704247  1.33129378  1.0
  Zn  Zn23  1  1.11425131  1.59849593  0.83129378  1.0
  Zn  Zn24  1  0.00000000  0.00000000  0.00000000  1.0
  Zn  Zn25  1  0.75000000  1.25000000  0.50000000  1.0
  Zn  Zn26  1  1.37500000  1.12500000  1.25000000  1.0
  Zn  Zn27  1  0.87500000  1.12500000  0.75000000  1.0
  Zn  Zn28  1  0.87500000  1.12500000  0.25000000  1.0
  Zn  Zn29  1  0.87500000  1.62500000  0.75000000  1.0
