# generated using pymatgen
data_BaGdFe4O7
_symmetry_space_group_name_H-M   'P 1'
_cell_length_a   6.36674048
_cell_length_b   6.36674048
_cell_length_c   10.60937386
_cell_angle_alpha   90.00000000
_cell_angle_beta   90.00000000
_cell_angle_gamma   120.00000000
_symmetry_Int_Tables_number   1
_chemical_formula_structural   BaGdFe4O7
_chemical_formula_sum   'Ba2 Gd2 Fe8 O14'
_cell_volume   372.43859547
_cell_formula_units_Z   2
loop_
 _symmetry_equiv_pos_site_id
 _symmetry_equiv_pos_as_xyz
  1  'x, y, z'
loop_
 _atom_site_type_symbol
 _atom_site_label
 _atom_site_symmetry_multiplicity
 _atom_site_fract_x
 _atom_site_fract_y
 _atom_site_fract_z
 _atom_site_occupancy
  Ba  Ba0  1  0.33333333  0.66666667  0.48866508  1.0
  Ba  Ba1  1  0.66666667  0.33333333  0.98866508  1.0
  Gd  Gd2  1  0.33333333  0.66666667  0.09593514  1.0
  Gd  Gd3  1  0.66666667  0.33333333  0.59593514  1.0
  Fe  Fe4  1  0.31009681  0.15504840  0.27583988  1.0
  Fe  Fe5  1  0.15504840  0.31009681  0.77583988  1.0
  Fe  Fe6  1  0.15504840  0.84495160  0.77583988  1.0
  Fe  Fe7  1  0.84495160  0.15504840  0.27583988  1.0
  Fe  Fe8  1  0.84495160  0.68990319  0.27583988  1.0
  Fe  Fe9  1  0.68990319  0.84495160  0.77583988  1.0
  Fe  Fe10  1  0.00000000  0.00000000  -0.02789886  1.0
  Fe  Fe11  1  0.00000000  0.00000000  0.47210114  1.0
  O  O12  1  0.98295728  0.49147864  0.21221348  1.0
  O  O13  1  0.49147864  0.98295728  0.71221348  1.0
  O  O14  1  0.49147864  0.50852136  0.71221348  1.0
  O  O15  1  0.50852136  0.49147864  0.21221348  1.0
  O  O16  1  0.50852136  0.01704272  0.21221348  1.0
  O  O17  1  0.01704272  0.50852136  0.71221348  1.0
  O  O18  1  0.34578092  0.17289046  0.45755691  1.0
  O  O19  1  0.17289046  0.34578092  0.95755691  1.0
  O  O20  1  0.17289046  0.82710954  0.95755691  1.0
  O  O21  1  0.82710954  0.17289046  0.45755691  1.0
  O  O22  1  0.82710954  0.65421908  0.45755691  1.0
  O  O23  1  0.65421908  0.82710954  0.95755691  1.0
  O  O24  1  0.00000000  0.00000000  0.17516782  1.0
  O  O25  1  0.00000000  0.00000000  0.67516782  1.0
