# generated using pymatgen
data_BaIn4Ir
_symmetry_space_group_name_H-M   'P 1'
_cell_length_a   8.76652570
_cell_length_b   4.45372739
_cell_length_c   8.06535840
_cell_angle_alpha   90.00000000
_cell_angle_beta   90.00000000
_cell_angle_gamma   90.00000000
_symmetry_Int_Tables_number   1
_chemical_formula_structural   BaIn4Ir
_chemical_formula_sum   'Ba2 In8 Ir2'
_cell_volume   314.90155968
_cell_formula_units_Z   2
loop_
 _symmetry_equiv_pos_site_id
 _symmetry_equiv_pos_as_xyz
  1  'x, y, z'
loop_
 _atom_site_type_symbol
 _atom_site_label
 _atom_site_symmetry_multiplicity
 _atom_site_fract_x
 _atom_site_fract_y
 _atom_site_fract_z
 _atom_site_occupancy
  Ba  Ba0  1  0.25000000  0.00000000  0.39381048  1.0
  Ba  Ba1  1  0.75000000  0.00000000  0.60618952  1.0
  In  In2  1  0.93138445  0.50000000  0.29790597  1.0
  In  In3  1  0.43138445  0.50000000  0.70209403  1.0
  In  In4  1  0.06861555  0.50000000  0.70209403  1.0
  In  In5  1  0.56861555  0.50000000  0.29790597  1.0
  In  In6  1  0.25000000  0.50000000  0.05634816  1.0
  In  In7  1  0.75000000  0.50000000  0.94365184  1.0
  In  In8  1  0.50000000  0.00000000  0.00000000  1.0
  In  In9  1  0.00000000  0.00000000  0.00000000  1.0
  Ir  Ir10  1  0.25000000  0.00000000  0.81683390  1.0
  Ir  Ir11  1  0.75000000  0.00000000  0.18316610  1.0
