# generated using pymatgen
data_Li3MnP2(O3F2)2
_symmetry_space_group_name_H-M   'P 1'
_cell_length_a   6.32066017
_cell_length_b   7.57084379
_cell_length_c   7.96198730
_cell_angle_alpha   90.00000000
_cell_angle_beta   91.64418852
_cell_angle_gamma   90.00000000
_symmetry_Int_Tables_number   1
_chemical_formula_structural   Li3MnP2(O3F2)2
_chemical_formula_sum   'Li6 Mn2 P4 O12 F8'
_cell_volume   380.84596957
_cell_formula_units_Z   2
loop_
 _symmetry_equiv_pos_site_id
 _symmetry_equiv_pos_as_xyz
  1  'x, y, z'
loop_
 _atom_site_type_symbol
 _atom_site_label
 _atom_site_symmetry_multiplicity
 _atom_site_fract_x
 _atom_site_fract_y
 _atom_site_fract_z
 _atom_site_occupancy
  Li  Li0  1  0.75717789  0.22894311  0.78688299  1.0
  Li  Li1  1  0.75717789  0.27105689  0.28688299  1.0
  Li  Li2  1  0.24282211  0.72894311  0.71311701  1.0
  Li  Li3  1  0.24282211  0.77105689  0.21311701  1.0
  Li  Li4  1  0.00000000  0.00000000  0.00000000  1.0
  Li  Li5  1  0.00000000  0.50000000  0.50000000  1.0
  Mn  Mn6  1  0.50000000  0.00000000  0.00000000  1.0
  Mn  Mn7  1  0.50000000  0.50000000  0.50000000  1.0
  P  P8  1  0.75345049  0.82842257  0.64981818  1.0
  P  P9  1  0.75345049  0.67157743  0.14981818  1.0
  P  P10  1  0.24654951  0.32842257  0.85018182  1.0
  P  P11  1  0.24654951  0.17157743  0.35018182  1.0
  O  O12  1  0.95510550  0.72492733  0.63244315  1.0
  O  O13  1  0.95510550  0.77507267  0.13244315  1.0
  O  O14  1  0.04489450  0.22492733  0.86755685  1.0
  O  O15  1  0.04489450  0.27507267  0.36755685  1.0
  O  O16  1  0.73953221  0.94748406  0.80478156  1.0
  O  O17  1  0.73953221  0.55251594  0.30478156  1.0
  O  O18  1  0.26046779  0.44748406  0.69521844  1.0
  O  O19  1  0.26046779  0.05251594  0.19521844  1.0
  O  O20  1  0.54808886  0.71485297  0.62704497  1.0
  O  O21  1  0.54808886  0.78514703  0.12704497  1.0
  O  O22  1  0.45191114  0.21485297  0.87295503  1.0
  O  O23  1  0.45191114  0.28514703  0.37295503  1.0
  F  F24  1  0.73908002  0.53774988  0.99392799  1.0
  F  F25  1  0.73908002  0.96225012  0.49392799  1.0
  F  F26  1  0.26091998  0.03774988  0.50607201  1.0
  F  F27  1  0.26091998  0.46225012  0.00607201  1.0
  F  F28  1  0.26872268  0.88686609  0.89416209  1.0
  F  F29  1  0.26872268  0.61313391  0.39416209  1.0
  F  F30  1  0.73127732  0.38686609  0.60583791  1.0
  F  F31  1  0.73127732  0.11313391  0.10583791  1.0
