# generated using pymatgen
data_LuNi
_symmetry_space_group_name_H-M   'P 1'
_cell_length_a   6.93244335
_cell_length_b   4.06900801
_cell_length_c   5.35096240
_cell_angle_alpha   90.00000000
_cell_angle_beta   90.00000000
_cell_angle_gamma   90.00000000
_symmetry_Int_Tables_number   1
_chemical_formula_structural   LuNi
_chemical_formula_sum   'Lu4 Ni4'
_cell_volume   150.94084351
_cell_formula_units_Z   4
loop_
 _symmetry_equiv_pos_site_id
 _symmetry_equiv_pos_as_xyz
  1  'x, y, z'
loop_
 _atom_site_type_symbol
 _atom_site_label
 _atom_site_symmetry_multiplicity
 _atom_site_fract_x
 _atom_site_fract_y
 _atom_site_fract_z
 _atom_site_occupancy
  Lu  Lu0  1  0.32067964  0.75000000  0.13179648  1.0
  Lu  Lu1  1  0.82067964  0.75000000  0.36820352  1.0
  Lu  Lu2  1  0.67932036  0.25000000  0.86820352  1.0
  Lu  Lu3  1  0.17932036  0.25000000  0.63179648  1.0
  Ni  Ni4  1  0.46346309  0.75000000  0.62723363  1.0
  Ni  Ni5  1  0.96346309  0.75000000  0.87276637  1.0
  Ni  Ni6  1  0.53653691  0.25000000  0.37276637  1.0
  Ni  Ni7  1  0.03653691  0.25000000  0.12723363  1.0
