# generated using pymatgen
data_TmH2ClO2
_symmetry_space_group_name_H-M   'P 1'
_cell_length_a   12.77887394
_cell_length_b   3.59343904
_cell_length_c   6.33130811
_cell_angle_alpha   90.00000000
_cell_angle_beta   90.00000000
_cell_angle_gamma   90.00000000
_symmetry_Int_Tables_number   1
_chemical_formula_structural   TmH2ClO2
_chemical_formula_sum   'Tm4 H8 Cl4 O8'
_cell_volume   290.73432974
_cell_formula_units_Z   4
loop_
 _symmetry_equiv_pos_site_id
 _symmetry_equiv_pos_as_xyz
  1  'x, y, z'
loop_
 _atom_site_type_symbol
 _atom_site_label
 _atom_site_symmetry_multiplicity
 _atom_site_fract_x
 _atom_site_fract_y
 _atom_site_fract_z
 _atom_site_occupancy
  Tm  Tm0  1  0.44831093  0.75000000  0.25207141  1.0
  Tm  Tm1  1  0.94831093  0.75000000  0.24792859  1.0
  Tm  Tm2  1  0.55168907  0.25000000  0.74792859  1.0
  Tm  Tm3  1  0.05168907  0.25000000  0.75207141  1.0
  H  H4  1  0.38228446  0.75000000  0.81437061  1.0
  H  H5  1  0.88228446  0.75000000  0.68562939  1.0
  H  H6  1  0.61771554  0.25000000  0.18562939  1.0
  H  H7  1  0.11771554  0.25000000  0.31437061  1.0
  H  H8  1  0.15481239  0.75000000  0.03935368  1.0
  H  H9  1  0.65481239  0.75000000  0.46064632  1.0
  H  H10  1  0.84518761  0.25000000  0.96064632  1.0
  H  H11  1  0.34518761  0.25000000  0.53935368  1.0
  Cl  Cl12  1  0.21165122  0.75000000  0.61515625  1.0
  Cl  Cl13  1  0.71165122  0.75000000  0.88484375  1.0
  Cl  Cl14  1  0.78834878  0.25000000  0.38484375  1.0
  Cl  Cl15  1  0.28834878  0.25000000  0.11515625  1.0
  O  O16  1  0.45367252  0.75000000  0.87066777  1.0
  O  O17  1  0.95367252  0.75000000  0.62933223  1.0
  O  O18  1  0.54632748  0.25000000  0.12933223  1.0
  O  O19  1  0.04632748  0.25000000  0.37066777  1.0
  O  O20  1  0.08117230  0.75000000  0.99690116  1.0
  O  O21  1  0.58117230  0.75000000  0.50309884  1.0
  O  O22  1  0.91882770  0.25000000  0.00309884  1.0
  O  O23  1  0.41882770  0.25000000  0.49690116  1.0
