# generated using pymatgen
data_Ag5TePO4
_symmetry_space_group_name_H-M   'P 1'
_cell_length_a   7.08579254
_cell_length_b   7.08579254
_cell_length_c   7.43418491
_cell_angle_alpha   90.00000000
_cell_angle_beta   90.00000000
_cell_angle_gamma   90.00000000
_symmetry_Int_Tables_number   1
_chemical_formula_structural   Ag5TePO4
_chemical_formula_sum   'Ag10 Te2 P2 O8'
_cell_volume   373.25894520
_cell_formula_units_Z   2
loop_
 _symmetry_equiv_pos_site_id
 _symmetry_equiv_pos_as_xyz
  1  'x, y, z'
loop_
 _atom_site_type_symbol
 _atom_site_label
 _atom_site_symmetry_multiplicity
 _atom_site_fract_x
 _atom_site_fract_y
 _atom_site_fract_z
 _atom_site_occupancy
  Ag  Ag0  1  0.77761539  0.72238461  0.20030877  1.0
  Ag  Ag1  1  0.22238461  0.72238461  0.20030877  1.0
  Ag  Ag2  1  0.77761539  0.27761539  0.20030877  1.0
  Ag  Ag3  1  0.22238461  0.27761539  0.20030877  1.0
  Ag  Ag4  1  0.72238461  0.77761539  0.79969123  1.0
  Ag  Ag5  1  0.27761539  0.77761539  0.79969123  1.0
  Ag  Ag6  1  0.72238461  0.22238461  0.79969123  1.0
  Ag  Ag7  1  0.27761539  0.22238461  0.79969123  1.0
  Ag  Ag8  1  0.00000000  0.50000000  0.46231198  1.0
  Ag  Ag9  1  0.50000000  0.00000000  0.53768802  1.0
  Te  Te10  1  0.00000000  0.50000000  -0.01156562  1.0
  Te  Te11  1  0.50000000  0.00000000  1.01156562  1.0
  P  P12  1  0.50000000  0.50000000  0.50000000  1.0
  P  P13  1  0.00000000  0.00000000  0.50000000  1.0
  O  O14  1  0.50000000  0.31748225  0.37980838  1.0
  O  O15  1  0.50000000  0.68251775  0.37980838  1.0
  O  O16  1  0.81748225  0.00000000  0.37980838  1.0
  O  O17  1  0.18251775  -0.00000000  0.37980838  1.0
  O  O18  1  0.00000000  0.18251775  0.62019162  1.0
  O  O19  1  -0.00000000  0.81748225  0.62019162  1.0
  O  O20  1  0.68251775  0.50000000  0.62019162  1.0
  O  O21  1  0.31748225  0.50000000  0.62019162  1.0
