# generated using pymatgen
data_BaLi2(MgSi)2
_symmetry_space_group_name_H-M   'P 1'
_cell_length_a   9.11705688
_cell_length_b   9.11705688
_cell_length_c   9.11705688
_cell_angle_alpha   29.02020214
_cell_angle_beta   29.02020214
_cell_angle_gamma   29.02020214
_symmetry_Int_Tables_number   1
_chemical_formula_structural   BaLi2(MgSi)2
_chemical_formula_sum   'Ba1 Li2 Mg2 Si2'
_cell_volume   157.74820722
_cell_formula_units_Z   1
loop_
 _symmetry_equiv_pos_site_id
 _symmetry_equiv_pos_as_xyz
  1  'x, y, z'
loop_
 _atom_site_type_symbol
 _atom_site_label
 _atom_site_symmetry_multiplicity
 _atom_site_fract_x
 _atom_site_fract_y
 _atom_site_fract_z
 _atom_site_occupancy
  Ba  Ba0  1  0.00000000  0.00000000  0.00000000  1.0
  Li  Li1  1  1.56941657  0.56941657  0.56941657  1.0
  Li  Li2  1  1.43058343  0.43058343  0.43058343  1.0
  Mg  Mg3  1  0.86420349  0.86420349  0.86420349  1.0
  Mg  Mg4  1  1.13579651  1.13579651  0.13579651  1.0
  Si  Si5  1  0.75802564  0.75802564  0.75802564  1.0
  Si  Si6  1  1.24197436  1.24197436  0.24197436  1.0
