# generated using pymatgen
data_KAuF4
_symmetry_space_group_name_H-M   'P 1'
_cell_length_a   7.23492341
_cell_length_b   7.23492341
_cell_length_c   7.23492341
_cell_angle_alpha   129.07762892
_cell_angle_beta   129.07762892
_cell_angle_gamma   74.88569760
_symmetry_Int_Tables_number   1
_chemical_formula_structural   KAuF4
_chemical_formula_sum   'K2 Au2 F8'
_cell_volume   222.27698850
_cell_formula_units_Z   2
loop_
 _symmetry_equiv_pos_site_id
 _symmetry_equiv_pos_as_xyz
  1  'x, y, z'
loop_
 _atom_site_type_symbol
 _atom_site_label
 _atom_site_symmetry_multiplicity
 _atom_site_fract_x
 _atom_site_fract_y
 _atom_site_fract_z
 _atom_site_occupancy
  K  K0  1  0.75000000  0.75000000  1.00000000  1.0
  K  K1  1  0.25000000  0.25000000  0.00000000  1.0
  Au  Au2  1  0.50000000  0.00000000  0.50000000  1.0
  Au  Au3  1  -0.00000000  0.50000000  0.50000000  1.0
  F  F4  1  1.22264345  0.72264345  1.18394915  1.0
  F  F5  1  0.46130570  0.96130570  1.18394915  1.0
  F  F6  1  1.03869430  1.22264345  1.50000000  1.0
  F  F7  1  0.27735655  0.46130570  0.50000000  1.0
  F  F8  1  0.72264345  0.53869430  0.50000000  1.0
  F  F9  1  0.96130570  0.77735655  1.50000000  1.0
  F  F10  1  0.53869430  1.03869430  0.81605085  1.0
  F  F11  1  0.77735655  0.27735655  0.81605085  1.0
