# generated using pymatgen
data_Ge4Rh
_symmetry_space_group_name_H-M   'P 1'
_cell_length_a   6.25808895
_cell_length_b   6.25808895
_cell_length_c   7.91956311
_cell_angle_alpha   90.00000000
_cell_angle_beta   90.00000000
_cell_angle_gamma   120.00000000
_symmetry_Int_Tables_number   1
_chemical_formula_structural   Ge4Rh
_chemical_formula_sum   'Ge12 Rh3'
_cell_volume   268.60575831
_cell_formula_units_Z   3
loop_
 _symmetry_equiv_pos_site_id
 _symmetry_equiv_pos_as_xyz
  1  'x, y, z'
loop_
 _atom_site_type_symbol
 _atom_site_label
 _atom_site_symmetry_multiplicity
 _atom_site_fract_x
 _atom_site_fract_y
 _atom_site_fract_z
 _atom_site_occupancy
  Ge  Ge0  1  0.26298606  0.77573545  0.11169962  1.0
  Ge  Ge1  1  0.77573545  0.26298606  0.88830038  1.0
  Ge  Ge2  1  0.51274939  0.73701394  0.77836629  1.0
  Ge  Ge3  1  0.22426455  0.48725061  0.44503295  1.0
  Ge  Ge4  1  0.73701394  0.51274939  0.22163371  1.0
  Ge  Ge5  1  0.48725061  0.22426455  0.55496705  1.0
  Ge  Ge6  1  0.92051407  0.92051407  0.00000000  1.0
  Ge  Ge7  1  -0.00000000  0.07948593  0.66666667  1.0
  Ge  Ge8  1  0.07948593  0.00000000  0.33333333  1.0
  Ge  Ge9  1  0.38385162  0.38385162  -0.00000000  1.0
  Ge  Ge10  1  -0.00000000  0.61614838  0.66666667  1.0
  Ge  Ge11  1  0.61614838  0.00000000  0.33333333  1.0
  Rh  Rh12  1  0.68443758  0.68443758  0.50000000  1.0
  Rh  Rh13  1  -0.00000000  0.31556242  0.16666667  1.0
  Rh  Rh14  1  0.31556242  0.00000000  0.83333333  1.0
