# generated using pymatgen
data_Sr5Cr3ClO12
_symmetry_space_group_name_H-M   'P 1'
_cell_length_a   10.32334673
_cell_length_b   10.32334673
_cell_length_c   7.30493973
_cell_angle_alpha   90.00000000
_cell_angle_beta   90.00000000
_cell_angle_gamma   120.00000000
_symmetry_Int_Tables_number   1
_chemical_formula_structural   Sr5Cr3ClO12
_chemical_formula_sum   'Sr10 Cr6 Cl2 O24'
_cell_volume   674.19929993
_cell_formula_units_Z   2
loop_
 _symmetry_equiv_pos_site_id
 _symmetry_equiv_pos_as_xyz
  1  'x, y, z'
loop_
 _atom_site_type_symbol
 _atom_site_label
 _atom_site_symmetry_multiplicity
 _atom_site_fract_x
 _atom_site_fract_y
 _atom_site_fract_z
 _atom_site_occupancy
  Sr  Sr0  1  1.00572493  0.74960237  0.26265333  1.0
  Sr  Sr1  1  0.74960237  0.74387744  0.76265333  1.0
  Sr  Sr2  1  0.74387744  -0.00572493  0.26265333  1.0
  Sr  Sr3  1  0.25039763  0.25612256  0.26265333  1.0
  Sr  Sr4  1  -0.00572493  0.25039763  0.76265333  1.0
  Sr  Sr5  1  0.25612256  1.00572493  0.76265333  1.0
  Sr  Sr6  1  0.33333333  0.66666667  0.01134227  1.0
  Sr  Sr7  1  0.66666667  0.33333333  0.51134227  1.0
  Sr  Sr8  1  0.33333333  0.66666667  0.51378986  1.0
  Sr  Sr9  1  0.66666667  0.33333333  0.01378986  1.0
  Cr  Cr10  1  0.37455187  0.96702209  0.26243181  1.0
  Cr  Cr11  1  0.96702209  0.59247022  0.76243181  1.0
  Cr  Cr12  1  0.59247022  0.62544813  0.26243181  1.0
  Cr  Cr13  1  0.03297791  0.40752978  0.26243181  1.0
  Cr  Cr14  1  0.62544813  0.03297791  0.76243181  1.0
  Cr  Cr15  1  0.40752978  0.37455187  0.76243181  1.0
  Cl  Cl16  1  0.00000000  0.00000000  0.01482342  1.0
  Cl  Cl17  1  0.00000000  0.00000000  0.51482342  1.0
  O  O18  1  0.26025935  0.90538784  0.07579623  1.0
  O  O19  1  0.90538784  0.64512849  0.57579623  1.0
  O  O20  1  0.64512849  0.73974065  0.07579623  1.0
  O  O21  1  0.09461216  0.35487151  0.07579623  1.0
  O  O22  1  0.73974065  0.09461216  0.57579623  1.0
  O  O23  1  0.35487151  0.26025935  0.57579623  1.0
  O  O24  1  0.25997710  0.90589983  0.44885992  1.0
  O  O25  1  0.90589983  0.64592273  0.94885992  1.0
  O  O26  1  0.64592273  0.74002290  0.44885992  1.0
  O  O27  1  0.09410017  0.35407727  0.44885992  1.0
  O  O28  1  0.74002290  0.09410017  0.94885992  1.0
  O  O29  1  0.35407727  0.25997710  0.94885992  1.0
  O  O30  1  0.46911055  0.86898545  0.26280101  1.0
  O  O31  1  0.86898545  0.39987490  0.76280101  1.0
  O  O32  1  0.39987490  0.53088945  0.26280101  1.0
  O  O33  1  0.13101455  0.60012510  0.26280101  1.0
  O  O34  1  0.53088945  0.13101455  0.76280101  1.0
  O  O35  1  0.60012510  0.46911055  0.76280101  1.0
  O  O36  1  0.66757090  0.51124550  0.26230585  1.0
  O  O37  1  0.51124550  0.84367460  0.76230585  1.0
  O  O38  1  0.84367460  0.33242910  0.26230585  1.0
  O  O39  1  0.48875450  0.15632540  0.26230585  1.0
  O  O40  1  0.33242910  0.48875450  0.76230585  1.0
  O  O41  1  0.15632540  0.66757090  0.76230585  1.0
