# generated using pymatgen
data_KTlF4
_symmetry_space_group_name_H-M   'P 1'
_cell_length_a   8.20693068
_cell_length_b   8.20693068
_cell_length_c   10.40446786
_cell_angle_alpha   90.00000000
_cell_angle_beta   90.00000000
_cell_angle_gamma   120.00000000
_symmetry_Int_Tables_number   1
_chemical_formula_structural   KTlF4
_chemical_formula_sum   'K6 Tl6 F24'
_cell_volume   606.89286950
_cell_formula_units_Z   6
loop_
 _symmetry_equiv_pos_site_id
 _symmetry_equiv_pos_as_xyz
  1  'x, y, z'
loop_
 _atom_site_type_symbol
 _atom_site_label
 _atom_site_symmetry_multiplicity
 _atom_site_fract_x
 _atom_site_fract_y
 _atom_site_fract_z
 _atom_site_occupancy
  K  K0  1  0.51628858  0.83245465  0.78195179  1.0
  K  K1  1  0.31616607  0.48371142  0.44861846  1.0
  K  K2  1  0.16754535  0.68383393  0.11528512  1.0
  K  K3  1  0.48695111  0.32000456  0.75922057  1.0
  K  K4  1  0.83305345  0.51304889  0.42588724  1.0
  K  K5  1  0.67999544  0.16694655  0.09255390  1.0
  Tl  Tl6  1  1.00523380  0.82614710  0.77550653  1.0
  Tl  Tl7  1  0.82091330  -0.00523380  0.44217319  1.0
  Tl  Tl8  1  0.17385290  0.17908670  0.10883986  1.0
  Tl  Tl9  1  0.63665489  0.64388817  0.10535156  1.0
  Tl  Tl10  1  1.00723328  0.36334511  0.77201823  1.0
  Tl  Tl11  1  0.35611183  -0.00723328  0.43868490  1.0
  F  F12  1  0.17638001  0.97235865  0.96340081  1.0
  F  F13  1  0.79597865  0.82361999  0.63006747  1.0
  F  F14  1  0.02764135  0.20402135  0.29673414  1.0
  F  F15  1  0.05817538  0.93686352  0.44473771  1.0
  F  F16  1  0.87868814  0.94182462  0.11140438  1.0
  F  F17  1  0.06313648  0.12131186  0.77807105  1.0
  F  F18  1  0.27247822  0.94568732  0.66558112  1.0
  F  F19  1  0.67320910  0.72752178  0.33224778  1.0
  F  F20  1  0.05431268  0.32679090  -0.00108555  1.0
  F  F21  1  0.50730365  0.79748815  0.03658592  1.0
  F  F22  1  0.29018450  0.49269635  0.70325259  1.0
  F  F23  1  0.20251185  0.70981550  0.36991925  1.0
  F  F24  1  0.74221895  0.67977177  0.89092808  1.0
  F  F25  1  0.93755282  0.25778105  0.55759475  1.0
  F  F26  1  0.32022823  0.06244718  0.22426142  1.0
  F  F27  1  0.12383569  0.65041798  0.86505832  1.0
  F  F28  1  0.52658229  0.87616431  0.53172498  1.0
  F  F29  1  0.34958202  0.47341771  0.19839165  1.0
  F  F30  1  0.88417882  0.53764794  0.67671935  1.0
  F  F31  1  0.65346911  0.11582118  0.34338602  1.0
  F  F32  1  0.46235206  0.34653089  0.01005269  1.0
  F  F33  1  0.80354215  0.52617220  0.16595824  1.0
  F  F34  1  0.72263005  0.19645785  0.83262490  1.0
  F  F35  1  0.47382780  0.27736995  0.49929157  1.0
