# generated using pymatgen
data_PrNiC2
_symmetry_space_group_name_H-M   'P 1'
_cell_length_a   3.79526333
_cell_length_b   3.79526333
_cell_length_c   3.82612311
_cell_angle_alpha   90.00000000
_cell_angle_beta   90.00000000
_cell_angle_gamma   106.24345420
_symmetry_Int_Tables_number   1
_chemical_formula_structural   PrNiC2
_chemical_formula_sum   'Pr1 Ni1 C2'
_cell_volume   52.91161439
_cell_formula_units_Z   1
loop_
 _symmetry_equiv_pos_site_id
 _symmetry_equiv_pos_as_xyz
  1  'x, y, z'
loop_
 _atom_site_type_symbol
 _atom_site_label
 _atom_site_symmetry_multiplicity
 _atom_site_fract_x
 _atom_site_fract_y
 _atom_site_fract_z
 _atom_site_occupancy
  Pr  Pr0  1  0.38317837  0.61682163  0.50000000  1.0
  Ni  Ni1  1  -0.00766536  0.00766536  0.00000000  1.0
  C  C2  1  -0.46860956  1.16730345  0.00000000  1.0
  C  C3  1  -0.16730345  1.46860956  0.00000000  1.0
