# generated using pymatgen
data_Rb4Ge(PS3)4
_symmetry_space_group_name_H-M   'P 1'
_cell_length_a   7.70603382
_cell_length_b   7.70603382
_cell_length_c   24.27473902
_cell_angle_alpha   80.15970395
_cell_angle_beta   99.84029605
_cell_angle_gamma   113.91450220
_symmetry_Int_Tables_number   1
_chemical_formula_structural   Rb4Ge(PS3)4
_chemical_formula_sum   'Rb8 Ge2 P8 S24'
_cell_volume   1290.07714556
_cell_formula_units_Z   2
loop_
 _symmetry_equiv_pos_site_id
 _symmetry_equiv_pos_as_xyz
  1  'x, y, z'
loop_
 _atom_site_type_symbol
 _atom_site_label
 _atom_site_symmetry_multiplicity
 _atom_site_fract_x
 _atom_site_fract_y
 _atom_site_fract_z
 _atom_site_occupancy
  Rb  Rb0  1  0.79477003  0.17300085  0.95369280  1.0
  Rb  Rb1  1  0.82699915  0.20522997  0.45369280  1.0
  Rb  Rb2  1  1.17300085  -0.20522997  0.54630720  1.0
  Rb  Rb3  1  1.20522997  -0.17300085  0.04630720  1.0
  Rb  Rb4  1  0.53017077  0.33176497  0.68062103  1.0
  Rb  Rb5  1  0.66823503  0.46982923  0.18062103  1.0
  Rb  Rb6  1  1.33176497  -0.46982923  0.81937897  1.0
  Rb  Rb7  1  1.46982923  -0.33176497  0.31937897  1.0
  Ge  Ge8  1  0.97404982  0.97404982  0.75000000  1.0
  Ge  Ge9  1  0.02595018  0.02595018  0.25000000  1.0
  P  P10  1  1.71002802  -0.10167048  0.62851311  1.0
  P  P11  1  1.10167048  -0.71002802  0.12851311  1.0
  P  P12  1  0.89832952  0.71002802  0.87148689  1.0
  P  P13  1  0.28997198  0.10167048  0.37148689  1.0
  P  P14  1  1.20832859  -0.07595944  0.88299004  1.0
  P  P15  1  1.07595944  -0.20832859  0.38299004  1.0
  P  P16  1  0.92404056  0.20832859  0.61700996  1.0
  P  P17  1  0.79167141  0.07595944  0.11700996  1.0
  S  S18  1  1.78023737  -0.09981734  0.81723713  1.0
  S  S19  1  1.09981734  -0.78023737  0.31723713  1.0
  S  S20  1  0.90018266  0.78023737  0.68276287  1.0
  S  S21  1  0.21976263  0.09981734  0.18276287  1.0
  S  S22  1  1.65015323  -0.20986714  0.55604895  1.0
  S  S23  1  1.20986714  -0.65015323  0.05604895  1.0
  S  S24  1  0.79013286  0.65015323  0.94395105  1.0
  S  S25  1  0.34984677  0.20986714  0.44395105  1.0
  S  S26  1  1.49664714  -0.12720826  0.67009934  1.0
  S  S27  1  1.12720826  -0.49664714  0.17009934  1.0
  S  S28  1  0.87279174  0.49664714  0.82990066  1.0
  S  S29  1  0.50335286  0.12720826  0.32990066  1.0
  S  S30  1  1.37306553  -0.21418217  0.92121423  1.0
  S  S31  1  1.21418217  -0.37306553  0.42121423  1.0
  S  S32  1  0.78581783  0.37306553  0.57878577  1.0
  S  S33  1  0.62693447  0.21418217  0.07878577  1.0
  S  S34  1  1.26407263  -0.00587116  0.79423618  1.0
  S  S35  1  1.00587116  -0.26407263  0.29423618  1.0
  S  S36  1  0.99412884  0.26407263  0.70576382  1.0
  S  S37  1  0.73592737  0.00587116  0.20576382  1.0
  S  S38  1  0.22635669  0.14808690  0.91729491  1.0
  S  S39  1  0.85191310  0.77364331  0.41729491  1.0
  S  S40  1  1.14808690  -0.77364331  0.58270509  1.0
  S  S41  1  1.77364331  -0.14808690  0.08270509  1.0
