# generated using pymatgen
data_V2H
_symmetry_space_group_name_H-M   'P 1'
_cell_length_a   2.66267800
_cell_length_b   2.66267800
_cell_length_c   4.45216062
_cell_angle_alpha   84.07692232
_cell_angle_beta   95.92307768
_cell_angle_gamma   112.71534731
_symmetry_Int_Tables_number   1
_chemical_formula_structural   V2H
_chemical_formula_sum   'V2 H1'
_cell_volume   28.89225738
_cell_formula_units_Z   1
loop_
 _symmetry_equiv_pos_site_id
 _symmetry_equiv_pos_as_xyz
  1  'x, y, z'
loop_
 _atom_site_type_symbol
 _atom_site_label
 _atom_site_symmetry_multiplicity
 _atom_site_fract_x
 _atom_site_fract_y
 _atom_site_fract_z
 _atom_site_occupancy
  V  V0  1  0.72966694  -0.72966694  0.26791131  1.0
  V  V1  1  0.27033306  -0.27033306  0.73208869  1.0
  H  H2  1  0.00000000  0.00000000  0.00000000  1.0
