# generated using pymatgen
data_Na2CuH4(SO5)2
_symmetry_space_group_name_H-M   'P 1'
_cell_length_a   5.95492653
_cell_length_b   12.77974758
_cell_length_c   5.71789740
_cell_angle_alpha   90.00000000
_cell_angle_beta   110.12973448
_cell_angle_gamma   90.00000000
_symmetry_Int_Tables_number   1
_chemical_formula_structural   Na2CuH4(SO5)2
_chemical_formula_sum   'Na4 Cu2 H8 S4 O20'
_cell_volume   408.56548868
_cell_formula_units_Z   2
loop_
 _symmetry_equiv_pos_site_id
 _symmetry_equiv_pos_as_xyz
  1  'x, y, z'
loop_
 _atom_site_type_symbol
 _atom_site_label
 _atom_site_symmetry_multiplicity
 _atom_site_fract_x
 _atom_site_fract_y
 _atom_site_fract_z
 _atom_site_occupancy
  Na  Na0  1  0.42445885  0.87531597  0.79710386  1.0
  Na  Na1  1  0.42445885  0.62468403  0.29710386  1.0
  Na  Na2  1  0.57554115  0.37531597  0.70289614  1.0
  Na  Na3  1  0.57554115  0.12468403  0.20289614  1.0
  Cu  Cu4  1  0.00000000  0.00000000  0.00000000  1.0
  Cu  Cu5  1  0.00000000  0.50000000  0.50000000  1.0
  H  H6  1  0.29740975  0.64492979  0.71909285  1.0
  H  H7  1  0.29740975  0.85507021  0.21909285  1.0
  H  H8  1  0.70259025  0.14492979  0.78090715  1.0
  H  H9  1  0.70259025  0.35507021  0.28090715  1.0
  H  H10  1  0.93417674  0.19866950  0.97425720  1.0
  H  H11  1  0.93417674  0.30133050  0.47425720  1.0
  H  H12  1  0.06582326  0.69866950  0.52574280  1.0
  H  H13  1  0.06582326  0.80133050  0.02574280  1.0
  S  S14  1  0.75273966  0.61970824  0.96695059  1.0
  S  S15  1  0.75273966  0.88029176  0.46695059  1.0
  S  S16  1  0.24726034  0.11970824  0.53304941  1.0
  S  S17  1  0.24726034  0.38029176  0.03304941  1.0
  O  O18  1  0.98162271  0.82285697  0.52726643  1.0
  O  O19  1  0.98162271  0.67714303  0.02726643  1.0
  O  O20  1  0.01837729  0.32285697  0.97273357  1.0
  O  O21  1  0.01837729  0.17714303  0.47273357  1.0
  O  O22  1  0.83121367  0.36531552  0.44690854  1.0
  O  O23  1  0.83121367  0.13468448  0.94690854  1.0
  O  O24  1  0.16878633  0.86531552  0.05309146  1.0
  O  O25  1  0.16878633  0.63468448  0.55309146  1.0
  O  O26  1  0.75930465  0.95252430  0.68272061  1.0
  O  O27  1  0.75930465  0.54747570  0.18272061  1.0
  O  O28  1  0.24069535  0.45252430  0.81727939  1.0
  O  O29  1  0.24069535  0.04747570  0.31727939  1.0
  O  O30  1  0.70337918  0.55603650  0.73688992  1.0
  O  O31  1  0.70337918  0.94396350  0.23688992  1.0
  O  O32  1  0.29662082  0.05603650  0.76311008  1.0
  O  O33  1  0.29662082  0.44396350  0.26311008  1.0
  O  O34  1  0.54640361  0.69241735  0.93919177  1.0
  O  O35  1  0.54640361  0.80758265  0.43919177  1.0
  O  O36  1  0.45359639  0.19241735  0.56080823  1.0
  O  O37  1  0.45359639  0.30758265  0.06080823  1.0
