# generated using pymatgen
data_Ti(TlS)4
_symmetry_space_group_name_H-M   'P 1'
_cell_length_a   8.55974239
_cell_length_b   8.51325112
_cell_length_c   16.09075765
_cell_angle_alpha   90.00000000
_cell_angle_beta   106.17720017
_cell_angle_gamma   90.00000000
_symmetry_Int_Tables_number   1
_chemical_formula_structural   Ti(TlS)4
_chemical_formula_sum   'Ti4 Tl16 S16'
_cell_volume   1126.12571872
_cell_formula_units_Z   4
loop_
 _symmetry_equiv_pos_site_id
 _symmetry_equiv_pos_as_xyz
  1  'x, y, z'
loop_
 _atom_site_type_symbol
 _atom_site_label
 _atom_site_symmetry_multiplicity
 _atom_site_fract_x
 _atom_site_fract_y
 _atom_site_fract_z
 _atom_site_occupancy
  Ti  Ti0  1  0.79307058  0.39378942  0.12189676  1.0
  Ti  Ti1  1  0.79307058  0.10621058  0.62189676  1.0
  Ti  Ti2  1  0.20692942  0.89378942  0.37810324  1.0
  Ti  Ti3  1  0.20692942  0.60621058  0.87810324  1.0
  Tl  Tl4  1  0.96876653  0.51715657  0.35942383  1.0
  Tl  Tl5  1  0.96876653  0.98284343  0.85942383  1.0
  Tl  Tl6  1  0.03123347  0.01715657  0.14057617  1.0
  Tl  Tl7  1  0.03123347  0.48284343  0.64057617  1.0
  Tl  Tl8  1  0.82695961  0.10798282  0.38412131  1.0
  Tl  Tl9  1  0.82695961  0.39201718  0.88412131  1.0
  Tl  Tl10  1  0.17304039  0.60798282  0.11587869  1.0
  Tl  Tl11  1  0.17304039  0.89201718  0.61587869  1.0
  Tl  Tl12  1  0.38655367  0.27908482  0.36247689  1.0
  Tl  Tl13  1  0.38655367  0.22091518  0.86247689  1.0
  Tl  Tl14  1  0.61344633  0.77908482  0.13752311  1.0
  Tl  Tl15  1  0.61344633  0.72091518  0.63752311  1.0
  Tl  Tl16  1  0.41868249  0.18912906  0.11175701  1.0
  Tl  Tl17  1  0.41868249  0.31087094  0.61175701  1.0
  Tl  Tl18  1  0.58131751  0.68912906  0.38824299  1.0
  Tl  Tl19  1  0.58131751  0.81087094  0.88824299  1.0
  S  S20  1  0.95123483  0.84564377  0.29051953  1.0
  S  S21  1  0.95123483  0.65435623  0.79051953  1.0
  S  S22  1  0.04876517  0.34564377  0.20948047  1.0
  S  S23  1  0.04876517  0.15435623  0.70948047  1.0
  S  S24  1  0.70327458  0.17813698  0.04094699  1.0
  S  S25  1  0.70327458  0.32186302  0.54094699  1.0
  S  S26  1  0.29672542  0.67813698  0.45905301  1.0
  S  S27  1  0.29672542  0.82186302  0.95905301  1.0
  S  S28  1  0.62229251  0.45048764  0.20318615  1.0
  S  S29  1  0.62229251  0.04951236  0.70318615  1.0
  S  S30  1  0.37770749  0.95048764  0.29681385  1.0
  S  S31  1  0.37770749  0.54951236  0.79681385  1.0
  S  S32  1  0.18944976  0.10736280  0.46202246  1.0
  S  S33  1  0.18944976  0.39263720  0.96202246  1.0
  S  S34  1  0.81055024  0.60736280  0.03797754  1.0
  S  S35  1  0.81055024  0.89263720  0.53797754  1.0
