# generated using pymatgen
data_Tl2O
_symmetry_space_group_name_H-M   'P 1'
_cell_length_a   13.32472341
_cell_length_b   13.32472341
_cell_length_c   13.32472341
_cell_angle_alpha   15.66264515
_cell_angle_beta   15.66264515
_cell_angle_gamma   15.66264515
_symmetry_Int_Tables_number   1
_chemical_formula_structural   Tl2O
_chemical_formula_sum   'Tl4 O2'
_cell_volume   150.25915259
_cell_formula_units_Z   2
loop_
 _symmetry_equiv_pos_site_id
 _symmetry_equiv_pos_as_xyz
  1  'x, y, z'
loop_
 _atom_site_type_symbol
 _atom_site_label
 _atom_site_symmetry_multiplicity
 _atom_site_fract_x
 _atom_site_fract_y
 _atom_site_fract_z
 _atom_site_occupancy
  Tl  Tl0  1  0.78821766  0.78821766  0.78821766  1.0
  Tl  Tl1  1  1.21178234  1.21178234  0.21178234  1.0
  Tl  Tl2  1  1.62143813  0.62143813  0.62143813  1.0
  Tl  Tl3  1  1.37856187  0.37856187  0.37856187  1.0
  O  O4  1  0.91669935  0.91669935  0.91669935  1.0
  O  O5  1  1.08330065  1.08330065  0.08330065  1.0
