# generated using pymatgen
data_Re9(Ni2Mo)2
_symmetry_space_group_name_H-M   'P 1'
_cell_length_a   9.24159466
_cell_length_b   9.24159466
_cell_length_c   4.89390147
_cell_angle_alpha   90.00000000
_cell_angle_beta   90.00000000
_cell_angle_gamma   90.00000000
_symmetry_Int_Tables_number   1
_chemical_formula_structural   Re9(Ni2Mo)2
_chemical_formula_sum   'Re18 Ni8 Mo4'
_cell_volume   417.97379418
_cell_formula_units_Z   2
loop_
 _symmetry_equiv_pos_site_id
 _symmetry_equiv_pos_as_xyz
  1  'x, y, z'
loop_
 _atom_site_type_symbol
 _atom_site_label
 _atom_site_symmetry_multiplicity
 _atom_site_fract_x
 _atom_site_fract_y
 _atom_site_fract_z
 _atom_site_occupancy
  Re  Re0  1  0.50000000  0.50000000  0.50000000  1.0
  Re  Re1  1  0.00000000  0.00000000  0.00000000  1.0
  Re  Re2  1  0.36810486  0.96494615  0.50000000  1.0
  Re  Re3  1  0.63189514  0.03505385  0.50000000  1.0
  Re  Re4  1  0.13189514  0.46494615  0.00000000  1.0
  Re  Re5  1  0.86810486  0.53505385  0.00000000  1.0
  Re  Re6  1  0.96494615  0.36810486  0.50000000  1.0
  Re  Re7  1  0.03505385  0.63189514  0.50000000  1.0
  Re  Re8  1  0.46494615  0.13189514  0.00000000  1.0
  Re  Re9  1  0.53505385  0.86810486  0.00000000  1.0
  Re  Re10  1  0.31457874  0.68542126  0.24913226  1.0
  Re  Re11  1  0.68542126  0.31457874  0.24913226  1.0
  Re  Re12  1  0.18542126  0.18542126  0.74913226  1.0
  Re  Re13  1  0.81457874  0.81457874  0.74913226  1.0
  Re  Re14  1  0.68542126  0.31457874  0.75086774  1.0
  Re  Re15  1  0.31457874  0.68542126  0.75086774  1.0
  Re  Re16  1  0.81457874  0.81457874  0.25086774  1.0
  Re  Re17  1  0.18542126  0.18542126  0.25086774  1.0
  Ni  Ni18  1  0.43617483  0.23979953  0.50000000  1.0
  Ni  Ni19  1  0.56382517  0.76020047  0.50000000  1.0
  Ni  Ni20  1  0.06382517  0.73979953  0.00000000  1.0
  Ni  Ni21  1  0.93617483  0.26020047  0.00000000  1.0
  Ni  Ni22  1  0.23979953  0.43617483  0.50000000  1.0
  Ni  Ni23  1  0.76020047  0.56382517  0.50000000  1.0
  Ni  Ni24  1  0.73979953  0.06382517  0.00000000  1.0
  Ni  Ni25  1  0.26020047  0.93617483  0.00000000  1.0
  Mo  Mo26  1  0.10432226  0.89567774  0.50000000  1.0
  Mo  Mo27  1  0.89567774  0.10432226  0.50000000  1.0
  Mo  Mo28  1  0.39567774  0.39567774  0.00000000  1.0
  Mo  Mo29  1  0.60432226  0.60432226  0.00000000  1.0
