# generated using pymatgen
data_Li3VO4
_symmetry_space_group_name_H-M   'P 1'
_cell_length_a   10.90697908
_cell_length_b   6.34962986
_cell_length_c   5.13966436
_cell_angle_alpha   90.00000000
_cell_angle_beta   90.00000000
_cell_angle_gamma   90.00000000
_symmetry_Int_Tables_number   1
_chemical_formula_structural   Li3VO4
_chemical_formula_sum   'Li12 V4 O16'
_cell_volume   355.94889490
_cell_formula_units_Z   4
loop_
 _symmetry_equiv_pos_site_id
 _symmetry_equiv_pos_as_xyz
  1  'x, y, z'
loop_
 _atom_site_type_symbol
 _atom_site_label
 _atom_site_symmetry_multiplicity
 _atom_site_fract_x
 _atom_site_fract_y
 _atom_site_fract_z
 _atom_site_occupancy
  Li  Li0  1  0.57774700  0.25000000  0.69261099  1.0
  Li  Li1  1  0.07774700  0.25000000  0.80738901  1.0
  Li  Li2  1  0.42225300  0.75000000  0.30738901  1.0
  Li  Li3  1  0.92225300  0.75000000  0.19261099  1.0
  Li  Li4  1  0.66610002  0.99556763  0.31113195  1.0
  Li  Li5  1  0.66610002  0.50443237  0.31113195  1.0
  Li  Li6  1  0.16610002  0.99556763  0.18886805  1.0
  Li  Li7  1  0.16610002  0.50443237  0.18886805  1.0
  Li  Li8  1  0.33389998  0.49556763  0.68886805  1.0
  Li  Li9  1  0.33389998  0.00443237  0.68886805  1.0
  Li  Li10  1  0.83389998  0.49556763  0.81113195  1.0
  Li  Li11  1  0.83389998  0.00443237  0.81113195  1.0
  V  V12  1  0.91368130  0.25000000  0.31519650  1.0
  V  V13  1  0.41368130  0.25000000  0.18480350  1.0
  V  V14  1  0.08631870  0.75000000  0.68480350  1.0
  V  V15  1  0.58631870  0.75000000  0.81519650  1.0
  O  O16  1  0.83826789  0.47187619  0.20569157  1.0
  O  O17  1  0.83826789  0.02812381  0.20569157  1.0
  O  O18  1  0.33826789  0.47187619  0.29430843  1.0
  O  O19  1  0.33826789  0.02812381  0.29430843  1.0
  O  O20  1  0.16173211  0.97187619  0.79430843  1.0
  O  O21  1  0.16173211  0.52812381  0.79430843  1.0
  O  O22  1  0.66173211  0.97187619  0.70569157  1.0
  O  O23  1  0.66173211  0.52812381  0.70569157  1.0
  O  O24  1  0.91343132  0.25000000  0.65206228  1.0
  O  O25  1  0.41343132  0.25000000  0.84793772  1.0
  O  O26  1  0.08656868  0.75000000  0.34793772  1.0
  O  O27  1  0.58656868  0.75000000  0.15206228  1.0
  O  O28  1  0.56226780  0.25000000  0.29667967  1.0
  O  O29  1  0.06226780  0.25000000  0.20332033  1.0
  O  O30  1  0.43773220  0.75000000  0.70332033  1.0
  O  O31  1  0.93773220  0.75000000  0.79667967  1.0
