# generated using pymatgen
data_NaClO4
_symmetry_space_group_name_H-M   'P 1'
_cell_length_a   4.90948259
_cell_length_b   4.90948259
_cell_length_c   7.24782100
_cell_angle_alpha   90.00000000
_cell_angle_beta   90.00000000
_cell_angle_gamma   84.77127908
_symmetry_Int_Tables_number   1
_chemical_formula_structural   NaClO4
_chemical_formula_sum   'Na2 Cl2 O8'
_cell_volume   173.96743892
_cell_formula_units_Z   2
loop_
 _symmetry_equiv_pos_site_id
 _symmetry_equiv_pos_as_xyz
  1  'x, y, z'
loop_
 _atom_site_type_symbol
 _atom_site_label
 _atom_site_symmetry_multiplicity
 _atom_site_fract_x
 _atom_site_fract_y
 _atom_site_fract_z
 _atom_site_occupancy
  Na  Na0  1  -0.33531477  1.33531477  0.25000000  1.0
  Na  Na1  1  0.33531477  0.66468523  0.75000000  1.0
  Cl  Cl2  1  0.16948492  0.83051508  0.25000000  1.0
  Cl  Cl3  1  -0.16948492  1.16948492  0.75000000  1.0
  O  O4  1  0.87546896  0.79646989  0.25000000  1.0
  O  O5  1  0.79646989  0.87546896  0.75000000  1.0
  O  O6  1  0.20353011  0.12453104  0.25000000  1.0
  O  O7  1  0.12453104  0.20353011  0.75000000  1.0
  O  O8  1  0.30048455  0.69951545  0.41330797  1.0
  O  O9  1  0.30048455  0.69951545  0.08669203  1.0
  O  O10  1  -0.30048455  1.30048455  0.91330797  1.0
  O  O11  1  -0.30048455  1.30048455  0.58669203  1.0
