# generated using pymatgen
data_Y3BCl3
_symmetry_space_group_name_H-M   'P 1'
_cell_length_a   9.45950199
_cell_length_b   9.45950199
_cell_length_c   9.45950199
_cell_angle_alpha   109.47122063
_cell_angle_beta   109.47122063
_cell_angle_gamma   109.47122063
_symmetry_Int_Tables_number   1
_chemical_formula_structural   Y3BCl3
_chemical_formula_sum   'Y12 B4 Cl12'
_cell_volume   651.60277855
_cell_formula_units_Z   4
loop_
 _symmetry_equiv_pos_site_id
 _symmetry_equiv_pos_as_xyz
  1  'x, y, z'
loop_
 _atom_site_type_symbol
 _atom_site_label
 _atom_site_symmetry_multiplicity
 _atom_site_fract_x
 _atom_site_fract_y
 _atom_site_fract_z
 _atom_site_occupancy
  Y  Y0  1  1.75000000  1.23442217  1.26557783  1.0
  Y  Y1  1  0.75000000  1.01557783  0.48442217  1.0
  Y  Y2  1  1.03115566  0.26557783  1.01557783  1.0
  Y  Y3  1  0.46884434  0.48442217  0.23442217  1.0
  Y  Y4  1  1.26557783  1.01557783  1.03115566  1.0
  Y  Y5  1  1.23442217  1.26557783  0.75000000  1.0
  Y  Y6  1  1.01557783  1.03115566  0.26557783  1.0
  Y  Y7  1  1.48442217  0.75000000  1.01557783  1.0
  Y  Y8  1  1.01557783  1.48442217  0.75000000  1.0
  Y  Y9  1  1.48442217  1.23442217  1.46884434  1.0
  Y  Y10  1  0.23442217  0.46884434  0.48442217  1.0
  Y  Y11  1  1.26557783  0.75000000  1.23442217  1.0
  B  B12  1  1.50000000  1.00000000  1.25000000  1.0
  B  B13  1  1.00000000  1.25000000  0.50000000  1.0
  B  B14  1  0.25000000  0.25000000  0.25000000  1.0
  B  B15  1  1.25000000  0.50000000  1.00000000  1.0
  Cl  Cl16  1  0.51003148  0.50501574  0.75501574  1.0
  Cl  Cl17  1  0.98996852  0.74498426  0.99498426  1.0
  Cl  Cl18  1  1.25000000  0.75501574  0.74498426  1.0
  Cl  Cl19  1  1.25000000  0.99498426  0.50501574  1.0
  Cl  Cl20  1  0.99498426  1.50501574  1.25000000  1.0
  Cl  Cl21  1  1.50501574  1.75501574  1.51003148  1.0
  Cl  Cl22  1  0.74498426  0.25000000  0.75501574  1.0
  Cl  Cl23  1  0.75501574  0.51003148  0.50501574  1.0
  Cl  Cl24  1  0.99498426  0.98996852  0.74498426  1.0
  Cl  Cl25  1  1.50501574  1.25000000  0.99498426  1.0
  Cl  Cl26  1  0.75501574  0.74498426  0.25000000  1.0
  Cl  Cl27  1  1.74498426  0.99498426  0.98996852  1.0
