# generated using pymatgen
data_MoOs(PbO3)2
_symmetry_space_group_name_H-M   'P 1'
_cell_length_a   5.66936094
_cell_length_b   5.66936094
_cell_length_c   5.66936094
_cell_angle_alpha   119.98459365
_cell_angle_beta   119.98459365
_cell_angle_gamma   90.02668665
_symmetry_Int_Tables_number   1
_chemical_formula_structural   MoOs(PbO3)2
_chemical_formula_sum   'Mo1 Os1 Pb2 O6'
_cell_volume   128.88085086
_cell_formula_units_Z   1
loop_
 _symmetry_equiv_pos_site_id
 _symmetry_equiv_pos_as_xyz
  1  'x, y, z'
loop_
 _atom_site_type_symbol
 _atom_site_label
 _atom_site_symmetry_multiplicity
 _atom_site_fract_x
 _atom_site_fract_y
 _atom_site_fract_z
 _atom_site_occupancy
  Mo  Mo0  1  0.00000000  0.00000000  0.00000000  1.0
  Os  Os1  1  0.50000000  0.50000000  0.00000000  1.0
  Pb  Pb2  1  1.25000000  0.75000000  0.50000000  1.0
  Pb  Pb3  1  0.75000000  1.25000000  0.50000000  1.0
  O  O4  1  0.75289405  0.75289405  0.00000000  1.0
  O  O5  1  0.24710595  0.24710595  0.00000000  1.0
  O  O6  1  1.24711132  0.75288868  1.00000000  1.0
  O  O7  1  0.75288868  1.24711132  1.00000000  1.0
  O  O8  1  0.24711132  0.24711132  0.49422264  1.0
  O  O9  1  0.75288868  0.75288868  0.50577736  1.0
