# generated using pymatgen
data_CdH4NCl3
_symmetry_space_group_name_H-M   'P 1'
_cell_length_a   9.39314167
_cell_length_b   4.08547745
_cell_length_c   15.02542363
_cell_angle_alpha   90.00000000
_cell_angle_beta   90.00000000
_cell_angle_gamma   90.00000000
_symmetry_Int_Tables_number   1
_chemical_formula_structural   CdH4NCl3
_chemical_formula_sum   'Cd4 H16 N4 Cl12'
_cell_volume   576.60767133
_cell_formula_units_Z   4
loop_
 _symmetry_equiv_pos_site_id
 _symmetry_equiv_pos_as_xyz
  1  'x, y, z'
loop_
 _atom_site_type_symbol
 _atom_site_label
 _atom_site_symmetry_multiplicity
 _atom_site_fract_x
 _atom_site_fract_y
 _atom_site_fract_z
 _atom_site_occupancy
  Cd  Cd0  1  0.83805524  0.75000000  0.44178157  1.0
  Cd  Cd1  1  0.33805524  0.75000000  0.05821843  1.0
  Cd  Cd2  1  0.16194476  0.25000000  0.55821843  1.0
  Cd  Cd3  1  0.66194476  0.25000000  0.94178157  1.0
  H  H4  1  0.50975293  0.75000000  0.61634857  1.0
  H  H5  1  1.00975293  0.75000000  0.88365143  1.0
  H  H6  1  0.49024707  0.25000000  0.38365143  1.0
  H  H7  1  -0.00975293  0.25000000  0.11634857  1.0
  H  H8  1  0.89892456  0.45199355  0.19945533  1.0
  H  H9  1  0.89892456  0.04800645  0.19945533  1.0
  H  H10  1  0.39892456  0.45199355  0.30054467  1.0
  H  H11  1  0.39892456  0.04800645  0.30054467  1.0
  H  H12  1  0.10107544  0.95199355  0.80054467  1.0
  H  H13  1  0.10107544  0.54800645  0.80054467  1.0
  H  H14  1  0.60107544  0.95199355  0.69945533  1.0
  H  H15  1  0.60107544  0.54800645  0.69945533  1.0
  H  H16  1  0.94839232  0.75000000  0.77898692  1.0
  H  H17  1  0.44839232  0.75000000  0.72101308  1.0
  H  H18  1  0.05160768  0.25000000  0.22101308  1.0
  H  H19  1  0.55160768  0.25000000  0.27898692  1.0
  N  N20  1  0.53939665  0.75000000  0.68269995  1.0
  N  N21  1  0.03939665  0.75000000  0.81730005  1.0
  N  N22  1  0.46060335  0.25000000  0.31730005  1.0
  N  N23  1  0.96060335  0.25000000  0.18269995  1.0
  Cl  Cl24  1  0.97289248  0.75000000  0.59705569  1.0
  Cl  Cl25  1  0.47289248  0.75000000  0.90294431  1.0
  Cl  Cl26  1  0.02710752  0.25000000  0.40294431  1.0
  Cl  Cl27  1  0.52710752  0.25000000  0.09705569  1.0
  Cl  Cl28  1  0.82775642  0.75000000  -0.00643773  1.0
  Cl  Cl29  1  0.32775642  0.75000000  0.50643773  1.0
  Cl  Cl30  1  0.17224358  0.25000000  1.00643773  1.0
  Cl  Cl31  1  0.67224358  0.25000000  0.49356227  1.0
  Cl  Cl32  1  0.74723705  0.75000000  0.27952505  1.0
  Cl  Cl33  1  0.24723705  0.75000000  0.22047495  1.0
  Cl  Cl34  1  0.25276295  0.25000000  0.72047495  1.0
  Cl  Cl35  1  0.75276295  0.25000000  0.77952505  1.0
