# generated using pymatgen
data_Cs2CuCl4
_symmetry_space_group_name_H-M   'P 1'
_cell_length_a   10.03091276
_cell_length_b   7.69816416
_cell_length_c   12.59752247
_cell_angle_alpha   90.00000000
_cell_angle_beta   90.00000000
_cell_angle_gamma   90.00000000
_symmetry_Int_Tables_number   1
_chemical_formula_structural   Cs2CuCl4
_chemical_formula_sum   'Cs8 Cu4 Cl16'
_cell_volume   972.77581130
_cell_formula_units_Z   4
loop_
 _symmetry_equiv_pos_site_id
 _symmetry_equiv_pos_as_xyz
  1  'x, y, z'
loop_
 _atom_site_type_symbol
 _atom_site_label
 _atom_site_symmetry_multiplicity
 _atom_site_fract_x
 _atom_site_fract_y
 _atom_site_fract_z
 _atom_site_occupancy
  Cs  Cs0  1  0.86866318  0.75000000  0.39963389  1.0
  Cs  Cs1  1  0.36866318  0.75000000  0.10036611  1.0
  Cs  Cs2  1  0.13133682  0.25000000  0.60036611  1.0
  Cs  Cs3  1  0.63133682  0.25000000  0.89963389  1.0
  Cs  Cs4  1  0.49084101  0.75000000  0.67324850  1.0
  Cs  Cs5  1  0.99084101  0.75000000  0.82675150  1.0
  Cs  Cs6  1  0.50915899  0.25000000  0.32675150  1.0
  Cs  Cs7  1  0.00915899  0.25000000  0.17324850  1.0
  Cu  Cu8  1  0.77127094  0.75000000  0.08144843  1.0
  Cu  Cu9  1  0.27127094  0.75000000  0.41855157  1.0
  Cu  Cu10  1  0.22872906  0.25000000  0.91855157  1.0
  Cu  Cu11  1  0.72872906  0.25000000  0.58144843  1.0
  Cl  Cl12  1  0.71134820  0.01446312  0.14150828  1.0
  Cl  Cl13  1  0.71134820  0.48553688  0.14150828  1.0
  Cl  Cl14  1  0.21134820  0.01446312  0.35849172  1.0
  Cl  Cl15  1  0.21134820  0.48553688  0.35849172  1.0
  Cl  Cl16  1  0.28865180  0.51446312  0.85849172  1.0
  Cl  Cl17  1  0.28865180  -0.01446312  0.85849172  1.0
  Cl  Cl18  1  0.78865180  0.51446312  0.64150828  1.0
  Cl  Cl19  1  0.78865180  -0.01446312  0.64150828  1.0
  Cl  Cl20  1  0.99151907  0.75000000  0.12306175  1.0
  Cl  Cl21  1  0.49151907  0.75000000  0.37693825  1.0
  Cl  Cl22  1  0.00848093  0.25000000  0.87693825  1.0
  Cl  Cl23  1  0.50848093  0.25000000  0.62306175  1.0
  Cl  Cl24  1  0.15606878  0.75000000  0.57401251  1.0
  Cl  Cl25  1  0.65606878  0.75000000  0.92598749  1.0
  Cl  Cl26  1  0.84393122  0.25000000  0.42598749  1.0
  Cl  Cl27  1  0.34393122  0.25000000  0.07401251  1.0
