# generated using pymatgen
data_MnGe
_symmetry_space_group_name_H-M   'P 1'
_cell_length_a   4.75921590
_cell_length_b   4.75921590
_cell_length_c   4.75921590
_cell_angle_alpha   90.00000000
_cell_angle_beta   90.00000000
_cell_angle_gamma   90.00000000
_symmetry_Int_Tables_number   1
_chemical_formula_structural   MnGe
_chemical_formula_sum   'Mn4 Ge4'
_cell_volume   107.79688739
_cell_formula_units_Z   4
loop_
 _symmetry_equiv_pos_site_id
 _symmetry_equiv_pos_as_xyz
  1  'x, y, z'
loop_
 _atom_site_type_symbol
 _atom_site_label
 _atom_site_symmetry_multiplicity
 _atom_site_fract_x
 _atom_site_fract_y
 _atom_site_fract_z
 _atom_site_occupancy
  Mn  Mn0  1  0.11323040  0.61323040  0.88676960  1.0
  Mn  Mn1  1  0.61323040  0.88676960  0.11323040  1.0
  Mn  Mn2  1  0.88676960  0.11323040  0.61323040  1.0
  Mn  Mn3  1  0.38676960  0.38676960  0.38676960  1.0
  Ge  Ge4  1  0.40692724  0.90692724  0.59307276  1.0
  Ge  Ge5  1  0.90692724  0.59307276  0.40692724  1.0
  Ge  Ge6  1  0.59307276  0.40692724  0.90692724  1.0
  Ge  Ge7  1  0.09307276  0.09307276  0.09307276  1.0
