# generated using pymatgen
data_LiZnPO4
_symmetry_space_group_name_H-M   'P 1'
_cell_length_a   8.56498012
_cell_length_b   8.56498012
_cell_length_c   8.56498012
_cell_angle_alpha   107.89112895
_cell_angle_beta   107.89112895
_cell_angle_gamma   107.89112895
_symmetry_Int_Tables_number   1
_chemical_formula_structural   LiZnPO4
_chemical_formula_sum   'Li6 Zn6 P6 O24'
_cell_volume   510.01419179
_cell_formula_units_Z   6
loop_
 _symmetry_equiv_pos_site_id
 _symmetry_equiv_pos_as_xyz
  1  'x, y, z'
loop_
 _atom_site_type_symbol
 _atom_site_label
 _atom_site_symmetry_multiplicity
 _atom_site_fract_x
 _atom_site_fract_y
 _atom_site_fract_z
 _atom_site_occupancy
  Li  Li0  1  0.51919615  1.30067229  -0.29745196  1.0
  Li  Li1  1  1.30067229  0.70254804  -0.48080385  1.0
  Li  Li2  1  0.70254804  0.51919615  0.30067229  1.0
  Li  Li3  1  0.81226976  0.98409474  0.21804395  1.0
  Li  Li4  1  0.98409474  1.21804395  -0.18773024  1.0
  Li  Li5  1  1.21804395  0.81226976  -0.01590526  1.0
  Zn  Zn6  1  1.14351416  0.32626923  -0.45428995  1.0
  Zn  Zn7  1  1.32626923  -0.45428995  0.14351416  1.0
  Zn  Zn8  1  0.54571005  0.14351416  0.32626923  1.0
  Zn  Zn9  1  1.03261286  0.85996328  -0.37215247  1.0
  Zn  Zn10  1  0.85996328  0.62784753  0.03261286  1.0
  Zn  Zn11  1  0.62784753  1.03261286  -0.14003672  1.0
  P  P12  1  1.18466751  -0.03410227  0.37228200  1.0
  P  P13  1  0.96589773  0.37228200  0.18466751  1.0
  P  P14  1  1.37228200  0.18466751  -0.03410227  1.0
  P  P15  1  1.65901910  -0.11832807  0.47572494  1.0
  P  P16  1  0.88167193  0.47572494  0.65901910  1.0
  P  P17  1  1.47572494  0.65901910  -0.11832807  1.0
  O  O18  1  0.38458705  1.11181247  -0.55191257  1.0
  O  O19  1  1.11181247  0.44808743  -0.61541295  1.0
  O  O20  1  0.44808743  0.38458705  0.11181247  1.0
  O  O21  1  1.11127036  -0.16661064  0.16582364  1.0
  O  O22  1  0.83338936  0.16582364  0.11127036  1.0
  O  O23  1  1.16582364  0.11127036  -0.16661064  1.0
  O  O24  1  1.45756528  -0.26289791  0.39957259  1.0
  O  O25  1  0.73710209  0.39957259  0.45756528  1.0
  O  O26  1  1.39957259  0.45756528  -0.26289791  1.0
  O  O27  1  1.06160840  0.06624724  -0.60912406  1.0
  O  O28  1  1.06624724  -0.60912406  0.06160840  1.0
  O  O29  1  0.39087594  0.06160840  0.06624724  1.0
  O  O30  1  1.17621359  -0.14574644  0.48562416  1.0
  O  O31  1  0.85425356  0.48562416  0.17621359  1.0
  O  O32  1  1.48562416  0.17621359  -0.14574644  1.0
  O  O33  1  1.67227538  -0.00917300  0.36051181  1.0
  O  O34  1  0.99082700  0.36051181  0.67227538  1.0
  O  O35  1  1.36051181  0.67227538  -0.00917300  1.0
  O  O36  1  0.77858508  0.77768546  0.45730442  1.0
  O  O37  1  0.77768546  1.45730442  -0.22141492  1.0
  O  O38  1  1.45730442  0.77858508  -0.22231454  1.0
  O  O39  1  0.73252541  1.01598819  -0.31914121  1.0
  O  O40  1  1.01598819  0.68085879  -0.26747459  1.0
  O  O41  1  0.68085879  0.73252541  0.01598819  1.0
