# generated using pymatgen
data_GaF3
_symmetry_space_group_name_H-M   'P 1'
_cell_length_a   7.27222416
_cell_length_b   7.27222416
_cell_length_c   7.44302647
_cell_angle_alpha   90.00000000
_cell_angle_beta   90.00000000
_cell_angle_gamma   119.52810240
_symmetry_Int_Tables_number   1
_chemical_formula_structural   GaF3
_chemical_formula_sum   'Ga6 F18'
_cell_volume   342.49975726
_cell_formula_units_Z   6
loop_
 _symmetry_equiv_pos_site_id
 _symmetry_equiv_pos_as_xyz
  1  'x, y, z'
loop_
 _atom_site_type_symbol
 _atom_site_label
 _atom_site_symmetry_multiplicity
 _atom_site_fract_x
 _atom_site_fract_y
 _atom_site_fract_z
 _atom_site_occupancy
  Ga  Ga0  1  -0.00000000  1.50000000  0.50000000  1.0
  Ga  Ga1  1  -0.00000000  1.50000000  0.00000000  1.0
  Ga  Ga2  1  0.50000000  1.00000000  0.00000000  1.0
  Ga  Ga3  1  0.50000000  1.00000000  0.50000000  1.0
  Ga  Ga4  1  0.00000000  0.00000000  0.50000000  1.0
  Ga  Ga5  1  0.00000000  0.00000000  0.00000000  1.0
  F  F6  1  0.08281857  0.29072793  0.45731283  1.0
  F  F7  1  0.08281857  0.29072793  0.04268717  1.0
  F  F8  1  -0.70927207  1.08281857  0.95731283  1.0
  F  F9  1  -0.70927207  1.08281857  0.54268717  1.0
  F  F10  1  0.70927207  0.91718143  0.45731283  1.0
  F  F11  1  0.70927207  0.91718143  0.04268717  1.0
  F  F12  1  -0.08281857  1.70927207  0.95731283  1.0
  F  F13  1  -0.08281857  1.70927207  0.54268717  1.0
  F  F14  1  -0.06895734  1.49350938  0.25000000  1.0
  F  F15  1  0.49350938  0.93104266  0.75000000  1.0
  F  F16  1  -0.49350938  1.06895734  0.25000000  1.0
  F  F17  1  0.06895734  0.50649062  0.75000000  1.0
  F  F18  1  0.28570352  0.71429648  0.45238825  1.0
  F  F19  1  0.28570352  0.71429648  0.04761175  1.0
  F  F20  1  -0.28570352  1.28570352  0.95238825  1.0
  F  F21  1  -0.28570352  1.28570352  0.54761175  1.0
  F  F22  1  0.03771254  0.96228746  0.25000000  1.0
  F  F23  1  -0.03771254  1.03771254  0.75000000  1.0
