# generated using pymatgen
data_Gd2Co4P3
_symmetry_space_group_name_H-M   'P 1'
_cell_length_a   12.54222647
_cell_length_b   12.54222647
_cell_length_c   3.77609404
_cell_angle_alpha   90.00000000
_cell_angle_beta   90.00000000
_cell_angle_gamma   120.00000000
_symmetry_Int_Tables_number   1
_chemical_formula_structural   Gd2Co4P3
_chemical_formula_sum   'Gd8 Co16 P12'
_cell_volume   514.42576244
_cell_formula_units_Z   4
loop_
 _symmetry_equiv_pos_site_id
 _symmetry_equiv_pos_as_xyz
  1  'x, y, z'
loop_
 _atom_site_type_symbol
 _atom_site_label
 _atom_site_symmetry_multiplicity
 _atom_site_fract_x
 _atom_site_fract_y
 _atom_site_fract_z
 _atom_site_occupancy
  Gd  Gd0  1  0.17960503  0.17960503  0.50000000  1.0
  Gd  Gd1  1  0.00000000  0.82039497  0.50000000  1.0
  Gd  Gd2  1  0.82039497  0.00000000  0.50000000  1.0
  Gd  Gd3  1  0.55713628  0.55713628  -0.00000000  1.0
  Gd  Gd4  1  -0.00000000  0.44286372  -0.00000000  1.0
  Gd  Gd5  1  0.44286372  -0.00000000  -0.00000000  1.0
  Gd  Gd6  1  0.33333333  0.66666667  -0.00000000  1.0
  Gd  Gd7  1  0.66666667  0.33333333  -0.00000000  1.0
  Co  Co8  1  0.12055573  0.65065044  0.50000000  1.0
  Co  Co9  1  0.65065044  0.12055573  0.50000000  1.0
  Co  Co10  1  0.53009471  0.87944427  0.50000000  1.0
  Co  Co11  1  0.34934956  0.46990529  0.50000000  1.0
  Co  Co12  1  0.87944427  0.53009471  0.50000000  1.0
  Co  Co13  1  0.46990529  0.34934956  0.50000000  1.0
  Co  Co14  1  0.19096866  0.82145083  -0.00000000  1.0
  Co  Co15  1  0.82145083  0.19096866  0.00000000  1.0
  Co  Co16  1  0.63048218  0.80903134  -0.00000000  1.0
  Co  Co17  1  0.17854917  0.36951782  -0.00000000  1.0
  Co  Co18  1  0.80903134  0.63048218  -0.00000000  1.0
  Co  Co19  1  0.36951782  0.17854917  -0.00000000  1.0
  Co  Co20  1  0.72620888  0.72620888  0.50000000  1.0
  Co  Co21  1  0.00000000  0.27379112  0.50000000  1.0
  Co  Co22  1  0.27379112  0.00000000  0.50000000  1.0
  Co  Co23  1  0.00000000  0.00000000  0.00000000  1.0
  P  P24  1  0.29629501  0.82496723  0.50000000  1.0
  P  P25  1  0.82496723  0.29629501  0.50000000  1.0
  P  P26  1  0.52867222  0.70370499  0.50000000  1.0
  P  P27  1  0.17503277  0.47132778  0.50000000  1.0
  P  P28  1  0.70370499  0.52867222  0.50000000  1.0
  P  P29  1  0.47132778  0.17503277  0.50000000  1.0
  P  P30  1  0.82114162  0.82114162  -0.00000000  1.0
  P  P31  1  0.00000000  0.17885838  -0.00000000  1.0
  P  P32  1  0.17885838  -0.00000000  -0.00000000  1.0
  P  P33  1  0.34602388  0.34602388  -0.00000000  1.0
  P  P34  1  -0.00000000  0.65397612  0.00000000  1.0
  P  P35  1  0.65397612  -0.00000000  0.00000000  1.0
