# generated using pymatgen
data_Y(ZnP)3
_symmetry_space_group_name_H-M   'P 1'
_cell_length_a   3.99917749
_cell_length_b   3.99917749
_cell_length_c   19.88446152
_cell_angle_alpha   90.00000000
_cell_angle_beta   90.00000000
_cell_angle_gamma   120.00000000
_symmetry_Int_Tables_number   1
_chemical_formula_structural   Y(ZnP)3
_chemical_formula_sum   'Y2 Zn6 P6'
_cell_volume   275.41388072
_cell_formula_units_Z   2
loop_
 _symmetry_equiv_pos_site_id
 _symmetry_equiv_pos_as_xyz
  1  'x, y, z'
loop_
 _atom_site_type_symbol
 _atom_site_label
 _atom_site_symmetry_multiplicity
 _atom_site_fract_x
 _atom_site_fract_y
 _atom_site_fract_z
 _atom_site_occupancy
  Y  Y0  1  -0.00000000  -0.00000000  0.50000000  1.0
  Y  Y1  1  0.00000000  0.00000000  0.00000000  1.0
  Zn  Zn2  1  0.33333333  0.66666667  0.37175361  1.0
  Zn  Zn3  1  0.33333333  0.66666667  0.12824639  1.0
  Zn  Zn4  1  0.66666667  0.33333333  0.87175361  1.0
  Zn  Zn5  1  0.66666667  0.33333333  0.62824639  1.0
  Zn  Zn6  1  0.33333333  0.66666667  0.75000000  1.0
  Zn  Zn7  1  0.66666667  0.33333333  0.25000000  1.0
  P  P8  1  0.33333333  0.66666667  0.91617264  1.0
  P  P9  1  0.33333333  0.66666667  0.58382736  1.0
  P  P10  1  0.66666667  0.33333333  0.41617264  1.0
  P  P11  1  0.66666667  0.33333333  0.08382736  1.0
  P  P12  1  0.33333333  0.66666667  0.25000000  1.0
  P  P13  1  0.66666667  0.33333333  0.75000000  1.0
