# generated using pymatgen
data_Bi2CO5
_symmetry_space_group_name_H-M   'P 1'
_cell_length_a   5.61002426
_cell_length_b   28.09084201
_cell_length_c   5.54325287
_cell_angle_alpha   90.00000000
_cell_angle_beta   90.00000000
_cell_angle_gamma   90.00000000
_symmetry_Int_Tables_number   1
_chemical_formula_structural   Bi2CO5
_chemical_formula_sum   'Bi16 C8 O40'
_cell_volume   873.56291059
_cell_formula_units_Z   8
loop_
 _symmetry_equiv_pos_site_id
 _symmetry_equiv_pos_as_xyz
  1  'x, y, z'
loop_
 _atom_site_type_symbol
 _atom_site_label
 _atom_site_symmetry_multiplicity
 _atom_site_fract_x
 _atom_site_fract_y
 _atom_site_fract_z
 _atom_site_occupancy
  Bi  Bi0  1  0.48632830  0.54466358  0.46853137  1.0
  Bi  Bi1  1  -0.01367170  0.95533642  0.46853137  1.0
  Bi  Bi2  1  0.51367170  0.45533642  0.96853137  1.0
  Bi  Bi3  1  1.01367170  0.04466358  0.96853137  1.0
  Bi  Bi4  1  0.48620724  0.04464174  0.46859628  1.0
  Bi  Bi5  1  -0.01379276  0.45535826  0.46859628  1.0
  Bi  Bi6  1  0.51379276  0.95535826  0.96859628  1.0
  Bi  Bi7  1  1.01379276  0.54464174  0.96859628  1.0
  Bi  Bi8  1  0.48684979  0.70533485  0.46809814  1.0
  Bi  Bi9  1  -0.01315021  0.79466515  0.46809814  1.0
  Bi  Bi10  1  0.51315021  0.29466515  0.96809814  1.0
  Bi  Bi11  1  1.01315021  0.20533485  0.96809814  1.0
  Bi  Bi12  1  0.51414517  0.79463318  0.96808472  1.0
  Bi  Bi13  1  0.01414517  0.70536682  0.96808472  1.0
  Bi  Bi14  1  0.48585483  0.20536682  0.46808472  1.0
  Bi  Bi15  1  0.98585483  0.29463318  0.46808472  1.0
  C  C16  1  0.51910778  0.87498360  0.49654999  1.0
  C  C17  1  0.01910778  0.62501640  0.49654999  1.0
  C  C18  1  0.48089222  0.12501640  -0.00345001  1.0
  C  C19  1  0.98089222  0.37498360  -0.00345001  1.0
  C  C20  1  0.98118117  0.87499781  -0.00335038  1.0
  C  C21  1  0.48118117  0.62500219  -0.00335038  1.0
  C  C22  1  0.01881883  0.12500219  0.49664962  1.0
  C  C23  1  0.51881883  0.37499781  0.49664962  1.0
  O  O24  1  0.41998832  0.66542329  0.89875277  1.0
  O  O25  1  -0.08001168  0.83457671  0.89875277  1.0
  O  O26  1  0.58001168  0.33457671  0.39875277  1.0
  O  O27  1  1.08001168  0.16542329  0.39875277  1.0
  O  O28  1  0.58070181  0.91538961  0.39869760  1.0
  O  O29  1  0.08070181  0.58461039  0.39869760  1.0
  O  O30  1  0.41929819  0.08461039  0.89869760  1.0
  O  O31  1  0.91929819  0.41538961  0.89869760  1.0
  O  O32  1  0.58115206  0.83461526  0.39861755  1.0
  O  O33  1  0.08115206  0.66538474  0.39861755  1.0
  O  O34  1  0.41884794  0.16538474  0.89861755  1.0
  O  O35  1  0.91884794  0.33461526  0.89861755  1.0
  O  O36  1  0.60229670  0.62493021  0.19381012  1.0
  O  O37  1  0.10229670  0.87506979  0.19381012  1.0
  O  O38  1  0.39770330  0.37506979  0.69381012  1.0
  O  O39  1  0.89770330  0.12493021  0.69381012  1.0
  O  O40  1  0.60234613  0.12504776  0.19347644  1.0
  O  O41  1  0.10234613  0.37495224  0.19347644  1.0
  O  O42  1  0.39765387  0.87495224  0.69347644  1.0
  O  O43  1  0.89765387  0.62504776  0.69347644  1.0
  O  O44  1  0.75444494  0.24923714  0.21269734  1.0
  O  O45  1  0.25444494  0.25076286  0.21269734  1.0
  O  O46  1  0.24555506  0.75076286  0.71269734  1.0
  O  O47  1  0.74555506  0.74923714  0.71269734  1.0
  O  O48  1  0.75498423  0.00072524  0.21306391  1.0
  O  O49  1  0.25498423  0.49927476  0.21306391  1.0
  O  O50  1  0.24501577  0.99927476  0.71306391  1.0
  O  O51  1  0.74501577  0.50072524  0.71306391  1.0
  O  O52  1  0.75494120  0.50076656  0.21306612  1.0
  O  O53  1  0.25494120  0.99923344  0.21306612  1.0
  O  O54  1  0.24505880  0.49923344  0.71306612  1.0
  O  O55  1  0.74505880  0.00076656  0.71306612  1.0
  O  O56  1  0.75541831  0.74924332  0.21274947  1.0
  O  O57  1  0.25541831  0.75075668  0.21274947  1.0
  O  O58  1  0.24458169  0.25075668  0.71274947  1.0
  O  O59  1  0.74458169  0.24924332  0.71274947  1.0
  O  O60  1  0.91905973  0.91534459  0.89855857  1.0
  O  O61  1  0.41905973  0.58465541  0.89855857  1.0
  O  O62  1  0.08094027  0.08465541  0.39855857  1.0
  O  O63  1  0.58094027  0.41534459  0.39855857  1.0
