# generated using pymatgen
data_RbCuAg2(CN)4
_symmetry_space_group_name_H-M   'P 1'
_cell_length_a   7.82432811
_cell_length_b   7.80083923
_cell_length_c   7.92958316
_cell_angle_alpha   90.00000000
_cell_angle_beta   102.51407792
_cell_angle_gamma   90.00000000
_symmetry_Int_Tables_number   1
_chemical_formula_structural   RbCuAg2(CN)4
_chemical_formula_sum   'Rb2 Cu2 Ag4 C8 N8'
_cell_volume   472.49430899
_cell_formula_units_Z   2
loop_
 _symmetry_equiv_pos_site_id
 _symmetry_equiv_pos_as_xyz
  1  'x, y, z'
loop_
 _atom_site_type_symbol
 _atom_site_label
 _atom_site_symmetry_multiplicity
 _atom_site_fract_x
 _atom_site_fract_y
 _atom_site_fract_z
 _atom_site_occupancy
  Rb  Rb0  1  0.50000000  0.75310808  0.75000000  1.0
  Rb  Rb1  1  0.50000000  0.24689192  0.25000000  1.0
  Cu  Cu2  1  0.50000000  0.74486374  0.25000000  1.0
  Cu  Cu3  1  0.50000000  0.25513626  0.75000000  1.0
  Ag  Ag4  1  -0.00000000  0.00000000  0.50000000  1.0
  Ag  Ag5  1  0.00000000  0.00000000  0.00000000  1.0
  Ag  Ag6  1  0.00000000  0.58764106  0.75000000  1.0
  Ag  Ag7  1  0.00000000  0.41235894  0.25000000  1.0
  C  C8  1  0.21486631  0.91984221  0.41158584  1.0
  C  C9  1  0.78513369  0.91984221  0.08841416  1.0
  C  C10  1  0.78513369  0.08015779  0.58841416  1.0
  C  C11  1  0.21486631  0.08015779  0.91158584  1.0
  C  C12  1  0.21078749  0.59867727  0.95475921  1.0
  C  C13  1  0.78921251  0.59867727  0.54524079  1.0
  C  C14  1  0.78921251  0.40132273  0.04524079  1.0
  C  C15  1  0.21078749  0.40132273  0.45475921  1.0
  N  N16  1  0.33655801  0.87167597  0.36064001  1.0
  N  N17  1  0.66344199  0.87167597  0.13935999  1.0
  N  N18  1  0.66344199  0.12832403  0.63935999  1.0
  N  N19  1  0.33655801  0.12832403  0.86064001  1.0
  N  N20  1  0.33285059  0.61965186  0.06843541  1.0
  N  N21  1  0.66714941  0.61965186  0.43156459  1.0
  N  N22  1  0.66714941  0.38034814  0.93156459  1.0
  N  N23  1  0.33285059  0.38034814  0.56843541  1.0
