# generated using pymatgen
data_Tl2Ru2O7
_symmetry_space_group_name_H-M   'P 1'
_cell_length_a   7.34404096
_cell_length_b   7.34358502
_cell_length_c   10.32842972
_cell_angle_alpha   90.00000000
_cell_angle_beta   90.00000000
_cell_angle_gamma   90.00000000
_symmetry_Int_Tables_number   1
_chemical_formula_structural   Tl2Ru2O7
_chemical_formula_sum   'Tl8 Ru8 O28'
_cell_volume   557.02862860
_cell_formula_units_Z   4
loop_
 _symmetry_equiv_pos_site_id
 _symmetry_equiv_pos_as_xyz
  1  'x, y, z'
loop_
 _atom_site_type_symbol
 _atom_site_label
 _atom_site_symmetry_multiplicity
 _atom_site_fract_x
 _atom_site_fract_y
 _atom_site_fract_z
 _atom_site_occupancy
  Tl  Tl0  1  0.24991736  0.75000000  0.24996117  1.0
  Tl  Tl1  1  0.74991736  0.75000000  0.25003883  1.0
  Tl  Tl2  1  0.75008264  0.25000000  0.75003883  1.0
  Tl  Tl3  1  0.25008264  0.25000000  0.74996117  1.0
  Tl  Tl4  1  0.50000000  0.00000000  0.00000000  1.0
  Tl  Tl5  1  0.50000000  0.50000000  0.00000000  1.0
  Tl  Tl6  1  0.00000000  0.00000000  0.50000000  1.0
  Tl  Tl7  1  0.00000000  0.50000000  0.50000000  1.0
  Ru  Ru8  1  0.25011875  0.75000000  0.75005122  1.0
  Ru  Ru9  1  0.75011875  0.75000000  0.74994878  1.0
  Ru  Ru10  1  0.74988125  0.25000000  0.24994878  1.0
  Ru  Ru11  1  0.24988125  0.25000000  0.25005122  1.0
  Ru  Ru12  1  0.50000000  0.00000000  0.50000000  1.0
  Ru  Ru13  1  0.50000000  0.50000000  0.50000000  1.0
  Ru  Ru14  1  0.00000000  0.00000000  0.00000000  1.0
  Ru  Ru15  1  0.00000000  0.50000000  0.00000000  1.0
  O  O16  1  0.30698163  0.94318834  0.62509769  1.0
  O  O17  1  0.30698163  0.55681166  0.62509769  1.0
  O  O18  1  0.80698163  0.94318834  0.87490231  1.0
  O  O19  1  0.80698163  0.55681166  0.87490231  1.0
  O  O20  1  0.69301837  0.44318834  0.37490231  1.0
  O  O21  1  0.69301837  0.05681166  0.37490231  1.0
  O  O22  1  0.19301837  0.44318834  0.12509769  1.0
  O  O23  1  0.19301837  0.05681166  0.12509769  1.0
  O  O24  1  0.19327632  0.94314057  0.87508068  1.0
  O  O25  1  0.19327632  0.55685943  0.87508068  1.0
  O  O26  1  0.69327632  0.94314057  0.62491932  1.0
  O  O27  1  0.69327632  0.55685943  0.62491932  1.0
  O  O28  1  0.80672368  0.44314057  0.12491932  1.0
  O  O29  1  0.80672368  0.05685943  0.12491932  1.0
  O  O30  1  0.30672368  0.44314057  0.37508068  1.0
  O  O31  1  0.30672368  0.05685943  0.37508068  1.0
  O  O32  1  0.49992685  0.75000000  0.12485979  1.0
  O  O33  1  0.99992685  0.75000000  0.37514021  1.0
  O  O34  1  0.50007315  0.25000000  0.87514021  1.0
  O  O35  1  0.00007315  0.25000000  0.62485979  1.0
  O  O36  1  0.00010246  0.75000000  0.67472651  1.0
  O  O37  1  0.50010246  0.75000000  0.82527349  1.0
  O  O38  1  0.99989754  0.25000000  0.32527349  1.0
  O  O39  1  0.49989754  0.25000000  0.17472651  1.0
  O  O40  1  0.99992350  0.75000000  0.07527736  1.0
  O  O41  1  0.49992350  0.75000000  0.42472264  1.0
  O  O42  1  0.00007650  0.25000000  0.92472264  1.0
  O  O43  1  0.50007650  0.25000000  0.57527736  1.0
