# generated using pymatgen
data_Sr4Cl6O
_symmetry_space_group_name_H-M   'P 1'
_cell_length_a   9.56460175
_cell_length_b   9.56460175
_cell_length_c   7.29605757
_cell_angle_alpha   90.00000000
_cell_angle_beta   90.00000000
_cell_angle_gamma   120.00000000
_symmetry_Int_Tables_number   1
_chemical_formula_structural   Sr4Cl6O
_chemical_formula_sum   'Sr8 Cl12 O2'
_cell_volume   578.03304604
_cell_formula_units_Z   2
loop_
 _symmetry_equiv_pos_site_id
 _symmetry_equiv_pos_as_xyz
  1  'x, y, z'
loop_
 _atom_site_type_symbol
 _atom_site_label
 _atom_site_symmetry_multiplicity
 _atom_site_fract_x
 _atom_site_fract_y
 _atom_site_fract_z
 _atom_site_occupancy
  Sr  Sr0  1  0.60558404  0.80279202  0.43018042  1.0
  Sr  Sr1  1  0.80279202  0.60558404  0.93018042  1.0
  Sr  Sr2  1  0.80279202  0.19720798  0.93018042  1.0
  Sr  Sr3  1  0.19720798  0.80279202  0.43018042  1.0
  Sr  Sr4  1  0.19720798  0.39441596  0.43018042  1.0
  Sr  Sr5  1  0.39441596  0.19720798  0.93018042  1.0
  Sr  Sr6  1  0.33333333  0.66666667  0.00017173  1.0
  Sr  Sr7  1  0.66666667  0.33333333  0.50017173  1.0
  Cl  Cl8  1  0.71743097  0.85871548  0.04213077  1.0
  Cl  Cl9  1  0.85871548  0.71743097  0.54213077  1.0
  Cl  Cl10  1  0.85871548  0.14128452  0.54213077  1.0
  Cl  Cl11  1  0.14128452  0.85871548  0.04213077  1.0
  Cl  Cl12  1  0.14128452  0.28256903  0.04213077  1.0
  Cl  Cl13  1  0.28256903  0.14128452  0.54213077  1.0
  Cl  Cl14  1  0.93023262  0.46511631  0.21785321  1.0
  Cl  Cl15  1  0.46511631  0.93023262  0.71785321  1.0
  Cl  Cl16  1  0.46511631  0.53488369  0.71785321  1.0
  Cl  Cl17  1  0.53488369  0.46511631  0.21785321  1.0
  Cl  Cl18  1  0.53488369  0.06976738  0.21785321  1.0
  Cl  Cl19  1  0.06976738  0.53488369  0.71785321  1.0
  O  O20  1  0.33333333  0.66666667  0.32483506  1.0
  O  O21  1  0.66666667  0.33333333  0.82483506  1.0
