# generated using pymatgen
data_Li2BiAu
_symmetry_space_group_name_H-M   'P 1'
_cell_length_a   5.53331779
_cell_length_b   5.53331779
_cell_length_c   5.59525564
_cell_angle_alpha   90.00000000
_cell_angle_beta   90.00000000
_cell_angle_gamma   81.87570660
_symmetry_Int_Tables_number   1
_chemical_formula_structural   Li2BiAu
_chemical_formula_sum   'Li4 Bi2 Au2'
_cell_volume   169.59400083
_cell_formula_units_Z   2
loop_
 _symmetry_equiv_pos_site_id
 _symmetry_equiv_pos_as_xyz
  1  'x, y, z'
loop_
 _atom_site_type_symbol
 _atom_site_label
 _atom_site_symmetry_multiplicity
 _atom_site_fract_x
 _atom_site_fract_y
 _atom_site_fract_z
 _atom_site_occupancy
  Li  Li0  1  -0.47780632  1.11984751  0.75000000  1.0
  Li  Li1  1  0.11984751  0.52219368  0.25000000  1.0
  Li  Li2  1  0.47780632  0.88015249  0.25000000  1.0
  Li  Li3  1  -0.11984751  1.47780632  0.75000000  1.0
  Bi  Bi4  1  0.33980727  0.66019273  0.75000000  1.0
  Bi  Bi5  1  -0.33980727  1.33980727  0.25000000  1.0
  Au  Au6  1  -0.00000000  -0.00000000  0.00000000  1.0
  Au  Au7  1  0.00000000  -0.00000000  0.50000000  1.0
