# generated using pymatgen
data_BaCo2Si2O7
_symmetry_space_group_name_H-M   'P 1'
_cell_length_a   7.41020796
_cell_length_b   7.41020796
_cell_length_c   13.78934571
_cell_angle_alpha   89.95647056
_cell_angle_beta   90.04352944
_cell_angle_gamma   59.60035000
_symmetry_Int_Tables_number   1
_chemical_formula_structural   BaCo2Si2O7
_chemical_formula_sum   'Ba4 Co8 Si8 O28'
_cell_volume   653.08767562
_cell_formula_units_Z   4
loop_
 _symmetry_equiv_pos_site_id
 _symmetry_equiv_pos_as_xyz
  1  'x, y, z'
loop_
 _atom_site_type_symbol
 _atom_site_label
 _atom_site_symmetry_multiplicity
 _atom_site_fract_x
 _atom_site_fract_y
 _atom_site_fract_z
 _atom_site_occupancy
  Co  Co0  1  0.70096971  -0.23920460  0.49029441  1.0
  Co  Co1  1  1.23920460  -0.70096971  0.99029441  1.0
  Co  Co2  1  0.76079540  -0.29903029  0.00970559  1.0
  Co  Co3  1  0.29903029  0.23920460  0.50970559  1.0
  Co  Co4  1  0.73040874  -0.26959126  0.75000000  1.0
  Co  Co5  1  0.26959126  0.26959126  0.25000000  1.0
  Co  Co6  1  0.27482491  0.27482491  0.75000000  1.0
  Co  Co7  1  0.72517509  -0.27482491  0.25000000  1.0
  Ba  Ba8  1  0.31919334  -0.28148270  0.87714406  1.0
  Ba  Ba9  1  1.28148270  -0.31919334  0.37714406  1.0
  Ba  Ba10  1  0.71851730  -0.68080666  0.62285594  1.0
  Ba  Ba11  1  0.68080666  0.28148270  0.12285594  1.0
  O  O12  1  0.89716272  0.07778634  0.87801089  1.0
  O  O13  1  0.92221366  -0.89716272  0.37801089  1.0
  O  O14  1  1.07778634  -0.10283728  0.62198911  1.0
  O  O15  1  0.10283728  -0.07778634  0.12198911  1.0
  O  O16  1  0.44985630  -0.22040640  0.70267293  1.0
  O  O17  1  1.22040640  -0.44985630  0.20267293  1.0
  O  O18  1  0.77959360  -0.55014370  0.79732707  1.0
  O  O19  1  0.55014370  0.22040640  0.29732707  1.0
  O  O20  1  0.60755623  0.12011182  0.49005171  1.0
  O  O21  1  0.87988818  -0.60755623  0.99005171  1.0
  O  O22  1  1.12011182  -0.39244377  0.00994829  1.0
  O  O23  1  0.39244377  -0.12011182  0.50994829  1.0
  O  O24  1  0.58018778  0.14894245  0.75508575  1.0
  O  O25  1  0.85105755  -0.58018778  0.25508575  1.0
  O  O26  1  1.14894245  -0.41981222  0.74491425  1.0
  O  O27  1  0.41981222  -0.14894245  0.24491425  1.0
  O  O28  1  0.51418035  0.26004053  0.94708024  1.0
  O  O29  1  0.73995947  -0.51418035  0.44708024  1.0
  O  O30  1  1.26004053  -0.48581964  0.55291976  1.0
  O  O31  1  0.48581964  -0.26004053  0.05291976  1.0
  O  O32  1  0.18174505  0.18590090  0.86663674  1.0
  O  O33  1  0.81409910  -0.18174505  0.36663674  1.0
  O  O34  1  1.18590090  -0.81825495  0.63336326  1.0
  O  O35  1  0.81825495  -0.18590090  0.13336326  1.0
  O  O36  1  0.70649061  -0.15091343  0.88378952  1.0
  O  O37  1  1.15091343  -0.70649061  0.38378952  1.0
  O  O38  1  0.84908657  -0.29350939  0.61621048  1.0
  O  O39  1  0.29350939  0.15091343  0.11621048  1.0
  Si  Si40  1  0.66621023  0.08735079  0.86687511  1.0
  Si  Si41  1  0.91264921  -0.66621023  0.36687511  1.0
  Si  Si42  1  1.08735079  -0.33378977  0.63312489  1.0
  Si  Si43  1  0.33378977  -0.08735079  0.13312489  1.0
  Si  Si44  1  0.28912009  -0.07421787  0.61854727  1.0
  Si  Si45  1  1.07421787  -0.28912009  0.11854727  1.0
  Si  Si46  1  0.92578213  -0.71087990  0.88145273  1.0
  Si  Si47  1  0.71087990  0.07421787  0.38145273  1.0
