# generated using pymatgen
data_SiC
_symmetry_space_group_name_H-M   'P 1'
_cell_length_a   3.09517607
_cell_length_b   3.09517607
_cell_length_c   35.45852428
_cell_angle_alpha   90.00000000
_cell_angle_beta   90.00000000
_cell_angle_gamma   120.00000000
_symmetry_Int_Tables_number   1
_chemical_formula_structural   SiC
_chemical_formula_sum   'Si14 C14'
_cell_volume   294.18600292
_cell_formula_units_Z   14
loop_
 _symmetry_equiv_pos_site_id
 _symmetry_equiv_pos_as_xyz
  1  'x, y, z'
loop_
 _atom_site_type_symbol
 _atom_site_label
 _atom_site_symmetry_multiplicity
 _atom_site_fract_x
 _atom_site_fract_y
 _atom_site_fract_z
 _atom_site_occupancy
  Si  Si0  1  0.00000000  0.00000000  0.07138267  1.0
  Si  Si1  1  0.00000000  0.00000000  0.35715978  1.0
  Si  Si2  1  0.00000000  0.00000000  0.64293814  1.0
  Si  Si3  1  0.00000000  0.00000000  0.85716992  1.0
  Si  Si4  1  0.66666667  0.33333333  0.21426977  1.0
  Si  Si5  1  0.66666667  0.33333333  0.50004616  1.0
  Si  Si6  1  0.66666667  0.33333333  0.78573790  1.0
  Si  Si7  1  0.66666667  0.33333333  0.92861486  1.0
  Si  Si8  1  0.33333333  0.66666667  -0.00006017  1.0
  Si  Si9  1  0.33333333  0.66666667  0.14283636  1.0
  Si  Si10  1  0.33333333  0.66666667  0.28573029  1.0
  Si  Si11  1  0.33333333  0.66666667  0.42861388  1.0
  Si  Si12  1  0.33333333  0.66666667  0.57150613  1.0
  Si  Si13  1  0.33333333  0.66666667  0.71440339  1.0
  C  C14  1  0.00000000  0.00000000  0.01767931  1.0
  C  C15  1  0.00000000  0.00000000  0.30343827  1.0
  C  C16  1  0.00000000  0.00000000  0.58921355  1.0
  C  C17  1  0.00000000  0.00000000  0.80346738  1.0
  C  C18  1  0.66666667  0.33333333  0.16055358  1.0
  C  C19  1  0.66666667  0.33333333  0.44631958  1.0
  C  C20  1  0.66666667  0.33333333  0.73218099  1.0
  C  C21  1  0.66666667  0.33333333  0.87507473  1.0
  C  C22  1  0.33333333  0.66666667  0.08930029  1.0
  C  C23  1  0.33333333  0.66666667  0.23217915  1.0
  C  C24  1  0.33333333  0.66666667  0.37506034  1.0
  C  C25  1  0.33333333  0.66666667  0.51795030  1.0
  C  C26  1  0.33333333  0.66666667  0.66083771  1.0
  C  C27  1  0.33333333  0.66666667  0.94639574  1.0
