# generated using pymatgen
data_La3LuBeS7
_symmetry_space_group_name_H-M   'P 1'
_cell_length_a   10.27892129
_cell_length_b   10.27892129
_cell_length_c   6.24677754
_cell_angle_alpha   90.00000000
_cell_angle_beta   90.00000000
_cell_angle_gamma   120.00000000
_symmetry_Int_Tables_number   1
_chemical_formula_structural   La3LuBeS7
_chemical_formula_sum   'La6 Lu2 Be2 S14'
_cell_volume   571.58622332
_cell_formula_units_Z   2
loop_
 _symmetry_equiv_pos_site_id
 _symmetry_equiv_pos_as_xyz
  1  'x, y, z'
loop_
 _atom_site_type_symbol
 _atom_site_label
 _atom_site_symmetry_multiplicity
 _atom_site_fract_x
 _atom_site_fract_y
 _atom_site_fract_z
 _atom_site_occupancy
  La  La0  1  0.74300359  0.60287962  0.22159385  1.0
  La  La1  1  0.60287962  0.85987603  0.72159385  1.0
  La  La2  1  0.85987603  0.25699641  0.22159385  1.0
  La  La3  1  0.39712038  0.14012397  0.22159385  1.0
  La  La4  1  0.25699641  0.39712038  0.72159385  1.0
  La  La5  1  0.14012397  0.74300359  0.72159385  1.0
  Lu  Lu6  1  -0.00000000  -0.00000000  0.02350915  1.0
  Lu  Lu7  1  0.00000000  0.00000000  0.52350915  1.0
  Be  Be8  1  0.33333333  0.66666667  0.13228850  1.0
  Be  Be9  1  0.66666667  0.33333333  0.63228850  1.0
  S  S10  1  0.40487131  0.88455892  0.00134869  1.0
  S  S11  1  0.88455892  0.47968761  0.50134869  1.0
  S  S12  1  0.47968761  0.59512869  0.00134869  1.0
  S  S13  1  0.11544108  0.52031239  0.00134869  1.0
  S  S14  1  0.59512869  0.11544108  0.50134869  1.0
  S  S15  1  0.52031239  0.40487131  0.50134869  1.0
  S  S16  1  0.08602981  0.84867013  0.27564302  1.0
  S  S17  1  0.84867013  0.76264031  0.77564302  1.0
  S  S18  1  0.76264031  0.91397019  0.27564302  1.0
  S  S19  1  0.15132987  0.23735969  0.27564302  1.0
  S  S20  1  0.91397019  0.15132987  0.77564302  1.0
  S  S21  1  0.23735969  0.08602981  0.77564302  1.0
  S  S22  1  0.33333333  0.66666667  0.47944570  1.0
  S  S23  1  0.66666667  0.33333333  -0.02055430  1.0
