# generated using pymatgen
data_Lu2PbAu2
_symmetry_space_group_name_H-M   'P 1'
_cell_length_a   7.98740878
_cell_length_b   7.98740878
_cell_length_c   7.27788027
_cell_angle_alpha   90.00000000
_cell_angle_beta   90.00000000
_cell_angle_gamma   90.00000000
_symmetry_Int_Tables_number   1
_chemical_formula_structural   Lu2PbAu2
_chemical_formula_sum   'Lu8 Pb4 Au8'
_cell_volume   464.31929274
_cell_formula_units_Z   4
loop_
 _symmetry_equiv_pos_site_id
 _symmetry_equiv_pos_as_xyz
  1  'x, y, z'
loop_
 _atom_site_type_symbol
 _atom_site_label
 _atom_site_symmetry_multiplicity
 _atom_site_fract_x
 _atom_site_fract_y
 _atom_site_fract_z
 _atom_site_occupancy
  Lu  Lu0  1  0.18431864  0.18431864  0.50000000  1.0
  Lu  Lu1  1  0.68431864  0.31568136  0.00000000  1.0
  Lu  Lu2  1  0.81568136  0.81568136  0.50000000  1.0
  Lu  Lu3  1  0.31568136  0.68431864  0.00000000  1.0
  Lu  Lu4  1  0.34799036  0.65200964  0.50000000  1.0
  Lu  Lu5  1  0.84799036  0.84799036  0.00000000  1.0
  Lu  Lu6  1  0.65200964  0.34799036  0.50000000  1.0
  Lu  Lu7  1  0.15200964  0.15200964  0.00000000  1.0
  Pb  Pb8  1  0.50000000  0.00000000  0.25000000  1.0
  Pb  Pb9  1  0.50000000  0.00000000  0.75000000  1.0
  Pb  Pb10  1  0.00000000  0.50000000  0.75000000  1.0
  Pb  Pb11  1  0.00000000  0.50000000  0.25000000  1.0
  Au  Au12  1  0.12691837  0.87308163  0.28407557  1.0
  Au  Au13  1  0.12691837  0.87308163  0.71592443  1.0
  Au  Au14  1  0.62691837  0.62691837  0.78407557  1.0
  Au  Au15  1  0.62691837  0.62691837  0.21592443  1.0
  Au  Au16  1  0.87308163  0.12691837  0.28407557  1.0
  Au  Au17  1  0.87308163  0.12691837  0.71592443  1.0
  Au  Au18  1  0.37308163  0.37308163  0.78407557  1.0
  Au  Au19  1  0.37308163  0.37308163  0.21592443  1.0
