# generated using pymatgen
data_Sc2CuB2Rh5
_symmetry_space_group_name_H-M   'P 1'
_cell_length_a   9.26825382
_cell_length_b   9.26825382
_cell_length_c   3.07020858
_cell_angle_alpha   90.00000000
_cell_angle_beta   90.00000000
_cell_angle_gamma   90.00000000
_symmetry_Int_Tables_number   1
_chemical_formula_structural   Sc2CuB2Rh5
_chemical_formula_sum   'Sc4 Cu2 B4 Rh10'
_cell_volume   263.73254094
_cell_formula_units_Z   2
loop_
 _symmetry_equiv_pos_site_id
 _symmetry_equiv_pos_as_xyz
  1  'x, y, z'
loop_
 _atom_site_type_symbol
 _atom_site_label
 _atom_site_symmetry_multiplicity
 _atom_site_fract_x
 _atom_site_fract_y
 _atom_site_fract_z
 _atom_site_occupancy
  Sc  Sc0  1  0.32472559  0.17527441  0.00000000  1.0
  Sc  Sc1  1  0.82472559  0.32472559  0.00000000  1.0
  Sc  Sc2  1  0.67527441  0.82472559  0.00000000  1.0
  Sc  Sc3  1  0.17527441  0.67527441  0.00000000  1.0
  Cu  Cu4  1  0.50000000  0.50000000  0.00000000  1.0
  Cu  Cu5  1  0.00000000  0.00000000  0.00000000  1.0
  B  B6  1  0.87314170  0.62685830  0.00000000  1.0
  B  B7  1  0.37314170  0.87314170  0.00000000  1.0
  B  B8  1  0.12685830  0.37314170  0.00000000  1.0
  B  B9  1  0.62685830  0.12685830  0.00000000  1.0
  Rh  Rh10  1  0.50000000  0.00000000  0.50000000  1.0
  Rh  Rh11  1  0.00000000  0.50000000  0.50000000  1.0
  Rh  Rh12  1  0.42889369  0.71619772  0.50000000  1.0
  Rh  Rh13  1  0.92889369  0.78380228  0.50000000  1.0
  Rh  Rh14  1  0.28380228  0.42889369  0.50000000  1.0
  Rh  Rh15  1  0.78380228  0.07110631  0.50000000  1.0
  Rh  Rh16  1  0.57110631  0.28380228  0.50000000  1.0
  Rh  Rh17  1  0.07110631  0.21619772  0.50000000  1.0
  Rh  Rh18  1  0.71619772  0.57110631  0.50000000  1.0
  Rh  Rh19  1  0.21619772  0.92889369  0.50000000  1.0
