# generated using pymatgen
data_LiBiO3
_symmetry_space_group_name_H-M   'P 1'
_cell_length_a   5.03568478
_cell_length_b   8.96987954
_cell_length_c   10.92550403
_cell_angle_alpha   90.00000000
_cell_angle_beta   90.00000000
_cell_angle_gamma   90.00000000
_symmetry_Int_Tables_number   1
_chemical_formula_structural   LiBiO3
_chemical_formula_sum   'Li8 Bi8 O24'
_cell_volume   493.49940075
_cell_formula_units_Z   8
loop_
 _symmetry_equiv_pos_site_id
 _symmetry_equiv_pos_as_xyz
  1  'x, y, z'
loop_
 _atom_site_type_symbol
 _atom_site_label
 _atom_site_symmetry_multiplicity
 _atom_site_fract_x
 _atom_site_fract_y
 _atom_site_fract_z
 _atom_site_occupancy
  Li  Li0  1  0.49956540  0.29225440  0.09237463  1.0
  Li  Li1  1  0.49956540  0.20774560  0.59237463  1.0
  Li  Li2  1  0.99956540  0.79225440  0.90762537  1.0
  Li  Li3  1  0.99956540  0.70774560  0.40762537  1.0
  Li  Li4  1  0.50043460  0.79225440  0.40762537  1.0
  Li  Li5  1  0.50043460  0.70774560  0.90762537  1.0
  Li  Li6  1  0.00043460  0.29225440  0.59237463  1.0
  Li  Li7  1  0.00043460  0.20774560  0.09237463  1.0
  Bi  Bi8  1  0.49533255  0.41425798  0.36279420  1.0
  Bi  Bi9  1  0.49533255  0.08574202  0.86279420  1.0
  Bi  Bi10  1  0.99533255  0.91425798  0.63720580  1.0
  Bi  Bi11  1  0.99533255  0.58574202  0.13720580  1.0
  Bi  Bi12  1  0.50466745  0.91425798  0.13720580  1.0
  Bi  Bi13  1  0.50466745  0.58574202  0.63720580  1.0
  Bi  Bi14  1  0.00466745  0.41425798  0.86279420  1.0
  Bi  Bi15  1  0.00466745  0.08574202  0.36279420  1.0
  O  O16  1  0.28211163  0.91731842  0.30113707  1.0
  O  O17  1  0.28211163  0.58268158  0.80113707  1.0
  O  O18  1  0.78211163  0.41731842  0.69886293  1.0
  O  O19  1  0.78211163  0.08268158  0.19886293  1.0
  O  O20  1  0.71788837  0.41731842  0.19886293  1.0
  O  O21  1  0.71788837  0.08268158  0.69886293  1.0
  O  O22  1  0.21788837  0.91731842  0.80113707  1.0
  O  O23  1  0.21788837  0.58268158  0.30113707  1.0
  O  O24  1  0.18702010  0.40404831  0.04281547  1.0
  O  O25  1  0.18702010  0.09595169  0.54281547  1.0
  O  O26  1  0.68702010  0.90404831  0.95718453  1.0
  O  O27  1  0.68702010  0.59595169  0.45718453  1.0
  O  O28  1  0.81297990  0.90404831  0.45718453  1.0
  O  O29  1  0.81297990  0.59595169  0.95718453  1.0
  O  O30  1  0.31297990  0.40404831  0.54281547  1.0
  O  O31  1  0.31297990  0.09595169  0.04281547  1.0
  O  O32  1  0.25000000  0.75000000  0.05174206  1.0
  O  O33  1  0.25000000  0.75000000  0.55174206  1.0
  O  O34  1  0.75000000  0.25000000  0.94825794  1.0
  O  O35  1  0.75000000  0.25000000  0.44825794  1.0
  O  O36  1  0.25000000  0.25000000  0.27984476  1.0
  O  O37  1  0.25000000  0.25000000  0.77984476  1.0
  O  O38  1  0.75000000  0.75000000  0.72015524  1.0
  O  O39  1  0.75000000  0.75000000  0.22015524  1.0
