# generated using pymatgen
data_Bi4S3
_symmetry_space_group_name_H-M   'P 1'
_cell_length_a   13.84533192
_cell_length_b   13.84533192
_cell_length_c   13.84533192
_cell_angle_alpha   17.40098952
_cell_angle_beta   17.40098952
_cell_angle_gamma   17.40098952
_symmetry_Int_Tables_number   1
_chemical_formula_structural   Bi4S3
_chemical_formula_sum   'Bi4 S3'
_cell_volume   207.14494815
_cell_formula_units_Z   1
loop_
 _symmetry_equiv_pos_site_id
 _symmetry_equiv_pos_as_xyz
  1  'x, y, z'
loop_
 _atom_site_type_symbol
 _atom_site_label
 _atom_site_symmetry_multiplicity
 _atom_site_fract_x
 _atom_site_fract_y
 _atom_site_fract_z
 _atom_site_occupancy
  Bi  Bi0  1  0.14432440  0.14432440  0.14432440  1.0
  Bi  Bi1  1  0.85567560  -0.14432440  -0.14432440  1.0
  Bi  Bi2  1  0.28985896  0.28985896  0.28985896  1.0
  Bi  Bi3  1  0.71014104  -0.28985896  -0.28985896  1.0
  S  S4  1  0.00000000  0.00000000  -0.00000000  1.0
  S  S5  1  0.41089281  0.41089281  -0.58910719  1.0
  S  S6  1  0.58910719  0.58910719  -0.41089281  1.0
