# generated using pymatgen
data_CaTi2MnO6
_symmetry_space_group_name_H-M   'P 1'
_cell_length_a   7.54109625
_cell_length_b   7.54109625
_cell_length_c   7.69568816
_cell_angle_alpha   90.00000000
_cell_angle_beta   90.00000000
_cell_angle_gamma   90.00000000
_symmetry_Int_Tables_number   1
_chemical_formula_structural   CaTi2MnO6
_chemical_formula_sum   'Ca4 Ti8 Mn4 O24'
_cell_volume   437.63941534
_cell_formula_units_Z   4
loop_
 _symmetry_equiv_pos_site_id
 _symmetry_equiv_pos_as_xyz
  1  'x, y, z'
loop_
 _atom_site_type_symbol
 _atom_site_label
 _atom_site_symmetry_multiplicity
 _atom_site_fract_x
 _atom_site_fract_y
 _atom_site_fract_z
 _atom_site_occupancy
  Ca  Ca0  1  0.50000000  0.50000000  0.04932514  1.0
  Ca  Ca1  1  0.50000000  0.50000000  0.54932514  1.0
  Ca  Ca2  1  0.00000000  0.00000000  -0.00298306  1.0
  Ca  Ca3  1  0.00000000  0.00000000  0.49701694  1.0
  Ti  Ti4  1  0.74178678  0.75545370  0.28367557  1.0
  Ti  Ti5  1  0.74178678  0.24454630  0.28367557  1.0
  Ti  Ti6  1  0.75545370  0.74178678  0.78367557  1.0
  Ti  Ti7  1  0.75545370  0.25821322  0.78367557  1.0
  Ti  Ti8  1  0.25821322  0.75545370  0.28367557  1.0
  Ti  Ti9  1  0.25821322  0.24454630  0.28367557  1.0
  Ti  Ti10  1  0.24454630  0.74178678  0.78367557  1.0
  Ti  Ti11  1  0.24454630  0.25821322  0.78367557  1.0
  Mn  Mn12  1  0.00000000  0.50000000  0.07328710  1.0
  Mn  Mn13  1  0.50000000  0.00000000  0.57328710  1.0
  Mn  Mn14  1  0.00000000  0.50000000  0.51800195  1.0
  Mn  Mn15  1  0.50000000  0.00000000  0.01800195  1.0
  O  O16  1  0.80584127  0.69342470  0.01569416  1.0
  O  O17  1  0.80584127  0.30657530  0.01569416  1.0
  O  O18  1  0.69342470  0.80584127  0.51569416  1.0
  O  O19  1  0.69342470  0.19415873  0.51569416  1.0
  O  O20  1  0.19415873  0.69342470  0.01569416  1.0
  O  O21  1  0.19415873  0.30657530  0.01569416  1.0
  O  O22  1  0.30657530  0.80584127  0.51569416  1.0
  O  O23  1  0.30657530  0.19415873  0.51569416  1.0
  O  O24  1  0.79344282  0.50000000  0.69481547  1.0
  O  O25  1  0.50000000  0.79344282  0.19481547  1.0
  O  O26  1  0.50000000  0.20655718  0.19481547  1.0
  O  O27  1  0.20655718  0.50000000  0.69481547  1.0
  O  O28  1  0.69269183  0.50000000  0.30226448  1.0
  O  O29  1  0.50000000  0.69269183  0.80226448  1.0
  O  O30  1  0.50000000  0.30730817  0.80226448  1.0
  O  O31  1  0.30730817  0.50000000  0.30226448  1.0
  O  O32  1  0.80735918  0.00000000  0.23341631  1.0
  O  O33  1  0.00000000  0.80735918  0.73341631  1.0
  O  O34  1  0.00000000  0.19264082  0.73341631  1.0
  O  O35  1  0.19264082  0.00000000  0.23341631  1.0
  O  O36  1  0.70109587  0.00000000  0.83184872  1.0
  O  O37  1  0.00000000  0.70109587  0.33184872  1.0
  O  O38  1  0.00000000  0.29890413  0.33184872  1.0
  O  O39  1  0.29890413  0.00000000  0.83184872  1.0
