# generated using pymatgen
data_Ca3Al7Cu2
_symmetry_space_group_name_H-M   'P 1'
_cell_length_a   9.18045350
_cell_length_b   9.18045350
_cell_length_c   9.18045350
_cell_angle_alpha   35.43043404
_cell_angle_beta   35.43043404
_cell_angle_gamma   35.43043404
_symmetry_Int_Tables_number   1
_chemical_formula_structural   Ca3Al7Cu2
_chemical_formula_sum   'Ca3 Al7 Cu2'
_cell_volume   232.34571857
_cell_formula_units_Z   1
loop_
 _symmetry_equiv_pos_site_id
 _symmetry_equiv_pos_as_xyz
  1  'x, y, z'
loop_
 _atom_site_type_symbol
 _atom_site_label
 _atom_site_symmetry_multiplicity
 _atom_site_fract_x
 _atom_site_fract_y
 _atom_site_fract_z
 _atom_site_occupancy
  Ca  Ca0  1  0.85711221  0.85711221  0.85711221  1.0
  Ca  Ca1  1  1.14288779  1.14288779  0.14288779  1.0
  Ca  Ca2  1  0.00000000  0.00000000  0.00000000  1.0
  Al  Al3  1  1.42068176  1.42068176  -0.07309596  1.0
  Al  Al4  1  1.42068176  0.92690404  0.42068176  1.0
  Al  Al5  1  1.07309596  0.57931824  0.57931824  1.0
  Al  Al6  1  1.57931824  0.07309596  0.57931824  1.0
  Al  Al7  1  1.57931824  0.57931824  0.07309596  1.0
  Al  Al8  1  0.92690404  1.42068176  0.42068176  1.0
  Al  Al9  1  1.50000000  0.50000000  0.50000000  1.0
  Cu  Cu10  1  1.66499952  0.66499952  0.66499952  1.0
  Cu  Cu11  1  1.33500048  0.33500048  0.33500048  1.0
