# generated using pymatgen
data_LiH2N
_symmetry_space_group_name_H-M   'P 1'
_cell_length_a   6.27857226
_cell_length_b   6.27857226
_cell_length_c   6.27857226
_cell_angle_alpha   132.95796227
_cell_angle_beta   132.95796227
_cell_angle_gamma   68.72017323
_symmetry_Int_Tables_number   1
_chemical_formula_structural   LiH2N
_chemical_formula_sum   'Li4 H8 N4'
_cell_volume   130.16529026
_cell_formula_units_Z   4
loop_
 _symmetry_equiv_pos_site_id
 _symmetry_equiv_pos_as_xyz
  1  'x, y, z'
loop_
 _atom_site_type_symbol
 _atom_site_label
 _atom_site_symmetry_multiplicity
 _atom_site_fract_x
 _atom_site_fract_y
 _atom_site_fract_z
 _atom_site_occupancy
  Li  Li0  1  0.24299028  0.24299028  0.00000000  1.0
  Li  Li1  1  0.75700972  0.75700972  1.00000000  1.0
  Li  Li2  1  0.25000000  0.75000000  0.50000000  1.0
  Li  Li3  1  0.00000000  0.00000000  0.00000000  1.0
  H  H4  1  0.28670033  0.67308921  0.84219968  1.0
  H  H5  1  1.32691079  1.16911047  1.61361112  1.0
  H  H6  1  0.83088953  0.44450065  1.15780032  1.0
  H  H7  1  0.55549935  0.71329967  0.38638888  1.0
  H  H8  1  0.53772003  0.96176267  1.24764240  1.0
  H  H9  1  1.03823733  1.28587973  1.57595736  1.0
  H  H10  1  0.71412027  0.29007764  0.75235760  1.0
  H  H11  1  0.70992236  0.46227997  0.42404264  1.0
  N  N12  1  0.36335851  0.88089431  0.97485192  1.0
  N  N13  1  1.11910569  1.09395761  1.48246421  1.0
  N  N14  1  0.90604239  0.38850659  1.02514808  1.0
  N  N15  1  0.61149341  0.63664149  0.51753579  1.0
