# generated using pymatgen
data_Cs2GdCl5
_symmetry_space_group_name_H-M   'P 1'
_cell_length_a   9.87883178
_cell_length_b   7.61251699
_cell_length_c   15.51045030
_cell_angle_alpha   90.00000000
_cell_angle_beta   90.00000000
_cell_angle_gamma   90.00000000
_symmetry_Int_Tables_number   1
_chemical_formula_structural   Cs2GdCl5
_chemical_formula_sum   'Cs8 Gd4 Cl20'
_cell_volume   1166.42890052
_cell_formula_units_Z   4
loop_
 _symmetry_equiv_pos_site_id
 _symmetry_equiv_pos_as_xyz
  1  'x, y, z'
loop_
 _atom_site_type_symbol
 _atom_site_label
 _atom_site_symmetry_multiplicity
 _atom_site_fract_x
 _atom_site_fract_y
 _atom_site_fract_z
 _atom_site_occupancy
  Cs  Cs0  1  0.83360676  0.75000000  0.41428411  1.0
  Cs  Cs1  1  0.33360676  0.75000000  0.08571589  1.0
  Cs  Cs2  1  0.16639324  0.25000000  0.58571589  1.0
  Cs  Cs3  1  0.66639324  0.25000000  0.91428411  1.0
  Cs  Cs4  1  0.52586280  0.75000000  0.71302116  1.0
  Cs  Cs5  1  0.02586280  0.75000000  0.78697884  1.0
  Cs  Cs6  1  0.47413720  0.25000000  0.28697884  1.0
  Cs  Cs7  1  0.97413720  0.25000000  0.21302116  1.0
  Gd  Gd8  1  0.81913091  0.75000000  0.06286023  1.0
  Gd  Gd9  1  0.31913091  0.75000000  0.43713977  1.0
  Gd  Gd10  1  0.18086909  0.25000000  0.93713977  1.0
  Gd  Gd11  1  0.68086909  0.25000000  0.56286023  1.0
  Cl  Cl12  1  0.66245381  0.49484028  0.11605640  1.0
  Cl  Cl13  1  0.66245381  0.00515972  0.11605640  1.0
  Cl  Cl14  1  0.16245381  0.49484028  0.38394360  1.0
  Cl  Cl15  1  0.16245381  0.00515972  0.38394360  1.0
  Cl  Cl16  1  0.33754619  0.99484028  0.88394360  1.0
  Cl  Cl17  1  0.33754619  0.50515972  0.88394360  1.0
  Cl  Cl18  1  0.83754619  0.99484028  0.61605640  1.0
  Cl  Cl19  1  0.83754619  0.50515972  0.61605640  1.0
  Cl  Cl20  1  0.97513947  0.75000000  0.20148754  1.0
  Cl  Cl21  1  0.47513947  0.75000000  0.29851246  1.0
  Cl  Cl22  1  0.02486053  0.25000000  0.79851246  1.0
  Cl  Cl23  1  0.52486053  0.25000000  0.70148754  1.0
  Cl  Cl24  1  0.71768207  0.75000000  0.90270568  1.0
  Cl  Cl25  1  0.21768207  0.75000000  0.59729432  1.0
  Cl  Cl26  1  0.28231793  0.25000000  0.09729432  1.0
  Cl  Cl27  1  0.78231793  0.25000000  0.40270568  1.0
  Cl  Cl28  1  0.00000000  0.00000000  0.00000000  1.0
  Cl  Cl29  1  0.00000000  0.50000000  0.00000000  1.0
  Cl  Cl30  1  0.50000000  0.00000000  0.50000000  1.0
  Cl  Cl31  1  0.50000000  0.50000000  0.50000000  1.0
