# generated using pymatgen
data_TlMo6O17
_symmetry_space_group_name_H-M   'P 1'
_cell_length_a   5.58104221
_cell_length_b   5.58104221
_cell_length_c   14.43480166
_cell_angle_alpha   90.00000000
_cell_angle_beta   90.00000000
_cell_angle_gamma   120.00000000
_symmetry_Int_Tables_number   1
_chemical_formula_structural   TlMo6O17
_chemical_formula_sum   'Tl1 Mo6 O17'
_cell_volume   389.37858948
_cell_formula_units_Z   1
loop_
 _symmetry_equiv_pos_site_id
 _symmetry_equiv_pos_as_xyz
  1  'x, y, z'
loop_
 _atom_site_type_symbol
 _atom_site_label
 _atom_site_symmetry_multiplicity
 _atom_site_fract_x
 _atom_site_fract_y
 _atom_site_fract_z
 _atom_site_occupancy
  Tl  Tl0  1  0.00000000  0.00000000  0.00000000  1.0
  Mo  Mo1  1  0.33333333  0.66666667  0.14868883  1.0
  Mo  Mo2  1  0.66666667  0.33333333  0.85131117  1.0
  Mo  Mo3  1  0.33333333  0.66666667  0.56777317  1.0
  Mo  Mo4  1  0.66666667  0.33333333  0.43222683  1.0
  Mo  Mo5  1  0.00000000  0.00000000  0.29054940  1.0
  Mo  Mo6  1  0.00000000  0.00000000  0.70945060  1.0
  O  O7  1  0.68246248  0.84123124  0.18901123  1.0
  O  O8  1  0.84123124  0.68246248  0.81098877  1.0
  O  O9  1  0.84123124  0.15876876  0.81098877  1.0
  O  O10  1  0.15876876  0.84123124  0.18901123  1.0
  O  O11  1  0.15876876  0.31753752  0.18901123  1.0
  O  O12  1  0.31753752  0.15876876  0.81098877  1.0
  O  O13  1  0.32710204  0.16355102  0.34970045  1.0
  O  O14  1  0.16355102  0.32710204  0.65029955  1.0
  O  O15  1  0.16355102  0.83644898  0.65029955  1.0
  O  O16  1  0.83644898  0.16355102  0.34970045  1.0
  O  O17  1  0.83644898  0.67289796  0.34970045  1.0
  O  O18  1  0.67289796  0.83644898  0.65029955  1.0
  O  O19  1  0.50000000  0.50000000  0.50000000  1.0
  O  O20  1  0.50000000  0.00000000  0.50000000  1.0
  O  O21  1  -0.00000000  0.50000000  0.50000000  1.0
  O  O22  1  0.33333333  0.66666667  0.02812330  1.0
  O  O23  1  0.66666667  0.33333333  0.97187670  1.0
