# generated using pymatgen
data_Cu2Pt(C3N4)2
_symmetry_space_group_name_H-M   'P 1'
_cell_length_a   7.83548963
_cell_length_b   7.83548963
_cell_length_c   6.12415826
_cell_angle_alpha   90.00000000
_cell_angle_beta   90.00000000
_cell_angle_gamma   120.00000000
_symmetry_Int_Tables_number   1
_chemical_formula_structural   Cu2Pt(C3N4)2
_chemical_formula_sum   'Cu2 Pt1 C6 N8'
_cell_volume   325.61868397
_cell_formula_units_Z   1
loop_
 _symmetry_equiv_pos_site_id
 _symmetry_equiv_pos_as_xyz
  1  'x, y, z'
loop_
 _atom_site_type_symbol
 _atom_site_label
 _atom_site_symmetry_multiplicity
 _atom_site_fract_x
 _atom_site_fract_y
 _atom_site_fract_z
 _atom_site_occupancy
  C  C0  1  0.87702677  0.75405355  0.81497849  1.0
  C  C1  1  0.87702677  0.12297323  0.81497849  1.0
  C  C2  1  0.24594645  0.12297323  0.81497849  1.0
  C  C3  1  0.12297323  0.24594645  0.18502151  1.0
  C  C4  1  0.12297323  0.87702677  0.18502151  1.0
  C  C5  1  0.75405355  0.87702677  0.18502151  1.0
  Cu  Cu6  1  0.66666667  0.33333333  0.61224109  1.0
  Cu  Cu7  1  0.33333333  0.66666667  0.38775891  1.0
  N  N8  1  0.80359291  0.60718582  0.71770827  1.0
  N  N9  1  0.80359291  0.19640709  0.71770827  1.0
  N  N10  1  0.39281418  0.19640709  0.71770827  1.0
  N  N11  1  0.19640709  0.39281418  0.28229173  1.0
  N  N12  1  0.19640709  0.80359291  0.28229173  1.0
  N  N13  1  0.60718582  0.80359291  0.28229173  1.0
  N  N14  1  0.66666667  0.33333333  0.31329042  1.0
  N  N15  1  0.33333333  0.66666667  0.68670958  1.0
  Pt  Pt16  1  0.00000000  0.00000000  0.00000000  1.0
