# generated using pymatgen
data_Fe3GeTe2
_symmetry_space_group_name_H-M   'P 1'
_cell_length_a   4.05050312
_cell_length_b   4.05050312
_cell_length_c   17.04539102
_cell_angle_alpha   90.00000000
_cell_angle_beta   90.00000000
_cell_angle_gamma   120.00000000
_symmetry_Int_Tables_number   1
_chemical_formula_structural   Fe3GeTe2
_chemical_formula_sum   'Fe6 Ge2 Te4'
_cell_volume   242.18962930
_cell_formula_units_Z   2
loop_
 _symmetry_equiv_pos_site_id
 _symmetry_equiv_pos_as_xyz
  1  'x, y, z'
loop_
 _atom_site_type_symbol
 _atom_site_label
 _atom_site_symmetry_multiplicity
 _atom_site_fract_x
 _atom_site_fract_y
 _atom_site_fract_z
 _atom_site_occupancy
  Fe  Fe0  1  -0.00000000  -0.00000000  0.32239528  1.0
  Fe  Fe1  1  0.00000000  0.00000000  0.17760472  1.0
  Fe  Fe2  1  -0.00000000  -0.00000000  0.82239528  1.0
  Fe  Fe3  1  -0.00000000  -0.00000000  0.67760472  1.0
  Fe  Fe4  1  0.33333333  0.66666667  0.25000000  1.0
  Fe  Fe5  1  0.66666667  0.33333333  0.75000000  1.0
  Ge  Ge6  1  0.33333333  0.66666667  0.75000000  1.0
  Ge  Ge7  1  0.66666667  0.33333333  0.25000000  1.0
  Te  Te8  1  0.33333333  0.66666667  0.40302975  1.0
  Te  Te9  1  0.33333333  0.66666667  0.09697025  1.0
  Te  Te10  1  0.66666667  0.33333333  0.90302975  1.0
  Te  Te11  1  0.66666667  0.33333333  0.59697025  1.0
