# generated using pymatgen
data_FeAsO4
_symmetry_space_group_name_H-M   'P 1'
_cell_length_a   5.30202199
_cell_length_b   5.30202199
_cell_length_c   11.85579006
_cell_angle_alpha   90.00000000
_cell_angle_beta   90.00000000
_cell_angle_gamma   120.00000000
_symmetry_Int_Tables_number   1
_chemical_formula_structural   FeAsO4
_chemical_formula_sum   'Fe3 As3 O12'
_cell_volume   288.63180244
_cell_formula_units_Z   3
loop_
 _symmetry_equiv_pos_site_id
 _symmetry_equiv_pos_as_xyz
  1  'x, y, z'
loop_
 _atom_site_type_symbol
 _atom_site_label
 _atom_site_symmetry_multiplicity
 _atom_site_fract_x
 _atom_site_fract_y
 _atom_site_fract_z
 _atom_site_occupancy
  Fe  Fe0  1  0.54386443  0.54386443  0.50000000  1.0
  Fe  Fe1  1  -0.00000000  0.45613557  0.16666667  1.0
  Fe  Fe2  1  0.45613557  -0.00000000  0.83333333  1.0
  As  As3  1  0.54406404  0.54406404  0.00000000  1.0
  As  As4  1  -0.00000000  0.45593596  0.66666667  1.0
  As  As5  1  0.45593596  -0.00000000  0.33333333  1.0
  O  O6  1  0.09954498  0.69526141  0.77999189  1.0
  O  O7  1  0.69526141  0.09954498  0.22000811  1.0
  O  O8  1  0.59571643  0.90045502  0.44665856  1.0
  O  O9  1  0.30473859  0.40428357  0.11332522  1.0
  O  O10  1  0.90045502  0.59571643  0.55334144  1.0
  O  O11  1  0.40428357  0.30473859  0.88667478  1.0
  O  O12  1  0.87891293  0.59578132  0.04357930  1.0
  O  O13  1  0.59578132  0.87891293  0.95642070  1.0
  O  O14  1  0.71686839  0.12108707  0.71024597  1.0
  O  O15  1  0.40421868  0.28313161  0.37691263  1.0
  O  O16  1  0.12108707  0.71686839  0.28975403  1.0
  O  O17  1  0.28313161  0.40421868  0.62308737  1.0
