# generated using pymatgen
data_BaScCuS3
_symmetry_space_group_name_H-M   'P 1'
_cell_length_a   7.02890258
_cell_length_b   7.02890258
_cell_length_c   9.83204931
_cell_angle_alpha   90.00000000
_cell_angle_beta   90.00000000
_cell_angle_gamma   147.69955407
_symmetry_Int_Tables_number   1
_chemical_formula_structural   BaScCuS3
_chemical_formula_sum   'Ba2 Sc2 Cu2 S6'
_cell_volume   259.56860690
_cell_formula_units_Z   2
loop_
 _symmetry_equiv_pos_site_id
 _symmetry_equiv_pos_as_xyz
  1  'x, y, z'
loop_
 _atom_site_type_symbol
 _atom_site_label
 _atom_site_symmetry_multiplicity
 _atom_site_fract_x
 _atom_site_fract_y
 _atom_site_fract_z
 _atom_site_occupancy
  Ba  Ba0  1  -0.25495743  0.25495743  0.75000000  1.0
  Ba  Ba1  1  0.25495743  0.74504257  0.25000000  1.0
  Sc  Sc2  1  0.00000000  0.00000000  0.00000000  1.0
  Sc  Sc3  1  0.00000000  0.00000000  0.50000000  1.0
  Cu  Cu4  1  0.46832011  0.53167989  0.75000000  1.0
  Cu  Cu5  1  -0.46832011  0.46832011  0.25000000  1.0
  S  S6  1  0.37336119  0.62663881  0.94569981  1.0
  S  S7  1  0.37336119  0.62663881  0.55430019  1.0
  S  S8  1  -0.37336119  0.37336119  0.44569981  1.0
  S  S9  1  -0.37336119  0.37336119  0.05430019  1.0
  S  S10  1  0.06419510  0.93580490  0.75000000  1.0
  S  S11  1  -0.06419510  0.06419510  0.25000000  1.0
