# generated using pymatgen
data_Mo(BrO)2
_symmetry_space_group_name_H-M   'P 1'
_cell_length_a   8.60353056
_cell_length_b   8.60353056
_cell_length_c   7.70685625
_cell_angle_alpha   77.29404821
_cell_angle_beta   102.70595179
_cell_angle_gamma   152.96066110
_symmetry_Int_Tables_number   1
_chemical_formula_structural   Mo(BrO)2
_chemical_formula_sum   'Mo2 Br4 O4'
_cell_volume   252.61289352
_cell_formula_units_Z   2
loop_
 _symmetry_equiv_pos_site_id
 _symmetry_equiv_pos_as_xyz
  1  'x, y, z'
loop_
 _atom_site_type_symbol
 _atom_site_label
 _atom_site_symmetry_multiplicity
 _atom_site_fract_x
 _atom_site_fract_y
 _atom_site_fract_z
 _atom_site_occupancy
  Mo  Mo0  1  0.76760636  0.09052983  0.96368473  1.0
  Mo  Mo1  1  0.90947017  0.23239364  0.46368473  1.0
  Br  Br2  1  0.96327806  0.98898938  0.49588388  1.0
  Br  Br3  1  0.01101062  0.03672194  -0.00411612  1.0
  Br  Br4  1  0.66595278  0.28609001  0.34993274  1.0
  Br  Br5  1  0.71390999  0.33404722  0.84993274  1.0
  O  O6  1  0.82775923  0.15067146  0.19022803  1.0
  O  O7  1  0.84932854  0.17224077  0.69022803  1.0
  O  O8  1  0.33717348  -0.33991079  0.44667061  1.0
  O  O9  1  1.33991079  0.66282652  0.94667061  1.0
