# generated using pymatgen
data_BC2N
_symmetry_space_group_name_H-M   'P 1'
_cell_length_a   4.90405163
_cell_length_b   4.90048873
_cell_length_c   4.69600842
_cell_angle_alpha   116.91730839
_cell_angle_beta   63.05511515
_cell_angle_gamma   118.72415479
_symmetry_Int_Tables_number   1
_chemical_formula_structural   BC2N
_chemical_formula_sum   'B2 C4 N2'
_cell_volume   84.14617868
_cell_formula_units_Z   2
loop_
 _symmetry_equiv_pos_site_id
 _symmetry_equiv_pos_as_xyz
  1  'x, y, z'
loop_
 _atom_site_type_symbol
 _atom_site_label
 _atom_site_symmetry_multiplicity
 _atom_site_fract_x
 _atom_site_fract_y
 _atom_site_fract_z
 _atom_site_occupancy
  B  B0  1  0.79050970  0.71836063  0.80294816  1.0
  B  B1  1  -0.03164079  0.54050673  0.44705839  1.0
  C  C2  1  0.44824402  0.54128880  -0.03200132  1.0
  C  C3  1  0.45966805  0.03626643  0.45174768  1.0
  C  C4  1  0.28627336  0.20966501  0.79825426  1.0
  C  C5  1  0.79128538  0.19824635  0.28199690  1.0
  N  N6  1  -0.04069414  0.04635967  -0.03759325  1.0
  N  N7  1  0.29635441  0.70930638  0.28758919  1.0
