# generated using pymatgen
data_In5CuSe8
_symmetry_space_group_name_H-M   'P 1'
_cell_length_a   5.89163358
_cell_length_b   5.89163358
_cell_length_c   11.75669123
_cell_angle_alpha   90.00000000
_cell_angle_beta   90.00000000
_cell_angle_gamma   90.00000000
_symmetry_Int_Tables_number   1
_chemical_formula_structural   In5CuSe8
_chemical_formula_sum   'In5 Cu1 Se8'
_cell_volume   408.09057952
_cell_formula_units_Z   1
loop_
 _symmetry_equiv_pos_site_id
 _symmetry_equiv_pos_as_xyz
  1  'x, y, z'
loop_
 _atom_site_type_symbol
 _atom_site_label
 _atom_site_symmetry_multiplicity
 _atom_site_fract_x
 _atom_site_fract_y
 _atom_site_fract_z
 _atom_site_occupancy
  In  In0  1  0.50000000  0.00000000  0.26186793  1.0
  In  In1  1  0.50000000  0.00000000  0.73813207  1.0
  In  In2  1  0.00000000  0.50000000  0.26186793  1.0
  In  In3  1  0.00000000  0.50000000  0.73813207  1.0
  In  In4  1  0.00000000  0.00000000  0.00000000  1.0
  Cu  Cu5  1  0.50000000  0.50000000  0.50000000  1.0
  Se  Se6  1  0.24573082  0.75426918  0.60489613  1.0
  Se  Se7  1  0.75426918  0.75426918  0.39510387  1.0
  Se  Se8  1  0.24573082  0.24573082  0.39510387  1.0
  Se  Se9  1  0.75426918  0.24573082  0.60489613  1.0
  Se  Se10  1  0.27091987  0.72908013  0.11692771  1.0
  Se  Se11  1  0.72908013  0.72908013  0.88307229  1.0
  Se  Se12  1  0.27091987  0.27091987  0.88307229  1.0
  Se  Se13  1  0.72908013  0.27091987  0.11692771  1.0
