# generated using pymatgen
data_LiVPO5
_symmetry_space_group_name_H-M   'P 1'
_cell_length_a   7.86596167
_cell_length_b   7.28791537
_cell_length_c   6.95253267
_cell_angle_alpha   117.54148742
_cell_angle_beta   91.13917948
_cell_angle_gamma   89.97423125
_symmetry_Int_Tables_number   1
_chemical_formula_structural   LiVPO5
_chemical_formula_sum   'Li4 V4 P4 O20'
_cell_volume   353.31029498
_cell_formula_units_Z   4
loop_
 _symmetry_equiv_pos_site_id
 _symmetry_equiv_pos_as_xyz
  1  'x, y, z'
loop_
 _atom_site_type_symbol
 _atom_site_label
 _atom_site_symmetry_multiplicity
 _atom_site_fract_x
 _atom_site_fract_y
 _atom_site_fract_z
 _atom_site_occupancy
  Li  Li0  1  0.42573227  0.70739556  -0.70177947  1.0
  Li  Li1  1  0.57426773  0.29260444  -0.29822053  1.0
  Li  Li2  1  0.92790189  0.82412892  -0.19381642  1.0
  Li  Li3  1  0.07209811  0.17587108  -0.80618358  1.0
  V  V4  1  0.73220261  0.96897631  -0.74877795  1.0
  V  V5  1  0.26779739  0.03102369  -0.25122205  1.0
  V  V6  1  0.76443785  0.47274739  -0.74529688  1.0
  V  V7  1  0.23556215  0.52725261  -0.25470312  1.0
  P  P8  1  0.09188574  0.75752360  -0.76655802  1.0
  P  P9  1  0.90811426  0.24247640  -0.23344198  1.0
  P  P10  1  0.59287328  0.74946098  -0.26895163  1.0
  P  P11  1  0.40712672  0.25053902  -0.73104837  1.0
  O  O12  1  0.23503977  0.64636796  -0.93250779  1.0
  O  O13  1  0.76496023  0.35363204  -0.06749221  1.0
  O  O14  1  0.97715491  0.88743426  -0.84640969  1.0
  O  O15  1  0.02284509  0.11256574  -0.15359031  1.0
  O  O16  1  0.50993220  0.42049922  -0.75658179  1.0
  O  O17  1  0.49006780  0.57950078  -0.24341821  1.0
  O  O18  1  0.66554839  0.74615758  -0.76843349  1.0
  O  O19  1  0.33445161  0.25384242  -0.23156651  1.0
  O  O20  1  0.82734562  0.26067242  -0.73642783  1.0
  O  O21  1  0.17265438  0.73932758  -0.26357217  1.0
  O  O22  1  0.98373721  0.60052548  -0.73026044  1.0
  O  O23  1  0.01626279  0.39947452  -0.26973956  1.0
  O  O24  1  0.19328580  0.90026251  -0.55777929  1.0
  O  O25  1  0.80671420  0.09973749  -0.44222071  1.0
  O  O26  1  0.74509345  0.65446029  -0.42453676  1.0
  O  O27  1  0.25490655  0.34553971  -0.57546324  1.0
  O  O28  1  0.47388116  0.86194807  -0.36227186  1.0
  O  O29  1  0.52611884  0.13805193  -0.63772814  1.0
  O  O30  1  0.68257481  0.90548040  -0.05426533  1.0
  O  O31  1  0.31742519  0.09451960  -0.94573467  1.0
