# generated using pymatgen
data_LaMg2H7Pd
_symmetry_space_group_name_H-M   'P 1'
_cell_length_a   4.74938782
_cell_length_b   8.11498774
_cell_length_c   11.76436820
_cell_angle_alpha   90.00000000
_cell_angle_beta   90.00000000
_cell_angle_gamma   90.00000000
_symmetry_Int_Tables_number   1
_chemical_formula_structural   LaMg2H7Pd
_chemical_formula_sum   'La4 Mg8 H28 Pd4'
_cell_volume   453.41314958
_cell_formula_units_Z   4
loop_
 _symmetry_equiv_pos_site_id
 _symmetry_equiv_pos_as_xyz
  1  'x, y, z'
loop_
 _atom_site_type_symbol
 _atom_site_label
 _atom_site_symmetry_multiplicity
 _atom_site_fract_x
 _atom_site_fract_y
 _atom_site_fract_z
 _atom_site_occupancy
  La  La0  1  -0.00041785  0.95093454  0.78241326  1.0
  La  La1  1  0.49958215  0.54906546  0.21758674  1.0
  La  La2  1  1.00041785  0.45093454  0.71758674  1.0
  La  La3  1  0.50041785  0.04906546  0.28241326  1.0
  Mg  Mg4  1  0.49609806  0.77811995  0.60049452  1.0
  Mg  Mg5  1  -0.00390194  0.72188005  0.39950548  1.0
  Mg  Mg6  1  0.50390194  0.27811995  0.89950548  1.0
  Mg  Mg7  1  0.00390194  0.22188005  0.10049452  1.0
  Mg  Mg8  1  0.00957372  0.83837676  0.10574003  1.0
  Mg  Mg9  1  0.50957372  0.66162324  0.89425997  1.0
  Mg  Mg10  1  0.99042628  0.33837676  0.39425997  1.0
  Mg  Mg11  1  0.49042628  0.16162324  0.60574003  1.0
  H  H12  1  0.48043684  0.96938902  0.70281902  1.0
  H  H13  1  0.98043684  0.53061098  0.29718098  1.0
  H  H14  1  0.51956316  0.46938902  0.79718098  1.0
  H  H15  1  0.01956316  0.03061098  0.20281902  1.0
  H  H16  1  0.45875874  0.83372994  0.11434888  1.0
  H  H17  1  0.95875874  0.66627006  0.88565112  1.0
  H  H18  1  0.54124126  0.33372994  0.38565112  1.0
  H  H19  1  0.04124126  0.16627006  0.61434888  1.0
  H  H20  1  0.47164935  0.90393987  0.87011692  1.0
  H  H21  1  0.97164935  0.59606013  0.12988308  1.0
  H  H22  1  0.52835065  0.40393987  0.62988308  1.0
  H  H23  1  0.02835065  0.09606013  0.37011692  1.0
  H  H24  1  0.25194623  0.70978056  0.73462080  1.0
  H  H25  1  0.75194623  0.79021944  0.26537920  1.0
  H  H26  1  0.74805377  0.20978056  0.76537920  1.0
  H  H27  1  0.24805377  0.29021944  0.23462080  1.0
  H  H28  1  0.10774995  0.51093954  0.51429899  1.0
  H  H29  1  0.60774995  0.98906046  0.48570101  1.0
  H  H30  1  0.89225005  0.01093954  0.98570101  1.0
  H  H31  1  0.39225005  0.48906046  0.01429899  1.0
  H  H32  1  0.08991786  0.83777771  0.55548429  1.0
  H  H33  1  0.58991786  0.66222229  0.44451571  1.0
  H  H34  1  0.91008214  0.33777771  0.94451571  1.0
  H  H35  1  0.41008214  0.16222229  0.05548429  1.0
  H  H36  1  0.77238983  0.71437913  0.71369360  1.0
  H  H37  1  0.27238983  0.78562087  0.28630640  1.0
  H  H38  1  0.22761017  0.21437913  0.78630640  1.0
  H  H39  1  0.72761017  0.28562087  0.21369360  1.0
  Pd  Pd40  1  0.03088864  0.52527437  0.99356196  1.0
  Pd  Pd41  1  0.53088864  0.97472563  0.00643804  1.0
  Pd  Pd42  1  0.96911136  0.02527437  0.50643804  1.0
  Pd  Pd43  1  0.46911136  0.47472563  0.49356196  1.0
