# generated using pymatgen
data_BaH4(IO)2
_symmetry_space_group_name_H-M   'P 1'
_cell_length_a   6.80755949
_cell_length_b   6.80755949
_cell_length_c   8.75249089
_cell_angle_alpha   71.24275727
_cell_angle_beta   108.75724273
_cell_angle_gamma   111.84884013
_symmetry_Int_Tables_number   1
_chemical_formula_structural   BaH4(IO)2
_chemical_formula_sum   'Ba2 H8 I4 O4'
_cell_volume   346.95178489
_cell_formula_units_Z   2
loop_
 _symmetry_equiv_pos_site_id
 _symmetry_equiv_pos_as_xyz
  1  'x, y, z'
loop_
 _atom_site_type_symbol
 _atom_site_label
 _atom_site_symmetry_multiplicity
 _atom_site_fract_x
 _atom_site_fract_y
 _atom_site_fract_z
 _atom_site_occupancy
  Ba  Ba0  1  0.60060241  0.60060241  0.25000000  1.0
  Ba  Ba1  1  0.39939759  0.39939759  0.75000000  1.0
  H  H2  1  0.28622916  0.12905490  0.44931991  1.0
  H  H3  1  0.87094510  0.71377084  0.94931991  1.0
  H  H4  1  1.12905490  -0.71377084  0.05068009  1.0
  H  H5  1  1.71377084  -0.12905490  0.55068009  1.0
  H  H6  1  0.27975256  0.13826022  0.12487289  1.0
  H  H7  1  0.86173978  0.72024744  0.62487289  1.0
  H  H8  1  1.13826022  -0.72024744  0.37512711  1.0
  H  H9  1  1.72024744  -0.13826022  0.87512711  1.0
  I  I10  1  0.77326311  0.19357010  0.14798486  1.0
  I  I11  1  0.80642990  0.22673689  0.64798486  1.0
  I  I12  1  1.19357010  -0.22673689  0.35201514  1.0
  I  I13  1  1.22673689  -0.19357010  0.85201514  1.0
  O  O14  1  0.28611146  0.27749890  0.44064557  1.0
  O  O15  1  0.72250110  0.71388854  0.94064557  1.0
  O  O16  1  1.27749890  -0.71388854  0.05935443  1.0
  O  O17  1  1.71388854  -0.27749890  0.55935443  1.0
