# generated using pymatgen
data_LaI3
_symmetry_space_group_name_H-M   'P 1'
_cell_length_a   8.15752282
_cell_length_b   8.15752282
_cell_length_c   10.14841614
_cell_angle_alpha   90.00000000
_cell_angle_beta   90.00000000
_cell_angle_gamma   148.34865803
_symmetry_Int_Tables_number   1
_chemical_formula_structural   LaI3
_chemical_formula_sum   'La2 I6'
_cell_volume   354.37772262
_cell_formula_units_Z   2
loop_
 _symmetry_equiv_pos_site_id
 _symmetry_equiv_pos_as_xyz
  1  'x, y, z'
loop_
 _atom_site_type_symbol
 _atom_site_label
 _atom_site_symmetry_multiplicity
 _atom_site_fract_x
 _atom_site_fract_y
 _atom_site_fract_z
 _atom_site_occupancy
  La  La0  1  -0.25859917  0.25859917  0.75000000  1.0
  La  La1  1  0.25859917  0.74140083  0.25000000  1.0
  I  I2  1  0.34464306  0.65535694  0.93323701  1.0
  I  I3  1  0.34464306  0.65535694  0.56676299  1.0
  I  I4  1  -0.34464306  0.34464306  0.43323701  1.0
  I  I5  1  -0.34464306  0.34464306  0.06676299  1.0
  I  I6  1  0.09520615  0.90479385  0.75000000  1.0
  I  I7  1  -0.09520615  0.09520615  0.25000000  1.0
