# generated using pymatgen
data_Co5Te4(ClO6)2
_symmetry_space_group_name_H-M   'P 1'
_cell_length_a   10.28825928
_cell_length_b   10.28825928
_cell_length_c   16.39699147
_cell_angle_alpha   56.73952619
_cell_angle_beta   123.26047381
_cell_angle_gamma   150.33116348
_symmetry_Int_Tables_number   1
_chemical_formula_structural   Co5Te4(ClO6)2
_chemical_formula_sum   'Co10 Te8 Cl4 O24'
_cell_volume   707.44079983
_cell_formula_units_Z   2
loop_
 _symmetry_equiv_pos_site_id
 _symmetry_equiv_pos_as_xyz
  1  'x, y, z'
loop_
 _atom_site_type_symbol
 _atom_site_label
 _atom_site_symmetry_multiplicity
 _atom_site_fract_x
 _atom_site_fract_y
 _atom_site_fract_z
 _atom_site_occupancy
  Cl  Cl0  1  0.40511661  -0.06075913  0.59261747  1.0
  Cl  Cl1  1  1.06075913  -0.40511661  0.09261747  1.0
  Cl  Cl2  1  0.93924087  0.40511661  0.90738253  1.0
  Cl  Cl3  1  1.59488339  0.06075913  0.40738253  1.0
  Co  Co4  1  1.28917475  -0.69727199  0.88274805  1.0
  Co  Co5  1  1.69727199  -0.28917475  0.38274805  1.0
  Co  Co6  1  0.30272801  0.28917475  0.61725195  1.0
  Co  Co7  1  0.71082525  0.69727199  0.11725195  1.0
  Co  Co8  1  1.61790806  -0.21767809  0.53165362  1.0
  Co  Co9  1  1.21767809  -0.61790806  0.03165362  1.0
  Co  Co10  1  0.78232191  0.61790806  0.96834638  1.0
  Co  Co11  1  0.38209194  0.21767809  0.46834638  1.0
  Co  Co12  1  0.72798683  0.72798683  0.75000000  1.0
  Co  Co13  1  0.27201317  0.27201317  0.25000000  1.0
  O  O14  1  0.27426966  0.04265266  0.74301003  1.0
  O  O15  1  0.95734734  0.72573034  0.24301003  1.0
  O  O16  1  1.04265266  -0.72573034  0.75698997  1.0
  O  O17  1  1.72573034  -0.04265266  0.25698997  1.0
  O  O18  1  1.78683102  -0.08131874  0.43626036  1.0
  O  O19  1  1.08131874  0.21316898  0.93626036  1.0
  O  O20  1  0.91868126  -0.21316898  0.06373964  1.0
  O  O21  1  0.21316898  0.08131874  0.56373964  1.0
  O  O22  1  1.92653290  0.04785006  0.63399921  1.0
  O  O23  1  0.95214994  -0.92653290  0.13399921  1.0
  O  O24  1  1.04785006  0.92653290  0.86600079  1.0
  O  O25  1  0.07346710  -0.04785006  0.36600079  1.0
  O  O26  1  1.61834395  -0.29470338  0.85432690  1.0
  O  O27  1  1.29470338  -0.61834395  0.35432690  1.0
  O  O28  1  0.70529662  0.61834395  0.64567310  1.0
  O  O29  1  0.38165605  0.29470338  0.14567310  1.0
  O  O30  1  0.57250191  0.41383957  0.85526729  1.0
  O  O31  1  0.58616043  0.42749809  0.35526729  1.0
  O  O32  1  1.41383957  -0.42749809  0.64473271  1.0
  O  O33  1  1.42749809  -0.41383957  0.14473271  1.0
  O  O34  1  0.55924573  -0.23257079  0.98009481  1.0
  O  O35  1  1.23257079  -0.55924573  0.48009481  1.0
  O  O36  1  0.76742921  0.55924573  0.51990519  1.0
  O  O37  1  1.44075427  0.23257079  0.01990519  1.0
  Te  Te38  1  0.71228779  -0.02733566  0.85855708  1.0
  Te  Te39  1  1.02733566  -0.71228779  0.35855708  1.0
  Te  Te40  1  0.97266434  0.71228779  0.64144292  1.0
  Te  Te41  1  1.28771221  0.02733566  0.14144292  1.0
  Te  Te42  1  0.34702729  0.04749894  0.87875744  1.0
  Te  Te43  1  0.95250106  0.65297271  0.37875744  1.0
  Te  Te44  1  1.04749894  -0.65297271  0.62124256  1.0
  Te  Te45  1  1.65297271  -0.04749894  0.12124256  1.0
