# generated using pymatgen
data_BiBr3
_symmetry_space_group_name_H-M   'P 1'
_cell_length_a   7.37994005
_cell_length_b   7.37994005
_cell_length_c   7.47511872
_cell_angle_alpha   80.79214433
_cell_angle_beta   99.20785567
_cell_angle_gamma   60.07902581
_symmetry_Int_Tables_number   1
_chemical_formula_structural   BiBr3
_chemical_formula_sum   'Bi2 Br6'
_cell_volume   334.34516770
_cell_formula_units_Z   2
loop_
 _symmetry_equiv_pos_site_id
 _symmetry_equiv_pos_as_xyz
  1  'x, y, z'
loop_
 _atom_site_type_symbol
 _atom_site_label
 _atom_site_symmetry_multiplicity
 _atom_site_fract_x
 _atom_site_fract_y
 _atom_site_fract_z
 _atom_site_occupancy
  Bi  Bi0  1  0.83339464  -0.16660536  -0.00000000  1.0
  Bi  Bi1  1  1.16660536  0.16660536  -0.00000000  1.0
  Br  Br2  1  0.42370620  -0.06542105  0.76404072  1.0
  Br  Br3  1  1.06542105  0.57629380  0.76404072  1.0
  Br  Br4  1  0.93457895  -0.57629380  0.23595928  1.0
  Br  Br5  1  1.57629380  0.06542105  0.23595928  1.0
  Br  Br6  1  0.78356013  -0.78356013  0.76164518  1.0
  Br  Br7  1  0.21643987  -0.21643987  0.23835482  1.0
