# generated using pymatgen
data_LaCuPd
_symmetry_space_group_name_H-M   'P 1'
_cell_length_a   7.34185118
_cell_length_b   7.34185118
_cell_length_c   4.09714464
_cell_angle_alpha   90.00000000
_cell_angle_beta   90.00000000
_cell_angle_gamma   120.00000000
_symmetry_Int_Tables_number   1
_chemical_formula_structural   LaCuPd
_chemical_formula_sum   'La3 Cu3 Pd3'
_cell_volume   191.25952891
_cell_formula_units_Z   3
loop_
 _symmetry_equiv_pos_site_id
 _symmetry_equiv_pos_as_xyz
  1  'x, y, z'
loop_
 _atom_site_type_symbol
 _atom_site_label
 _atom_site_symmetry_multiplicity
 _atom_site_fract_x
 _atom_site_fract_y
 _atom_site_fract_z
 _atom_site_occupancy
  La  La0  1  0.40345513  0.40345513  -0.00000000  1.0
  La  La1  1  -0.00000000  0.59654487  0.00000000  1.0
  La  La2  1  0.59654487  -0.00000000  0.00000000  1.0
  Cu  Cu3  1  0.76892293  0.76892293  0.50000000  1.0
  Cu  Cu4  1  0.00000000  0.23107707  0.50000000  1.0
  Cu  Cu5  1  0.23107707  -0.00000000  0.50000000  1.0
  Pd  Pd6  1  0.33333333  0.66666667  0.50000000  1.0
  Pd  Pd7  1  0.66666667  0.33333333  0.50000000  1.0
  Pd  Pd8  1  -0.00000000  -0.00000000  0.00000000  1.0
