# generated using pymatgen
data_Mn4NO8
_symmetry_space_group_name_H-M   'P 1'
_cell_length_a   7.12368613
_cell_length_b   7.12368613
_cell_length_c   7.12368613
_cell_angle_alpha   92.34589939
_cell_angle_beta   92.34589939
_cell_angle_gamma   156.65501493
_symmetry_Int_Tables_number   1
_chemical_formula_structural   Mn4NO8
_chemical_formula_sum   'Mn4 N1 O8'
_cell_volume   140.28987309
_cell_formula_units_Z   1
loop_
 _symmetry_equiv_pos_site_id
 _symmetry_equiv_pos_as_xyz
  1  'x, y, z'
loop_
 _atom_site_type_symbol
 _atom_site_label
 _atom_site_symmetry_multiplicity
 _atom_site_fract_x
 _atom_site_fract_y
 _atom_site_fract_z
 _atom_site_occupancy
  Mn  Mn0  1  0.66662137  0.84795913  1.51458050  1.0
  Mn  Mn1  1  0.84795913  1.33337863  1.18133776  1.0
  Mn  Mn2  1  0.33337863  0.15204087  0.48541950  1.0
  Mn  Mn3  1  1.15204087  0.66662137  0.81866224  1.0
  N  N4  1  0.00000000  0.00000000  0.00000000  1.0
  O  O5  1  0.95811669  0.66440846  0.62252515  1.0
  O  O6  1  0.66440846  0.04188331  0.70629177  1.0
  O  O7  1  1.04188331  1.33559154  1.37747485  1.0
  O  O8  1  0.33559154  0.95811669  1.29370823  1.0
  O  O9  1  0.70550322  0.65655562  0.36205884  1.0
  O  O10  1  0.65655562  0.29449678  0.95105240  1.0
  O  O11  1  1.29449678  1.34344438  1.63794116  1.0
  O  O12  1  0.34344438  0.70550322  1.04894760  1.0
