# generated using pymatgen
data_CsS
_symmetry_space_group_name_H-M   'P 1'
_cell_length_a   6.83983832
_cell_length_b   6.83983832
_cell_length_c   6.83983832
_cell_angle_alpha   136.91897182
_cell_angle_beta   136.91897182
_cell_angle_gamma   62.56274496
_symmetry_Int_Tables_number   1
_chemical_formula_structural   CsS
_chemical_formula_sum   'Cs2 S2'
_cell_volume   147.46294452
_cell_formula_units_Z   2
loop_
 _symmetry_equiv_pos_site_id
 _symmetry_equiv_pos_as_xyz
  1  'x, y, z'
loop_
 _atom_site_type_symbol
 _atom_site_label
 _atom_site_symmetry_multiplicity
 _atom_site_fract_x
 _atom_site_fract_y
 _atom_site_fract_z
 _atom_site_occupancy
  Cs  Cs0  1  0.25000000  0.75000000  0.50000000  1.0
  Cs  Cs1  1  0.50000000  0.50000000  1.00000000  1.0
  S  S2  1  0.75000000  0.25000000  0.50000000  1.0
  S  S3  1  0.00000000  0.00000000  0.00000000  1.0
