# generated using pymatgen
data_CdI2
_symmetry_space_group_name_H-M   'P 1'
_cell_length_a   4.32659290
_cell_length_b   4.32659290
_cell_length_c   30.52577861
_cell_angle_alpha   90.00000000
_cell_angle_beta   90.00000000
_cell_angle_gamma   120.00000000
_symmetry_Int_Tables_number   1
_chemical_formula_structural   CdI2
_chemical_formula_sum   'Cd4 I8'
_cell_volume   494.86808759
_cell_formula_units_Z   4
loop_
 _symmetry_equiv_pos_site_id
 _symmetry_equiv_pos_as_xyz
  1  'x, y, z'
loop_
 _atom_site_type_symbol
 _atom_site_label
 _atom_site_symmetry_multiplicity
 _atom_site_fract_x
 _atom_site_fract_y
 _atom_site_fract_z
 _atom_site_occupancy
  Cd  Cd0  1  0.33333333  0.66666667  0.75003625  1.0
  Cd  Cd1  1  0.66666667  0.33333333  0.24996375  1.0
  Cd  Cd2  1  0.00000000  0.00000000  0.50000000  1.0
  Cd  Cd3  1  0.00000000  0.00000000  0.00000000  1.0
  I  I4  1  0.33333333  0.66666667  0.05632243  1.0
  I  I5  1  0.66666667  0.33333333  0.94367757  1.0
  I  I6  1  0.33333333  0.66666667  0.30629565  1.0
  I  I7  1  0.66666667  0.33333333  0.69370435  1.0
  I  I8  1  0.33333333  0.66666667  0.55635414  1.0
  I  I9  1  0.66666667  0.33333333  0.44364586  1.0
  I  I10  1  0.00000000  0.00000000  0.19363437  1.0
  I  I11  1  0.00000000  0.00000000  0.80636563  1.0
