# generated using pymatgen
data_Tl3PO4
_symmetry_space_group_name_H-M   'P 1'
_cell_length_a   8.92112435
_cell_length_b   8.92112435
_cell_length_c   5.22314114
_cell_angle_alpha   90.00000000
_cell_angle_beta   90.00000000
_cell_angle_gamma   120.00000000
_symmetry_Int_Tables_number   1
_chemical_formula_structural   Tl3PO4
_chemical_formula_sum   'Tl6 P2 O8'
_cell_volume   359.99923644
_cell_formula_units_Z   2
loop_
 _symmetry_equiv_pos_site_id
 _symmetry_equiv_pos_as_xyz
  1  'x, y, z'
loop_
 _atom_site_type_symbol
 _atom_site_label
 _atom_site_symmetry_multiplicity
 _atom_site_fract_x
 _atom_site_fract_y
 _atom_site_fract_z
 _atom_site_occupancy
  Tl  Tl0  1  0.71707023  0.62715895  0.01393665  1.0
  Tl  Tl1  1  0.62715895  0.91008872  0.51393665  1.0
  Tl  Tl2  1  0.91008872  0.28292977  0.01393665  1.0
  Tl  Tl3  1  0.37284105  0.08991128  0.01393665  1.0
  Tl  Tl4  1  0.28292977  0.37284105  0.51393665  1.0
  Tl  Tl5  1  0.08991128  0.71707023  0.51393665  1.0
  P  P6  1  0.33333333  0.66666667  0.00339412  1.0
  P  P7  1  0.66666667  0.33333333  0.50339412  1.0
  O  O8  1  0.45691085  0.85596612  0.09807051  1.0
  O  O9  1  0.85596612  0.39905527  0.59807051  1.0
  O  O10  1  0.39905527  0.54308915  0.09807051  1.0
  O  O11  1  0.14403388  0.60094473  0.09807051  1.0
  O  O12  1  0.54308915  0.14403388  0.59807051  1.0
  O  O13  1  0.60094473  0.45691085  0.59807051  1.0
  O  O14  1  0.33333333  0.66666667  0.69998441  1.0
  O  O15  1  0.66666667  0.33333333  0.19998441  1.0
