# generated using pymatgen
data_Al2Au
_symmetry_space_group_name_H-M   'P 1'
_cell_length_a   6.99860383
_cell_length_b   3.67095921
_cell_length_c   8.05444828
_cell_angle_alpha   90.00000000
_cell_angle_beta   90.00000000
_cell_angle_gamma   90.00000000
_symmetry_Int_Tables_number   1
_chemical_formula_structural   Al2Au
_chemical_formula_sum   'Al8 Au4'
_cell_volume   206.93157650
_cell_formula_units_Z   4
loop_
 _symmetry_equiv_pos_site_id
 _symmetry_equiv_pos_as_xyz
  1  'x, y, z'
loop_
 _atom_site_type_symbol
 _atom_site_label
 _atom_site_symmetry_multiplicity
 _atom_site_fract_x
 _atom_site_fract_y
 _atom_site_fract_z
 _atom_site_occupancy
  Al  Al0  1  0.94768686  0.75000000  0.65552778  1.0
  Al  Al1  1  0.44768686  0.75000000  0.84447222  1.0
  Al  Al2  1  0.05231314  0.25000000  0.34447222  1.0
  Al  Al3  1  0.55231314  0.25000000  0.15552778  1.0
  Al  Al4  1  0.87368033  0.75000000  0.06938741  1.0
  Al  Al5  1  0.37368033  0.75000000  0.43061259  1.0
  Al  Al6  1  0.12631967  0.25000000  0.93061259  1.0
  Al  Al7  1  0.62631967  0.25000000  0.56938741  1.0
  Au  Au8  1  0.75304876  0.75000000  0.36552662  1.0
  Au  Au9  1  0.25304876  0.75000000  0.13447338  1.0
  Au  Au10  1  0.24695124  0.25000000  0.63447338  1.0
  Au  Au11  1  0.74695124  0.25000000  0.86552662  1.0
