# generated using pymatgen
data_HfCrGe2
_symmetry_space_group_name_H-M   'P 1'
_cell_length_a   9.24502612
_cell_length_b   9.99339730
_cell_length_c   8.19167649
_cell_angle_alpha   90.00000000
_cell_angle_beta   90.00000000
_cell_angle_gamma   90.00000000
_symmetry_Int_Tables_number   1
_chemical_formula_structural   HfCrGe2
_chemical_formula_sum   'Hf12 Cr12 Ge24'
_cell_volume   756.82259384
_cell_formula_units_Z   12
loop_
 _symmetry_equiv_pos_site_id
 _symmetry_equiv_pos_as_xyz
  1  'x, y, z'
loop_
 _atom_site_type_symbol
 _atom_site_label
 _atom_site_symmetry_multiplicity
 _atom_site_fract_x
 _atom_site_fract_y
 _atom_site_fract_z
 _atom_site_occupancy
  Hf  Hf0  1  0.17132908  0.54837982  0.75528662  1.0
  Hf  Hf1  1  0.17132908  0.54837982  0.24471338  1.0
  Hf  Hf2  1  0.67132908  0.95162018  0.75528662  1.0
  Hf  Hf3  1  0.67132908  0.95162018  0.24471338  1.0
  Hf  Hf4  1  0.82867092  0.45162018  0.75528662  1.0
  Hf  Hf5  1  0.82867092  0.45162018  0.24471338  1.0
  Hf  Hf6  1  0.32867092  0.04837982  0.75528662  1.0
  Hf  Hf7  1  0.32867092  0.04837982  0.24471338  1.0
  Hf  Hf8  1  0.16586498  0.82017351  0.00000000  1.0
  Hf  Hf9  1  0.66586498  0.67982649  0.00000000  1.0
  Hf  Hf10  1  0.83413502  0.17982649  0.00000000  1.0
  Hf  Hf11  1  0.33413502  0.32017351  0.00000000  1.0
  Cr  Cr12  1  0.42088934  0.74519189  0.75102976  1.0
  Cr  Cr13  1  0.42088934  0.74519189  0.24897024  1.0
  Cr  Cr14  1  0.92088934  0.75480811  0.75102976  1.0
  Cr  Cr15  1  0.92088934  0.75480811  0.24897024  1.0
  Cr  Cr16  1  0.57911066  0.25480811  0.75102976  1.0
  Cr  Cr17  1  0.57911066  0.25480811  0.24897024  1.0
  Cr  Cr18  1  0.07911066  0.24519189  0.75102976  1.0
  Cr  Cr19  1  0.07911066  0.24519189  0.24897024  1.0
  Cr  Cr20  1  0.50000000  0.50000000  0.75575636  1.0
  Cr  Cr21  1  0.50000000  0.50000000  0.24424364  1.0
  Cr  Cr22  1  0.00000000  0.00000000  0.75575636  1.0
  Cr  Cr23  1  0.00000000  0.00000000  0.24424364  1.0
  Ge  Ge24  1  0.17224332  0.81902116  0.65698588  1.0
  Ge  Ge25  1  0.17224332  0.81902116  0.34301412  1.0
  Ge  Ge26  1  0.67224332  0.68097884  0.65698588  1.0
  Ge  Ge27  1  0.67224332  0.68097884  0.34301412  1.0
  Ge  Ge28  1  0.82775668  0.18097884  0.65698588  1.0
  Ge  Ge29  1  0.82775668  0.18097884  0.34301412  1.0
  Ge  Ge30  1  0.32775668  0.31902116  0.65698588  1.0
  Ge  Ge31  1  0.32775668  0.31902116  0.34301412  1.0
  Ge  Ge32  1  0.46207661  0.87483524  0.50000000  1.0
  Ge  Ge33  1  0.96207661  0.62516476  0.50000000  1.0
  Ge  Ge34  1  0.53792339  0.12516476  0.50000000  1.0
  Ge  Ge35  1  0.03792339  0.37483524  0.50000000  1.0
  Ge  Ge36  1  0.37492956  0.59291001  0.50000000  1.0
  Ge  Ge37  1  0.87492956  0.90708999  0.50000000  1.0
  Ge  Ge38  1  0.62507044  0.40708999  0.50000000  1.0
  Ge  Ge39  1  0.12507044  0.09291001  0.50000000  1.0
  Ge  Ge40  1  0.45817445  0.87863878  0.00000000  1.0
  Ge  Ge41  1  0.95817445  0.62136122  -0.00000000  1.0
  Ge  Ge42  1  0.54182555  0.12136122  0.00000000  1.0
  Ge  Ge43  1  0.04182555  0.37863878  -0.00000000  1.0
  Ge  Ge44  1  0.36797442  0.60015101  0.00000000  1.0
  Ge  Ge45  1  0.86797442  0.89984899  -0.00000000  1.0
  Ge  Ge46  1  0.63202558  0.39984899  0.00000000  1.0
  Ge  Ge47  1  0.13202558  0.10015101  -0.00000000  1.0
