# generated using pymatgen
data_TlCl2
_symmetry_space_group_name_H-M   'P 1'
_cell_length_a   9.47016759
_cell_length_b   9.47016759
_cell_length_c   9.47016759
_cell_angle_alpha   135.50674409
_cell_angle_beta   135.50674409
_cell_angle_gamma   64.74384543
_symmetry_Int_Tables_number   1
_chemical_formula_structural   TlCl2
_chemical_formula_sum   'Tl4 Cl8'
_cell_volume   411.26988880
_cell_formula_units_Z   4
loop_
 _symmetry_equiv_pos_site_id
 _symmetry_equiv_pos_as_xyz
  1  'x, y, z'
loop_
 _atom_site_type_symbol
 _atom_site_label
 _atom_site_symmetry_multiplicity
 _atom_site_fract_x
 _atom_site_fract_y
 _atom_site_fract_z
 _atom_site_occupancy
  Tl  Tl0  1  0.25000000  0.75000000  0.50000000  1.0
  Tl  Tl1  1  0.50000000  0.50000000  1.00000000  1.0
  Tl  Tl2  1  0.75000000  0.25000000  0.50000000  1.0
  Tl  Tl3  1  0.00000000  0.00000000  0.00000000  1.0
  Cl  Cl4  1  0.58752720  0.49223201  0.41289118  1.0
  Cl  Cl5  1  1.07934082  1.17463601  1.58710882  1.0
  Cl  Cl6  1  0.67065918  1.07536399  0.91289118  1.0
  Cl  Cl7  1  1.16247280  0.75776799  1.08710882  1.0
  Cl  Cl8  1  0.50776799  0.92065918  1.09529519  1.0
  Cl  Cl9  1  0.82536399  0.41247280  0.90470481  1.0
  Cl  Cl10  1  0.92463601  0.83752720  1.59529519  1.0
  Cl  Cl11  1  0.24223201  0.32934082  0.40470481  1.0
