# generated using pymatgen
data_Li4Zn
_symmetry_space_group_name_H-M   'P 1'
_cell_length_a   4.97728143
_cell_length_b   4.97728143
_cell_length_c   4.97728143
_cell_angle_alpha   99.99693343
_cell_angle_beta   99.99693343
_cell_angle_gamma   130.75372949
_symmetry_Int_Tables_number   1
_chemical_formula_structural   Li4Zn
_chemical_formula_sum   'Li4 Zn1'
_cell_volume   84.91188269
_cell_formula_units_Z   1
loop_
 _symmetry_equiv_pos_site_id
 _symmetry_equiv_pos_as_xyz
  1  'x, y, z'
loop_
 _atom_site_type_symbol
 _atom_site_label
 _atom_site_symmetry_multiplicity
 _atom_site_fract_x
 _atom_site_fract_y
 _atom_site_fract_z
 _atom_site_occupancy
  Li  Li0  1  1.20850012  0.60565805  0.81415817  1.0
  Li  Li1  1  0.79149988  1.39434195  1.18584183  1.0
  Li  Li2  1  0.60565805  0.79149988  1.39715793  1.0
  Li  Li3  1  0.39434195  0.20850012  0.60284207  1.0
  Zn  Zn4  1  0.00000000  0.00000000  0.00000000  1.0
