# generated using pymatgen
data_Ca5CuPb3
_symmetry_space_group_name_H-M   'P 1'
_cell_length_a   9.60352569
_cell_length_b   9.60352569
_cell_length_c   6.76072015
_cell_angle_alpha   90.00000000
_cell_angle_beta   90.00000000
_cell_angle_gamma   120.00000000
_symmetry_Int_Tables_number   1
_chemical_formula_structural   Ca5CuPb3
_chemical_formula_sum   'Ca10 Cu2 Pb6'
_cell_volume   539.98910278
_cell_formula_units_Z   2
loop_
 _symmetry_equiv_pos_site_id
 _symmetry_equiv_pos_as_xyz
  1  'x, y, z'
loop_
 _atom_site_type_symbol
 _atom_site_label
 _atom_site_symmetry_multiplicity
 _atom_site_fract_x
 _atom_site_fract_y
 _atom_site_fract_z
 _atom_site_occupancy
  Ca  Ca0  1  0.74615586  0.74615586  0.25000000  1.0
  Ca  Ca1  1  0.74615586  0.00000000  0.75000000  1.0
  Ca  Ca2  1  0.00000000  0.74615586  0.75000000  1.0
  Ca  Ca3  1  0.00000000  0.25384414  0.25000000  1.0
  Ca  Ca4  1  0.25384414  0.25384414  0.75000000  1.0
  Ca  Ca5  1  0.25384414  -0.00000000  0.25000000  1.0
  Ca  Ca6  1  0.33333333  0.66666667  -0.00001534  1.0
  Ca  Ca7  1  0.33333333  0.66666667  0.49998466  1.0
  Ca  Ca8  1  0.66666667  0.33333333  0.50001534  1.0
  Ca  Ca9  1  0.66666667  0.33333333  1.00001534  1.0
  Cu  Cu10  1  0.00000000  -0.00000000  -0.00000000  1.0
  Cu  Cu11  1  -0.00000000  -0.00000000  0.50000000  1.0
  Pb  Pb12  1  0.40436773  0.40436773  0.25000000  1.0
  Pb  Pb13  1  0.40436773  -0.00000000  0.75000000  1.0
  Pb  Pb14  1  -0.00000000  0.40436773  0.75000000  1.0
  Pb  Pb15  1  0.00000000  0.59563227  0.25000000  1.0
  Pb  Pb16  1  0.59563227  0.59563227  0.75000000  1.0
  Pb  Pb17  1  0.59563227  0.00000000  0.25000000  1.0
