# generated using pymatgen
data_Nb4Ni2N
_symmetry_space_group_name_H-M   'P 1'
_cell_length_a   8.22709366
_cell_length_b   8.22709366
_cell_length_c   8.22709366
_cell_angle_alpha   60.00000000
_cell_angle_beta   60.00000000
_cell_angle_gamma   60.00000000
_symmetry_Int_Tables_number   1
_chemical_formula_structural   Nb4Ni2N
_chemical_formula_sum   'Nb16 Ni8 N4'
_cell_volume   393.75340881
_cell_formula_units_Z   4
loop_
 _symmetry_equiv_pos_site_id
 _symmetry_equiv_pos_as_xyz
  1  'x, y, z'
loop_
 _atom_site_type_symbol
 _atom_site_label
 _atom_site_symmetry_multiplicity
 _atom_site_fract_x
 _atom_site_fract_y
 _atom_site_fract_z
 _atom_site_occupancy
  Nb  Nb0  1  1.12500000  0.62500000  0.62500000  1.0
  Nb  Nb1  1  0.62500000  1.12500000  -0.37500000  1.0
  Nb  Nb2  1  -0.37500000  0.62500000  1.12500000  1.0
  Nb  Nb3  1  -0.37500000  0.62500000  0.62500000  1.0
  Nb  Nb4  1  0.81770221  0.81770221  -0.81770221  1.0
  Nb  Nb5  1  0.18229779  1.18229779  -0.18229779  1.0
  Nb  Nb6  1  0.81770221  -0.81770221  0.81770221  1.0
  Nb  Nb7  1  0.18229779  -0.18229779  0.18229779  1.0
  Nb  Nb8  1  -0.81770221  0.81770221  0.81770221  1.0
  Nb  Nb9  1  -0.18229779  0.18229779  0.18229779  1.0
  Nb  Nb10  1  0.43229779  1.43229779  0.06770221  1.0
  Nb  Nb11  1  0.06770221  0.06770221  0.43229779  1.0
  Nb  Nb12  1  0.43229779  1.06770221  0.43229779  1.0
  Nb  Nb13  1  0.06770221  1.43229779  0.06770221  1.0
  Nb  Nb14  1  0.06770221  1.43229779  0.43229779  1.0
  Nb  Nb15  1  0.43229779  1.06770221  0.06770221  1.0
  Ni  Ni16  1  -0.26063892  0.42021297  0.42021297  1.0
  Ni  Ni17  1  0.42021297  -0.26063892  0.42021297  1.0
  Ni  Ni18  1  0.42021297  1.42021297  -0.26063892  1.0
  Ni  Ni19  1  0.42021297  1.42021297  0.42021297  1.0
  Ni  Ni20  1  0.51063892  0.82978703  -0.17021297  1.0
  Ni  Ni21  1  0.82978703  0.51063892  0.82978703  1.0
  Ni  Ni22  1  0.82978703  0.82978703  -0.48936108  1.0
  Ni  Ni23  1  0.82978703  0.82978703  0.82978703  1.0
  N  N24  1  0.62500000  1.12500000  0.12500000  1.0
  N  N25  1  0.12500000  1.62500000  0.12500000  1.0
  N  N26  1  0.12500000  0.12500000  1.62500000  1.0
  N  N27  1  0.12500000  0.12500000  0.12500000  1.0
