# generated using pymatgen
data_Tl2SnHgTe4
_symmetry_space_group_name_H-M   'P 1'
_cell_length_a   7.12706456
_cell_length_b   7.12706456
_cell_length_c   7.12706456
_cell_angle_alpha   105.21075035
_cell_angle_beta   105.21075035
_cell_angle_gamma   118.37624881
_symmetry_Int_Tables_number   1
_chemical_formula_structural   Tl2SnHgTe4
_chemical_formula_sum   'Tl2 Sn1 Hg1 Te4'
_cell_volume   273.56327313
_cell_formula_units_Z   1
loop_
 _symmetry_equiv_pos_site_id
 _symmetry_equiv_pos_as_xyz
  1  'x, y, z'
loop_
 _atom_site_type_symbol
 _atom_site_label
 _atom_site_symmetry_multiplicity
 _atom_site_fract_x
 _atom_site_fract_y
 _atom_site_fract_z
 _atom_site_occupancy
  Tl  Tl0  1  0.50000000  0.00000000  0.50000000  1.0
  Tl  Tl1  1  0.00000000  0.50000000  0.50000000  1.0
  Sn  Sn2  1  0.00000000  0.00000000  0.00000000  1.0
  Hg  Hg3  1  0.50000000  0.50000000  -0.00000000  1.0
  Te  Te4  1  1.05778387  1.05778387  0.63791200  1.0
  Te  Te5  1  0.94221613  1.58012813  1.00000000  1.0
  Te  Te6  1  1.58012813  0.94221613  1.00000000  1.0
  Te  Te7  1  0.41987187  0.41987187  0.36208800  1.0
