# generated using pymatgen
data_BaNa2V2CuO8
_symmetry_space_group_name_H-M   'P 1'
_cell_length_a   5.55414047
_cell_length_b   5.55414047
_cell_length_c   14.15252664
_cell_angle_alpha   86.94978010
_cell_angle_beta   93.05021990
_cell_angle_gamma   116.54131468
_symmetry_Int_Tables_number   1
_chemical_formula_structural   BaNa2V2CuO8
_chemical_formula_sum   'Ba2 Na4 V4 Cu2 O16'
_cell_volume   389.80825796
_cell_formula_units_Z   2
loop_
 _symmetry_equiv_pos_site_id
 _symmetry_equiv_pos_as_xyz
  1  'x, y, z'
loop_
 _atom_site_type_symbol
 _atom_site_label
 _atom_site_symmetry_multiplicity
 _atom_site_fract_x
 _atom_site_fract_y
 _atom_site_fract_z
 _atom_site_occupancy
  Ba  Ba0  1  0.86899282  -0.13100718  0.25000000  1.0
  Ba  Ba1  1  1.13100718  0.13100718  0.75000000  1.0
  Na  Na2  1  1.57762293  0.26008631  0.08881805  1.0
  Na  Na3  1  0.73991369  -0.57762293  0.58881805  1.0
  Na  Na4  1  1.26008631  0.57762293  0.41118195  1.0
  Na  Na5  1  0.42237707  -0.26008631  0.91118195  1.0
  V  V6  1  1.58767135  0.22778147  0.37140308  1.0
  V  V7  1  0.77221853  -0.58767135  0.87140308  1.0
  V  V8  1  1.22778147  0.58767135  0.12859692  1.0
  V  V9  1  0.41232865  -0.22778147  0.62859692  1.0
  Cu  Cu10  1  0.00000000  -0.00000000  0.50000000  1.0
  Cu  Cu11  1  0.00000000  0.00000000  0.00000000  1.0
  O  O12  1  0.52546794  -0.21560457  0.07766162  1.0
  O  O13  1  1.21560457  0.47453206  0.57766162  1.0
  O  O14  1  0.78439543  -0.47453206  0.42233838  1.0
  O  O15  1  1.47453206  0.21560457  0.92233838  1.0
  O  O16  1  1.69880977  -0.00563928  0.41533716  1.0
  O  O17  1  1.00563928  -0.69880977  0.91533716  1.0
  O  O18  1  0.99436072  0.69880977  0.08466284  1.0
  O  O19  1  0.30119023  0.00563928  0.58466284  1.0
  O  O20  1  1.64147638  0.27553250  0.25359374  1.0
  O  O21  1  0.72446750  -0.64147638  0.75359374  1.0
  O  O22  1  1.27553250  0.64147638  0.24640626  1.0
  O  O23  1  0.35852362  -0.27553250  0.74640626  1.0
  O  O24  1  1.24241219  0.12335902  0.39261078  1.0
  O  O25  1  0.87664098  -0.24241219  0.89261078  1.0
  O  O26  1  1.12335902  0.24241219  0.10738922  1.0
  O  O27  1  0.75758781  -0.12335902  0.60738922  1.0
