# generated using pymatgen
data_CsMn4Cl9
_symmetry_space_group_name_H-M   'P 1'
_cell_length_a   9.90748790
_cell_length_b   9.90748790
_cell_length_c   9.90748790
_cell_angle_alpha   106.54684929
_cell_angle_beta   106.54684929
_cell_angle_gamma   115.49304277
_symmetry_Int_Tables_number   1
_chemical_formula_structural   CsMn4Cl9
_chemical_formula_sum   'Cs2 Mn8 Cl18'
_cell_volume   742.36592650
_cell_formula_units_Z   2
loop_
 _symmetry_equiv_pos_site_id
 _symmetry_equiv_pos_as_xyz
  1  'x, y, z'
loop_
 _atom_site_type_symbol
 _atom_site_label
 _atom_site_symmetry_multiplicity
 _atom_site_fract_x
 _atom_site_fract_y
 _atom_site_fract_z
 _atom_site_occupancy
  Cs  Cs0  1  1.00000000  1.00000000  1.00000000  1.0
  Cs  Cs1  1  0.75000000  0.25000000  0.50000000  1.0
  Mn  Mn2  1  0.70164903  0.60236211  0.31006992  1.0
  Mn  Mn3  1  1.29229219  1.39157911  1.68993008  1.0
  Mn  Mn4  1  1.45770781  0.85842089  0.81006992  1.0
  Mn  Mn5  1  1.04835097  0.64763789  1.18993008  1.0
  Mn  Mn6  1  0.60842089  1.29835097  0.90071308  1.0
  Mn  Mn7  1  1.39763789  0.70770781  1.09928692  1.0
  Mn  Mn8  1  1.35236211  1.54229219  1.40071308  1.0
  Mn  Mn9  1  1.14157911  0.95164903  1.59928692  1.0
  Cl  Cl10  1  0.90480959  0.71411279  1.59010401  1.0
  Cl  Cl11  1  1.12400878  1.31470558  1.40989599  1.0
  Cl  Cl12  1  1.62599122  0.93529442  1.09010401  1.0
  Cl  Cl13  1  0.84519041  0.53588721  0.90989599  1.0
  Cl  Cl14  1  1.68529442  1.09519041  0.80930320  1.0
  Cl  Cl15  1  1.28588721  0.87599122  1.19069680  1.0
  Cl  Cl16  1  1.46411279  1.37400878  1.30930320  1.0
  Cl  Cl17  1  1.06470558  1.15480959  1.69069680  1.0
  Cl  Cl18  1  0.79271465  0.41307716  1.19475482  1.0
  Cl  Cl19  1  1.21832234  0.59795983  0.80524518  1.0
  Cl  Cl20  1  1.53167766  1.65204017  1.69475482  1.0
  Cl  Cl21  1  0.95728535  0.83692284  1.30524518  1.0
  Cl  Cl22  1  1.40204017  1.20728535  1.62036251  1.0
  Cl  Cl23  1  1.58692284  1.78167766  1.37963749  1.0
  Cl  Cl24  1  1.16307716  1.46832234  1.12036251  1.0
  Cl  Cl25  1  0.34795983  1.04271465  0.87963749  1.0
  Cl  Cl26  1  0.50000000  0.50000000  0.00000000  1.0
  Cl  Cl27  1  1.25000000  0.75000000  0.50000000  1.0
