# generated using pymatgen
data_H2C3O4
_symmetry_space_group_name_H-M   'P 1'
_cell_length_a   5.99960719
_cell_length_b   5.99960719
_cell_length_c   12.38785702
_cell_angle_alpha   90.00000000
_cell_angle_beta   90.00000000
_cell_angle_gamma   90.00000000
_symmetry_Int_Tables_number   1
_chemical_formula_structural   H2C3O4
_chemical_formula_sum   'H8 C12 O16'
_cell_volume   445.90446119
_cell_formula_units_Z   4
loop_
 _symmetry_equiv_pos_site_id
 _symmetry_equiv_pos_as_xyz
  1  'x, y, z'
loop_
 _atom_site_type_symbol
 _atom_site_label
 _atom_site_symmetry_multiplicity
 _atom_site_fract_x
 _atom_site_fract_y
 _atom_site_fract_z
 _atom_site_occupancy
  H  H0  1  0.74804991  0.90484632  0.93317201  1.0
  H  H1  1  0.25195009  0.09515368  0.43317201  1.0
  H  H2  1  0.90484632  0.25195009  0.68317201  1.0
  H  H3  1  0.09515368  0.74804991  0.18317201  1.0
  H  H4  1  0.59499329  0.75230441  0.82915244  1.0
  H  H5  1  0.40500671  0.24769559  0.32915244  1.0
  H  H6  1  0.75230441  0.40500671  0.57915244  1.0
  H  H7  1  0.24769559  0.59499329  0.07915244  1.0
  C  C8  1  0.41220250  0.21647011  0.83726057  1.0
  C  C9  1  0.58779750  0.78352989  0.33726057  1.0
  C  C10  1  0.21647011  0.58779750  0.58726057  1.0
  C  C11  1  0.78352989  0.41220250  0.08726057  1.0
  C  C12  1  0.28427076  0.08931269  0.92444055  1.0
  C  C13  1  0.71572924  0.91068731  0.42444055  1.0
  C  C14  1  0.08931269  0.71572924  0.67444055  1.0
  C  C15  1  0.91068731  0.28427076  0.17444055  1.0
  C  C16  1  0.60040875  0.90001043  0.88113524  1.0
  C  C17  1  0.39959125  0.09998957  0.38113524  1.0
  C  C18  1  0.90001043  0.39959125  0.63113524  1.0
  C  C19  1  0.09998957  0.60040875  0.13113524  1.0
  O  O20  1  0.36356795  0.39065369  0.79461376  1.0
  O  O21  1  0.63643205  0.60934631  0.29461376  1.0
  O  O22  1  0.39065369  0.63643205  0.54461376  1.0
  O  O23  1  0.60934631  0.36356795  0.04461376  1.0
  O  O24  1  0.59690783  0.09662776  0.81511394  1.0
  O  O25  1  0.40309217  0.90337224  0.31511394  1.0
  O  O26  1  0.09662776  0.40309217  0.56511394  1.0
  O  O27  1  0.90337224  0.59690783  0.06511394  1.0
  O  O28  1  0.10994597  0.13860142  0.96676863  1.0
  O  O29  1  0.89005403  0.86139858  0.46676863  1.0
  O  O30  1  0.13860142  0.89005403  0.71676863  1.0
  O  O31  1  0.86139858  0.10994597  0.21676863  1.0
  O  O32  1  0.40365202  0.90452926  0.94704286  1.0
  O  O33  1  0.59634798  0.09547074  0.44704286  1.0
  O  O34  1  0.90452926  0.59634798  0.69704286  1.0
  O  O35  1  0.09547074  0.40365202  0.19704286  1.0
