# generated using pymatgen
data_NaSbO3
_symmetry_space_group_name_H-M   'P 1'
_cell_length_a   5.55287739
_cell_length_b   7.81474105
_cell_length_c   5.49187734
_cell_angle_alpha   90.00000000
_cell_angle_beta   90.00000000
_cell_angle_gamma   90.00000000
_symmetry_Int_Tables_number   1
_chemical_formula_structural   NaSbO3
_chemical_formula_sum   'Na4 Sb4 O12'
_cell_volume   238.31616688
_cell_formula_units_Z   4
loop_
 _symmetry_equiv_pos_site_id
 _symmetry_equiv_pos_as_xyz
  1  'x, y, z'
loop_
 _atom_site_type_symbol
 _atom_site_label
 _atom_site_symmetry_multiplicity
 _atom_site_fract_x
 _atom_site_fract_y
 _atom_site_fract_z
 _atom_site_occupancy
  Na  Na0  1  0.03922060  0.75000000  0.50808600  1.0
  Na  Na1  1  0.53922060  0.75000000  0.99191400  1.0
  Na  Na2  1  0.96077940  0.25000000  0.49191400  1.0
  Na  Na3  1  0.46077940  0.25000000  0.00808600  1.0
  Sb  Sb4  1  0.50000000  0.00000000  0.50000000  1.0
  Sb  Sb5  1  0.50000000  0.50000000  0.50000000  1.0
  Sb  Sb6  1  0.00000000  0.00000000  0.00000000  1.0
  Sb  Sb7  1  0.00000000  0.50000000  0.00000000  1.0
  O  O8  1  0.29556818  0.95346404  0.79836687  1.0
  O  O9  1  0.29556818  0.54653596  0.79836687  1.0
  O  O10  1  0.79556818  0.95346404  0.70163313  1.0
  O  O11  1  0.79556818  0.54653596  0.70163313  1.0
  O  O12  1  0.70443182  0.45346404  0.20163313  1.0
  O  O13  1  0.70443182  0.04653596  0.20163313  1.0
  O  O14  1  0.20443182  0.45346404  0.29836687  1.0
  O  O15  1  0.20443182  0.04653596  0.29836687  1.0
  O  O16  1  0.97420697  0.75000000  0.09030216  1.0
  O  O17  1  0.47420697  0.75000000  0.40969784  1.0
  O  O18  1  0.02579303  0.25000000  0.90969784  1.0
  O  O19  1  0.52579303  0.25000000  0.59030216  1.0
