# generated using pymatgen
data_TiPb2Se2ClO7F
_symmetry_space_group_name_H-M   'P 1'
_cell_length_a   8.53743671
_cell_length_b   5.45536251
_cell_length_c   11.01078203
_cell_angle_alpha   90.00000000
_cell_angle_beta   112.12876295
_cell_angle_gamma   90.00000000
_symmetry_Int_Tables_number   1
_chemical_formula_structural   TiPb2Se2ClO7F
_chemical_formula_sum   'Ti2 Pb4 Se4 Cl2 O14 F2'
_cell_volume   475.05022631
_cell_formula_units_Z   2
loop_
 _symmetry_equiv_pos_site_id
 _symmetry_equiv_pos_as_xyz
  1  'x, y, z'
loop_
 _atom_site_type_symbol
 _atom_site_label
 _atom_site_symmetry_multiplicity
 _atom_site_fract_x
 _atom_site_fract_y
 _atom_site_fract_z
 _atom_site_occupancy
  Ti  Ti0  1  0.14928350  0.50632454  0.54339831  1.0
  Ti  Ti1  1  0.85071650  0.00632454  0.45660169  1.0
  Pb  Pb2  1  0.33894298  0.96073616  0.30935379  1.0
  Pb  Pb3  1  0.66105702  0.46073616  0.69064621  1.0
  Pb  Pb4  1  0.79889877  0.00291309  0.00013693  1.0
  Pb  Pb5  1  0.20110123  0.50291309  0.99986307  1.0
  Se  Se6  1  0.01052445  0.51102992  0.22363920  1.0
  Se  Se7  1  0.98947555  0.01102992  0.77636080  1.0
  Se  Se8  1  0.62813673  0.50425700  0.31037065  1.0
  Se  Se9  1  0.37186327  0.00425700  0.68962935  1.0
  Cl  Cl10  1  0.36195500  0.02281278  0.04758256  1.0
  Cl  Cl11  1  0.63804500  0.52281278  0.95241744  1.0
  O  O12  1  0.02540486  0.79858524  0.53394454  1.0
  O  O13  1  0.97459514  0.29858524  0.46605546  1.0
  O  O14  1  0.05948502  0.73617077  0.13195455  1.0
  O  O15  1  0.94051498  0.23617077  0.86804545  1.0
  O  O16  1  0.08117162  0.26204189  0.16425467  1.0
  O  O17  1  0.91882838  0.76204189  0.83574533  1.0
  O  O18  1  0.17519995  0.57571132  0.37240518  1.0
  O  O19  1  0.82480005  0.07571132  0.62759482  1.0
  O  O20  1  0.37572289  0.73307932  0.60776554  1.0
  O  O21  1  0.62427711  0.23307932  0.39223446  1.0
  O  O22  1  0.41526081  0.55605115  0.23388535  1.0
  O  O23  1  0.58473919  0.05605115  0.76611465  1.0
  O  O24  1  0.66843774  0.72668914  0.43304527  1.0
  O  O25  1  0.33156226  0.22668914  0.56695473  1.0
  F  F26  1  0.82000753  0.94809768  0.27935365  1.0
  F  F27  1  0.17999247  0.44809768  0.72064635  1.0
