# generated using pymatgen
data_CsVPO5
_symmetry_space_group_name_H-M   'P 1'
_cell_length_a   7.54433167
_cell_length_b   7.83736928
_cell_length_c   9.84390091
_cell_angle_alpha   90.00000000
_cell_angle_beta   90.00000000
_cell_angle_gamma   90.00000000
_symmetry_Int_Tables_number   1
_chemical_formula_structural   CsVPO5
_chemical_formula_sum   'Cs4 V4 P4 O20'
_cell_volume   582.04735075
_cell_formula_units_Z   4
loop_
 _symmetry_equiv_pos_site_id
 _symmetry_equiv_pos_as_xyz
  1  'x, y, z'
loop_
 _atom_site_type_symbol
 _atom_site_label
 _atom_site_symmetry_multiplicity
 _atom_site_fract_x
 _atom_site_fract_y
 _atom_site_fract_z
 _atom_site_occupancy
  Cs  Cs0  1  0.36873748  0.36697420  0.65996245  1.0
  Cs  Cs1  1  0.86873748  0.13302580  0.34003755  1.0
  Cs  Cs2  1  0.63126252  0.86697420  0.84003755  1.0
  Cs  Cs3  1  0.13126252  0.63302580  0.15996245  1.0
  V  V4  1  0.88949103  0.57190452  0.54066350  1.0
  V  V5  1  0.38949103  0.92809548  0.45933650  1.0
  V  V6  1  0.11050897  0.07190452  0.95933650  1.0
  V  V7  1  0.61050897  0.42809548  0.04066350  1.0
  P  P8  1  0.15688582  0.86853709  0.65272027  1.0
  P  P9  1  0.65688582  0.63146291  0.34727973  1.0
  P  P10  1  0.84311418  0.36853709  0.84727973  1.0
  P  P11  1  0.34311418  0.13146291  0.15272027  1.0
  O  O12  1  0.45215327  0.53971672  0.97596264  1.0
  O  O13  1  0.95215327  0.96028328  0.02403736  1.0
  O  O14  1  0.54784673  0.03971672  0.52403736  1.0
  O  O15  1  0.04784673  0.46028328  0.47596264  1.0
  O  O16  1  0.34127553  0.99426562  0.03516889  1.0
  O  O17  1  0.84127553  0.50573438  0.96483111  1.0
  O  O18  1  0.65872447  0.49426562  0.46483111  1.0
  O  O19  1  0.15872447  0.00573438  0.53516889  1.0
  O  O20  1  0.32548439  0.76268580  0.60853199  1.0
  O  O21  1  0.82548439  0.73731420  0.39146801  1.0
  O  O22  1  0.67451561  0.26268580  0.89146801  1.0
  O  O23  1  0.17451561  0.23731420  0.10853199  1.0
  O  O24  1  0.18550191  0.95230994  0.79241011  1.0
  O  O25  1  0.68550191  0.54769006  0.20758989  1.0
  O  O26  1  0.81449809  0.45230994  0.70758989  1.0
  O  O27  1  0.31449809  0.04769006  0.29241011  1.0
  O  O28  1  0.98701038  0.75771525  0.65460816  1.0
  O  O29  1  0.48701038  0.74228475  0.34539184  1.0
  O  O30  1  0.01298962  0.25771525  0.84539184  1.0
  O  O31  1  0.51298962  0.24228475  0.15460816  1.0
