# generated using pymatgen
data_Na2Cd3Cl8
_symmetry_space_group_name_H-M   'P 1'
_cell_length_a   8.04225434
_cell_length_b   8.04225434
_cell_length_c   8.04225434
_cell_angle_alpha   58.02148776
_cell_angle_beta   58.02148776
_cell_angle_gamma   58.02148776
_symmetry_Int_Tables_number   1
_chemical_formula_structural   Na2Cd3Cl8
_chemical_formula_sum   'Na2 Cd3 Cl8'
_cell_volume   351.11480960
_cell_formula_units_Z   1
loop_
 _symmetry_equiv_pos_site_id
 _symmetry_equiv_pos_as_xyz
  1  'x, y, z'
loop_
 _atom_site_type_symbol
 _atom_site_label
 _atom_site_symmetry_multiplicity
 _atom_site_fract_x
 _atom_site_fract_y
 _atom_site_fract_z
 _atom_site_occupancy
  Na  Na0  1  1.65680121  0.65680121  0.65680121  1.0
  Na  Na1  1  1.34319879  0.34319879  0.34319879  1.0
  Cd  Cd2  1  1.00000000  1.50000000  -0.00000000  1.0
  Cd  Cd3  1  1.00000000  1.00000000  0.50000000  1.0
  Cd  Cd4  1  1.50000000  1.00000000  -0.00000000  1.0
  Cl  Cl5  1  0.90639113  0.90639113  0.90639113  1.0
  Cl  Cl6  1  1.09360887  1.09360887  0.09360887  1.0
  Cl  Cl7  1  1.39943986  1.39943986  -0.07175083  1.0
  Cl  Cl8  1  1.39943986  0.92824917  0.39943986  1.0
  Cl  Cl9  1  1.07175083  0.60056014  0.60056014  1.0
  Cl  Cl10  1  1.60056014  0.07175083  0.60056014  1.0
  Cl  Cl11  1  1.60056014  0.60056014  0.07175083  1.0
  Cl  Cl12  1  0.92824917  1.39943986  0.39943986  1.0
