# generated using pymatgen
data_Sr2ScSbO6
_symmetry_space_group_name_H-M   'P 1'
_cell_length_a   5.74731077
_cell_length_b   5.75570434
_cell_length_c   9.94462259
_cell_angle_alpha   90.00000000
_cell_angle_beta   125.25180820
_cell_angle_gamma   90.00000000
_symmetry_Int_Tables_number   1
_chemical_formula_structural   Sr2ScSbO6
_chemical_formula_sum   'Sr4 Sc2 Sb2 O12'
_cell_volume   268.64159195
_cell_formula_units_Z   2
loop_
 _symmetry_equiv_pos_site_id
 _symmetry_equiv_pos_as_xyz
  1  'x, y, z'
loop_
 _atom_site_type_symbol
 _atom_site_label
 _atom_site_symmetry_multiplicity
 _atom_site_fract_x
 _atom_site_fract_y
 _atom_site_fract_z
 _atom_site_occupancy
  Sr  Sr0  1  0.75498595  0.47747340  0.75009856  1.0
  Sr  Sr1  1  0.75498595  0.02252660  0.25009856  1.0
  Sr  Sr2  1  0.24501405  0.97747340  0.74990144  1.0
  Sr  Sr3  1  0.24501405  0.52252660  0.24990144  1.0
  Sc  Sc4  1  0.50000000  0.00000000  0.50000000  1.0
  Sc  Sc5  1  0.50000000  0.50000000  -0.00000000  1.0
  Sb  Sb6  1  0.00000000  0.00000000  0.00000000  1.0
  Sb  Sb7  1  -0.00000000  0.50000000  0.50000000  1.0
  O  O8  1  0.69370833  0.01122036  0.75596620  1.0
  O  O9  1  0.69370833  0.48877964  0.25596620  1.0
  O  O10  1  0.30629167  0.51122036  0.74403380  1.0
  O  O11  1  0.30629167  0.98877964  0.24403380  1.0
  O  O12  1  0.18270385  0.72764954  0.96704804  1.0
  O  O13  1  0.18270385  0.77235046  0.46704804  1.0
  O  O14  1  0.81729615  0.22764954  0.53295196  1.0
  O  O15  1  0.81729615  0.27235046  0.03295196  1.0
  O  O16  1  0.23892983  0.21697244  0.96750555  1.0
  O  O17  1  0.23892983  0.28302756  0.46750555  1.0
  O  O18  1  0.76107017  0.71697244  0.53249445  1.0
  O  O19  1  0.76107017  0.78302756  0.03249445  1.0
