# generated using pymatgen
data_ZnGaNO
_symmetry_space_group_name_H-M   'P 1'
_cell_length_a   10.55539082
_cell_length_b   6.51888147
_cell_length_c   6.52061245
_cell_angle_alpha   119.84410784
_cell_angle_beta   90.15720622
_cell_angle_gamma   89.97514930
_symmetry_Int_Tables_number   1
_chemical_formula_structural   ZnGaNO
_chemical_formula_sum   'Zn8 Ga8 N8 O8'
_cell_volume   389.17471621
_cell_formula_units_Z   8
loop_
 _symmetry_equiv_pos_site_id
 _symmetry_equiv_pos_as_xyz
  1  'x, y, z'
loop_
 _atom_site_type_symbol
 _atom_site_label
 _atom_site_symmetry_multiplicity
 _atom_site_fract_x
 _atom_site_fract_y
 _atom_site_fract_z
 _atom_site_occupancy
  Zn  Zn0  1  0.49361940  -0.66053408  -0.32126317  1.0
  Zn  Zn1  1  0.73595208  -0.83233703  -0.16742635  1.0
  Zn  Zn2  1  0.48867214  -0.16988316  -0.33365287  1.0
  Zn  Zn3  1  1.00142186  -0.65525629  -0.82802980  1.0
  Zn  Zn4  1  0.48889789  -0.66128444  -0.83825640  1.0
  Zn  Zn5  1  0.73381394  -0.32762492  -0.15633933  1.0
  Zn  Zn6  1  0.25374993  -0.83961483  -0.66056287  1.0
  Zn  Zn7  1  0.73698726  -0.84336676  -0.67171773  1.0
  Ga  Ga8  1  1.00619672  -0.17110803  -0.82639686  1.0
  Ga  Ga9  1  0.49666193  -0.17751920  -0.83681162  1.0
  Ga  Ga10  1  1.00787393  -0.67001948  -0.33468030  1.0
  Ga  Ga11  1  0.25532634  -0.32418894  -0.66515584  1.0
  Ga  Ga12  1  0.74852118  -0.32619373  -0.67028468  1.0
  Ga  Ga13  1  0.25897489  -0.83595177  -0.17501912  1.0
  Ga  Ga14  1  1.00471587  -0.17083772  -0.34554490  1.0
  Ga  Ga15  1  0.25452634  -0.33232329  -0.16318564  1.0
  N  N16  1  0.18513968  -0.17425376  -0.83877214  1.0
  N  N17  1  0.68298500  -0.17107314  -0.82776752  1.0
  N  N18  1  0.18665612  -0.66057705  -0.32377269  1.0
  N  N19  1  0.43461951  -0.32862517  -0.66781426  1.0
  N  N20  1  0.93469667  -0.32444677  -0.66274934  1.0
  N  N21  1  0.43757583  -0.83691665  -0.16780084  1.0
  N  N22  1  0.18611156  -0.16663555  -0.33280489  1.0
  N  N23  1  0.43578153  -0.32797463  -0.15697688  1.0
  O  O24  1  0.69674579  -0.66465934  -0.33571758  1.0
  O  O25  1  0.94316169  -0.84057814  -0.17974317  1.0
  O  O26  1  0.69923920  -0.17413271  -0.34615174  1.0
  O  O27  1  0.19197624  -0.66135196  -0.83943448  1.0
  O  O28  1  0.69883804  -0.65224552  -0.82482424  1.0
  O  O29  1  0.94584291  -0.33396717  -0.16865352  1.0
  O  O30  1  0.44479727  -0.84541745  -0.67220253  1.0
  O  O31  1  0.94591167  -0.83910132  -0.66048669  1.0
