# generated using pymatgen
data_As2O3
_symmetry_space_group_name_H-M   'P 1'
_cell_length_a   7.01020962
_cell_length_b   7.01020962
_cell_length_c   8.87734661
_cell_angle_alpha   90.00000000
_cell_angle_beta   90.00000000
_cell_angle_gamma   90.00000000
_symmetry_Int_Tables_number   1
_chemical_formula_structural   As2O3
_chemical_formula_sum   'As8 O12'
_cell_volume   436.25979010
_cell_formula_units_Z   4
loop_
 _symmetry_equiv_pos_site_id
 _symmetry_equiv_pos_as_xyz
  1  'x, y, z'
loop_
 _atom_site_type_symbol
 _atom_site_label
 _atom_site_symmetry_multiplicity
 _atom_site_fract_x
 _atom_site_fract_y
 _atom_site_fract_z
 _atom_site_occupancy
  As  As0  1  0.77825232  0.44322683  0.08989631  1.0
  As  As1  1  0.22174768  0.55677317  0.08989631  1.0
  As  As2  1  0.27825232  0.94322683  0.41010369  1.0
  As  As3  1  0.72174768  0.05677317  0.41010369  1.0
  As  As4  1  0.44322683  0.22174768  0.91010369  1.0
  As  As5  1  0.55677317  0.77825232  0.91010369  1.0
  As  As6  1  0.94322683  0.72174768  0.58989631  1.0
  As  As7  1  0.05677317  0.27825232  0.58989631  1.0
  O  O8  1  0.67659105  0.34135169  0.91612048  1.0
  O  O9  1  0.32340895  0.65864831  0.91612048  1.0
  O  O10  1  0.17659105  0.84135169  0.58387952  1.0
  O  O11  1  0.82340895  0.15864831  0.58387952  1.0
  O  O12  1  0.34135169  0.32340895  0.08387952  1.0
  O  O13  1  0.65864831  0.67659105  0.08387952  1.0
  O  O14  1  0.84135169  0.82340895  0.41612048  1.0
  O  O15  1  0.15864831  0.17659105  0.41612048  1.0
  O  O16  1  0.00000000  0.50000000  0.48708494  1.0
  O  O17  1  0.50000000  0.00000000  1.01291506  1.0
  O  O18  1  0.50000000  0.00000000  0.51291506  1.0
  O  O19  1  0.00000000  0.50000000  -0.01291506  1.0
