# generated using pymatgen
data_Lu2CuTe2(SO7)2
_symmetry_space_group_name_H-M   'P 1'
_cell_length_a   5.44289762
_cell_length_b   8.19429382
_cell_length_c   8.73230554
_cell_angle_alpha   120.28393419
_cell_angle_beta   112.74548841
_cell_angle_gamma   81.86999420
_symmetry_Int_Tables_number   1
_chemical_formula_structural   Lu2CuTe2(SO7)2
_chemical_formula_sum   'Lu2 Cu1 Te2 S2 O14'
_cell_volume   309.46190640
_cell_formula_units_Z   1
loop_
 _symmetry_equiv_pos_site_id
 _symmetry_equiv_pos_as_xyz
  1  'x, y, z'
loop_
 _atom_site_type_symbol
 _atom_site_label
 _atom_site_symmetry_multiplicity
 _atom_site_fract_x
 _atom_site_fract_y
 _atom_site_fract_z
 _atom_site_occupancy
  Lu  Lu0  1  -0.14610456  -0.27084733  -0.97087229  1.0
  Lu  Lu1  1  0.14610456  -0.72915267  -0.02912771  1.0
  Cu  Cu2  1  0.00000000  0.00000000  -0.50000000  1.0
  Te  Te3  1  0.49765462  -0.74605718  -0.36921408  1.0
  Te  Te4  1  -0.49765462  -0.25394282  -0.63078592  1.0
  S  S5  1  -0.17277763  -0.76742178  -0.77220178  1.0
  S  S6  1  0.17277763  -0.23257822  -0.22779822  1.0
  O  O7  1  0.24516839  -0.05264679  -0.63494319  1.0
  O  O8  1  -0.24516839  -0.94735321  -0.36505681  1.0
  O  O9  1  0.77013583  -0.58539428  -0.11768533  1.0
  O  O10  1  -0.77013583  -0.41460572  -0.88231467  1.0
  O  O11  1  0.04116896  -0.68795452  -0.78912787  1.0
  O  O12  1  -0.04116896  -0.31204548  -0.21087213  1.0
  O  O13  1  -0.21802831  -0.97426537  -0.91314393  1.0
  O  O14  1  0.21802831  -0.02573463  -0.08685607  1.0
  O  O15  1  0.27216066  -0.80486917  -0.27150548  1.0
  O  O16  1  -0.27216066  -0.19513083  -0.72849452  1.0
  O  O17  1  -0.09604052  -0.73118275  -0.57551090  1.0
  O  O18  1  0.09604052  -0.26881725  -0.42448910  1.0
  O  O19  1  -0.42475570  -0.67106208  -0.82276493  1.0
  O  O20  1  0.42475570  -0.32893792  -0.17723507  1.0
