# generated using pymatgen
data_Zr9W4S
_symmetry_space_group_name_H-M   'P 1'
_cell_length_a   8.74332159
_cell_length_b   8.74332159
_cell_length_c   8.66233783
_cell_angle_alpha   90.00000000
_cell_angle_beta   90.00000000
_cell_angle_gamma   120.00000000
_symmetry_Int_Tables_number   1
_chemical_formula_structural   Zr9W4S
_chemical_formula_sum   'Zr18 W8 S2'
_cell_volume   573.48049849
_cell_formula_units_Z   2
loop_
 _symmetry_equiv_pos_site_id
 _symmetry_equiv_pos_as_xyz
  1  'x, y, z'
loop_
 _atom_site_type_symbol
 _atom_site_label
 _atom_site_symmetry_multiplicity
 _atom_site_fract_x
 _atom_site_fract_y
 _atom_site_fract_z
 _atom_site_occupancy
  Zr  Zr0  1  0.54090796  0.45909204  0.25000000  1.0
  Zr  Zr1  1  0.54090796  0.08181592  0.25000000  1.0
  Zr  Zr2  1  0.45909204  0.54090796  0.75000000  1.0
  Zr  Zr3  1  0.45909204  0.91818408  0.75000000  1.0
  Zr  Zr4  1  0.91818408  0.45909204  0.25000000  1.0
  Zr  Zr5  1  0.08181592  0.54090796  0.75000000  1.0
  Zr  Zr6  1  0.19670239  0.80329761  0.44881278  1.0
  Zr  Zr7  1  0.19670239  0.80329761  0.05118722  1.0
  Zr  Zr8  1  0.19670239  0.39340477  0.44881278  1.0
  Zr  Zr9  1  0.19670239  0.39340477  0.05118722  1.0
  Zr  Zr10  1  0.80329761  0.19670239  0.94881278  1.0
  Zr  Zr11  1  0.80329761  0.19670239  0.55118722  1.0
  Zr  Zr12  1  0.80329761  0.60659523  0.94881278  1.0
  Zr  Zr13  1  0.80329761  0.60659523  0.55118722  1.0
  Zr  Zr14  1  0.60659523  0.80329761  0.44881278  1.0
  Zr  Zr15  1  0.60659523  0.80329761  0.05118722  1.0
  Zr  Zr16  1  0.39340477  0.19670239  0.94881278  1.0
  Zr  Zr17  1  0.39340477  0.19670239  0.55118722  1.0
  W  W18  1  -0.00000000  -0.00000000  0.50000000  1.0
  W  W19  1  -0.00000000  -0.00000000  0.00000000  1.0
  W  W20  1  0.89095356  0.10904644  0.25000000  1.0
  W  W21  1  0.89095356  0.78190712  0.25000000  1.0
  W  W22  1  0.10904644  0.89095356  0.75000000  1.0
  W  W23  1  0.10904644  0.21809288  0.75000000  1.0
  W  W24  1  0.21809288  0.10904644  0.25000000  1.0
  W  W25  1  0.78190712  0.89095356  0.75000000  1.0
  S  S26  1  0.33333333  0.66666667  0.25000000  1.0
  S  S27  1  0.66666667  0.33333333  0.75000000  1.0
