# generated using pymatgen
data_KTcO4
_symmetry_space_group_name_H-M   'P 1'
_cell_length_a   7.68863164
_cell_length_b   7.68863164
_cell_length_c   7.68863164
_cell_angle_alpha   135.92225517
_cell_angle_beta   135.92225517
_cell_angle_gamma   64.10055286
_symmetry_Int_Tables_number   1
_chemical_formula_structural   KTcO4
_chemical_formula_sum   'K2 Tc2 O8'
_cell_volume   216.96877885
_cell_formula_units_Z   2
loop_
 _symmetry_equiv_pos_site_id
 _symmetry_equiv_pos_as_xyz
  1  'x, y, z'
loop_
 _atom_site_type_symbol
 _atom_site_label
 _atom_site_symmetry_multiplicity
 _atom_site_fract_x
 _atom_site_fract_y
 _atom_site_fract_z
 _atom_site_occupancy
  K  K0  1  0.25000000  0.75000000  0.50000000  1.0
  K  K1  1  0.50000000  0.50000000  0.00000000  1.0
  Tc  Tc2  1  0.75000000  0.25000000  0.50000000  1.0
  Tc  Tc3  1  1.00000000  1.00000000  1.00000000  1.0
  O  O4  1  0.78611135  0.39415460  0.83130000  1.0
  O  O5  1  0.56285460  0.95481135  1.16870000  1.0
  O  O6  1  0.70481135  1.03611135  0.89195675  1.0
  O  O7  1  1.14415460  0.81285460  1.10804325  1.0
  O  O8  1  0.96388865  0.85584540  0.66870000  1.0
  O  O9  1  1.18714540  1.29518865  1.33130000  1.0
  O  O10  1  1.04518865  1.21388865  1.60804325  1.0
  O  O11  1  0.60584540  0.43714540  0.39195675  1.0
