# generated using pymatgen
data_LaCo8Si5
_symmetry_space_group_name_H-M   'P 1'
_cell_length_a   7.96697366
_cell_length_b   7.96697366
_cell_length_c   7.96697366
_cell_angle_alpha   121.54663797
_cell_angle_beta   121.54663797
_cell_angle_gamma   87.34138949
_symmetry_Int_Tables_number   1
_chemical_formula_structural   LaCo8Si5
_chemical_formula_sum   'La2 Co16 Si10'
_cell_volume   348.80604859
_cell_formula_units_Z   2
loop_
 _symmetry_equiv_pos_site_id
 _symmetry_equiv_pos_as_xyz
  1  'x, y, z'
loop_
 _atom_site_type_symbol
 _atom_site_label
 _atom_site_symmetry_multiplicity
 _atom_site_fract_x
 _atom_site_fract_y
 _atom_site_fract_z
 _atom_site_occupancy
  La  La0  1  0.75000000  0.75000000  1.00000000  1.0
  La  La1  1  0.25000000  0.25000000  0.00000000  1.0
  Co  Co2  1  0.70431148  1.20431148  1.26665803  1.0
  Co  Co3  1  1.06234655  0.56234655  1.26665803  1.0
  Co  Co4  1  0.43765345  0.70431148  0.50000000  1.0
  Co  Co5  1  0.79568852  1.06234655  1.50000000  1.0
  Co  Co6  1  1.20431148  0.93765345  1.50000000  1.0
  Co  Co7  1  0.56234655  0.29568852  0.50000000  1.0
  Co  Co8  1  0.93765345  0.43765345  0.73334197  1.0
  Co  Co9  1  0.29568852  0.79568852  0.73334197  1.0
  Co  Co10  1  0.78945980  0.94233391  1.73179372  1.0
  Co  Co11  1  0.71054020  0.44233391  1.15287411  1.0
  Co  Co12  1  0.44233391  0.28945980  0.73179372  1.0
  Co  Co13  1  0.05766609  0.78945980  0.84712589  1.0
  Co  Co14  1  0.28945980  0.55766609  0.84712589  1.0
  Co  Co15  1  0.21054020  0.05766609  0.26820628  1.0
  Co  Co16  1  0.94233391  0.21054020  1.15287411  1.0
  Co  Co17  1  0.55766609  0.71054020  1.26820628  1.0
  Si  Si18  1  0.50000000  0.00000000  0.50000000  1.0
  Si  Si19  1  -0.00000000  0.50000000  0.50000000  1.0
  Si  Si20  1  1.19209859  0.69209859  1.13395952  1.0
  Si  Si21  1  0.44186093  0.94186093  1.13395952  1.0
  Si  Si22  1  1.05813907  1.19209859  1.50000000  1.0
  Si  Si23  1  0.30790141  0.44186093  0.50000000  1.0
  Si  Si24  1  0.69209859  0.55813907  0.50000000  1.0
  Si  Si25  1  0.94186093  0.80790141  1.50000000  1.0
  Si  Si26  1  0.55813907  1.05813907  0.86604048  1.0
  Si  Si27  1  0.80790141  0.30790141  0.86604048  1.0
