# generated using pymatgen
data_GdH3
_symmetry_space_group_name_H-M   'P 1'
_cell_length_a   6.44381651
_cell_length_b   6.44381651
_cell_length_c   6.69533336
_cell_angle_alpha   90.00000000
_cell_angle_beta   90.00000000
_cell_angle_gamma   120.00000000
_symmetry_Int_Tables_number   1
_chemical_formula_structural   GdH3
_chemical_formula_sum   'Gd6 H18'
_cell_volume   240.76267957
_cell_formula_units_Z   6
loop_
 _symmetry_equiv_pos_site_id
 _symmetry_equiv_pos_as_xyz
  1  'x, y, z'
loop_
 _atom_site_type_symbol
 _atom_site_label
 _atom_site_symmetry_multiplicity
 _atom_site_fract_x
 _atom_site_fract_y
 _atom_site_fract_z
 _atom_site_occupancy
  Gd  Gd0  1  0.66414059  0.66414059  0.25000000  1.0
  Gd  Gd1  1  0.66414059  -0.00000000  0.75000000  1.0
  Gd  Gd2  1  0.00000000  0.66414059  0.75000000  1.0
  Gd  Gd3  1  0.00000000  0.33585941  0.25000000  1.0
  Gd  Gd4  1  0.33585941  0.33585941  0.75000000  1.0
  Gd  Gd5  1  0.33585941  0.00000000  0.25000000  1.0
  H  H6  1  0.97564054  0.65252130  0.09299581  1.0
  H  H7  1  0.97564054  0.32311924  0.59299581  1.0
  H  H8  1  0.65252130  0.97564054  0.40700419  1.0
  H  H9  1  0.65252130  0.67688076  0.90700419  1.0
  H  H10  1  0.67688076  0.65252130  0.59299581  1.0
  H  H11  1  0.67688076  0.02435946  0.09299581  1.0
  H  H12  1  0.34747870  0.02435946  0.59299581  1.0
  H  H13  1  0.34747870  0.32311924  0.09299581  1.0
  H  H14  1  0.02435946  0.67688076  0.40700419  1.0
  H  H15  1  0.02435946  0.34747870  0.90700419  1.0
  H  H16  1  0.32311924  0.97564054  0.90700419  1.0
  H  H17  1  0.32311924  0.34747870  0.40700419  1.0
  H  H18  1  0.33333333  0.66666667  0.19032012  1.0
  H  H19  1  0.33333333  0.66666667  0.69032012  1.0
  H  H20  1  0.66666667  0.33333333  0.30967988  1.0
  H  H21  1  0.66666667  0.33333333  0.80967988  1.0
  H  H22  1  -0.00000000  0.00000000  0.25000000  1.0
  H  H23  1  0.00000000  -0.00000000  0.75000000  1.0
