# generated using pymatgen
data_CdP2H6O7
_symmetry_space_group_name_H-M   'P 1'
_cell_length_a   6.82716289
_cell_length_b   7.68433232
_cell_length_c   8.03564995
_cell_angle_alpha   113.21278612
_cell_angle_beta   110.04777349
_cell_angle_gamma   94.97834510
_symmetry_Int_Tables_number   1
_chemical_formula_structural   CdP2H6O7
_chemical_formula_sum   'Cd2 P4 H12 O14'
_cell_volume   351.73835228
_cell_formula_units_Z   2
loop_
 _symmetry_equiv_pos_site_id
 _symmetry_equiv_pos_as_xyz
  1  'x, y, z'
loop_
 _atom_site_type_symbol
 _atom_site_label
 _atom_site_symmetry_multiplicity
 _atom_site_fract_x
 _atom_site_fract_y
 _atom_site_fract_z
 _atom_site_occupancy
  Cd  Cd0  1  0.92658926  0.73412901  0.12497617  1.0
  Cd  Cd1  1  0.07341074  0.26587099  0.87502383  1.0
  P  P2  1  0.80852938  0.75805050  0.66225462  1.0
  P  P3  1  0.19147062  0.24194950  0.33774538  1.0
  P  P4  1  0.61257723  0.25989812  0.96767781  1.0
  P  P5  1  0.38742277  0.74010188  0.03232219  1.0
  H  H6  1  0.86194901  0.58307519  0.56944783  1.0
  H  H7  1  0.13805099  0.41692481  0.43055217  1.0
  H  H8  1  0.63682658  0.06706338  0.90280983  1.0
  H  H9  1  0.36317342  0.93293662  0.09719017  1.0
  H  H10  1  0.60156237  0.74847169  0.37606696  1.0
  H  H11  1  0.39843763  0.25152831  0.62393304  1.0
  H  H12  1  0.52062345  0.70170587  0.80997996  1.0
  H  H13  1  0.47937655  0.29829413  0.19002004  1.0
  H  H14  1  0.29501078  0.76219613  0.46554253  1.0
  H  H15  1  0.70498922  0.23780387  0.53445747  1.0
  H  H16  1  0.11804346  0.83340914  0.54735374  1.0
  H  H17  1  0.88195654  0.16659086  0.45264626  1.0
  O  O18  1  0.99217026  0.92738196  0.71838250  1.0
  O  O19  1  0.00782974  0.07261804  0.28161750  1.0
  O  O20  1  0.85982842  0.24771331  0.57251523  1.0
  O  O21  1  0.14017158  0.75228669  0.42748477  1.0
  O  O22  1  0.80886458  0.38489002  0.97776582  1.0
  O  O23  1  0.19113542  0.61510998  0.02223418  1.0
  O  O24  1  0.75207495  0.75503351  0.83048491  1.0
  O  O25  1  0.24792505  0.24496649  0.16951509  1.0
  O  O26  1  0.60818701  0.74397622  0.17537714  1.0
  O  O27  1  0.39181299  0.25602378  0.82462286  1.0
  O  O28  1  0.58709799  0.75180139  0.49947184  1.0
  O  O29  1  0.41290201  0.24819861  0.50052816  1.0
  O  O30  1  0.37395372  0.67245291  0.81508115  1.0
  O  O31  1  0.62604628  0.32754709  0.18491885  1.0
