# generated using pymatgen
data_LiZnGe
_symmetry_space_group_name_H-M   'P 1'
_cell_length_a   4.28168010
_cell_length_b   4.28168010
_cell_length_c   9.42705066
_cell_angle_alpha   90.00000000
_cell_angle_beta   90.00000000
_cell_angle_gamma   120.00000000
_symmetry_Int_Tables_number   1
_chemical_formula_structural   LiZnGe
_chemical_formula_sum   'Li3 Zn3 Ge3'
_cell_volume   149.67005056
_cell_formula_units_Z   3
loop_
 _symmetry_equiv_pos_site_id
 _symmetry_equiv_pos_as_xyz
  1  'x, y, z'
loop_
 _atom_site_type_symbol
 _atom_site_label
 _atom_site_symmetry_multiplicity
 _atom_site_fract_x
 _atom_site_fract_y
 _atom_site_fract_z
 _atom_site_occupancy
  Li  Li0  1  0.00000000  0.00000000  0.83314838  1.0
  Li  Li1  1  0.00000000  0.00000000  0.16685162  1.0
  Li  Li2  1  0.00000000  0.00000000  0.50000000  1.0
  Zn  Zn3  1  0.33333333  0.66666667  0.70594626  1.0
  Zn  Zn4  1  0.33333333  0.66666667  0.29405374  1.0
  Zn  Zn5  1  0.66666667  0.33333333  0.00000000  1.0
  Ge  Ge6  1  0.66666667  0.33333333  0.63683647  1.0
  Ge  Ge7  1  0.66666667  0.33333333  0.36316353  1.0
  Ge  Ge8  1  0.33333333  0.66666667  0.00000000  1.0
