# generated using pymatgen
data_Na2FeCu(CN)6
_symmetry_space_group_name_H-M   'P 1'
_cell_length_a   7.80220534
_cell_length_b   6.02983362
_cell_length_c   6.91721540
_cell_angle_alpha   90.00000000
_cell_angle_beta   125.88932478
_cell_angle_gamma   90.00000000
_symmetry_Int_Tables_number   1
_chemical_formula_structural   Na2FeCu(CN)6
_chemical_formula_sum   'Na2 Fe1 Cu1 C6 N6'
_cell_volume   263.64522547
_cell_formula_units_Z   1
loop_
 _symmetry_equiv_pos_site_id
 _symmetry_equiv_pos_as_xyz
  1  'x, y, z'
loop_
 _atom_site_type_symbol
 _atom_site_label
 _atom_site_symmetry_multiplicity
 _atom_site_fract_x
 _atom_site_fract_y
 _atom_site_fract_z
 _atom_site_occupancy
  Na  Na0  1  0.50000000  0.00000000  0.50000000  1.0
  Na  Na1  1  -0.00000000  0.00000000  0.50000000  1.0
  Fe  Fe2  1  0.50000000  0.50000000  -0.00000000  1.0
  Cu  Cu3  1  0.00000000  0.00000000  0.00000000  1.0
  C  C4  1  0.66811578  0.69712627  0.96889311  1.0
  C  C5  1  0.66811578  0.30287373  0.96889311  1.0
  C  C6  1  0.33188422  0.69712627  0.03110689  1.0
  C  C7  1  0.33188422  0.30287373  0.03110689  1.0
  C  C8  1  0.30063872  0.50000000  0.66200496  1.0
  C  C9  1  0.69936128  0.50000000  0.33799504  1.0
  N  N10  1  0.78250099  0.78900025  0.93594481  1.0
  N  N11  1  0.78250099  0.21099975  0.93594481  1.0
  N  N12  1  0.21749901  0.78900025  0.06405519  1.0
  N  N13  1  0.21749901  0.21099975  0.06405519  1.0
  N  N14  1  0.18078670  0.50000000  0.45239331  1.0
  N  N15  1  0.81921330  0.50000000  0.54760669  1.0
