# generated using pymatgen
data_Gd3AlCrS7
_symmetry_space_group_name_H-M   'P 1'
_cell_length_a   9.77378245
_cell_length_b   9.77378244
_cell_length_c   6.17059615
_cell_angle_alpha   90.00000000
_cell_angle_beta   90.00000000
_cell_angle_gamma   120.00000000
_symmetry_Int_Tables_number   1
_chemical_formula_structural   Gd3AlCrS7
_chemical_formula_sum   'Gd6 Al2 Cr2 S14'
_cell_volume   510.48512406
_cell_formula_units_Z   2
loop_
 _symmetry_equiv_pos_site_id
 _symmetry_equiv_pos_as_xyz
  1  'x, y, z'
loop_
 _atom_site_type_symbol
 _atom_site_label
 _atom_site_symmetry_multiplicity
 _atom_site_fract_x
 _atom_site_fract_y
 _atom_site_fract_z
 _atom_site_occupancy
  Gd  Gd0  1  0.77180063  0.62138968  0.21067126  1.0
  Gd  Gd1  1  0.62138968  0.84958905  0.71067126  1.0
  Gd  Gd2  1  0.84958905  0.22819937  0.21067126  1.0
  Gd  Gd3  1  0.37861032  0.15041095  0.21067126  1.0
  Gd  Gd4  1  0.22819937  0.37861032  0.71067126  1.0
  Gd  Gd5  1  0.15041095  0.77180063  0.71067126  1.0
  Al  Al6  1  0.33333333  0.66666667  0.13299971  1.0
  Al  Al7  1  0.66666667  0.33333333  0.63299971  1.0
  Cr  Cr8  1  -0.00000000  -0.00000000  0.04060952  1.0
  Cr  Cr9  1  -0.00000000  -0.00000000  0.54060952  1.0
  S  S10  1  0.42653718  0.90725718  -0.01826842  1.0
  S  S11  1  0.90725718  0.48072000  0.48173158  1.0
  S  S12  1  0.48072000  0.57346282  -0.01826842  1.0
  S  S13  1  0.09274282  0.51928000  -0.01826842  1.0
  S  S14  1  0.57346282  0.09274282  0.48173158  1.0
  S  S15  1  0.51928000  0.42653718  0.48173158  1.0
  S  S16  1  0.09666412  0.86519148  0.29469310  1.0
  S  S17  1  0.86519148  0.76852736  0.79469310  1.0
  S  S18  1  0.76852736  0.90333588  0.29469310  1.0
  S  S19  1  0.13480852  0.23147264  0.29469310  1.0
  S  S20  1  0.90333588  0.13480852  0.79469310  1.0
  S  S21  1  0.23147264  0.09666412  0.79469310  1.0
  S  S22  1  0.33333333  0.66666667  0.49610293  1.0
  S  S23  1  0.66666667  0.33333333  -0.00389707  1.0
