# generated using pymatgen
data_Ba5Al2Ge7
_symmetry_space_group_name_H-M   'P 1'
_cell_length_a   6.79653414
_cell_length_b   6.79653414
_cell_length_c   18.67554705
_cell_angle_alpha   81.34592510
_cell_angle_beta   98.65407490
_cell_angle_gamma   79.98345731
_symmetry_Int_Tables_number   1
_chemical_formula_structural   Ba5Al2Ge7
_chemical_formula_sum   'Ba10 Al4 Ge14'
_cell_volume   825.91605059
_cell_formula_units_Z   2
loop_
 _symmetry_equiv_pos_site_id
 _symmetry_equiv_pos_as_xyz
  1  'x, y, z'
loop_
 _atom_site_type_symbol
 _atom_site_label
 _atom_site_symmetry_multiplicity
 _atom_site_fract_x
 _atom_site_fract_y
 _atom_site_fract_z
 _atom_site_occupancy
  Ba  Ba0  1  1.43070315  0.12350375  0.78966440  1.0
  Ba  Ba1  1  0.87649625  -0.43070315  0.78966440  1.0
  Ba  Ba2  1  1.12350375  0.43070315  0.21033560  1.0
  Ba  Ba3  1  0.56929685  -0.12350375  0.21033560  1.0
  Ba  Ba4  1  0.76174517  -0.76174517  0.35604093  1.0
  Ba  Ba5  1  0.23825483  -0.23825483  0.64395907  1.0
  Ba  Ba6  1  0.70901314  -0.29098686  0.50000000  1.0
  Ba  Ba7  1  1.29098686  0.29098686  0.50000000  1.0
  Ba  Ba8  1  0.75154480  -0.24845520  0.00000000  1.0
  Ba  Ba9  1  1.24845520  0.24845520  0.00000000  1.0
  Al  Al10  1  0.92468550  -0.92468550  0.73294887  1.0
  Al  Al11  1  0.07531450  -0.07531450  0.26705113  1.0
  Al  Al12  1  0.22538400  -0.22538400  0.92811666  1.0
  Al  Al13  1  0.77461600  -0.77461600  0.07188334  1.0
  Ge  Ge14  1  0.66515675  -0.04128738  0.64231945  1.0
  Ge  Ge15  1  1.04128738  0.33484325  0.64231945  1.0
  Ge  Ge16  1  0.95871262  -0.33484325  0.35768055  1.0
  Ge  Ge17  1  1.33484325  0.04128738  0.35768055  1.0
  Ge  Ge18  1  0.93946271  -0.93946271  0.86802206  1.0
  Ge  Ge19  1  0.06053729  -0.06053729  0.13197794  1.0
  Ge  Ge20  1  0.81992031  -0.81992031  0.54679192  1.0
  Ge  Ge21  1  0.18007969  -0.18007969  0.45320808  1.0
  Ge  Ge22  1  0.70267439  -0.70267439  0.93317912  1.0
  Ge  Ge23  1  0.29732561  -0.29732561  0.06682088  1.0
  Ge  Ge24  1  0.63860763  -0.63860763  0.64381069  1.0
  Ge  Ge25  1  0.36139237  -0.36139237  0.35618931  1.0
  Ge  Ge26  1  0.41297683  -0.41297683  0.84542994  1.0
  Ge  Ge27  1  0.58702317  -0.58702317  0.15457006  1.0
