# generated using pymatgen
data_V2SO4
_symmetry_space_group_name_H-M   'P 1'
_cell_length_a   10.85953089
_cell_length_b   10.85953089
_cell_length_c   5.42416527
_cell_angle_alpha   90.00000000
_cell_angle_beta   90.00000000
_cell_angle_gamma   90.00000000
_symmetry_Int_Tables_number   1
_chemical_formula_structural   V2SO4
_chemical_formula_sum   'V8 S4 O16'
_cell_volume   639.66861619
_cell_formula_units_Z   4
loop_
 _symmetry_equiv_pos_site_id
 _symmetry_equiv_pos_as_xyz
  1  'x, y, z'
loop_
 _atom_site_type_symbol
 _atom_site_label
 _atom_site_symmetry_multiplicity
 _atom_site_fract_x
 _atom_site_fract_y
 _atom_site_fract_z
 _atom_site_occupancy
  V  V0  1  0.06910238  0.32504548  0.81869715  1.0
  V  V1  1  0.56910238  0.82504548  0.18130285  1.0
  V  V2  1  0.32504548  0.93089762  0.18130285  1.0
  V  V3  1  0.82504548  0.43089762  0.81869715  1.0
  V  V4  1  0.93089762  0.67495452  0.81869715  1.0
  V  V5  1  0.43089762  0.17495452  0.18130285  1.0
  V  V6  1  0.67495452  0.06910238  0.18130285  1.0
  V  V7  1  0.17495452  0.56910238  0.81869715  1.0
  S  S8  1  0.25000000  0.75000000  0.00000000  1.0
  S  S9  1  0.75000000  0.25000000  0.00000000  1.0
  S  S10  1  0.75000000  0.75000000  0.00000000  1.0
  S  S11  1  0.25000000  0.25000000  0.00000000  1.0
  O  O12  1  0.29635093  1.07961532  1.04436910  1.0
  O  O13  1  0.79635093  0.57961532  -0.04436910  1.0
  O  O14  1  1.07961532  0.70364907  -0.04436910  1.0
  O  O15  1  0.57961532  0.20364907  1.04436910  1.0
  O  O16  1  0.70364907  -0.07961532  1.04436910  1.0
  O  O17  1  0.20364907  0.42038468  -0.04436910  1.0
  O  O18  1  -0.07961532  0.29635093  -0.04436910  1.0
  O  O19  1  0.42038468  0.79635093  1.04436910  1.0
  O  O20  1  0.42871748  0.20774872  0.46597115  1.0
  O  O21  1  0.92871748  0.70774872  0.53402885  1.0
  O  O22  1  0.20774872  0.57128252  0.53402885  1.0
  O  O23  1  0.70774872  0.07128252  0.46597115  1.0
  O  O24  1  0.57128252  0.79225128  0.46597115  1.0
  O  O25  1  0.07128252  0.29225128  0.53402885  1.0
  O  O26  1  0.79225128  0.42871748  0.53402885  1.0
  O  O27  1  0.29225128  0.92871748  0.46597115  1.0
