# generated using pymatgen
data_Fe3PH6PbSO14
_symmetry_space_group_name_H-M   'P 1'
_cell_length_a   7.11187848
_cell_length_b   7.11187848
_cell_length_c   7.11187848
_cell_angle_alpha   62.44695095
_cell_angle_beta   62.44695095
_cell_angle_gamma   62.44695095
_symmetry_Int_Tables_number   1
_chemical_formula_structural   Fe3PH6PbSO14
_chemical_formula_sum   'Fe3 P1 H6 Pb1 S1 O14'
_cell_volume   268.22930981
_cell_formula_units_Z   1
loop_
 _symmetry_equiv_pos_site_id
 _symmetry_equiv_pos_as_xyz
  1  'x, y, z'
loop_
 _atom_site_type_symbol
 _atom_site_label
 _atom_site_symmetry_multiplicity
 _atom_site_fract_x
 _atom_site_fract_y
 _atom_site_fract_z
 _atom_site_occupancy
  Fe  Fe0  1  0.30524134  0.81544230  -0.69475866  1.0
  Fe  Fe1  1  0.81544230  0.30524134  -0.69475866  1.0
  Fe  Fe2  1  0.30524134  0.30524134  -0.18455770  1.0
  S  S3  1  0.62263933  0.62263933  -0.37736067  1.0
  O  O4  1  0.48263474  0.81491591  -0.51736526  1.0
  O  O5  1  0.81491591  0.48263474  -0.51736526  1.0
  O  O6  1  0.48263474  0.48263474  -0.18508409  1.0
  O  O7  1  0.90914327  0.90914327  -0.09085673  1.0
  O  O8  1  0.70985880  0.70985880  -0.29014120  1.0
  O  O9  1  0.14682844  0.80278609  -0.85317156  1.0
  O  O10  1  0.80278609  0.14682844  -0.85317156  1.0
  O  O11  1  0.14682844  0.14682844  -0.19721390  1.0
  O  O12  1  1.05471825  1.43817637  0.05471825  1.0
  O  O13  1  1.43817637  1.05471825  0.05471825  1.0
  O  O14  1  1.05471825  1.05471825  0.43817637  1.0
  O  O15  1  0.56954556  0.19102016  -0.43045444  1.0
  O  O16  1  0.19102016  0.56954556  -0.43045444  1.0
  O  O17  1  0.56954556  0.56954556  -0.80897984  1.0
  H  H18  1  0.61829277  0.02579508  -0.38170723  1.0
  H  H19  1  1.02579508  -0.38170723  -0.38170723  1.0
  H  H20  1  0.61829277  -0.38170723  0.02579508  1.0
  H  H21  1  1.00341208  1.60549049  0.00341208  1.0
  H  H22  1  1.60549049  1.00341208  0.00341208  1.0
  H  H23  1  1.00341208  1.00341208  0.60549049  1.0
  P  P24  1  -0.00085641  -0.00085641  -0.00085641  1.0
  Pb  Pb25  1  1.31414224  1.31414224  0.31414224  1.0
