# generated using pymatgen
data_Rb3InP2
_symmetry_space_group_name_H-M   'P 1'
_cell_length_a   16.04026446
_cell_length_b   12.69638712
_cell_length_c   9.57462344
_cell_angle_alpha   74.33993011
_cell_angle_beta   72.52871907
_cell_angle_gamma   73.28524641
_symmetry_Int_Tables_number   1
_chemical_formula_structural   Rb3InP2
_chemical_formula_sum   'Rb24 In8 P16'
_cell_volume   1745.02751010
_cell_formula_units_Z   8
loop_
 _symmetry_equiv_pos_site_id
 _symmetry_equiv_pos_as_xyz
  1  'x, y, z'
loop_
 _atom_site_type_symbol
 _atom_site_label
 _atom_site_symmetry_multiplicity
 _atom_site_fract_x
 _atom_site_fract_y
 _atom_site_fract_z
 _atom_site_occupancy
  Rb  Rb0  1  0.17657310  -0.72992028  0.79969285  1.0
  Rb  Rb1  1  0.82342690  -0.27007972  -0.79969285  1.0
  Rb  Rb2  1  0.80469190  -0.90710589  0.18168114  1.0
  Rb  Rb3  1  0.19530810  -0.09289411  -0.18168114  1.0
  Rb  Rb4  1  0.90985484  -0.60470546  0.00617107  1.0
  Rb  Rb5  1  0.09014516  -0.39529454  -0.00617107  1.0
  Rb  Rb6  1  0.52639404  -0.40936704  0.32424415  1.0
  Rb  Rb7  1  0.47360596  -0.59063296  -0.32424415  1.0
  Rb  Rb8  1  0.34499553  -0.92237237  0.47819505  1.0
  Rb  Rb9  1  0.65500447  -0.07762763  -0.47819505  1.0
  Rb  Rb10  1  0.88016460  -0.24784966  -0.21946871  1.0
  Rb  Rb11  1  0.11983540  -0.75215034  0.21946871  1.0
  Rb  Rb12  1  0.64467683  -0.60174248  -0.03478699  1.0
  Rb  Rb13  1  0.35532317  -0.39825752  0.03478699  1.0
  Rb  Rb14  1  0.74394476  -0.92598146  -0.16234512  1.0
  Rb  Rb15  1  0.25605524  -0.07401854  0.16234512  1.0
  Rb  Rb16  1  0.80435657  -0.42287037  -0.34186364  1.0
  Rb  Rb17  1  0.19564343  -0.57712963  0.34186364  1.0
  Rb  Rb18  1  0.91514278  -0.87648128  -0.52862788  1.0
  Rb  Rb19  1  0.08485722  -0.12351872  0.52862788  1.0
  Rb  Rb20  1  0.47348924  -0.88092341  -0.16277331  1.0
  Rb  Rb21  1  0.52651076  -0.11907659  0.16277331  1.0
  Rb  Rb22  1  0.75307000  -0.59304748  -0.52866074  1.0
  Rb  Rb23  1  0.24693000  -0.40695252  0.52866074  1.0
  In  In24  1  0.55679080  -0.76825568  0.36676140  1.0
  In  In25  1  0.44320920  -0.23174432  -0.36676140  1.0
  In  In26  1  0.98737347  -0.89042660  -0.16269184  1.0
  In  In27  1  0.01262653  -0.10957340  0.16269184  1.0
  In  In28  1  0.99151884  -0.64446603  -0.41377268  1.0
  In  In29  1  0.00848116  -0.35553397  0.41377268  1.0
  In  In30  1  0.42246472  -0.71449263  0.13836344  1.0
  In  In31  1  0.57753528  -0.28550737  -0.13836344  1.0
  P  P32  1  0.96076189  -0.09745351  -0.08413537  1.0
  P  P33  1  0.03923811  -0.90254649  0.08413537  1.0
  P  P34  1  0.41309418  -0.61637294  0.35174987  1.0
  P  P35  1  0.58690582  -0.38362706  -0.35174987  1.0
  P  P36  1  0.56795111  -0.86739789  0.15415812  1.0
  P  P37  1  0.43204889  -0.13260211  -0.15415812  1.0
  P  P38  1  0.68758251  -0.33952808  0.01491281  1.0
  P  P39  1  0.31241749  -0.66047192  -0.01491281  1.0
  P  P40  1  0.10765957  -0.84322199  0.58103084  1.0
  P  P41  1  0.89234043  -0.15677801  -0.58103084  1.0
  P  P42  1  0.85260888  -0.72179594  -0.22457202  1.0
  P  P43  1  0.14739112  -0.27820406  0.22457202  1.0
  P  P44  1  0.96214918  -0.51472254  -0.67194505  1.0
  P  P45  1  0.03785082  -0.48527746  0.67194505  1.0
  P  P46  1  0.65539081  -0.80917695  -0.46446891  1.0
  P  P47  1  0.34460919  -0.19082305  0.46446891  1.0
