# generated using pymatgen
data_NaNO2
_symmetry_space_group_name_H-M   'P 1'
_cell_length_a   4.31822811
_cell_length_b   4.31822811
_cell_length_c   4.31822811
_cell_angle_alpha   130.06967992
_cell_angle_beta   101.40385863
_cell_angle_gamma   99.12320083
_symmetry_Int_Tables_number   1
_chemical_formula_structural   NaNO2
_chemical_formula_sum   'Na1 N1 O2'
_cell_volume   55.84733002
_cell_formula_units_Z   1
loop_
 _symmetry_equiv_pos_site_id
 _symmetry_equiv_pos_as_xyz
  1  'x, y, z'
loop_
 _atom_site_type_symbol
 _atom_site_label
 _atom_site_symmetry_multiplicity
 _atom_site_fract_x
 _atom_site_fract_y
 _atom_site_fract_z
 _atom_site_occupancy
  Na  Na0  1  0.53895508  0.53895508  1.00000000  1.0
  N  N1  1  0.00076355  0.00076355  0.00000000  1.0
  O  O2  1  0.92812501  0.12299069  0.80513432  1.0
  O  O3  1  0.31785636  0.12299069  0.19486568  1.0
