# generated using pymatgen
data_KMo2P3O13
_symmetry_space_group_name_H-M   'P 1'
_cell_length_a   9.05497935
_cell_length_b   9.05497935
_cell_length_c   8.94812668
_cell_angle_alpha   69.45680797
_cell_angle_beta   110.54319203
_cell_angle_gamma   73.37731184
_symmetry_Int_Tables_number   1
_chemical_formula_structural   KMo2P3O13
_chemical_formula_sum   'K2 Mo4 P6 O26'
_cell_volume   568.98429434
_cell_formula_units_Z   2
loop_
 _symmetry_equiv_pos_site_id
 _symmetry_equiv_pos_as_xyz
  1  'x, y, z'
loop_
 _atom_site_type_symbol
 _atom_site_label
 _atom_site_symmetry_multiplicity
 _atom_site_fract_x
 _atom_site_fract_y
 _atom_site_fract_z
 _atom_site_occupancy
  K  K0  1  1.50000000  -0.00000000  -0.00000000  1.0
  K  K1  1  1.00000000  -0.50000000  0.50000000  1.0
  Mo  Mo2  1  1.66260453  0.17168910  0.66755235  1.0
  Mo  Mo3  1  0.82831090  -0.66260453  0.16755235  1.0
  Mo  Mo4  1  1.17168910  0.66260453  0.83244765  1.0
  Mo  Mo5  1  0.33739547  -0.17168910  0.33244765  1.0
  P  P6  1  0.73931852  -0.15255618  0.56262565  1.0
  P  P7  1  1.15255618  0.26068148  0.06262565  1.0
  P  P8  1  0.84744382  -0.26068148  0.93737435  1.0
  P  P9  1  1.26068148  0.15255618  0.43737435  1.0
  P  P10  1  1.48890259  0.48890259  0.75000000  1.0
  P  P11  1  0.51109741  -0.48890259  0.25000000  1.0
  O  O12  1  0.49374336  -0.39324678  0.58001119  1.0
  O  O13  1  1.39324678  0.50625664  0.08001119  1.0
  O  O14  1  0.60675322  -0.50625664  0.91998881  1.0
  O  O15  1  1.50625664  0.39324678  0.41998881  1.0
  O  O16  1  0.74985519  -0.06666059  0.89609667  1.0
  O  O17  1  1.06666059  0.25014481  0.39609667  1.0
  O  O18  1  0.93333941  -0.25014481  0.60390333  1.0
  O  O19  1  1.25014481  0.06666059  0.10390333  1.0
  O  O20  1  1.69312269  0.03770250  0.53222966  1.0
  O  O21  1  0.96229750  -0.69312269  0.03222966  1.0
  O  O22  1  1.03770250  0.69312269  0.96777034  1.0
  O  O23  1  0.30687731  -0.03770250  0.46777034  1.0
  O  O24  1  0.18885578  -0.14891910  0.77071306  1.0
  O  O25  1  1.14891910  0.81114422  0.27071306  1.0
  O  O26  1  0.85108090  -0.81114422  0.72928694  1.0
  O  O27  1  1.81114422  0.14891910  0.22928694  1.0
  O  O28  1  1.55849344  0.29372330  0.78657071  1.0
  O  O29  1  0.70627670  -0.55849344  0.28657071  1.0
  O  O30  1  1.29372330  0.55849344  0.71342929  1.0
  O  O31  1  0.44150656  -0.29372330  0.21342929  1.0
  O  O32  1  1.39188766  0.15820967  0.59331741  1.0
  O  O33  1  0.84179033  -0.39188766  0.09331741  1.0
  O  O34  1  1.15820967  0.39188766  0.90668259  1.0
  O  O35  1  0.60811234  -0.15820967  0.40668259  1.0
  O  O36  1  0.73773772  -0.26226228  0.75000000  1.0
  O  O37  1  1.26226228  0.26226228  0.25000000  1.0
