# generated using pymatgen
data_RbSO2F
_symmetry_space_group_name_H-M   'P 1'
_cell_length_a   4.90597400
_cell_length_b   6.03564927
_cell_length_c   7.46219695
_cell_angle_alpha   90.00000000
_cell_angle_beta   108.25648693
_cell_angle_gamma   90.00000000
_symmetry_Int_Tables_number   1
_chemical_formula_structural   RbSO2F
_chemical_formula_sum   'Rb2 S2 O4 F2'
_cell_volume   209.83878620
_cell_formula_units_Z   2
loop_
 _symmetry_equiv_pos_site_id
 _symmetry_equiv_pos_as_xyz
  1  'x, y, z'
loop_
 _atom_site_type_symbol
 _atom_site_label
 _atom_site_symmetry_multiplicity
 _atom_site_fract_x
 _atom_site_fract_y
 _atom_site_fract_z
 _atom_site_occupancy
  Rb  Rb0  1  0.65326595  0.75000000  0.28465136  1.0
  Rb  Rb1  1  0.34673405  0.25000000  0.71534864  1.0
  S  S2  1  0.90276624  0.75000000  0.81382029  1.0
  S  S3  1  0.09723376  0.25000000  0.18617971  1.0
  O  O4  1  0.83838408  0.95366719  0.69606102  1.0
  O  O5  1  0.83838408  0.54633281  0.69606102  1.0
  O  O6  1  0.16161592  0.45366719  0.30393898  1.0
  O  O7  1  0.16161592  0.04633281  0.30393898  1.0
  F  F8  1  0.29497181  0.75000000  0.87646979  1.0
  F  F9  1  0.70502819  0.25000000  0.12353021  1.0
