# generated using pymatgen
data_BeSnP2
_symmetry_space_group_name_H-M   'P 1'
_cell_length_a   6.67898255
_cell_length_b   6.67898255
_cell_length_c   6.67898255
_cell_angle_alpha   132.02123789
_cell_angle_beta   132.02123789
_cell_angle_gamma   70.19548602
_symmetry_Int_Tables_number   1
_chemical_formula_structural   BeSnP2
_chemical_formula_sum   'Be2 Sn2 P4'
_cell_volume   161.17610939
_cell_formula_units_Z   2
loop_
 _symmetry_equiv_pos_site_id
 _symmetry_equiv_pos_as_xyz
  1  'x, y, z'
loop_
 _atom_site_type_symbol
 _atom_site_label
 _atom_site_symmetry_multiplicity
 _atom_site_fract_x
 _atom_site_fract_y
 _atom_site_fract_z
 _atom_site_occupancy
  Be  Be0  1  0.50000000  0.50000000  0.00000000  1.0
  Be  Be1  1  0.25000000  0.75000000  0.50000000  1.0
  Sn  Sn2  1  1.00000000  1.00000000  1.00000000  1.0
  Sn  Sn3  1  0.75000000  0.25000000  0.50000000  1.0
  P  P4  1  1.37500000  0.82015111  0.94515111  1.0
  P  P5  1  0.87500000  1.42984889  1.05484889  1.0
  P  P6  1  0.57015111  0.62500000  0.44515111  1.0
  P  P7  1  1.17984889  1.12500000  1.55484889  1.0
