# generated using pymatgen
data_Ta2Bi4O11
_symmetry_space_group_name_H-M   'P 1'
_cell_length_a   7.73094160
_cell_length_b   6.67467060
_cell_length_c   10.07983135
_cell_angle_alpha   90.70914096
_cell_angle_beta   101.06855264
_cell_angle_gamma   89.91416522
_symmetry_Int_Tables_number   1
_chemical_formula_structural   Ta2Bi4O11
_chemical_formula_sum   'Ta4 Bi8 O22'
_cell_volume   510.41955840
_cell_formula_units_Z   2
loop_
 _symmetry_equiv_pos_site_id
 _symmetry_equiv_pos_as_xyz
  1  'x, y, z'
loop_
 _atom_site_type_symbol
 _atom_site_label
 _atom_site_symmetry_multiplicity
 _atom_site_fract_x
 _atom_site_fract_y
 _atom_site_fract_z
 _atom_site_occupancy
  Ta  Ta0  1  -0.70350718  -0.91880967  -0.81370667  1.0
  Ta  Ta1  1  -0.29649282  -0.08119033  -0.18629333  1.0
  Ta  Ta2  1  -0.20280781  -0.91511889  -0.80872254  1.0
  Ta  Ta3  1  -0.79719219  -0.08488111  -0.19127746  1.0
  Bi  Bi4  1  -0.37262070  -0.76356723  -0.47946344  1.0
  Bi  Bi5  1  -0.62737930  -0.23643277  -0.52053656  1.0
  Bi  Bi6  1  -0.87143879  -0.75162595  -0.47865274  1.0
  Bi  Bi7  1  -0.12856121  -0.24837405  -0.52134726  1.0
  Bi  Bi8  1  -0.95251859  -0.43912838  -0.81462857  1.0
  Bi  Bi9  1  -0.04748141  -0.56087162  -0.18537143  1.0
  Bi  Bi10  1  -0.45471199  -0.39504960  -0.82777488  1.0
  Bi  Bi11  1  -0.54528801  -0.60495040  -0.17222512  1.0
  O  O12  1  -0.77668619  -0.99630821  -1.00052331  1.0
  O  O13  1  -0.22331381  -0.00369179  0.00052331  1.0
  O  O14  1  -0.45285857  -0.98321287  -0.81028071  1.0
  O  O15  1  -0.54714143  -0.01678713  -0.18971929  1.0
  O  O16  1  -0.63753974  -0.90906755  -0.59904133  1.0
  O  O17  1  -0.36246026  -0.09093245  -0.40095867  1.0
  O  O18  1  -0.16764684  -0.89101657  -0.60363386  1.0
  O  O19  1  -0.83235316  -0.10898343  -0.39636614  1.0
  O  O20  1  -0.94746464  -0.84790034  -0.79019477  1.0
  O  O21  1  -0.05253536  -0.15209966  -0.20980523  1.0
  O  O22  1  -0.85097232  -0.78261884  -0.23628798  1.0
  O  O23  1  -0.14902768  -0.21738116  -0.76371202  1.0
  O  O24  1  -0.25681981  -0.63537275  -0.84463009  1.0
  O  O25  1  -0.74318019  -0.36462725  -0.15536991  1.0
  O  O26  1  -0.66021575  -0.63533848  -0.83029375  1.0
  O  O27  1  -0.33978425  -0.36466152  -0.16970625  1.0
  O  O28  1  -0.60712015  -0.58873435  -0.38580880  1.0
  O  O29  1  -0.39287985  -0.41126565  -0.61419120  1.0
  O  O30  1  -0.90809959  -0.45951939  -0.60324068  1.0
  O  O31  1  -0.09190041  -0.54048061  -0.39675932  1.0
  O  O32  1  -0.73155379  -0.21872197  -0.76322132  1.0
  O  O33  1  -0.26844621  -0.78127803  -0.23677868  1.0
