# generated using pymatgen
data_CsSb
_symmetry_space_group_name_H-M   'P 1'
_cell_length_a   15.63454989
_cell_length_b   7.50208954
_cell_length_c   14.55755938
_cell_angle_alpha   90.00000000
_cell_angle_beta   112.95308146
_cell_angle_gamma   90.00000000
_symmetry_Int_Tables_number   1
_chemical_formula_structural   CsSb
_chemical_formula_sum   'Cs16 Sb16'
_cell_volume   1572.29149657
_cell_formula_units_Z   16
loop_
 _symmetry_equiv_pos_site_id
 _symmetry_equiv_pos_as_xyz
  1  'x, y, z'
loop_
 _atom_site_type_symbol
 _atom_site_label
 _atom_site_symmetry_multiplicity
 _atom_site_fract_x
 _atom_site_fract_y
 _atom_site_fract_z
 _atom_site_occupancy
  Cs  Cs0  1  0.85859117  0.89825235  0.83841265  1.0
  Cs  Cs1  1  0.85859117  0.60174765  0.33841265  1.0
  Cs  Cs2  1  0.14140883  0.39825235  0.66158735  1.0
  Cs  Cs3  1  0.14140883  0.10174765  0.16158735  1.0
  Cs  Cs4  1  0.61734467  0.67844793  0.96975994  1.0
  Cs  Cs5  1  0.61734467  0.82155207  0.46975994  1.0
  Cs  Cs6  1  0.38265533  0.17844793  0.53024006  1.0
  Cs  Cs7  1  0.38265533  0.32155207  0.03024006  1.0
  Cs  Cs8  1  0.34987819  0.90817543  0.82532773  1.0
  Cs  Cs9  1  0.34987819  0.59182457  0.32532773  1.0
  Cs  Cs10  1  0.65012181  0.40817543  0.67467227  1.0
  Cs  Cs11  1  0.65012181  0.09182457  0.17467227  1.0
  Cs  Cs12  1  0.13105387  0.66146257  0.96457990  1.0
  Cs  Cs13  1  0.13105387  0.83853743  0.46457990  1.0
  Cs  Cs14  1  0.86894613  0.16146257  0.53542010  1.0
  Cs  Cs15  1  0.86894613  0.33853743  0.03542010  1.0
  Sb  Sb16  1  0.92225145  0.39769445  0.78799212  1.0
  Sb  Sb17  1  0.92225145  0.10230555  0.28799212  1.0
  Sb  Sb18  1  0.07774855  0.89769445  0.71200788  1.0
  Sb  Sb19  1  0.07774855  0.60230555  0.21200788  1.0
  Sb  Sb20  1  0.91941084  0.65928905  0.63873234  1.0
  Sb  Sb21  1  0.91941084  0.84071095  0.13873234  1.0
  Sb  Sb22  1  0.08058916  0.15928905  0.86126766  1.0
  Sb  Sb23  1  0.08058916  0.34071095  0.36126766  1.0
  Sb  Sb24  1  0.58494663  0.91754858  0.72406662  1.0
  Sb  Sb25  1  0.58494663  0.58245142  0.22406662  1.0
  Sb  Sb26  1  0.41505337  0.41754858  0.77593338  1.0
  Sb  Sb27  1  0.41505337  0.08245142  0.27593338  1.0
  Sb  Sb28  1  0.42742029  0.68175768  0.63418127  1.0
  Sb  Sb29  1  0.42742029  0.81824232  0.13418127  1.0
  Sb  Sb30  1  0.57257971  0.18175768  0.86581873  1.0
  Sb  Sb31  1  0.57257971  0.31824232  0.36581873  1.0
