# generated using pymatgen
data_NaCr2GaO8
_symmetry_space_group_name_H-M   'P 1'
_cell_length_a   5.12327476
_cell_length_b   5.12327476
_cell_length_c   7.02319749
_cell_angle_alpha   90.02886592
_cell_angle_beta   89.97113408
_cell_angle_gamma   114.99118867
_symmetry_Int_Tables_number   1
_chemical_formula_structural   NaCr2GaO8
_chemical_formula_sum   'Na1 Cr2 Ga1 O8'
_cell_volume   167.08480176
_cell_formula_units_Z   1
loop_
 _symmetry_equiv_pos_site_id
 _symmetry_equiv_pos_as_xyz
  1  'x, y, z'
loop_
 _atom_site_type_symbol
 _atom_site_label
 _atom_site_symmetry_multiplicity
 _atom_site_fract_x
 _atom_site_fract_y
 _atom_site_fract_z
 _atom_site_occupancy
  Na  Na0  1  -0.00000000  0.00000000  0.50000000  1.0
  Cr  Cr1  1  0.64131128  -0.64131128  0.77698076  1.0
  Cr  Cr2  1  0.35868872  -0.35868872  0.22301924  1.0
  Ga  Ga3  1  0.00000000  0.00000000  0.00000000  1.0
  O  O4  1  1.27876942  0.21608338  0.79722654  1.0
  O  O5  1  0.78391662  -0.27876942  0.79722654  1.0
  O  O6  1  1.21608338  0.27876942  0.20277346  1.0
  O  O7  1  0.72123058  -0.21608338  0.20277346  1.0
  O  O8  1  0.77359599  -0.77359599  0.94481375  1.0
  O  O9  1  0.22640401  -0.22640401  0.05518625  1.0
  O  O10  1  0.72044629  -0.72044629  0.57093018  1.0
  O  O11  1  0.27955371  -0.27955371  0.42906982  1.0
