# generated using pymatgen
data_KBrO4
_symmetry_space_group_name_H-M   'P 1'
_cell_length_a   9.27845705
_cell_length_b   6.00784862
_cell_length_c   7.66585118
_cell_angle_alpha   90.00000000
_cell_angle_beta   90.00000000
_cell_angle_gamma   90.00000000
_symmetry_Int_Tables_number   1
_chemical_formula_structural   KBrO4
_chemical_formula_sum   'K4 Br4 O16'
_cell_volume   427.32187604
_cell_formula_units_Z   4
loop_
 _symmetry_equiv_pos_site_id
 _symmetry_equiv_pos_as_xyz
  1  'x, y, z'
loop_
 _atom_site_type_symbol
 _atom_site_label
 _atom_site_symmetry_multiplicity
 _atom_site_fract_x
 _atom_site_fract_y
 _atom_site_fract_z
 _atom_site_occupancy
  K  K0  1  0.32030570  0.75000000  0.16260743  1.0
  K  K1  1  0.82030570  0.75000000  0.33739257  1.0
  K  K2  1  0.67969430  0.25000000  0.83739257  1.0
  K  K3  1  0.17969430  0.25000000  0.66260743  1.0
  Br  Br4  1  0.43318685  0.75000000  0.68587214  1.0
  Br  Br5  1  0.93318685  0.75000000  0.81412786  1.0
  Br  Br6  1  0.56681315  0.25000000  0.31412786  1.0
  Br  Br7  1  0.06681315  0.25000000  0.18587214  1.0
  O  O8  1  0.41929624  0.97457890  0.81204223  1.0
  O  O9  1  0.41929624  0.52542110  0.81204223  1.0
  O  O10  1  0.91929624  0.97457890  0.68795777  1.0
  O  O11  1  0.91929624  0.52542110  0.68795777  1.0
  O  O12  1  0.58070376  0.47457890  0.18795777  1.0
  O  O13  1  0.58070376  0.02542110  0.18795777  1.0
  O  O14  1  0.08070376  0.47457890  0.31204223  1.0
  O  O15  1  0.08070376  0.02542110  0.31204223  1.0
  O  O16  1  0.29889476  0.75000000  0.54334654  1.0
  O  O17  1  0.79889476  0.75000000  0.95665346  1.0
  O  O18  1  0.70110524  0.25000000  0.45665346  1.0
  O  O19  1  0.20110524  0.25000000  0.04334654  1.0
  O  O20  1  0.09137235  0.75000000  0.91228115  1.0
  O  O21  1  0.59137235  0.75000000  0.58771885  1.0
  O  O22  1  0.90862765  0.25000000  0.08771885  1.0
  O  O23  1  0.40862765  0.25000000  0.41228115  1.0
