# generated using pymatgen
data_CsGdS2
_symmetry_space_group_name_H-M   'P 1'
_cell_length_a   8.40690027
_cell_length_b   8.40690027
_cell_length_c   8.40690027
_cell_angle_alpha   28.61925764
_cell_angle_beta   28.61925764
_cell_angle_gamma   28.61925769
_symmetry_Int_Tables_number   1
_chemical_formula_structural   CsGdS2
_chemical_formula_sum   'Cs1 Gd1 S2'
_cell_volume   120.50696285
_cell_formula_units_Z   1
loop_
 _symmetry_equiv_pos_site_id
 _symmetry_equiv_pos_as_xyz
  1  'x, y, z'
loop_
 _atom_site_type_symbol
 _atom_site_label
 _atom_site_symmetry_multiplicity
 _atom_site_fract_x
 _atom_site_fract_y
 _atom_site_fract_z
 _atom_site_occupancy
  Cs  Cs0  1  0.00000000  0.00000000  0.00000000  1.0
  Gd  Gd1  1  1.50000000  0.50000000  0.50000000  1.0
  S  S2  1  0.77236525  0.77236525  0.77236525  1.0
  S  S3  1  1.22763475  1.22763475  0.22763475  1.0
