# generated using pymatgen
data_ZnS
_symmetry_space_group_name_H-M   'P 1'
_cell_length_a   3.85024814
_cell_length_b   3.85024814
_cell_length_c   100.66633460
_cell_angle_alpha   90.00000000
_cell_angle_beta   90.00000000
_cell_angle_gamma   120.00000000
_symmetry_Int_Tables_number   1
_chemical_formula_structural   ZnS
_chemical_formula_sum   'Zn32 S32'
_cell_volume   1292.38624547
_cell_formula_units_Z   32
loop_
 _symmetry_equiv_pos_site_id
 _symmetry_equiv_pos_as_xyz
  1  'x, y, z'
loop_
 _atom_site_type_symbol
 _atom_site_label
 _atom_site_symmetry_multiplicity
 _atom_site_fract_x
 _atom_site_fract_y
 _atom_site_fract_z
 _atom_site_occupancy
  Zn  Zn0  1  0.00000000  0.00000000  0.00782029  1.0
  Zn  Zn1  1  0.00000000  0.00000000  0.10156507  1.0
  Zn  Zn2  1  0.00000000  0.00000000  0.22657749  1.0
  Zn  Zn3  1  0.00000000  0.00000000  0.32032127  1.0
  Zn  Zn4  1  0.00000000  0.00000000  0.41407361  1.0
  Zn  Zn5  1  0.00000000  0.00000000  0.50781291  1.0
  Zn  Zn6  1  -0.00000000  -0.00000000  0.63282803  1.0
  Zn  Zn7  1  0.00000000  0.00000000  0.72657185  1.0
  Zn  Zn8  1  0.00000000  0.00000000  0.82032219  1.0
  Zn  Zn9  1  0.00000000  0.00000000  0.91407076  1.0
  Zn  Zn10  1  0.66666667  0.33333333  0.07032647  1.0
  Zn  Zn11  1  0.66666667  0.33333333  0.16407241  1.0
  Zn  Zn12  1  0.66666667  0.33333333  0.25781490  1.0
  Zn  Zn13  1  0.66666667  0.33333333  0.38282791  1.0
  Zn  Zn14  1  0.66666667  0.33333333  0.47656994  1.0
  Zn  Zn15  1  0.66666667  0.33333333  0.57032107  1.0
  Zn  Zn16  1  0.66666667  0.33333333  0.66407373  1.0
  Zn  Zn17  1  0.66666667  0.33333333  0.75782159  1.0
  Zn  Zn18  1  0.66666667  0.33333333  0.85157240  1.0
  Zn  Zn19  1  0.66666667  0.33333333  0.94531294  1.0
  Zn  Zn20  1  0.33333333  0.66666667  0.03909840  1.0
  Zn  Zn21  1  0.33333333  0.66666667  0.13279760  1.0
  Zn  Zn22  1  0.33333333  0.66666667  0.19534861  1.0
  Zn  Zn23  1  0.33333333  0.66666667  0.28904876  1.0
  Zn  Zn24  1  0.33333333  0.66666667  0.35159851  1.0
  Zn  Zn25  1  0.33333333  0.66666667  0.44532113  1.0
  Zn  Zn26  1  0.33333333  0.66666667  0.53904806  1.0
  Zn  Zn27  1  0.33333333  0.66666667  0.60159860  1.0
  Zn  Zn28  1  0.33333333  0.66666667  0.69532161  1.0
  Zn  Zn29  1  0.33333333  0.66666667  0.78907293  1.0
  Zn  Zn30  1  0.33333333  0.66666667  0.88282147  1.0
  Zn  Zn31  1  0.33333333  0.66666667  0.97654708  1.0
  S  S32  1  -0.00000000  -0.00000000  0.03128376  1.0
  S  S33  1  -0.00000000  -0.00000000  0.12499032  1.0
  S  S34  1  -0.00000000  -0.00000000  0.25000330  1.0
  S  S35  1  0.00000000  0.00000000  0.34378526  1.0
  S  S36  1  -0.00000000  -0.00000000  0.43750353  1.0
  S  S37  1  -0.00000000  -0.00000000  0.53123982  1.0
  S  S38  1  -0.00000000  -0.00000000  0.65625657  1.0
  S  S39  1  -0.00000000  -0.00000000  0.75000310  1.0
  S  S40  1  0.00000000  0.00000000  0.84375332  1.0
  S  S41  1  0.00000000  0.00000000  0.93749971  1.0
  S  S42  1  0.66666667  0.33333333  0.09375346  1.0
  S  S43  1  0.66666667  0.33333333  0.18753520  1.0
  S  S44  1  0.66666667  0.33333333  0.28124047  1.0
  S  S45  1  0.66666667  0.33333333  0.40625626  1.0
  S  S46  1  0.66666667  0.33333333  0.49999940  1.0
  S  S47  1  0.66666667  0.33333333  0.59378534  1.0
  S  S48  1  0.66666667  0.33333333  0.68750406  1.0
  S  S49  1  0.66666667  0.33333333  0.78125293  1.0
  S  S50  1  0.66666667  0.33333333  0.87500281  1.0
  S  S51  1  0.66666667  0.33333333  0.96873975  1.0
  S  S52  1  0.33333333  0.66666667  -0.00003080  1.0
  S  S53  1  0.33333333  0.66666667  0.06251663  1.0
  S  S54  1  0.33333333  0.66666667  0.15622036  1.0
  S  S55  1  0.33333333  0.66666667  0.21876755  1.0
  S  S56  1  0.33333333  0.66666667  0.31247081  1.0
  S  S57  1  0.33333333  0.66666667  0.37501707  1.0
  S  S58  1  0.33333333  0.66666667  0.46875292  1.0
  S  S59  1  0.33333333  0.66666667  0.56247076  1.0
  S  S60  1  0.33333333  0.66666667  0.62501720  1.0
  S  S61  1  0.33333333  0.66666667  0.71875381  1.0
  S  S62  1  0.33333333  0.66666667  0.81250323  1.0
  S  S63  1  0.33333333  0.66666667  0.90625247  1.0
