# generated using pymatgen
data_Ba2B6PbO12
_symmetry_space_group_name_H-M   'P 1'
_cell_length_a   13.48178040
_cell_length_b   13.48178040
_cell_length_c   13.48178040
_cell_angle_alpha   31.32439107
_cell_angle_beta   31.32439107
_cell_angle_gamma   31.32439107
_symmetry_Int_Tables_number   1
_chemical_formula_structural   Ba2B6PbO12
_chemical_formula_sum   'Ba4 B12 Pb2 O24'
_cell_volume   587.82724776
_cell_formula_units_Z   2
loop_
 _symmetry_equiv_pos_site_id
 _symmetry_equiv_pos_as_xyz
  1  'x, y, z'
loop_
 _atom_site_type_symbol
 _atom_site_label
 _atom_site_symmetry_multiplicity
 _atom_site_fract_x
 _atom_site_fract_y
 _atom_site_fract_z
 _atom_site_occupancy
  Ba  Ba0  1  0.85030947  -0.14969053  -0.14969053  1.0
  Ba  Ba1  1  0.35030947  0.35030947  0.35030947  1.0
  Ba  Ba2  1  0.64969053  0.64969053  -0.35030947  1.0
  Ba  Ba3  1  1.14969053  0.14969053  0.14969053  1.0
  B  B4  1  0.74707238  0.13372002  -0.00100626  1.0
  B  B5  1  1.24707238  0.49899374  -0.36627998  1.0
  B  B6  1  0.50100626  0.36627998  -0.24707238  1.0
  B  B7  1  1.00100626  0.25292762  -0.13372002  1.0
  B  B8  1  0.86627998  0.00100626  0.25292762  1.0
  B  B9  1  0.36627998  0.75292762  -0.49899374  1.0
  B  B10  1  1.25292762  -0.13372002  0.00100626  1.0
  B  B11  1  0.75292762  0.50100626  -0.63372002  1.0
  B  B12  1  0.99899374  -0.25292762  0.13372002  1.0
  B  B13  1  0.49899374  0.63372002  0.24707238  1.0
  B  B14  1  0.63372002  1.24707238  -0.50100626  1.0
  B  B15  1  1.13372002  -0.00100626  -0.25292762  1.0
  Pb  Pb16  1  0.75000000  0.75000000  -0.25000000  1.0
  Pb  Pb17  1  0.25000000  0.25000000  0.25000000  1.0
  O  O18  1  0.92128955  0.16568058  -0.21048563  1.0
  O  O19  1  1.42128955  0.28951437  -0.33431942  1.0
  O  O20  1  0.71048563  0.33431942  -0.42128955  1.0
  O  O21  1  1.21048563  0.07871045  -0.16568058  1.0
  O  O22  1  0.83431942  0.21048563  0.07871045  1.0
  O  O23  1  0.33431942  0.57871045  -0.28951437  1.0
  O  O24  1  1.07871045  -0.16568058  0.21048563  1.0
  O  O25  1  0.57871045  0.71048563  -0.66568058  1.0
  O  O26  1  0.78951437  -0.07871045  0.16568058  1.0
  O  O27  1  1.28951437  -0.33431942  0.42128955  1.0
  O  O28  1  0.66568058  0.42128955  0.28951437  1.0
  O  O29  1  1.16568058  -0.21048563  -0.07871045  1.0
  O  O30  1  0.53226218  0.80190948  0.05371130  1.0
  O  O31  1  1.03226218  0.55371130  -0.69809052  1.0
  O  O32  1  0.44628870  0.69809052  -0.03226218  1.0
  O  O33  1  0.94628870  -0.53226218  0.19809052  1.0
  O  O34  1  1.19809052  -0.05371130  -0.53226218  1.0
  O  O35  1  0.69809052  0.96773782  -0.55371130  1.0
  O  O36  1  0.46773782  0.19809052  -0.05371130  1.0
  O  O37  1  0.96773782  0.44628870  -0.30190948  1.0
  O  O38  1  1.05371130  0.53226218  -0.19809052  1.0
  O  O39  1  0.55371130  0.30190948  0.03226218  1.0
  O  O40  1  0.30190948  1.03226218  -0.44628870  1.0
  O  O41  1  0.80190948  1.05371130  -0.46773782  1.0
