# generated using pymatgen
data_Ca3ZrSi2O9
_symmetry_space_group_name_H-M   'P 1'
_cell_length_a   7.43040984
_cell_length_b   10.30461474
_cell_length_c   10.50444403
_cell_angle_alpha   90.00000000
_cell_angle_beta   91.15963307
_cell_angle_gamma   90.00000000
_symmetry_Int_Tables_number   1
_chemical_formula_structural   Ca3ZrSi2O9
_chemical_formula_sum   'Ca12 Zr4 Si8 O36'
_cell_volume   804.13440245
_cell_formula_units_Z   4
loop_
 _symmetry_equiv_pos_site_id
 _symmetry_equiv_pos_as_xyz
  1  'x, y, z'
loop_
 _atom_site_type_symbol
 _atom_site_label
 _atom_site_symmetry_multiplicity
 _atom_site_fract_x
 _atom_site_fract_y
 _atom_site_fract_z
 _atom_site_occupancy
  Ca  Ca0  1  0.88178836  0.17454064  0.91070686  1.0
  Ca  Ca1  1  0.88178836  0.32545936  0.41070686  1.0
  Ca  Ca2  1  0.11821164  0.67454064  0.58929314  1.0
  Ca  Ca3  1  0.11821164  0.82545936  0.08929314  1.0
  Ca  Ca4  1  0.62731847  0.69670762  0.59922271  1.0
  Ca  Ca5  1  0.62731847  0.80329238  0.09922271  1.0
  Ca  Ca6  1  0.37268153  0.19670762  0.90077729  1.0
  Ca  Ca7  1  0.37268153  0.30329238  0.40077729  1.0
  Ca  Ca8  1  0.36389858  0.57752327  0.88656824  1.0
  Ca  Ca9  1  0.36389858  0.92247673  0.38656824  1.0
  Ca  Ca10  1  0.63610142  0.07752327  0.61343176  1.0
  Ca  Ca11  1  0.63610142  0.42247673  0.11343176  1.0
  Zr  Zr12  1  0.87671505  0.56288494  0.88481356  1.0
  Zr  Zr13  1  0.87671505  0.93711506  0.38481356  1.0
  Zr  Zr14  1  0.12328495  0.06288494  0.61518644  1.0
  Zr  Zr15  1  0.12328495  0.43711506  0.11518644  1.0
  Si  Si16  1  0.83322506  0.87576807  0.81801505  1.0
  Si  Si17  1  0.83322506  0.62423193  0.31801505  1.0
  Si  Si18  1  0.16677494  0.37576807  0.68198495  1.0
  Si  Si19  1  0.16677494  0.12423193  0.18198495  1.0
  Si  Si20  1  0.40154695  0.86432248  0.81011637  1.0
  Si  Si21  1  0.40154695  0.63567752  0.31011637  1.0
  Si  Si22  1  0.59845305  0.36432248  0.68988363  1.0
  Si  Si23  1  0.59845305  0.13567752  0.18988363  1.0
  O  O24  1  0.91555543  1.00381795  0.74820726  1.0
  O  O25  1  0.91555543  0.49618205  0.24820726  1.0
  O  O26  1  0.08444457  0.50381795  0.75179274  1.0
  O  O27  1  0.08444457  -0.00381795  0.25179274  1.0
  O  O28  1  0.89302963  0.73539151  0.75733509  1.0
  O  O29  1  0.89302963  0.76460849  0.25733509  1.0
  O  O30  1  0.10697037  0.23539151  0.74266491  1.0
  O  O31  1  0.10697037  0.26460849  0.24266491  1.0
  O  O32  1  0.85888139  0.87861806  0.97092838  1.0
  O  O33  1  0.85888139  0.62138194  0.47092838  1.0
  O  O34  1  0.14111861  0.37861806  0.52907162  1.0
  O  O35  1  0.14111861  0.12138194  0.02907162  1.0
  O  O36  1  0.90517659  0.39008885  0.98952553  1.0
  O  O37  1  0.90517659  0.10991115  0.48952553  1.0
  O  O38  1  0.09482341  0.89008885  0.51047447  1.0
  O  O39  1  0.09482341  0.60991115  0.01047447  1.0
  O  O40  1  0.69509526  0.49882961  0.73674543  1.0
  O  O41  1  0.69509526  0.00117039  0.23674543  1.0
  O  O42  1  0.30490474  0.99882961  0.76325457  1.0
  O  O43  1  0.30490474  0.50117039  0.26325457  1.0
  O  O44  1  0.65818023  0.60722515  0.98363729  1.0
  O  O45  1  0.65818023  0.89277485  0.48363729  1.0
  O  O46  1  0.34181977  0.10722515  0.51636271  1.0
  O  O47  1  0.34181977  0.39277485  0.01636271  1.0
  O  O48  1  0.61673223  0.89437755  0.77389717  1.0
  O  O49  1  0.61673223  0.60562245  0.27389717  1.0
  O  O50  1  0.38326777  0.39437755  0.72610283  1.0
  O  O51  1  0.38326777  0.10562245  0.22610283  1.0
  O  O52  1  0.37932375  0.83196018  0.96008584  1.0
  O  O53  1  0.37932375  0.66803982  0.46008584  1.0
  O  O54  1  0.62067625  0.33196018  0.53991416  1.0
  O  O55  1  0.62067625  0.16803982  0.03991416  1.0
  O  O56  1  0.35638950  0.73420982  0.72585931  1.0
  O  O57  1  0.35638950  0.76579018  0.22585931  1.0
  O  O58  1  0.64361050  0.23420982  0.77414069  1.0
  O  O59  1  0.64361050  0.26579018  0.27414069  1.0
