# generated using pymatgen
data_Tl2ZnP4(HO2)8
_symmetry_space_group_name_H-M   'P 1'
_cell_length_a   7.12318466
_cell_length_b   7.55218120
_cell_length_c   7.73685994
_cell_angle_alpha   81.86016544
_cell_angle_beta   73.36748875
_cell_angle_gamma   87.30542299
_symmetry_Int_Tables_number   1
_chemical_formula_structural   Tl2ZnP4(HO2)8
_chemical_formula_sum   'Tl2 Zn1 P4 H8 O16'
_cell_volume   394.76792749
_cell_formula_units_Z   1
loop_
 _symmetry_equiv_pos_site_id
 _symmetry_equiv_pos_as_xyz
  1  'x, y, z'
loop_
 _atom_site_type_symbol
 _atom_site_label
 _atom_site_symmetry_multiplicity
 _atom_site_fract_x
 _atom_site_fract_y
 _atom_site_fract_z
 _atom_site_occupancy
  Tl  Tl0  1  0.62435702  0.22143014  0.79825773  1.0
  Tl  Tl1  1  0.37564298  0.77856986  0.20174227  1.0
  Zn  Zn2  1  0.00000000  0.00000000  0.00000000  1.0
  P  P3  1  0.83202592  0.76254840  0.74364387  1.0
  P  P4  1  0.16797408  0.23745160  0.25635613  1.0
  P  P5  1  0.24109026  0.69737174  0.74766303  1.0
  P  P6  1  0.75890974  0.30262826  0.25233697  1.0
  H  H7  1  0.88565702  0.67948447  0.20988967  1.0
  H  H8  1  0.11434298  0.32051553  0.79011033  1.0
  H  H9  1  0.87331593  0.81274964  0.35429682  1.0
  H  H10  1  0.12668407  0.18725036  0.64570318  1.0
  H  H11  1  0.76120433  0.54036099  0.97465247  1.0
  H  H12  1  0.23879567  0.45963901  0.02534753  1.0
  H  H13  1  0.55120932  0.76348051  0.58599162  1.0
  H  H14  1  0.44879068  0.23651949  0.41400838  1.0
  O  O15  1  0.94457867  0.78939572  0.22890569  1.0
  O  O16  1  0.05542133  0.21060428  0.77109431  1.0
  O  O17  1  0.93488832  0.26687967  0.35005648  1.0
  O  O18  1  0.06511168  0.73312033  0.64994352  1.0
  O  O19  1  0.80563298  0.89332509  0.88239877  1.0
  O  O20  1  0.19436702  0.10667491  0.11760123  1.0
  O  O21  1  0.74841791  0.82035488  0.58444613  1.0
  O  O22  1  0.25158209  0.17964512  0.41555387  1.0
  O  O23  1  0.74573798  0.57375130  0.84281030  1.0
  O  O24  1  0.25426202  0.42624870  0.15718970  1.0
  O  O25  1  0.41970821  0.72363100  0.57089782  1.0
  O  O26  1  0.58029179  0.27636900  0.42910218  1.0
  O  O27  1  0.22569928  0.50300826  0.83894026  1.0
  O  O28  1  0.77430072  0.49699174  0.16105974  1.0
  O  O29  1  0.23492941  0.83654982  0.87358882  1.0
  O  O30  1  0.76507059  0.16345018  0.12641118  1.0
