# generated using pymatgen
data_AsXe2OF10
_symmetry_space_group_name_H-M   'P 1'
_cell_length_a   8.90629094
_cell_length_b   8.90629094
_cell_length_c   8.90629094
_cell_angle_alpha   119.64528431
_cell_angle_beta   119.64528431
_cell_angle_gamma   90.61549153
_symmetry_Int_Tables_number   1
_chemical_formula_structural   AsXe2OF10
_chemical_formula_sum   'As2 Xe4 O2 F20'
_cell_volume   502.19312779
_cell_formula_units_Z   2
loop_
 _symmetry_equiv_pos_site_id
 _symmetry_equiv_pos_as_xyz
  1  'x, y, z'
loop_
 _atom_site_type_symbol
 _atom_site_label
 _atom_site_symmetry_multiplicity
 _atom_site_fract_x
 _atom_site_fract_y
 _atom_site_fract_z
 _atom_site_occupancy
  As  As0  1  0.00000000  0.00000000  0.00000000  1.0
  As  As1  1  0.50000000  0.50000000  1.00000000  1.0
  Xe  Xe2  1  0.50000000  0.50000000  0.50000000  1.0
  Xe  Xe3  1  1.00000000  1.00000000  1.50000000  1.0
  Xe  Xe4  1  0.50000000  1.00000000  1.00000000  1.0
  Xe  Xe5  1  1.00000000  0.50000000  1.00000000  1.0
  O  O6  1  0.50000000  0.00000000  0.50000000  1.0
  O  O7  1  -0.00000000  0.50000000  0.50000000  1.0
  F  F8  1  1.22516840  0.72516840  1.27061195  1.0
  F  F9  1  0.54544355  1.04544355  1.27061195  1.0
  F  F10  1  0.95455645  1.22516840  1.50000000  1.0
  F  F11  1  0.27483160  0.54544355  0.50000000  1.0
  F  F12  1  0.72516840  0.45455645  0.50000000  1.0
  F  F13  1  1.04544355  0.77483160  1.50000000  1.0
  F  F14  1  0.45455645  0.95455645  0.72938805  1.0
  F  F15  1  0.77483160  0.27483160  0.72938805  1.0
  F  F16  1  0.82076135  0.90987176  1.73063312  1.0
  F  F17  1  0.67923865  0.40987176  1.08911041  1.0
  F  F18  1  0.40987176  0.32076135  0.73063312  1.0
  F  F19  1  0.09012824  0.82076135  0.91088959  1.0
  F  F20  1  0.32076135  0.59012824  0.91088959  1.0
  F  F21  1  0.17923865  0.09012824  0.26936688  1.0
  F  F22  1  0.90987176  0.17923865  1.08911041  1.0
  F  F23  1  0.59012824  0.67923865  1.26936688  1.0
  F  F24  1  0.85637037  0.85637037  1.00000000  1.0
  F  F25  1  0.14362963  0.14362963  -0.00000000  1.0
  F  F26  1  0.35637037  0.35637037  -0.00000000  1.0
  F  F27  1  0.64362963  0.64362963  1.00000000  1.0
