# generated using pymatgen
data_TiNF
_symmetry_space_group_name_H-M   'P 1'
_cell_length_a   3.06238046
_cell_length_b   3.95549101
_cell_length_c   6.47018576
_cell_angle_alpha   90.00000000
_cell_angle_beta   90.00000000
_cell_angle_gamma   90.00000000
_symmetry_Int_Tables_number   1
_chemical_formula_structural   TiNF
_chemical_formula_sum   'Ti2 N2 F2'
_cell_volume   78.37477307
_cell_formula_units_Z   2
loop_
 _symmetry_equiv_pos_site_id
 _symmetry_equiv_pos_as_xyz
  1  'x, y, z'
loop_
 _atom_site_type_symbol
 _atom_site_label
 _atom_site_symmetry_multiplicity
 _atom_site_fract_x
 _atom_site_fract_y
 _atom_site_fract_z
 _atom_site_occupancy
  Ti  Ti0  1  0.50000000  0.00000000  0.87405052  1.0
  Ti  Ti1  1  0.00000000  0.50000000  0.12594948  1.0
  N  N2  1  0.50000000  0.50000000  0.92633299  1.0
  N  N3  1  0.00000000  0.00000000  0.07366701  1.0
  F  F4  1  0.00000000  0.00000000  0.66644807  1.0
  F  F5  1  0.50000000  0.50000000  0.33355193  1.0
