# generated using pymatgen
data_InGaS3
_symmetry_space_group_name_H-M   'P 1'
_cell_length_a   10.64640287
_cell_length_b   10.64640287
_cell_length_c   6.24156790
_cell_angle_alpha   90.00000000
_cell_angle_beta   90.00000000
_cell_angle_gamma   159.40209171
_symmetry_Int_Tables_number   1
_chemical_formula_structural   InGaS3
_chemical_formula_sum   'In2 Ga2 S6'
_cell_volume   248.88834254
_cell_formula_units_Z   2
loop_
 _symmetry_equiv_pos_site_id
 _symmetry_equiv_pos_as_xyz
  1  'x, y, z'
loop_
 _atom_site_type_symbol
 _atom_site_label
 _atom_site_symmetry_multiplicity
 _atom_site_fract_x
 _atom_site_fract_y
 _atom_site_fract_z
 _atom_site_occupancy
  In  In0  1  -0.32786806  0.32786806  -0.00193496  1.0
  In  In1  1  0.32786806  0.67213194  0.49806504  1.0
  Ga  Ga2  1  0.12434239  0.87565761  0.44299738  1.0
  Ga  Ga3  1  -0.12434239  0.12434239  0.94299738  1.0
  S  S4  1  0.22197538  0.77802462  0.25676401  1.0
  S  S5  1  -0.22197538  0.22197538  0.75676401  1.0
  S  S6  1  -0.42229944  0.42229944  0.29289383  1.0
  S  S7  1  0.42229944  0.57770056  0.79289383  1.0
  S  S8  1  -0.11293639  0.11293639  0.30337974  1.0
  S  S9  1  0.11293639  0.88706361  0.80337974  1.0
