# generated using pymatgen
data_Sb2MoO6
_symmetry_space_group_name_H-M   'P 1'
_cell_length_a   7.75400555
_cell_length_b   7.72378118
_cell_length_c   10.31342738
_cell_angle_alpha   70.08392337
_cell_angle_beta   69.65154489
_cell_angle_gamma   83.95845068
_symmetry_Int_Tables_number   1
_chemical_formula_structural   Sb2MoO6
_chemical_formula_sum   'Sb8 Mo4 O24'
_cell_volume   544.43065282
_cell_formula_units_Z   4
loop_
 _symmetry_equiv_pos_site_id
 _symmetry_equiv_pos_as_xyz
  1  'x, y, z'
loop_
 _atom_site_type_symbol
 _atom_site_label
 _atom_site_symmetry_multiplicity
 _atom_site_fract_x
 _atom_site_fract_y
 _atom_site_fract_z
 _atom_site_occupancy
  Sb  Sb0  1  -0.87349827  -0.94575887  -0.82467746  1.0
  Sb  Sb1  1  -0.12650173  -0.05424113  -0.17532254  1.0
  Sb  Sb2  1  -0.44737629  -0.86577411  -0.82660719  1.0
  Sb  Sb3  1  -0.55262371  -0.13422589  -0.17339281  1.0
  Sb  Sb4  1  -0.36807657  -0.42576916  -0.83600166  1.0
  Sb  Sb5  1  -0.63192343  -0.57423084  -0.16399834  1.0
  Sb  Sb6  1  -0.92258635  -0.37822556  -0.83831871  1.0
  Sb  Sb7  1  -0.07741365  -0.62177444  -0.16168129  1.0
  Mo  Mo8  1  -0.72510627  -0.77758612  -0.48371051  1.0
  Mo  Mo9  1  -0.27489373  -0.22241388  -0.51628949  1.0
  Mo  Mo10  1  -0.77797278  -0.27430545  -0.49841633  1.0
  Mo  Mo11  1  -0.22202722  -0.72569455  -0.50158367  1.0
  O  O12  1  -0.25412270  -0.98251400  -0.55869873  1.0
  O  O13  1  -0.74587730  -0.01748600  -0.44130127  1.0
  O  O14  1  -0.27772112  -0.91590116  -0.31275107  1.0
  O  O15  1  -0.72227888  -0.08409884  -0.68724893  1.0
  O  O16  1  -0.62631782  -0.80274496  -0.93939459  1.0
  O  O17  1  -0.37368218  -0.19725504  -0.06060541  1.0
  O  O18  1  -0.98184595  -0.75103478  -0.55662691  1.0
  O  O19  1  -0.01815405  -0.24896522  -0.44337309  1.0
  O  O20  1  -0.91590778  -0.75951275  -0.31549524  1.0
  O  O21  1  -0.08409222  -0.24048725  -0.68450476  1.0
  O  O22  1  -0.53242540  -0.75494309  -0.43624936  1.0
  O  O23  1  -0.46757460  -0.24505691  -0.56375064  1.0
  O  O24  1  -0.60614076  -0.71969764  -0.68837471  1.0
  O  O25  1  -0.39385924  -0.28030236  -0.31162529  1.0
  O  O26  1  -0.88900629  -0.69357446  -0.05842044  1.0
  O  O27  1  -0.11099371  -0.30642554  -0.94157956  1.0
  O  O28  1  -0.31191581  -0.61137436  -0.94358366  1.0
  O  O29  1  -0.68808419  -0.38862564  -0.05641634  1.0
  O  O30  1  -0.24130372  -0.60734078  -0.68584653  1.0
  O  O31  1  -0.75869628  -0.39265922  -0.31415347  1.0
  O  O32  1  -0.75022142  -0.46788626  -0.55778289  1.0
  O  O33  1  -0.24977858  -0.53211374  -0.44221711  1.0
  O  O34  1  -0.79531257  -0.12616331  -0.93711626  1.0
  O  O35  1  -0.20468743  -0.87383669  -0.06288374  1.0
