# generated using pymatgen
data_Cs4Y7Se12
_symmetry_space_group_name_H-M   'P 1'
_cell_length_a   13.02259004
_cell_length_b   26.33089345
_cell_length_c   4.17637806
_cell_angle_alpha   90.00000000
_cell_angle_beta   90.00000000
_cell_angle_gamma   90.00000000
_symmetry_Int_Tables_number   1
_chemical_formula_structural   Cs4Y7Se12
_chemical_formula_sum   'Cs8 Y14 Se24'
_cell_volume   1432.06512923
_cell_formula_units_Z   2
loop_
 _symmetry_equiv_pos_site_id
 _symmetry_equiv_pos_as_xyz
  1  'x, y, z'
loop_
 _atom_site_type_symbol
 _atom_site_label
 _atom_site_symmetry_multiplicity
 _atom_site_fract_x
 _atom_site_fract_y
 _atom_site_fract_z
 _atom_site_occupancy
  Cs  Cs0  1  0.40555449  0.95009102  0.50000000  1.0
  Cs  Cs1  1  0.90555449  0.54990898  0.00000000  1.0
  Cs  Cs2  1  0.59444551  0.04990898  0.50000000  1.0
  Cs  Cs3  1  0.09444551  0.45009102  0.00000000  1.0
  Cs  Cs4  1  0.69820444  0.64286991  0.50000000  1.0
  Cs  Cs5  1  0.19820444  0.85713009  0.00000000  1.0
  Cs  Cs6  1  0.30179556  0.35713009  0.50000000  1.0
  Cs  Cs7  1  0.80179556  0.14286991  0.00000000  1.0
  Y  Y8  1  0.39538150  0.71188449  0.50000000  1.0
  Y  Y9  1  0.89538150  0.78811551  0.00000000  1.0
  Y  Y10  1  0.60461850  0.28811551  0.50000000  1.0
  Y  Y11  1  0.10461850  0.21188449  0.00000000  1.0
  Y  Y12  1  0.22025043  0.08415510  0.50000000  1.0
  Y  Y13  1  0.72025043  0.41584490  0.00000000  1.0
  Y  Y14  1  0.77974957  0.91584490  0.50000000  1.0
  Y  Y15  1  0.27974957  0.58415510  0.00000000  1.0
  Y  Y16  1  0.07702047  0.68356579  0.50000000  1.0
  Y  Y17  1  0.57702047  0.81643421  0.00000000  1.0
  Y  Y18  1  0.92297953  0.31643421  0.50000000  1.0
  Y  Y19  1  0.42297953  0.18356579  0.00000000  1.0
  Y  Y20  1  0.50000000  0.50000000  0.50000000  1.0
  Y  Y21  1  0.00000000  0.00000000  0.00000000  1.0
  Se  Se22  1  0.42524665  0.60315874  0.50000000  1.0
  Se  Se23  1  0.92524665  0.89684126  0.00000000  1.0
  Se  Se24  1  0.57475335  0.39684126  0.50000000  1.0
  Se  Se25  1  0.07475335  0.10315874  0.00000000  1.0
  Se  Se26  1  0.42271524  0.82074916  0.50000000  1.0
  Se  Se27  1  0.92271524  0.67925084  0.00000000  1.0
  Se  Se28  1  0.57728476  0.17925084  0.50000000  1.0
  Se  Se29  1  0.07728476  0.32074916  0.00000000  1.0
  Se  Se30  1  0.26252923  0.19569005  0.50000000  1.0
  Se  Se31  1  0.76252923  0.30430995  0.00000000  1.0
  Se  Se32  1  0.73747077  0.80430995  0.50000000  1.0
  Se  Se33  1  0.23747077  0.69569005  0.00000000  1.0
  Se  Se34  1  0.14790993  0.98086104  0.50000000  1.0
  Se  Se35  1  0.64790993  0.51913896  0.00000000  1.0
  Se  Se36  1  0.85209007  0.01913896  0.50000000  1.0
  Se  Se37  1  0.35209007  0.48086104  0.00000000  1.0
  Se  Se38  1  0.12448055  0.57389793  0.50000000  1.0
  Se  Se39  1  0.62448055  0.92610207  0.00000000  1.0
  Se  Se40  1  0.87551945  0.42610207  0.50000000  1.0
  Se  Se41  1  0.37551945  0.07389793  0.00000000  1.0
  Se  Se42  1  0.04236103  0.78795793  0.50000000  1.0
  Se  Se43  1  0.54236103  0.71204207  0.00000000  1.0
  Se  Se44  1  0.95763897  0.21204207  0.50000000  1.0
  Se  Se45  1  0.45763897  0.28795793  0.00000000  1.0
