# generated using pymatgen
data_LaCrTeO6
_symmetry_space_group_name_H-M   'P 1'
_cell_length_a   5.26382190
_cell_length_b   5.26382190
_cell_length_c   10.49124629
_cell_angle_alpha   90.00000000
_cell_angle_beta   90.00000000
_cell_angle_gamma   120.00000000
_symmetry_Int_Tables_number   1
_chemical_formula_structural   LaCrTeO6
_chemical_formula_sum   'La2 Cr2 Te2 O12'
_cell_volume   251.74455638
_cell_formula_units_Z   2
loop_
 _symmetry_equiv_pos_site_id
 _symmetry_equiv_pos_as_xyz
  1  'x, y, z'
loop_
 _atom_site_type_symbol
 _atom_site_label
 _atom_site_symmetry_multiplicity
 _atom_site_fract_x
 _atom_site_fract_y
 _atom_site_fract_z
 _atom_site_occupancy
  La  La0  1  0.00000000  0.00000000  0.00000000  1.0
  La  La1  1  0.00000000  0.00000000  0.50000000  1.0
  Cr  Cr2  1  0.66666667  0.33333333  0.25000000  1.0
  Cr  Cr3  1  0.33333333  0.66666667  0.75000000  1.0
  Te  Te4  1  0.33333333  0.66666667  0.25000000  1.0
  Te  Te5  1  0.66666667  0.33333333  0.75000000  1.0
  O  O6  1  0.37136887  0.00464556  0.14442935  1.0
  O  O7  1  0.37136887  0.36672330  0.35557065  1.0
  O  O8  1  0.00464556  0.37136887  0.64442935  1.0
  O  O9  1  0.00464556  0.63327670  0.85557065  1.0
  O  O10  1  0.63327670  0.00464556  0.35557065  1.0
  O  O11  1  0.63327670  0.62863113  0.14442935  1.0
  O  O12  1  -0.00464556  0.62863113  0.35557065  1.0
  O  O13  1  -0.00464556  0.36672330  0.14442935  1.0
  O  O14  1  0.62863113  0.63327670  0.64442935  1.0
  O  O15  1  0.62863113  -0.00464556  0.85557065  1.0
  O  O16  1  0.36672330  0.37136887  0.85557065  1.0
  O  O17  1  0.36672330  -0.00464556  0.64442935  1.0
