# generated using pymatgen
data_Ca(ClO)2
_symmetry_space_group_name_H-M   'P 1'
_cell_length_a   9.03130107
_cell_length_b   9.03130107
_cell_length_c   6.57986075
_cell_angle_alpha   90.00000000
_cell_angle_beta   90.00000000
_cell_angle_gamma   137.77872510
_symmetry_Int_Tables_number   1
_chemical_formula_structural   Ca(ClO)2
_chemical_formula_sum   'Ca4 Cl8 O8'
_cell_volume   360.64821196
_cell_formula_units_Z   4
loop_
 _symmetry_equiv_pos_site_id
 _symmetry_equiv_pos_as_xyz
  1  'x, y, z'
loop_
 _atom_site_type_symbol
 _atom_site_label
 _atom_site_symmetry_multiplicity
 _atom_site_fract_x
 _atom_site_fract_y
 _atom_site_fract_z
 _atom_site_occupancy
  Ca  Ca0  1  0.25000000  0.75000000  0.75000000  1.0
  Ca  Ca1  1  -0.25000000  0.25000000  0.75000000  1.0
  Ca  Ca2  1  -0.25000000  0.25000000  0.25000000  1.0
  Ca  Ca3  1  0.25000000  0.75000000  0.25000000  1.0
  Cl  Cl4  1  -0.16616422  0.66613295  0.07531318  1.0
  Cl  Cl5  1  -0.66616422  0.16613295  0.42468682  1.0
  Cl  Cl6  1  -0.33386705  -0.16616422  0.92468682  1.0
  Cl  Cl7  1  0.16613295  0.33383578  0.57531318  1.0
  Cl  Cl8  1  0.33386705  1.16616422  0.92468682  1.0
  Cl  Cl9  1  -0.16613295  0.66616422  0.57531318  1.0
  Cl  Cl10  1  0.16616422  0.33386705  0.07531318  1.0
  Cl  Cl11  1  0.66616422  0.83386705  0.42468682  1.0
  O  O12  1  -0.06668635  0.56668790  0.01801195  1.0
  O  O13  1  0.43331365  1.06668790  0.48198805  1.0
  O  O14  1  0.56668790  0.93331365  0.98198805  1.0
  O  O15  1  0.06668790  0.43331365  0.51801195  1.0
  O  O16  1  0.43331210  1.06668635  0.98198805  1.0
  O  O17  1  -0.06668790  0.56668635  0.51801195  1.0
  O  O18  1  0.06668635  0.43331210  0.01801195  1.0
  O  O19  1  0.56668635  0.93331210  0.48198805  1.0
