# generated using pymatgen
data_Ca2Mn2Si4H6O17
_symmetry_space_group_name_H-M   'P 1'
_cell_length_a   5.42214808
_cell_length_b   5.42214808
_cell_length_c   12.02180008
_cell_angle_alpha   86.76142629
_cell_angle_beta   93.23857371
_cell_angle_gamma   113.24680046
_symmetry_Int_Tables_number   1
_chemical_formula_structural   Ca2Mn2Si4H6O17
_chemical_formula_sum   'Ca2 Mn2 Si4 H6 O17'
_cell_volume   323.99880199
_cell_formula_units_Z   1
loop_
 _symmetry_equiv_pos_site_id
 _symmetry_equiv_pos_as_xyz
  1  'x, y, z'
loop_
 _atom_site_type_symbol
 _atom_site_label
 _atom_site_symmetry_multiplicity
 _atom_site_fract_x
 _atom_site_fract_y
 _atom_site_fract_z
 _atom_site_occupancy
  Ca  Ca0  1  0.74465584  -0.64176360  0.76531898  1.0
  Ca  Ca1  1  0.35823640  -0.25534416  0.23468102  1.0
  O  O2  1  1.04591452  0.07278785  0.77944029  1.0
  O  O3  1  1.07278785  0.04591452  0.22055971  1.0
  O  O4  1  0.91834226  -0.81451147  0.57841599  1.0
  O  O5  1  0.18548853  -0.08165774  0.42158401  1.0
  O  O6  1  1.14868063  0.40692561  0.37470397  1.0
  O  O7  1  1.40692561  0.14868063  0.62529603  1.0
  O  O8  1  1.08235387  0.63070863  0.88292995  1.0
  O  O9  1  1.63070863  0.08235387  0.11707005  1.0
  O  O10  1  1.46119737  0.13339996  0.91446914  1.0
  O  O11  1  1.13339996  0.46119737  0.08553086  1.0
  O  O12  1  0.95156181  -0.30265877  0.62488261  1.0
  O  O13  1  0.69734123  -0.04843819  0.37511739  1.0
  O  O14  1  0.51055388  -0.35959862  0.76746312  1.0
  O  O15  1  0.64040138  -0.48944612  0.23253688  1.0
  O  O16  1  -0.02507767  -0.02507767  0.00000000  1.0
  O  O17  1  0.69665898  -0.59622105  0.44660456  1.0
  O  O18  1  0.40377895  -0.30334102  0.55339544  1.0
  Mn  Mn19  1  1.05079791  0.55167651  0.50002500  1.0
  Mn  Mn20  1  1.55167651  0.05079791  0.49997500  1.0
  H  H21  1  0.45511280  -0.33602124  0.68752929  1.0
  H  H22  1  0.66397876  -0.54488720  0.31247071  1.0
  H  H23  1  0.35975450  -0.37496257  0.81426916  1.0
  H  H24  1  0.62503743  -0.64024550  0.18573084  1.0
  H  H25  1  1.11741199  0.53069348  1.00517458  1.0
  H  H26  1  1.53069348  0.11741199  -0.00517458  1.0
  Si  Si27  1  1.01719813  0.08667758  0.35169236  1.0
  Si  Si28  1  1.08667758  0.01719813  0.64830764  1.0
  Si  Si29  1  0.13822211  -0.05747122  0.89585816  1.0
  Si  Si30  1  0.94252878  -0.86177789  0.10414184  1.0
