# generated using pymatgen
data_Se2Br3N
_symmetry_space_group_name_H-M   'P 1'
_cell_length_a   14.74292721
_cell_length_b   8.71496757
_cell_length_c   12.83198225
_cell_angle_alpha   90.00000000
_cell_angle_beta   90.00000000
_cell_angle_gamma   90.00000000
_symmetry_Int_Tables_number   1
_chemical_formula_structural   Se2Br3N
_chemical_formula_sum   'Se16 Br24 N8'
_cell_volume   1648.70610768
_cell_formula_units_Z   8
loop_
 _symmetry_equiv_pos_site_id
 _symmetry_equiv_pos_as_xyz
  1  'x, y, z'
loop_
 _atom_site_type_symbol
 _atom_site_label
 _atom_site_symmetry_multiplicity
 _atom_site_fract_x
 _atom_site_fract_y
 _atom_site_fract_z
 _atom_site_occupancy
  Se  Se0  1  0.38056180  0.50074954  0.86413533  1.0
  Se  Se1  1  0.88056180  0.49925046  0.86413533  1.0
  Se  Se2  1  0.61943820  0.49925046  0.36413533  1.0
  Se  Se3  1  0.11943820  0.50074954  0.36413533  1.0
  Se  Se4  1  0.13569162  0.64297223  0.57979457  1.0
  Se  Se5  1  0.63569162  0.35702777  0.57979457  1.0
  Se  Se6  1  0.86430838  0.35702777  0.07979457  1.0
  Se  Se7  1  0.36430838  0.64297223  0.07979457  1.0
  Se  Se8  1  0.03857052  0.14810577  0.64530550  1.0
  Se  Se9  1  0.53857052  0.85189423  0.64530550  1.0
  Se  Se10  1  0.96142948  0.85189423  0.14530550  1.0
  Se  Se11  1  0.46142948  0.14810577  0.14530550  1.0
  Se  Se12  1  0.87618470  0.00812810  0.53381551  1.0
  Se  Se13  1  0.37618470  0.99187190  0.53381551  1.0
  Se  Se14  1  0.12381530  0.99187190  0.03381551  1.0
  Se  Se15  1  0.62381530  0.00812810  0.03381551  1.0
  Br  Br16  1  0.40468056  0.23287039  0.82919621  1.0
  Br  Br17  1  0.90468056  0.76712961  0.82919621  1.0
  Br  Br18  1  0.59531944  0.76712961  0.32919621  1.0
  Br  Br19  1  0.09531944  0.23287039  0.32919621  1.0
  Br  Br20  1  0.39335915  0.68192104  0.58745562  1.0
  Br  Br21  1  0.89335915  0.31807896  0.58745562  1.0
  Br  Br22  1  0.60664085  0.31807896  0.08745562  1.0
  Br  Br23  1  0.10664085  0.68192104  0.08745562  1.0
  Br  Br24  1  0.35938648  0.25954077  0.49123126  1.0
  Br  Br25  1  0.85938648  0.74045923  0.49123126  1.0
  Br  Br26  1  0.64061352  0.74045923  -0.00876874  1.0
  Br  Br27  1  0.14061352  0.25954077  -0.00876874  1.0
  Br  Br28  1  0.16952900  -0.00337681  0.70684536  1.0
  Br  Br29  1  0.66952900  1.00337681  0.70684536  1.0
  Br  Br30  1  0.83047100  1.00337681  0.20684536  1.0
  Br  Br31  1  0.33047100  -0.00337681  0.20684536  1.0
  Br  Br32  1  0.12982480  0.49105011  0.74285700  1.0
  Br  Br33  1  0.62982480  0.50894989  0.74285700  1.0
  Br  Br34  1  0.87017520  0.50894989  0.24285700  1.0
  Br  Br35  1  0.37017520  0.49105011  0.24285700  1.0
  Br  Br36  1  0.84994185  0.18840786  0.90476293  1.0
  Br  Br37  1  0.34994185  0.81159214  0.90476293  1.0
  Br  Br38  1  0.15005815  0.81159214  0.40476293  1.0
  Br  Br39  1  0.65005815  0.18840786  0.40476293  1.0
  N  N40  1  0.48316406  0.01456627  0.59298101  1.0
  N  N41  1  0.98316406  0.98543373  0.59298101  1.0
  N  N42  1  0.51683594  0.98543373  0.09298101  1.0
  N  N43  1  0.01683594  0.01456627  0.09298101  1.0
  N  N44  1  0.12026573  0.47878455  0.50081969  1.0
  N  N45  1  0.62026573  0.52121545  0.50081969  1.0
  N  N46  1  0.87973427  0.52121545  0.00081969  1.0
  N  N47  1  0.37973427  0.47878455  0.00081969  1.0
