# generated using pymatgen
data_RbY(SeO3)2
_symmetry_space_group_name_H-M   'P 1'
_cell_length_a   14.15935163
_cell_length_b   5.82563123
_cell_length_c   9.07357248
_cell_angle_alpha   90.00000000
_cell_angle_beta   90.00000000
_cell_angle_gamma   90.00000000
_symmetry_Int_Tables_number   1
_chemical_formula_structural   RbY(SeO3)2
_chemical_formula_sum   'Rb4 Y4 Se8 O24'
_cell_volume   748.45323430
_cell_formula_units_Z   4
loop_
 _symmetry_equiv_pos_site_id
 _symmetry_equiv_pos_as_xyz
  1  'x, y, z'
loop_
 _atom_site_type_symbol
 _atom_site_label
 _atom_site_symmetry_multiplicity
 _atom_site_fract_x
 _atom_site_fract_y
 _atom_site_fract_z
 _atom_site_occupancy
  Rb  Rb0  1  0.12114635  0.75000000  0.98585710  1.0
  Rb  Rb1  1  0.62114635  0.75000000  0.51414290  1.0
  Rb  Rb2  1  0.87885365  0.25000000  0.01414290  1.0
  Rb  Rb3  1  0.37885365  0.25000000  0.48585710  1.0
  Y  Y4  1  0.39333825  0.75000000  0.81514361  1.0
  Y  Y5  1  0.89333825  0.75000000  0.68485639  1.0
  Y  Y6  1  0.60666175  0.25000000  0.18485639  1.0
  Y  Y7  1  0.10666175  0.25000000  0.31514361  1.0
  Se  Se8  1  0.44327877  0.75000000  0.21200897  1.0
  Se  Se9  1  0.94327877  0.75000000  0.28799103  1.0
  Se  Se10  1  0.55672123  0.25000000  0.78799103  1.0
  Se  Se11  1  0.05672123  0.25000000  0.71200897  1.0
  Se  Se12  1  0.20470669  0.75000000  0.51941543  1.0
  Se  Se13  1  0.70470669  0.75000000  0.98058457  1.0
  Se  Se14  1  0.79529331  0.25000000  0.48058457  1.0
  Se  Se15  1  0.29529331  0.25000000  0.01941543  1.0
  O  O16  1  0.49296472  0.47962122  0.71983037  1.0
  O  O17  1  0.49296472  0.02037878  0.71983037  1.0
  O  O18  1  -0.00703528  0.47962122  0.78016963  1.0
  O  O19  1  -0.00703528  0.02037878  0.78016963  1.0
  O  O20  1  0.50703528  0.97962122  0.28016963  1.0
  O  O21  1  0.50703528  0.52037878  0.28016963  1.0
  O  O22  1  1.00703528  0.97962122  0.21983037  1.0
  O  O23  1  1.00703528  0.52037878  0.21983037  1.0
  O  O24  1  0.29058416  0.48109664  0.90157993  1.0
  O  O25  1  0.29058416  0.01890336  0.90157993  1.0
  O  O26  1  0.79058416  0.48109664  0.59842007  1.0
  O  O27  1  0.79058416  0.01890336  0.59842007  1.0
  O  O28  1  0.70941584  0.98109664  0.09842007  1.0
  O  O29  1  0.70941584  0.51890336  0.09842007  1.0
  O  O30  1  0.20941584  0.98109664  0.40157993  1.0
  O  O31  1  0.20941584  0.51890336  0.40157993  1.0
  O  O32  1  0.47117453  0.75000000  0.02942648  1.0
  O  O33  1  0.97117453  0.75000000  0.47057352  1.0
  O  O34  1  0.52882547  0.25000000  0.97057352  1.0
  O  O35  1  0.02882547  0.25000000  0.52942648  1.0
  O  O36  1  0.31785757  0.75000000  0.59123699  1.0
  O  O37  1  0.81785757  0.75000000  0.90876301  1.0
  O  O38  1  0.68214243  0.25000000  0.40876301  1.0
  O  O39  1  0.18214243  0.25000000  0.09123699  1.0
