# generated using pymatgen
data_Cd3(SeO3)4
_symmetry_space_group_name_H-M   'P 1'
_cell_length_a   9.61638065
_cell_length_b   9.36364863
_cell_length_c   7.65385657
_cell_angle_alpha   90.00000000
_cell_angle_beta   115.02020747
_cell_angle_gamma   90.00000000
_symmetry_Int_Tables_number   1
_chemical_formula_structural   Cd3(SeO3)4
_chemical_formula_sum   'Cd6 Se8 O24'
_cell_volume   624.51277715
_cell_formula_units_Z   2
loop_
 _symmetry_equiv_pos_site_id
 _symmetry_equiv_pos_as_xyz
  1  'x, y, z'
loop_
 _atom_site_type_symbol
 _atom_site_label
 _atom_site_symmetry_multiplicity
 _atom_site_fract_x
 _atom_site_fract_y
 _atom_site_fract_z
 _atom_site_occupancy
  Cd  Cd0  1  0.83488561  0.88063796  0.35156283  1.0
  Cd  Cd1  1  0.83488561  0.61936204  0.85156283  1.0
  Cd  Cd2  1  0.16511439  0.38063796  0.14843717  1.0
  Cd  Cd3  1  0.16511439  0.11936204  0.64843717  1.0
  Cd  Cd4  1  0.00000000  0.50000000  0.50000000  1.0
  Cd  Cd5  1  0.00000000  0.00000000  0.00000000  1.0
  O  O6  1  0.95469018  0.24127793  0.02010237  1.0
  O  O7  1  0.95469018  0.25872207  0.52010237  1.0
  O  O8  1  0.04530982  0.74127793  0.47989763  1.0
  O  O9  1  0.04530982  0.75872207  0.97989763  1.0
  O  O10  1  0.91458670  0.48008424  0.16326891  1.0
  O  O11  1  0.91458670  0.01991576  0.66326891  1.0
  O  O12  1  0.08541330  0.98008424  0.33673109  1.0
  O  O13  1  0.08541330  0.51991576  0.83673109  1.0
  O  O14  1  0.70903885  0.08764319  0.32630251  1.0
  O  O15  1  0.70903885  0.41235681  0.82630251  1.0
  O  O16  1  0.29096115  0.58764319  0.17369749  1.0
  O  O17  1  0.29096115  0.91235681  0.67369749  1.0
  O  O18  1  0.20946441  0.40393516  0.47434632  1.0
  O  O19  1  0.20946441  0.09606484  0.97434632  1.0
  O  O20  1  0.79053559  0.90393516  0.02565368  1.0
  O  O21  1  0.79053559  0.59606484  0.52565368  1.0
  O  O22  1  0.61658224  0.43527839  0.21673345  1.0
  O  O23  1  0.61658224  0.06472161  0.71673345  1.0
  O  O24  1  0.38341776  0.93527839  0.28326655  1.0
  O  O25  1  0.38341776  0.56472161  0.78326655  1.0
  O  O26  1  0.36864265  0.23154366  0.30639217  1.0
  O  O27  1  0.36864265  0.26845634  0.80639217  1.0
  O  O28  1  0.63135735  0.73154366  0.19360783  1.0
  O  O29  1  0.63135735  0.76845634  0.69360783  1.0
  Se  Se30  1  0.80359188  0.33120384  0.04550820  1.0
  Se  Se31  1  0.80359188  0.16879616  0.54550820  1.0
  Se  Se32  1  0.19640812  0.83120384  0.45449180  1.0
  Se  Se33  1  0.19640812  0.66879616  0.95449180  1.0
  Se  Se34  1  0.38418998  0.09010661  0.17753298  1.0
  Se  Se35  1  0.38418998  0.40989339  0.67753298  1.0
  Se  Se36  1  0.61581002  0.59010661  0.32246702  1.0
  Se  Se37  1  0.61581002  0.90989339  0.82246702  1.0
