# generated using pymatgen
data_Ba5Pt2O9
_symmetry_space_group_name_H-M   'P 1'
_cell_length_a   10.30292710
_cell_length_b   10.30292710
_cell_length_c   8.99008652
_cell_angle_alpha   90.00000000
_cell_angle_beta   90.00000000
_cell_angle_gamma   120.00000000
_symmetry_Int_Tables_number   1
_chemical_formula_structural   Ba5Pt2O9
_chemical_formula_sum   'Ba15 Pt6 O27'
_cell_volume   826.44842633
_cell_formula_units_Z   3
loop_
 _symmetry_equiv_pos_site_id
 _symmetry_equiv_pos_as_xyz
  1  'x, y, z'
loop_
 _atom_site_type_symbol
 _atom_site_label
 _atom_site_symmetry_multiplicity
 _atom_site_fract_x
 _atom_site_fract_y
 _atom_site_fract_z
 _atom_site_occupancy
  Ba  Ba0  1  0.30286072  0.96770770  0.23569811  1.0
  Ba  Ba1  1  0.96770770  0.30286072  0.76430189  1.0
  Ba  Ba2  1  0.66484698  0.69713928  0.23569811  1.0
  Ba  Ba3  1  0.03229230  0.33515302  0.23569811  1.0
  Ba  Ba4  1  0.69713928  0.66484698  0.76430189  1.0
  Ba  Ba5  1  0.33515302  0.03229230  0.76430189  1.0
  Ba  Ba6  1  0.36663042  0.36663042  0.50000000  1.0
  Ba  Ba7  1  0.00000000  0.63336958  0.50000000  1.0
  Ba  Ba8  1  0.63336958  0.00000000  0.50000000  1.0
  Ba  Ba9  1  0.32872221  0.32872221  0.00000000  1.0
  Ba  Ba10  1  0.00000000  0.67127779  0.00000000  1.0
  Ba  Ba11  1  0.67127779  0.00000000  0.00000000  1.0
  Ba  Ba12  1  0.33333333  0.66666667  0.74680442  1.0
  Ba  Ba13  1  0.66666667  0.33333333  0.25319558  1.0
  Ba  Ba14  1  0.00000000  0.00000000  0.50000000  1.0
  Pt  Pt15  1  0.33333333  0.66666667  0.09079167  1.0
  Pt  Pt16  1  0.66666667  0.33333333  0.90920833  1.0
  Pt  Pt17  1  0.33333333  0.66666667  0.40047474  1.0
  Pt  Pt18  1  0.66666667  0.33333333  0.59952526  1.0
  Pt  Pt19  1  0.00000000  0.00000000  0.15465054  1.0
  Pt  Pt20  1  0.00000000  0.00000000  0.84534946  1.0
  O  O21  1  0.99457538  0.82667896  0.27910005  1.0
  O  O22  1  0.82667896  0.99457538  0.72089995  1.0
  O  O23  1  0.83210358  0.00542462  0.27910005  1.0
  O  O24  1  0.17332104  0.16789642  0.27910005  1.0
  O  O25  1  0.00542462  0.83210358  0.72089995  1.0
  O  O26  1  0.16789642  0.17332104  0.72089995  1.0
  O  O27  1  0.17203226  0.64899944  0.24567976  1.0
  O  O28  1  0.64899944  0.17203226  0.75432024  1.0
  O  O29  1  0.47696718  0.82796774  0.24567976  1.0
  O  O30  1  0.35100056  0.52303282  0.24567976  1.0
  O  O31  1  0.82796774  0.47696718  0.75432024  1.0
  O  O32  1  0.52303282  0.35100056  0.75432024  1.0
  O  O33  1  0.68491732  0.50734752  0.03420186  1.0
  O  O34  1  0.50734752  0.68491732  0.96579814  1.0
  O  O35  1  0.82243020  0.31508268  0.03420186  1.0
  O  O36  1  0.49265248  0.17756980  0.03420186  1.0
  O  O37  1  0.31508268  0.82243020  0.96579814  1.0
  O  O38  1  0.17756980  0.49265248  0.96579814  1.0
  O  O39  1  0.68599860  0.51026946  0.47414255  1.0
  O  O40  1  0.51026946  0.68599860  0.52585745  1.0
  O  O41  1  0.82427086  0.31400140  0.47414255  1.0
  O  O42  1  0.48973054  0.17572914  0.47414255  1.0
  O  O43  1  0.31400140  0.82427086  0.52585745  1.0
  O  O44  1  0.17572914  0.48973054  0.52585745  1.0
  O  O45  1  0.85207099  0.85207099  0.00000000  1.0
  O  O46  1  0.00000000  0.14792901  0.00000000  1.0
  O  O47  1  0.14792901  0.00000000  0.00000000  1.0
