# generated using pymatgen
data_GePd
_symmetry_space_group_name_H-M   'P 1'
_cell_length_a   5.86402197
_cell_length_b   3.54234658
_cell_length_c   6.35814527
_cell_angle_alpha   90.00000000
_cell_angle_beta   90.00000000
_cell_angle_gamma   90.00000000
_symmetry_Int_Tables_number   1
_chemical_formula_structural   GePd
_chemical_formula_sum   'Ge4 Pd4'
_cell_volume   132.07392519
_cell_formula_units_Z   4
loop_
 _symmetry_equiv_pos_site_id
 _symmetry_equiv_pos_as_xyz
  1  'x, y, z'
loop_
 _atom_site_type_symbol
 _atom_site_label
 _atom_site_symmetry_multiplicity
 _atom_site_fract_x
 _atom_site_fract_y
 _atom_site_fract_z
 _atom_site_occupancy
  Ge  Ge0  1  0.81433507  0.75000000  0.57627756  1.0
  Ge  Ge1  1  0.31433507  0.75000000  0.92372244  1.0
  Ge  Ge2  1  0.18566493  0.25000000  0.42372244  1.0
  Ge  Ge3  1  0.68566493  0.25000000  0.07627756  1.0
  Pd  Pd4  1  0.99595778  0.75000000  0.19023517  1.0
  Pd  Pd5  1  0.49595778  0.75000000  0.30976483  1.0
  Pd  Pd6  1  0.00404222  0.25000000  0.80976483  1.0
  Pd  Pd7  1  0.50404222  0.25000000  0.69023517  1.0
