# generated using pymatgen
data_BaPbF6
_symmetry_space_group_name_H-M   'P 1'
_cell_length_a   5.11433396
_cell_length_b   5.11433396
_cell_length_c   5.11433396
_cell_angle_alpha   97.09463933
_cell_angle_beta   97.09463933
_cell_angle_gamma   97.09463933
_symmetry_Int_Tables_number   1
_chemical_formula_structural   BaPbF6
_chemical_formula_sum   'Ba1 Pb1 F6'
_cell_volume   130.41759091
_cell_formula_units_Z   1
loop_
 _symmetry_equiv_pos_site_id
 _symmetry_equiv_pos_as_xyz
  1  'x, y, z'
loop_
 _atom_site_type_symbol
 _atom_site_label
 _atom_site_symmetry_multiplicity
 _atom_site_fract_x
 _atom_site_fract_y
 _atom_site_fract_z
 _atom_site_occupancy
  Ba  Ba0  1  0.50000000  0.50000000  0.50000000  1.0
  Pb  Pb1  1  0.00000000  0.00000000  0.00000000  1.0
  F  F2  1  0.75117508  0.65801933  0.06289774  1.0
  F  F3  1  1.34198067  -0.06289774  0.24882492  1.0
  F  F4  1  0.93710226  0.24882492  0.34198067  1.0
  F  F5  1  1.24882492  0.34198067  -0.06289774  1.0
  F  F6  1  0.65801933  1.06289774  -0.24882492  1.0
  F  F7  1  1.06289774  0.75117508  -0.34198067  1.0
