# generated using pymatgen
data_AlP2O11
_symmetry_space_group_name_H-M   'P 1'
_cell_length_a   7.76492235
_cell_length_b   7.76492235
_cell_length_c   7.76492235
_cell_angle_alpha   73.73455078
_cell_angle_beta   73.73455078
_cell_angle_gamma   73.73455078
_symmetry_Int_Tables_number   1
_chemical_formula_structural   AlP2O11
_chemical_formula_sum   'Al2 P4 O22'
_cell_volume   420.99564389
_cell_formula_units_Z   2
loop_
 _symmetry_equiv_pos_site_id
 _symmetry_equiv_pos_as_xyz
  1  'x, y, z'
loop_
 _atom_site_type_symbol
 _atom_site_label
 _atom_site_symmetry_multiplicity
 _atom_site_fract_x
 _atom_site_fract_y
 _atom_site_fract_z
 _atom_site_occupancy
  O  O0  1  1.32199587  1.20742157  0.50115434  1.0
  O  O1  1  1.20742157  1.50115434  0.32199587  1.0
  O  O2  1  1.50115434  1.32199587  0.20742157  1.0
  O  O3  1  0.76103945  0.04699080  -0.04914420  1.0
  O  O4  1  1.04699080  -0.04914420  -0.23896055  1.0
  O  O5  1  0.95085580  -0.23896055  0.04699080  1.0
  O  O6  1  0.87090858  0.95414463  -0.41282418  1.0
  O  O7  1  0.95414463  0.58717582  -0.12909142  1.0
  O  O8  1  0.58717582  0.87090858  -0.04585537  1.0
  O  O9  1  0.61996004  0.52025995  -0.16989503  1.0
  O  O10  1  0.52025995  0.83010497  -0.38003996  1.0
  O  O11  1  0.83010497  0.61996004  -0.47974005  1.0
  O  O12  1  0.53780661  0.53780661  -0.46219339  1.0
  O  O13  1  0.44528889  0.68668121  -0.76857782  1.0
  O  O14  1  0.68668121  0.23142218  -0.55471111  1.0
  O  O15  1  0.23142218  0.44528889  -0.31331879  1.0
  O  O16  1  0.24319797  0.91048030  -0.98419352  1.0
  O  O17  1  0.91048030  0.01580648  -0.75680203  1.0
  O  O18  1  0.01580648  0.24319797  -0.08951970  1.0
  O  O19  1  1.37408439  1.03131389  0.21388545  1.0
  O  O20  1  1.03131389  1.21388545  0.37408439  1.0
  O  O21  1  1.21388545  1.37408439  0.03131389  1.0
  Al  Al22  1  1.26233041  1.26233041  0.26233041  1.0
  Al  Al23  1  0.00141149  0.00141149  0.00141149  1.0
  P  P24  1  0.88348193  0.10651229  -0.59706582  1.0
  P  P25  1  1.10651229  -0.59706582  -0.11651807  1.0
  P  P26  1  0.40293418  -0.11651807  0.10651229  1.0
  P  P27  1  0.63075049  0.63075049  -0.36924951  1.0
