# generated using pymatgen
data_CuH8C4(N4Cl)2
_symmetry_space_group_name_H-M   'P 1'
_cell_length_a   11.13138844
_cell_length_b   6.83877607
_cell_length_c   7.86098500
_cell_angle_alpha   90.00000000
_cell_angle_beta   105.31042857
_cell_angle_gamma   90.00000000
_symmetry_Int_Tables_number   1
_chemical_formula_structural   CuH8C4(N4Cl)2
_chemical_formula_sum   'Cu2 H16 C8 N16 Cl4'
_cell_volume   577.17982511
_cell_formula_units_Z   2
loop_
 _symmetry_equiv_pos_site_id
 _symmetry_equiv_pos_as_xyz
  1  'x, y, z'
loop_
 _atom_site_type_symbol
 _atom_site_label
 _atom_site_symmetry_multiplicity
 _atom_site_fract_x
 _atom_site_fract_y
 _atom_site_fract_z
 _atom_site_occupancy
  Cl  Cl0  1  0.41331629  0.30371067  0.26046044  1.0
  Cl  Cl1  1  0.58668371  0.80371067  0.23953956  1.0
  Cl  Cl2  1  0.58668371  0.69628933  0.73953956  1.0
  Cl  Cl3  1  0.41331629  0.19628933  0.76046044  1.0
  C  C4  1  0.67322479  0.15473899  0.58058555  1.0
  C  C5  1  0.32677521  0.65473899  0.91941445  1.0
  C  C6  1  0.32677521  0.84526101  0.41941445  1.0
  C  C7  1  0.67322479  0.34526101  0.08058555  1.0
  C  C8  1  0.85752770  0.92696957  0.62800966  1.0
  C  C9  1  0.14247230  0.42696957  0.87199034  1.0
  C  C10  1  0.14247230  0.07303043  0.37199034  1.0
  C  C11  1  0.85752770  0.57303043  0.12800966  1.0
  H  H12  1  0.60493347  0.05027186  0.60080990  1.0
  H  H13  1  0.39506653  0.55027186  0.89919010  1.0
  H  H14  1  0.39506653  0.94972814  0.39919010  1.0
  H  H15  1  0.60493347  0.44972814  0.10080990  1.0
  H  H16  1  0.93595378  0.94036946  0.74573830  1.0
  H  H17  1  0.06404622  0.44036946  0.75426170  1.0
  H  H18  1  0.06404622  0.05963054  0.25426170  1.0
  H  H19  1  0.93595378  0.55963054  0.24573830  1.0
  H  H20  1  0.89092795  0.88559531  0.51387068  1.0
  H  H21  1  0.10907205  0.38559531  -0.01387068  1.0
  H  H22  1  0.10907205  0.11440469  0.48612932  1.0
  H  H23  1  0.89092795  0.61440469  1.01387068  1.0
  H  H24  1  0.79131116  0.81719321  0.64894212  1.0
  H  H25  1  0.20868884  0.31719321  0.85105788  1.0
  H  H26  1  0.20868884  0.18280679  0.35105788  1.0
  H  H27  1  0.79131116  0.68280679  0.14894212  1.0
  N  N28  1  0.79259328  0.11334828  0.59260969  1.0
  N  N29  1  0.20740672  0.61334828  0.90739031  1.0
  N  N30  1  0.20740672  0.88665172  0.40739031  1.0
  N  N31  1  0.79259328  0.38665172  0.09260969  1.0
  N  N32  1  0.85055895  0.27892261  0.56326535  1.0
  N  N33  1  0.14944105  0.77892261  0.93673465  1.0
  N  N34  1  0.14944105  0.72107739  0.43673465  1.0
  N  N35  1  0.85055895  0.22107739  0.06326535  1.0
  N  N36  1  0.76830678  0.41760736  0.53523318  1.0
  N  N37  1  0.23169322  0.91760736  0.96476682  1.0
  N  N38  1  0.23169322  0.58239264  0.46476682  1.0
  N  N39  1  0.76830678  0.08239264  0.03523318  1.0
  N  N40  1  0.65724771  0.34441340  0.54512585  1.0
  N  N41  1  0.34275229  0.84441340  0.95487415  1.0
  N  N42  1  0.34275229  0.65558660  0.45487415  1.0
  N  N43  1  0.65724771  0.15558660  0.04512585  1.0
  Cu  Cu44  1  0.50000000  0.50000000  0.50000000  1.0
  Cu  Cu45  1  0.50000000  0.00000000  0.00000000  1.0
