# generated using pymatgen
data_InGaBr4
_symmetry_space_group_name_H-M   'P 1'
_cell_length_a   9.28394603
_cell_length_b   7.83493139
_cell_length_c   13.36550198
_cell_angle_alpha   90.00000000
_cell_angle_beta   104.06110245
_cell_angle_gamma   90.00000000
_symmetry_Int_Tables_number   1
_chemical_formula_structural   InGaBr4
_chemical_formula_sum   'In4 Ga4 Br16'
_cell_volume   943.06463645
_cell_formula_units_Z   4
loop_
 _symmetry_equiv_pos_site_id
 _symmetry_equiv_pos_as_xyz
  1  'x, y, z'
loop_
 _atom_site_type_symbol
 _atom_site_label
 _atom_site_symmetry_multiplicity
 _atom_site_fract_x
 _atom_site_fract_y
 _atom_site_fract_z
 _atom_site_occupancy
  In  In0  1  0.50000000  0.42192681  0.25000000  1.0
  In  In1  1  0.50000000  0.57807319  0.75000000  1.0
  In  In2  1  -0.00000000  0.93647217  0.25000000  1.0
  In  In3  1  0.00000000  0.06352783  0.75000000  1.0
  Ga  Ga4  1  0.72081153  0.78728914  0.45187905  1.0
  Ga  Ga5  1  0.72081153  0.21271086  0.95187905  1.0
  Ga  Ga6  1  0.27918847  0.78728914  0.04812095  1.0
  Ga  Ga7  1  0.27918847  0.21271086  0.54812095  1.0
  Br  Br8  1  0.83965067  0.58773855  0.36497608  1.0
  Br  Br9  1  0.83965067  0.41226145  0.86497608  1.0
  Br  Br10  1  0.16034933  0.58773855  0.13502392  1.0
  Br  Br11  1  0.16034933  0.41226145  0.63502392  1.0
  Br  Br12  1  0.79926862  0.25661048  0.13324979  1.0
  Br  Br13  1  0.79926862  0.74338952  0.63324979  1.0
  Br  Br14  1  0.20073138  0.25661048  0.36675021  1.0
  Br  Br15  1  0.20073138  0.74338952  0.86675021  1.0
  Br  Br16  1  0.78399322  0.93398164  0.91061521  1.0
  Br  Br17  1  0.78399322  0.06601836  0.41061521  1.0
  Br  Br18  1  0.21600678  0.93398164  0.58938479  1.0
  Br  Br19  1  0.21600678  0.06601836  0.08938479  1.0
  Br  Br20  1  0.46213678  0.73525841  0.40026157  1.0
  Br  Br21  1  0.46213678  0.26474159  0.90026157  1.0
  Br  Br22  1  0.53786322  0.73525841  0.09973843  1.0
  Br  Br23  1  0.53786322  0.26474159  0.59973843  1.0
