# generated using pymatgen
data_DyAlB14
_symmetry_space_group_name_H-M   'P 1'
_cell_length_a   7.31299058
_cell_length_b   7.31299058
_cell_length_c   7.31299058
_cell_angle_alpha   132.46802505
_cell_angle_beta   87.92656392
_cell_angle_gamma   111.16172886
_symmetry_Int_Tables_number   1
_chemical_formula_structural   DyAlB14
_chemical_formula_sum   'Dy2 Al2 B28'
_cell_volume   256.50146232
_cell_formula_units_Z   2
loop_
 _symmetry_equiv_pos_site_id
 _symmetry_equiv_pos_as_xyz
  1  'x, y, z'
loop_
 _atom_site_type_symbol
 _atom_site_label
 _atom_site_symmetry_multiplicity
 _atom_site_fract_x
 _atom_site_fract_y
 _atom_site_fract_z
 _atom_site_occupancy
  Dy  Dy0  1  1.10736625  0.35736625  0.75000000  1.0
  Dy  Dy1  1  0.89263375  0.64263375  0.25000000  1.0
  Al  Al2  1  1.50000000  1.50000000  1.50000000  1.0
  Al  Al3  1  1.50000000  1.00000000  1.00000000  1.0
  B  B4  1  1.27851105  0.67512177  1.27664429  1.0
  B  B5  1  1.10152252  0.99813324  1.77664429  1.0
  B  B6  1  0.72148895  0.99813324  0.39661072  1.0
  B  B7  1  0.89847748  1.67512177  0.89661072  1.0
  B  B8  1  1.27851105  1.00186676  1.60338928  1.0
  B  B9  1  1.10152252  0.32487823  1.10338928  1.0
  B  B10  1  0.72148895  1.32487823  0.72335571  1.0
  B  B11  1  0.89847748  1.00186676  0.22335571  1.0
  B  B12  1  0.87293194  0.70463035  0.67314982  1.0
  B  B13  1  1.46851947  0.80021788  1.17314982  1.0
  B  B14  1  1.12706806  0.80021788  0.83169841  1.0
  B  B15  1  0.53148053  0.70463035  0.33169841  1.0
  B  B16  1  0.87293194  1.19978212  1.16830159  1.0
  B  B17  1  1.46851947  1.29536965  1.66830159  1.0
  B  B18  1  1.12706806  1.29536965  1.32685018  1.0
  B  B19  1  0.53148053  1.19978212  0.82685018  1.0
  B  B20  1  1.74476321  0.83337668  0.91138653  1.0
  B  B21  1  1.57800984  1.16662332  1.41138653  1.0
  B  B22  1  0.25523679  0.16662332  0.08861347  1.0
  B  B23  1  0.42199016  0.83337668  0.58861347  1.0
  B  B24  1  1.48763863  0.62779448  0.85984414  1.0
  B  B25  1  0.73204966  0.37220552  0.35984414  1.0
  B  B26  1  0.51236137  0.37220552  0.14015586  1.0
  B  B27  1  1.26795034  0.62779448  0.64015586  1.0
  B  B28  1  1.29737628  0.96415359  1.33322268  1.0
  B  B29  1  0.86906909  1.03584641  0.83322268  1.0
  B  B30  1  0.70262372  1.03584641  0.66677732  1.0
  B  B31  1  1.13093091  0.96415359  1.16677732  1.0
