# generated using pymatgen
data_Zr2Cd
_symmetry_space_group_name_H-M   'P 1'
_cell_length_a   7.37504960
_cell_length_b   7.37504960
_cell_length_c   7.37504960
_cell_angle_alpha   155.83314605
_cell_angle_beta   155.83314605
_cell_angle_gamma   34.44047227
_symmetry_Int_Tables_number   1
_chemical_formula_structural   Zr2Cd
_chemical_formula_sum   'Zr2 Cd1'
_cell_volume   67.16205334
_cell_formula_units_Z   1
loop_
 _symmetry_equiv_pos_site_id
 _symmetry_equiv_pos_as_xyz
  1  'x, y, z'
loop_
 _atom_site_type_symbol
 _atom_site_label
 _atom_site_symmetry_multiplicity
 _atom_site_fract_x
 _atom_site_fract_y
 _atom_site_fract_z
 _atom_site_occupancy
  Zr  Zr0  1  0.66938698  0.66938698  1.00000000  1.0
  Zr  Zr1  1  0.33061302  0.33061302  0.00000000  1.0
  Cd  Cd2  1  0.00000000  0.00000000  0.00000000  1.0
