# generated using pymatgen
data_NaNbO2F
_symmetry_space_group_name_H-M   'P 1'
_cell_length_a   5.62755895
_cell_length_b   8.26915542
_cell_length_c   5.52888016
_cell_angle_alpha   90.00000000
_cell_angle_beta   90.00000000
_cell_angle_gamma   90.00000000
_symmetry_Int_Tables_number   1
_chemical_formula_structural   NaNbO2F
_chemical_formula_sum   'Na4 Nb4 O8 F4'
_cell_volume   257.28732074
_cell_formula_units_Z   4
loop_
 _symmetry_equiv_pos_site_id
 _symmetry_equiv_pos_as_xyz
  1  'x, y, z'
loop_
 _atom_site_type_symbol
 _atom_site_label
 _atom_site_symmetry_multiplicity
 _atom_site_fract_x
 _atom_site_fract_y
 _atom_site_fract_z
 _atom_site_occupancy
  Na  Na0  1  0.49976859  0.25000000  0.53316775  1.0
  Na  Na1  1  -0.00023141  0.25000000  0.96683225  1.0
  Na  Na2  1  0.50023141  0.75000000  0.46683225  1.0
  Na  Na3  1  1.00023141  0.75000000  0.03316775  1.0
  Nb  Nb4  1  0.50000000  -0.00000000  0.00000000  1.0
  Nb  Nb5  1  0.00000000  0.50000000  0.50000000  1.0
  Nb  Nb6  1  0.50000000  0.50000000  0.00000000  1.0
  Nb  Nb7  1  0.00000000  -0.00000000  0.50000000  1.0
  O  O8  1  0.74970076  0.03879768  0.74968217  1.0
  O  O9  1  0.24970076  0.46120232  0.75031783  1.0
  O  O10  1  0.25029924  0.53879768  0.25031783  1.0
  O  O11  1  0.75029924  0.96120232  0.24968217  1.0
  O  O12  1  0.25029924  0.96120232  0.25031783  1.0
  O  O13  1  0.75029924  0.53879768  0.24968217  1.0
  O  O14  1  0.74970076  0.46120232  0.74968217  1.0
  O  O15  1  0.24970076  0.03879768  0.75031783  1.0
  F  F16  1  1.00032224  0.25000000  0.39680141  1.0
  F  F17  1  0.50032224  0.25000000  0.10319859  1.0
  F  F18  1  -0.00032224  0.75000000  0.60319859  1.0
  F  F19  1  0.49967776  0.75000000  0.89680141  1.0
