# generated using pymatgen
data_CoBi2SO7
_symmetry_space_group_name_H-M   'P 1'
_cell_length_a   7.32416404
_cell_length_b   15.99817177
_cell_length_c   5.43519483
_cell_angle_alpha   90.00000000
_cell_angle_beta   90.00000000
_cell_angle_gamma   90.00000000
_symmetry_Int_Tables_number   1
_chemical_formula_structural   CoBi2SO7
_chemical_formula_sum   'Co4 Bi8 S4 O28'
_cell_volume   636.85935792
_cell_formula_units_Z   4
loop_
 _symmetry_equiv_pos_site_id
 _symmetry_equiv_pos_as_xyz
  1  'x, y, z'
loop_
 _atom_site_type_symbol
 _atom_site_label
 _atom_site_symmetry_multiplicity
 _atom_site_fract_x
 _atom_site_fract_y
 _atom_site_fract_z
 _atom_site_occupancy
  S  S0  1  0.90803746  0.89076599  0.75000000  1.0
  S  S1  1  0.90803746  0.60923401  0.25000000  1.0
  S  S2  1  0.09196254  0.39076599  0.75000000  1.0
  S  S3  1  0.09196254  0.10923401  0.25000000  1.0
  O  O4  1  0.81221245  0.85358079  0.97057424  1.0
  O  O5  1  0.81221245  0.85358079  0.52942576  1.0
  O  O6  1  0.81221245  0.64641921  0.47057424  1.0
  O  O7  1  0.81221245  0.64641921  0.02942576  1.0
  O  O8  1  0.18778755  0.35358079  0.97057424  1.0
  O  O9  1  0.18778755  0.35358079  0.52942576  1.0
  O  O10  1  0.18778755  0.14641921  0.47057424  1.0
  O  O11  1  0.18778755  0.14641921  0.02942576  1.0
  O  O12  1  0.45777577  0.58233609  0.99694078  1.0
  O  O13  1  0.45777577  0.58233609  0.50305922  1.0
  O  O14  1  0.45777577  0.91766391  0.49694078  1.0
  O  O15  1  0.45777577  0.91766391  0.00305922  1.0
  O  O16  1  0.54222423  0.08233609  0.99694078  1.0
  O  O17  1  0.54222423  0.08233609  0.50305922  1.0
  O  O18  1  0.54222423  0.41766391  0.49694078  1.0
  O  O19  1  0.54222423  0.41766391  0.00305922  1.0
  O  O20  1  0.89427794  0.36675028  0.75000000  1.0
  O  O21  1  0.89427794  0.13324972  0.25000000  1.0
  O  O22  1  0.10572206  0.86675028  0.75000000  1.0
  O  O23  1  0.10572206  0.63324972  0.25000000  1.0
  O  O24  1  0.88779045  0.98362544  0.75000000  1.0
  O  O25  1  0.88779045  0.51637456  0.25000000  1.0
  O  O26  1  0.11220955  0.48362544  0.75000000  1.0
  O  O27  1  0.11220955  0.01637456  0.25000000  1.0
  O  O28  1  0.42882443  0.75000000  -0.00000000  1.0
  O  O29  1  0.42882443  0.75000000  0.50000000  1.0
  O  O30  1  0.57117557  0.25000000  0.00000000  1.0
  O  O31  1  0.57117557  0.25000000  0.50000000  1.0
  Co  Co32  1  0.56044060  0.82704465  0.75000000  1.0
  Co  Co33  1  0.56044060  0.67295535  0.25000000  1.0
  Co  Co34  1  0.43955940  0.32704465  0.75000000  1.0
  Co  Co35  1  0.43955940  0.17295535  0.25000000  1.0
  Bi  Bi36  1  0.66860567  0.51787702  0.75000000  1.0
  Bi  Bi37  1  0.66860567  0.98212298  0.25000000  1.0
  Bi  Bi38  1  0.33139433  0.01787702  0.75000000  1.0
  Bi  Bi39  1  0.33139433  0.48212298  0.25000000  1.0
  Bi  Bi40  1  0.28021245  0.66017330  0.75000000  1.0
  Bi  Bi41  1  0.28021245  0.83982670  0.25000000  1.0
  Bi  Bi42  1  0.71978755  0.16017330  0.75000000  1.0
  Bi  Bi43  1  0.71978755  0.33982670  0.25000000  1.0
