# generated using pymatgen
data_Cs3Sc2I9
_symmetry_space_group_name_H-M   'P 1'
_cell_length_a   8.45872503
_cell_length_b   8.45872503
_cell_length_c   21.34476990
_cell_angle_alpha   90.00000000
_cell_angle_beta   90.00000000
_cell_angle_gamma   120.00000000
_symmetry_Int_Tables_number   1
_chemical_formula_structural   Cs3Sc2I9
_chemical_formula_sum   'Cs6 Sc4 I18'
_cell_volume   1322.61037330
_cell_formula_units_Z   2
loop_
 _symmetry_equiv_pos_site_id
 _symmetry_equiv_pos_as_xyz
  1  'x, y, z'
loop_
 _atom_site_type_symbol
 _atom_site_label
 _atom_site_symmetry_multiplicity
 _atom_site_fract_x
 _atom_site_fract_y
 _atom_site_fract_z
 _atom_site_occupancy
  Cs  Cs0  1  0.33333333  0.66666667  0.43406222  1.0
  Cs  Cs1  1  0.33333333  0.66666667  0.06593778  1.0
  Cs  Cs2  1  0.66666667  0.33333333  0.93406222  1.0
  Cs  Cs3  1  0.66666667  0.33333333  0.56593778  1.0
  Cs  Cs4  1  0.00000000  0.00000000  0.25000000  1.0
  Cs  Cs5  1  0.00000000  0.00000000  0.75000000  1.0
  Sc  Sc6  1  0.33333333  0.66666667  0.84138634  1.0
  Sc  Sc7  1  0.33333333  0.66666667  0.65861366  1.0
  Sc  Sc8  1  0.66666667  0.33333333  0.34138634  1.0
  Sc  Sc9  1  0.66666667  0.33333333  0.15861366  1.0
  I  I10  1  0.16971120  0.83028880  0.91041165  1.0
  I  I11  1  0.16971120  0.83028880  0.58958835  1.0
  I  I12  1  0.16971120  0.33942240  0.91041165  1.0
  I  I13  1  0.16971120  0.33942240  0.58958835  1.0
  I  I14  1  0.83028880  0.16971120  0.41041165  1.0
  I  I15  1  0.83028880  0.16971120  0.08958835  1.0
  I  I16  1  0.83028880  0.66057760  0.41041165  1.0
  I  I17  1  0.83028880  0.66057760  0.08958835  1.0
  I  I18  1  0.66057760  0.83028880  0.91041165  1.0
  I  I19  1  0.66057760  0.83028880  0.58958835  1.0
  I  I20  1  0.33942240  0.16971120  0.41041165  1.0
  I  I21  1  0.33942240  0.16971120  0.08958835  1.0
  I  I22  1  0.50998771  0.49001229  0.25000000  1.0
  I  I23  1  0.50998771  0.01997542  0.25000000  1.0
  I  I24  1  0.49001229  0.50998771  0.75000000  1.0
  I  I25  1  0.49001229  0.98002458  0.75000000  1.0
  I  I26  1  0.98002458  0.49001229  0.25000000  1.0
  I  I27  1  0.01997542  0.50998771  0.75000000  1.0
