# generated using pymatgen
data_CuN3
_symmetry_space_group_name_H-M   'P 1'
_cell_length_a   7.53570422
_cell_length_b   7.53570422
_cell_length_c   7.53570422
_cell_angle_alpha   98.58976516
_cell_angle_beta   98.58976516
_cell_angle_gamma   134.52999508
_symmetry_Int_Tables_number   1
_chemical_formula_structural   CuN3
_chemical_formula_sum   'Cu4 N12'
_cell_volume   281.36059326
_cell_formula_units_Z   4
loop_
 _symmetry_equiv_pos_site_id
 _symmetry_equiv_pos_as_xyz
  1  'x, y, z'
loop_
 _atom_site_type_symbol
 _atom_site_label
 _atom_site_symmetry_multiplicity
 _atom_site_fract_x
 _atom_site_fract_y
 _atom_site_fract_z
 _atom_site_occupancy
  Cu  Cu0  1  1.37500000  0.62500000  0.75000000  1.0
  Cu  Cu1  1  0.87500000  0.62500000  0.25000000  1.0
  Cu  Cu2  1  1.37500000  1.62500000  1.25000000  1.0
  Cu  Cu3  1  1.37500000  1.12500000  0.75000000  1.0
  N  N4  1  0.87500000  0.12500000  0.75000000  1.0
  N  N5  1  0.37500000  0.12500000  0.25000000  1.0
  N  N6  1  0.87500000  1.12500000  1.25000000  1.0
  N  N7  1  0.87500000  0.62500000  0.75000000  1.0
  N  N8  1  0.64862013  0.93092705  1.71766880  1.0
  N  N9  1  0.21325825  -0.06904867  0.28233120  1.0
  N  N10  1  0.53674175  1.31904867  1.21766880  1.0
  N  N11  1  1.10137987  0.31907295  0.78233120  1.0
  N  N12  1  1.06904867  1.35137987  1.28230692  1.0
  N  N13  1  1.06907295  0.78674175  0.71769308  1.0
  N  N14  1  0.68092705  0.46325825  0.78230692  1.0
  N  N15  1  0.68095133  0.89862013  1.21769308  1.0
