# generated using pymatgen
data_ZrCrP
_symmetry_space_group_name_H-M   'P 1'
_cell_length_a   6.42125730
_cell_length_b   3.65615295
_cell_length_c   7.58849527
_cell_angle_alpha   90.00000000
_cell_angle_beta   90.00000000
_cell_angle_gamma   90.00000000
_symmetry_Int_Tables_number   1
_chemical_formula_structural   ZrCrP
_chemical_formula_sum   'Zr4 Cr4 P4'
_cell_volume   178.15585329
_cell_formula_units_Z   4
loop_
 _symmetry_equiv_pos_site_id
 _symmetry_equiv_pos_as_xyz
  1  'x, y, z'
loop_
 _atom_site_type_symbol
 _atom_site_label
 _atom_site_symmetry_multiplicity
 _atom_site_fract_x
 _atom_site_fract_y
 _atom_site_fract_z
 _atom_site_occupancy
  Zr  Zr0  1  0.96974006  0.75000000  0.67537245  1.0
  Zr  Zr1  1  0.46974006  0.75000000  0.82462755  1.0
  Zr  Zr2  1  0.03025994  0.25000000  0.32462755  1.0
  Zr  Zr3  1  0.53025994  0.25000000  0.17537245  1.0
  Cr  Cr4  1  0.86072918  0.75000000  0.05951876  1.0
  Cr  Cr5  1  0.36072918  0.75000000  0.44048124  1.0
  Cr  Cr6  1  0.13927082  0.25000000  0.94048124  1.0
  Cr  Cr7  1  0.63927082  0.25000000  0.55951876  1.0
  P  P8  1  0.72727545  0.75000000  0.37020667  1.0
  P  P9  1  0.22727545  0.75000000  0.12979333  1.0
  P  P10  1  0.27272455  0.25000000  0.62979333  1.0
  P  P11  1  0.77272455  0.25000000  0.87020667  1.0
