# generated using pymatgen
data_CuSnH12(NO3)2
_symmetry_space_group_name_H-M   'P 1'
_cell_length_a   4.93957778
_cell_length_b   6.92726964
_cell_length_c   5.58301390
_cell_angle_alpha   108.04076692
_cell_angle_beta   92.96389638
_cell_angle_gamma   94.12335620
_symmetry_Int_Tables_number   1
_chemical_formula_structural   CuSnH12(NO3)2
_chemical_formula_sum   'Cu1 Sn1 H12 N2 O6'
_cell_volume   180.62406346
_cell_formula_units_Z   1
loop_
 _symmetry_equiv_pos_site_id
 _symmetry_equiv_pos_as_xyz
  1  'x, y, z'
loop_
 _atom_site_type_symbol
 _atom_site_label
 _atom_site_symmetry_multiplicity
 _atom_site_fract_x
 _atom_site_fract_y
 _atom_site_fract_z
 _atom_site_occupancy
  N  N0  1  -0.74225065  -0.45595530  -0.69554508  1.0
  N  N1  1  -0.25774935  -0.54404471  -0.30445492  1.0
  O  O2  1  -0.75094013  -0.87607113  -0.66817677  1.0
  O  O3  1  -0.24905987  -0.12392887  -0.33182323  1.0
  O  O4  1  -0.70199889  -0.87448500  -0.17509181  1.0
  O  O5  1  -0.29800111  -0.12551500  -0.82490819  1.0
  O  O6  1  -0.19848047  -0.72382630  -0.90523528  1.0
  O  O7  1  -0.80151953  -0.27617370  -0.09476472  1.0
  Sn  Sn8  1  0.00000000  0.00000000  0.00000000  1.0
  H  H9  1  -0.80907001  -0.36881595  -0.52844549  1.0
  H  H10  1  -0.19092999  -0.63118405  -0.47155451  1.0
  H  H11  1  -0.75842199  -0.88607216  -0.35318079  1.0
  H  H12  1  -0.24157801  -0.11392784  -0.64681921  1.0
  H  H13  1  -0.71453004  -0.59792289  -0.67711869  1.0
  H  H14  1  -0.28546996  -0.40207711  -0.32288131  1.0
  H  H15  1  -0.57813713  -0.93841688  -0.70759476  1.0
  H  H16  1  -0.42186287  -0.06158312  -0.29240524  1.0
  H  H17  1  -0.55669798  -0.38697596  -0.71158746  1.0
  H  H18  1  -0.44330202  -0.61302404  -0.28841254  1.0
  H  H19  1  -0.38203606  -0.76344359  -0.99770497  1.0
  H  H20  1  -0.61796394  -0.23655641  -0.00229503  1.0
  Cu  Cu21  1  -0.00000000  -0.50000000  -0.00000000  1.0
