# generated using pymatgen
data_Gd2Sc3Si4
_symmetry_space_group_name_H-M   'P 1'
_cell_length_a   7.12321981
_cell_length_b   14.05220546
_cell_length_c   7.42805287
_cell_angle_alpha   90.00000000
_cell_angle_beta   90.00000000
_cell_angle_gamma   90.00000000
_symmetry_Int_Tables_number   1
_chemical_formula_structural   Gd2Sc3Si4
_chemical_formula_sum   'Gd8 Sc12 Si16'
_cell_volume   743.52542343
_cell_formula_units_Z   4
loop_
 _symmetry_equiv_pos_site_id
 _symmetry_equiv_pos_as_xyz
  1  'x, y, z'
loop_
 _atom_site_type_symbol
 _atom_site_label
 _atom_site_symmetry_multiplicity
 _atom_site_fract_x
 _atom_site_fract_y
 _atom_site_fract_z
 _atom_site_occupancy
  Gd  Gd0  1  0.48790273  0.90348692  0.67563109  1.0
  Gd  Gd1  1  0.48790273  0.59651308  0.67563109  1.0
  Gd  Gd2  1  0.98790273  0.90348692  0.82436891  1.0
  Gd  Gd3  1  0.98790273  0.59651308  0.82436891  1.0
  Gd  Gd4  1  0.51209727  0.40348692  0.32436891  1.0
  Gd  Gd5  1  0.51209727  0.09651308  0.32436891  1.0
  Gd  Gd6  1  0.01209727  0.40348692  0.17563109  1.0
  Gd  Gd7  1  0.01209727  0.09651308  0.17563109  1.0
  Sc  Sc8  1  0.34075816  0.25000000  0.00385617  1.0
  Sc  Sc9  1  0.84075816  0.25000000  0.49614383  1.0
  Sc  Sc10  1  0.65924184  0.75000000  0.99614383  1.0
  Sc  Sc11  1  0.15924184  0.75000000  0.50385617  1.0
  Sc  Sc12  1  0.17292494  0.37466923  0.67579436  1.0
  Sc  Sc13  1  0.17292494  0.12533077  0.67579436  1.0
  Sc  Sc14  1  0.67292494  0.37466923  0.82420564  1.0
  Sc  Sc15  1  0.67292494  0.12533077  0.82420564  1.0
  Sc  Sc16  1  0.82707506  0.87466923  0.32420564  1.0
  Sc  Sc17  1  0.82707506  0.62533077  0.32420564  1.0
  Sc  Sc18  1  0.32707506  0.87466923  0.17579436  1.0
  Sc  Sc19  1  0.32707506  0.62533077  0.17579436  1.0
  Si  Si20  1  0.21606992  0.25000000  0.37415599  1.0
  Si  Si21  1  0.71606992  0.25000000  0.12584401  1.0
  Si  Si22  1  0.78393008  0.75000000  0.62584401  1.0
  Si  Si23  1  0.28393008  0.75000000  0.87415599  1.0
  Si  Si24  1  0.34633250  0.46066070  0.96492463  1.0
  Si  Si25  1  0.34633250  0.03933930  0.96492463  1.0
  Si  Si26  1  0.84633250  0.46066070  0.53507537  1.0
  Si  Si27  1  0.84633250  0.03933930  0.53507537  1.0
  Si  Si28  1  0.65366750  0.96066070  0.03507537  1.0
  Si  Si29  1  0.65366750  0.53933930  0.03507537  1.0
  Si  Si30  1  0.15366750  0.96066070  0.46492463  1.0
  Si  Si31  1  0.15366750  0.53933930  0.46492463  1.0
  Si  Si32  1  0.46981476  0.25000000  0.61699715  1.0
  Si  Si33  1  0.96981476  0.25000000  0.88300285  1.0
  Si  Si34  1  0.53018524  0.75000000  0.38300285  1.0
  Si  Si35  1  0.03018524  0.75000000  0.11699715  1.0
