# generated using pymatgen
data_PH3CS3
_symmetry_space_group_name_H-M   'P 1'
_cell_length_a   9.16935831
_cell_length_b   8.66189470
_cell_length_c   9.15001394
_cell_angle_alpha   90.00000000
_cell_angle_beta   113.31309122
_cell_angle_gamma   90.00000000
_symmetry_Int_Tables_number   1
_chemical_formula_structural   PH3CS3
_chemical_formula_sum   'P4 H12 C4 S12'
_cell_volume   667.39762690
_cell_formula_units_Z   4
loop_
 _symmetry_equiv_pos_site_id
 _symmetry_equiv_pos_as_xyz
  1  'x, y, z'
loop_
 _atom_site_type_symbol
 _atom_site_label
 _atom_site_symmetry_multiplicity
 _atom_site_fract_x
 _atom_site_fract_y
 _atom_site_fract_z
 _atom_site_occupancy
  P  P0  1  0.65241537  0.08369321  0.55942013  1.0
  P  P1  1  0.34758463  0.58369321  0.94057987  1.0
  P  P2  1  0.34758463  0.91630679  0.44057987  1.0
  P  P3  1  0.65241537  0.41630679  0.05942013  1.0
  H  H4  1  0.89990871  0.68483733  0.63953225  1.0
  H  H5  1  0.10009129  0.18483733  0.86046775  1.0
  H  H6  1  0.10009129  0.31516267  0.36046775  1.0
  H  H7  1  0.89990871  0.81516267  0.13953225  1.0
  H  H8  1  0.72849011  0.72660708  0.68113114  1.0
  H  H9  1  0.27150989  0.22660708  0.81886886  1.0
  H  H10  1  0.27150989  0.27339292  0.31886886  1.0
  H  H11  1  0.72849011  0.77339292  0.18113114  1.0
  H  H12  1  0.71510169  0.73258215  0.47960639  1.0
  H  H13  1  0.28489831  0.23258215  0.02039361  1.0
  H  H14  1  0.28489831  0.26741785  0.52039361  1.0
  H  H15  1  0.71510169  0.76741785  0.97960639  1.0
  C  C16  1  0.79140890  0.75448099  0.60465396  1.0
  C  C17  1  0.20859110  0.25448099  0.89534604  1.0
  C  C18  1  0.20859110  0.24551901  0.39534604  1.0
  C  C19  1  0.79140890  0.74551901  0.10465396  1.0
  S  S20  1  0.50432129  -0.00494087  0.67248989  1.0
  S  S21  1  0.49567871  0.49505913  0.82751011  1.0
  S  S22  1  0.49567871  1.00494087  0.32751011  1.0
  S  S23  1  0.50432129  0.50494087  0.17248989  1.0
  S  S24  1  0.70788911  0.30060182  0.58632902  1.0
  S  S25  1  0.29211089  0.80060182  0.91367098  1.0
  S  S26  1  0.29211089  0.69939818  0.41367098  1.0
  S  S27  1  0.70788911  0.19939818  0.08632902  1.0
  S  S28  1  0.86010320  0.95339955  0.63306504  1.0
  S  S29  1  0.13989680  0.45339955  0.86693496  1.0
  S  S30  1  0.13989680  0.04660045  0.36693496  1.0
  S  S31  1  0.86010320  0.54660045  0.13306504  1.0
