# generated using pymatgen
data_CuBr2
_symmetry_space_group_name_H-M   'P 1'
_cell_length_a   4.39072746
_cell_length_b   4.39072746
_cell_length_c   8.01709332
_cell_angle_alpha   54.65595084
_cell_angle_beta   125.34404916
_cell_angle_gamma   133.08297751
_symmetry_Int_Tables_number   1
_chemical_formula_structural   CuBr2
_chemical_formula_sum   'Cu1 Br2'
_cell_volume   87.60920461
_cell_formula_units_Z   1
loop_
 _symmetry_equiv_pos_site_id
 _symmetry_equiv_pos_as_xyz
  1  'x, y, z'
loop_
 _atom_site_type_symbol
 _atom_site_label
 _atom_site_symmetry_multiplicity
 _atom_site_fract_x
 _atom_site_fract_y
 _atom_site_fract_z
 _atom_site_occupancy
  Cu  Cu0  1  0.00000000  0.00000000  0.00000000  1.0
  Br  Br1  1  0.25487813  -0.25487813  0.76072033  1.0
  Br  Br2  1  0.74512187  -0.74512187  0.23927967  1.0
