# generated using pymatgen
data_RbEu(SO4)2
_symmetry_space_group_name_H-M   'P 1'
_cell_length_a   7.51318194
_cell_length_b   7.51318194
_cell_length_c   9.71279905
_cell_angle_alpha   78.60971313
_cell_angle_beta   101.39028687
_cell_angle_gamma   137.18986708
_symmetry_Int_Tables_number   1
_chemical_formula_structural   RbEu(SO4)2
_chemical_formula_sum   'Rb2 Eu2 S4 O16'
_cell_volume   364.10754862
_cell_formula_units_Z   2
loop_
 _symmetry_equiv_pos_site_id
 _symmetry_equiv_pos_as_xyz
  1  'x, y, z'
loop_
 _atom_site_type_symbol
 _atom_site_label
 _atom_site_symmetry_multiplicity
 _atom_site_fract_x
 _atom_site_fract_y
 _atom_site_fract_z
 _atom_site_occupancy
  Rb  Rb0  1  0.50000000  -0.00000000  -0.00000000  1.0
  Rb  Rb1  1  1.00000000  0.50000000  0.50000000  1.0
  Eu  Eu2  1  0.67685990  0.67685990  0.75000000  1.0
  Eu  Eu3  1  0.32314010  0.32314010  0.25000000  1.0
  S  S4  1  0.32295433  0.15116890  0.61231895  1.0
  S  S5  1  0.84883110  0.67704567  0.11231895  1.0
  S  S6  1  1.15116890  0.32295433  0.88768105  1.0
  S  S7  1  0.67704567  -0.15116890  0.38768105  1.0
  O  O8  1  0.88986210  0.09962784  0.81738691  1.0
  O  O9  1  0.90037216  0.11013790  0.31738691  1.0
  O  O10  1  1.09962784  0.88986210  0.68261309  1.0
  O  O11  1  0.11013790  -0.09962784  0.18261309  1.0
  O  O12  1  0.66135972  -0.10976351  0.52783677  1.0
  O  O13  1  1.10976351  0.33864028  0.02783677  1.0
  O  O14  1  0.89023649  0.66135972  0.97216323  1.0
  O  O15  1  0.33864028  0.10976351  0.47216323  1.0
  O  O16  1  0.57706597  0.29109283  0.70144593  1.0
  O  O17  1  0.70890717  0.42293403  0.20144593  1.0
  O  O18  1  1.29109283  0.57706597  0.79855407  1.0
  O  O19  1  0.42293403  -0.29109283  0.29855407  1.0
  O  O20  1  0.32651013  0.28712890  0.90670874  1.0
  O  O21  1  0.71287110  0.67348987  0.40670874  1.0
  O  O22  1  1.28712890  0.32651013  0.59329126  1.0
  O  O23  1  0.67348987  -0.28712890  0.09329126  1.0
