# generated using pymatgen
data_Rb3LiPb4
_symmetry_space_group_name_H-M   'P 1'
_cell_length_a   9.06430545
_cell_length_b   9.06430545
_cell_length_c   10.76271487
_cell_angle_alpha   90.00000000
_cell_angle_beta   90.00000000
_cell_angle_gamma   133.13178383
_symmetry_Int_Tables_number   1
_chemical_formula_structural   Rb3LiPb4
_chemical_formula_sum   'Rb6 Li2 Pb8'
_cell_volume   645.33425548
_cell_formula_units_Z   2
loop_
 _symmetry_equiv_pos_site_id
 _symmetry_equiv_pos_as_xyz
  1  'x, y, z'
loop_
 _atom_site_type_symbol
 _atom_site_label
 _atom_site_symmetry_multiplicity
 _atom_site_fract_x
 _atom_site_fract_y
 _atom_site_fract_z
 _atom_site_occupancy
  Rb  Rb0  1  0.38522714  0.61477286  0.95735911  1.0
  Rb  Rb1  1  0.38522714  0.61477286  0.54264089  1.0
  Rb  Rb2  1  -0.38522714  0.38522714  0.45735911  1.0
  Rb  Rb3  1  -0.38522714  0.38522714  0.04264089  1.0
  Rb  Rb4  1  -0.22048100  0.22048100  0.75000000  1.0
  Rb  Rb5  1  0.22048100  0.77951900  0.25000000  1.0
  Li  Li6  1  0.00000000  0.00000000  0.00000000  1.0
  Li  Li7  1  0.00000000  0.00000000  0.50000000  1.0
  Pb  Pb8  1  -0.19133070  0.74218120  0.75000000  1.0
  Pb  Pb9  1  0.74218120  0.80866930  0.25000000  1.0
  Pb  Pb10  1  0.25781880  1.19133070  0.75000000  1.0
  Pb  Pb11  1  0.19133070  0.25781880  0.25000000  1.0
  Pb  Pb12  1  0.16632653  0.83367347  0.89377887  1.0
  Pb  Pb13  1  0.16632653  0.83367347  0.60622113  1.0
  Pb  Pb14  1  -0.16632653  0.16632653  0.39377887  1.0
  Pb  Pb15  1  -0.16632653  0.16632653  0.10622113  1.0
