# generated using pymatgen
data_Cu(C4N3)2
_symmetry_space_group_name_H-M   'P 1'
_cell_length_a   7.15888232
_cell_length_b   5.54932888
_cell_length_c   11.44867312
_cell_angle_alpha   90.00000000
_cell_angle_beta   90.00000000
_cell_angle_gamma   90.00000000
_symmetry_Int_Tables_number   1
_chemical_formula_structural   Cu(C4N3)2
_chemical_formula_sum   'Cu2 C16 N12'
_cell_volume   454.82135011
_cell_formula_units_Z   2
loop_
 _symmetry_equiv_pos_site_id
 _symmetry_equiv_pos_as_xyz
  1  'x, y, z'
loop_
 _atom_site_type_symbol
 _atom_site_label
 _atom_site_symmetry_multiplicity
 _atom_site_fract_x
 _atom_site_fract_y
 _atom_site_fract_z
 _atom_site_occupancy
  C  C0  1  0.66621660  0.71194414  0.10367668  1.0
  C  C1  1  0.66621660  0.28805586  0.89632332  1.0
  C  C2  1  0.16621660  0.71194414  0.39632332  1.0
  C  C3  1  0.16621660  0.28805586  0.60367668  1.0
  C  C4  1  0.33378340  0.71194414  0.10367668  1.0
  C  C5  1  0.33378340  0.28805586  0.89632332  1.0
  C  C6  1  0.83378340  0.71194414  0.39632332  1.0
  C  C7  1  0.83378340  0.28805586  0.60367668  1.0
  C  C8  1  0.00000000  0.61374502  0.35349028  1.0
  C  C9  1  0.00000000  0.38625498  0.64650972  1.0
  C  C10  1  0.50000000  0.61374502  0.14650972  1.0
  C  C11  1  0.50000000  0.38625498  0.85349028  1.0
  C  C12  1  -0.00000000  0.41957489  0.27371091  1.0
  C  C13  1  0.00000000  0.58042511  0.72628909  1.0
  C  C14  1  0.50000000  0.41957489  0.22628909  1.0
  C  C15  1  0.50000000  0.58042511  0.77371091  1.0
  Cu  Cu16  1  0.00000000  0.00000000  -0.00000000  1.0
  Cu  Cu17  1  0.50000000  0.00000000  0.50000000  1.0
  N  N18  1  -0.00000000  0.25911955  0.20754067  1.0
  N  N19  1  -0.00000000  0.74088045  0.79245933  1.0
  N  N20  1  0.50000000  0.25911955  0.29245933  1.0
  N  N21  1  0.50000000  0.74088045  0.70754067  1.0
  N  N22  1  0.80100801  0.79285189  0.06175425  1.0
  N  N23  1  0.80100801  0.20714811  0.93824575  1.0
  N  N24  1  0.30100801  0.79285189  0.43824575  1.0
  N  N25  1  0.30100801  0.20714811  0.56175425  1.0
  N  N26  1  0.19899199  0.79285189  0.06175425  1.0
  N  N27  1  0.19899199  0.20714811  0.93824575  1.0
  N  N28  1  0.69899199  0.79285189  0.43824575  1.0
  N  N29  1  0.69899199  0.20714811  0.56175425  1.0
