# generated using pymatgen
data_MnCu2GeSe4
_symmetry_space_group_name_H-M   'P 1'
_cell_length_a   8.04363663
_cell_length_b   6.89777557
_cell_length_c   6.60514985
_cell_angle_alpha   90.00000000
_cell_angle_beta   90.00000000
_cell_angle_gamma   90.00000000
_symmetry_Int_Tables_number   1
_chemical_formula_structural   MnCu2GeSe4
_chemical_formula_sum   'Mn2 Cu4 Ge2 Se8'
_cell_volume   366.47485189
_cell_formula_units_Z   2
loop_
 _symmetry_equiv_pos_site_id
 _symmetry_equiv_pos_as_xyz
  1  'x, y, z'
loop_
 _atom_site_type_symbol
 _atom_site_label
 _atom_site_symmetry_multiplicity
 _atom_site_fract_x
 _atom_site_fract_y
 _atom_site_fract_z
 _atom_site_occupancy
  Mn  Mn0  1  0.50000000  0.65886462  0.00516773  1.0
  Mn  Mn1  1  0.00000000  0.34113538  0.50516773  1.0
  Cu  Cu2  1  0.24917983  0.17278105  0.01110993  1.0
  Cu  Cu3  1  0.74917983  0.82721895  0.51110993  1.0
  Cu  Cu4  1  0.75082017  0.17278105  0.01110993  1.0
  Cu  Cu5  1  0.25082017  0.82721895  0.51110993  1.0
  Ge  Ge6  1  0.50000000  0.33060254  0.50478415  1.0
  Ge  Ge7  1  0.00000000  0.66939746  0.00478415  1.0
  Se  Se8  1  0.25556947  0.15821091  0.37811577  1.0
  Se  Se9  1  0.75556947  0.84178909  0.87811577  1.0
  Se  Se10  1  0.74443053  0.15821091  0.37811577  1.0
  Se  Se11  1  0.24443053  0.84178909  0.87811577  1.0
  Se  Se12  1  0.50000000  0.31587813  0.87568662  1.0
  Se  Se13  1  0.00000000  0.68412187  0.37568662  1.0
  Se  Se14  1  0.50000000  0.66589703  0.38841010  1.0
  Se  Se15  1  0.00000000  0.33410297  0.88841010  1.0
