# generated using pymatgen
data_W3O8
_symmetry_space_group_name_H-M   'P 1'
_cell_length_a   6.13673982
_cell_length_b   6.13673982
_cell_length_c   3.81329977
_cell_angle_alpha   90.00000000
_cell_angle_beta   90.00000000
_cell_angle_gamma   116.04962214
_symmetry_Int_Tables_number   1
_chemical_formula_structural   W3O8
_chemical_formula_sum   'W3 O8'
_cell_volume   129.01877185
_cell_formula_units_Z   1
loop_
 _symmetry_equiv_pos_site_id
 _symmetry_equiv_pos_as_xyz
  1  'x, y, z'
loop_
 _atom_site_type_symbol
 _atom_site_label
 _atom_site_symmetry_multiplicity
 _atom_site_fract_x
 _atom_site_fract_y
 _atom_site_fract_z
 _atom_site_occupancy
  W  W0  1  0.31548813  0.68451187  0.00000000  1.0
  W  W1  1  -0.31548813  1.31548813  0.00000000  1.0
  W  W2  1  0.00000000  0.00000000  0.00000000  1.0
  O  O3  1  -0.03889732  1.66398350  -0.00000279  1.0
  O  O4  1  0.66398350  0.96110268  1.00000279  1.0
  O  O5  1  -0.66398350  1.03889732  1.00000279  1.0
  O  O6  1  0.03889732  0.33601650  -0.00000279  1.0
  O  O7  1  0.31043624  0.68956376  0.50000000  1.0
  O  O8  1  -0.31043624  1.31043624  0.50000000  1.0
  O  O9  1  0.00000000  0.00000000  0.50000000  1.0
  O  O10  1  0.50000000  0.50000000  0.00000000  1.0
