# generated using pymatgen
data_Hf6Al2Co
_symmetry_space_group_name_H-M   'P 1'
_cell_length_a   7.86071923
_cell_length_b   7.86071923
_cell_length_c   3.28657251
_cell_angle_alpha   90.00000000
_cell_angle_beta   90.00000000
_cell_angle_gamma   120.00000000
_symmetry_Int_Tables_number   1
_chemical_formula_structural   Hf6Al2Co
_chemical_formula_sum   'Hf6 Al2 Co1'
_cell_volume   175.87269529
_cell_formula_units_Z   1
loop_
 _symmetry_equiv_pos_site_id
 _symmetry_equiv_pos_as_xyz
  1  'x, y, z'
loop_
 _atom_site_type_symbol
 _atom_site_label
 _atom_site_symmetry_multiplicity
 _atom_site_fract_x
 _atom_site_fract_y
 _atom_site_fract_z
 _atom_site_occupancy
  Hf  Hf0  1  0.74864416  0.74864416  0.50000000  1.0
  Hf  Hf1  1  0.00000000  0.25135584  0.50000000  1.0
  Hf  Hf2  1  0.25135584  0.00000000  0.50000000  1.0
  Hf  Hf3  1  0.39724090  0.39724090  0.00000000  1.0
  Hf  Hf4  1  0.00000000  0.60275910  0.00000000  1.0
  Hf  Hf5  1  0.60275910  0.00000000  0.00000000  1.0
  Al  Al6  1  0.33333333  0.66666667  0.50000000  1.0
  Al  Al7  1  0.66666667  0.33333333  0.50000000  1.0
  Co  Co8  1  0.00000000  0.00000000  0.00000000  1.0
