# generated using pymatgen
data_Hg(CN)2
_symmetry_space_group_name_H-M   'P 1'
_cell_length_a   8.53028422
_cell_length_b   8.53028422
_cell_length_c   8.53028422
_cell_angle_alpha   105.37264932
_cell_angle_beta   105.37264932
_cell_angle_gamma   118.02185137
_symmetry_Int_Tables_number   1
_chemical_formula_structural   Hg(CN)2
_chemical_formula_sum   'Hg4 C8 N8'
_cell_volume   469.73472789
_cell_formula_units_Z   4
loop_
 _symmetry_equiv_pos_site_id
 _symmetry_equiv_pos_as_xyz
  1  'x, y, z'
loop_
 _atom_site_type_symbol
 _atom_site_label
 _atom_site_symmetry_multiplicity
 _atom_site_fract_x
 _atom_site_fract_y
 _atom_site_fract_z
 _atom_site_occupancy
  Hg  Hg0  1  0.87500000  0.87087729  0.49587729  1.0
  Hg  Hg1  1  1.62087729  1.12500000  0.99587729  1.0
  Hg  Hg2  1  1.12912271  0.62500000  1.00412271  1.0
  Hg  Hg3  1  0.37500000  0.37912271  0.50412271  1.0
  C  C4  1  1.06496880  0.86267524  0.69046722  1.0
  C  C5  1  0.68503120  0.87549842  0.29770644  1.0
  C  C6  1  0.61267524  1.31496880  1.19046722  1.0
  C  C7  1  1.13732476  1.82779198  1.20229356  1.0
  C  C8  1  0.57779198  0.38732476  0.70229356  1.0
  C  C9  1  1.17220802  1.37450158  1.30953278  1.0
  C  C10  1  1.62549842  0.93503120  0.79770644  1.0
  C  C11  1  1.12450158  1.42220802  0.80953278  1.0
  N  N12  1  1.12194085  1.30640161  0.69753533  1.0
  N  N13  1  0.62805915  0.82559449  0.68446076  1.0
  N  N14  1  1.05640161  1.37194085  1.19753533  1.0
  N  N15  1  0.69359839  0.39113373  0.81553924  1.0
  N  N16  1  1.14113373  0.94359839  0.31553924  1.0
  N  N17  1  0.60886627  0.42440551  0.30246467  1.0
  N  N18  1  1.57559449  0.87805915  1.18446076  1.0
  N  N19  1  0.17440551  0.85886627  0.80246467  1.0
