# generated using pymatgen
data_RbVH6SO9
_symmetry_space_group_name_H-M   'P 1'
_cell_length_a   6.28174473
_cell_length_b   10.09983144
_cell_length_c   6.78496249
_cell_angle_alpha   90.00000000
_cell_angle_beta   107.69080810
_cell_angle_gamma   90.00000000
_symmetry_Int_Tables_number   1
_chemical_formula_structural   RbVH6SO9
_chemical_formula_sum   'Rb2 V2 H12 S2 O18'
_cell_volume   410.11220663
_cell_formula_units_Z   2
loop_
 _symmetry_equiv_pos_site_id
 _symmetry_equiv_pos_as_xyz
  1  'x, y, z'
loop_
 _atom_site_type_symbol
 _atom_site_label
 _atom_site_symmetry_multiplicity
 _atom_site_fract_x
 _atom_site_fract_y
 _atom_site_fract_z
 _atom_site_occupancy
  Rb  Rb0  1  0.80720248  0.79338463  0.81574111  1.0
  Rb  Rb1  1  0.19279752  0.29338463  0.18425889  1.0
  V  V2  1  0.87998571  0.14077014  0.61869575  1.0
  V  V3  1  0.12001429  0.64077014  0.38130425  1.0
  H  H4  1  0.80501186  0.40488053  0.73405940  1.0
  H  H5  1  0.19498814  0.90488053  0.26594060  1.0
  H  H6  1  0.72511583  0.35212888  0.30612820  1.0
  H  H7  1  0.27488417  0.85212888  0.69387180  1.0
  H  H8  1  0.68384254  0.22165363  0.17809872  1.0
  H  H9  1  0.31615746  0.72165363  0.82190128  1.0
  H  H10  1  0.60945736  0.48572154  0.92546840  1.0
  H  H11  1  0.39054264  -0.01427846  0.07453160  1.0
  H  H12  1  0.46582989  0.49491188  0.69452189  1.0
  H  H13  1  0.53417011  -0.00508812  0.30547811  1.0
  H  H14  1  0.02272523  0.40480450  0.65314327  1.0
  H  H15  1  0.97727477  0.90480450  0.34685673  1.0
  S  S16  1  0.41814196  0.14302236  0.73373899  1.0
  S  S17  1  0.58185804  0.64302236  0.26626101  1.0
  O  O18  1  0.95509391  0.08394488  0.85262407  1.0
  O  O19  1  0.04490609  0.58394488  0.14737593  1.0
  O  O20  1  0.93139504  0.34890869  0.71655091  1.0
  O  O21  1  0.06860496  0.84890869  0.28344909  1.0
  O  O22  1  0.82342815  0.00710040  0.47001772  1.0
  O  O23  1  0.17657185  0.50710040  0.52998228  1.0
  O  O24  1  0.81563596  0.67382795  0.40919941  1.0
  O  O25  1  0.18436404  0.17382795  0.59080059  1.0
  O  O26  1  0.78048283  0.26058558  0.30768431  1.0
  O  O27  1  0.21951717  0.76058558  0.69231569  1.0
  O  O28  1  0.62087049  0.50213860  0.78688169  1.0
  O  O29  1  0.37912951  0.00213860  0.21311831  1.0
  O  O30  1  0.56289096  0.18400619  0.60001014  1.0
  O  O31  1  0.43710904  0.68400619  0.39998986  1.0
  O  O32  1  0.46995958  0.22472182  0.92123273  1.0
  O  O33  1  0.53004042  0.72472182  0.07876727  1.0
  O  O34  1  0.44027737  -0.00021220  0.78112337  1.0
  O  O35  1  0.55972263  0.49978780  0.21887663  1.0
