# generated using pymatgen
data_Li2Ag
_symmetry_space_group_name_H-M   'P 1'
_cell_length_a   6.88748065
_cell_length_b   6.88748065
_cell_length_c   6.88748065
_cell_angle_alpha   120.15169150
_cell_angle_beta   120.15169150
_cell_angle_gamma   89.73746280
_symmetry_Int_Tables_number   1
_chemical_formula_structural   Li2Ag
_chemical_formula_sum   'Li8 Ag4'
_cell_volume   230.49650099
_cell_formula_units_Z   4
loop_
 _symmetry_equiv_pos_site_id
 _symmetry_equiv_pos_as_xyz
  1  'x, y, z'
loop_
 _atom_site_type_symbol
 _atom_site_label
 _atom_site_symmetry_multiplicity
 _atom_site_fract_x
 _atom_site_fract_y
 _atom_site_fract_z
 _atom_site_occupancy
  Li  Li0  1  1.18158688  0.39328158  0.78830529  1.0
  Li  Li1  1  1.14502371  0.85671842  1.28830529  1.0
  Li  Li2  1  0.60497629  0.39328158  0.21169471  1.0
  Li  Li3  1  0.56841312  0.85671842  0.71169471  1.0
  Li  Li4  1  0.60671842  0.39502371  0.78830529  1.0
  Li  Li5  1  0.14328158  0.43158688  0.28830529  1.0
  Li  Li6  1  0.60671842  0.81841312  1.21169471  1.0
  Li  Li7  1  0.14328158  0.85497629  0.71169471  1.0
  Ag  Ag8  1  0.37500000  0.12500000  0.25000000  1.0
  Ag  Ag9  1  0.87500000  0.12500000  0.75000000  1.0
  Ag  Ag10  1  0.87500000  1.12500000  1.25000000  1.0
  Ag  Ag11  1  0.87500000  0.62500000  0.75000000  1.0
