# generated using pymatgen
data_TiAl(CrC)2
_symmetry_space_group_name_H-M   'P 1'
_cell_length_a   2.91930260
_cell_length_b   2.91930260
_cell_length_c   17.82770124
_cell_angle_alpha   90.00000000
_cell_angle_beta   90.00000000
_cell_angle_gamma   120.00000000
_symmetry_Int_Tables_number   1
_chemical_formula_structural   TiAl(CrC)2
_chemical_formula_sum   'Ti2 Al2 Cr4 C4'
_cell_volume   131.57828051
_cell_formula_units_Z   2
loop_
 _symmetry_equiv_pos_site_id
 _symmetry_equiv_pos_as_xyz
  1  'x, y, z'
loop_
 _atom_site_type_symbol
 _atom_site_label
 _atom_site_symmetry_multiplicity
 _atom_site_fract_x
 _atom_site_fract_y
 _atom_site_fract_z
 _atom_site_occupancy
  Ti  Ti0  1  0.00000000  0.00000000  0.50000000  1.0
  Ti  Ti1  1  0.00000000  0.00000000  0.00000000  1.0
  Al  Al2  1  0.00000000  0.00000000  0.25000000  1.0
  Al  Al3  1  0.00000000  0.00000000  0.75000000  1.0
  Cr  Cr4  1  0.33333333  0.66666667  0.36859512  1.0
  Cr  Cr5  1  0.33333333  0.66666667  0.13140488  1.0
  Cr  Cr6  1  0.66666667  0.33333333  0.86859512  1.0
  Cr  Cr7  1  0.66666667  0.33333333  0.63140488  1.0
  C  C8  1  0.33333333  0.66666667  0.92501443  1.0
  C  C9  1  0.33333333  0.66666667  0.57498557  1.0
  C  C10  1  0.66666667  0.33333333  0.42501443  1.0
  C  C11  1  0.66666667  0.33333333  0.07498557  1.0
