# generated using pymatgen
data_In2Co
_symmetry_space_group_name_H-M   'P 1'
_cell_length_a   14.01832632
_cell_length_b   10.26051432
_cell_length_c   10.25501966
_cell_angle_alpha   86.20458555
_cell_angle_beta   46.91410445
_cell_angle_gamma   46.88130999
_symmetry_Int_Tables_number   1
_chemical_formula_structural   In2Co
_chemical_formula_sum   'In16 Co8'
_cell_volume   518.62628981
_cell_formula_units_Z   8
loop_
 _symmetry_equiv_pos_site_id
 _symmetry_equiv_pos_as_xyz
  1  'x, y, z'
loop_
 _atom_site_type_symbol
 _atom_site_label
 _atom_site_symmetry_multiplicity
 _atom_site_fract_x
 _atom_site_fract_y
 _atom_site_fract_z
 _atom_site_occupancy
  In  In0  1  1.13108471  0.00873901  0.72899542  1.0
  In  In1  1  1.13118085  0.72899542  0.00873901  1.0
  In  In2  1  1.24126099  0.11891529  0.11881915  1.0
  In  In3  1  1.52100457  0.11881915  0.11891529  1.0
  In  In4  1  1.72899542  0.13118085  0.13108471  1.0
  In  In5  1  1.00873901  0.13108471  0.13118085  1.0
  In  In6  1  1.11881915  0.52100457  0.24126099  1.0
  In  In7  1  1.11891529  0.24126099  0.52100457  1.0
  In  In8  1  0.73911411  0.62423262  0.12443877  1.0
  In  In9  1  1.51221450  0.12443877  0.62423262  1.0
  In  In10  1  0.62576738  0.51088589  0.73778550  1.0
  In  In11  1  1.12556123  0.73778550  0.51088589  1.0
  In  In12  1  1.12443877  0.51221450  -0.26088589  1.0
  In  In13  1  1.62423262  -0.26088589  0.51221450  1.0
  In  In14  1  0.73778550  1.12556123  0.62576738  1.0
  In  In15  1  0.51088589  0.62576738  1.12556123  1.0
  Co  Co16  1  1.63389354  0.46277785  0.26940935  1.0
  Co  Co17  1  0.63391927  0.26940935  0.46277785  1.0
  Co  Co18  1  0.78722215  0.61610646  0.61608073  1.0
  Co  Co19  1  0.98059065  0.61608073  0.61610646  1.0
  Co  Co20  1  1.26940935  -0.36608073  0.63389354  1.0
  Co  Co21  1  1.46277785  0.63389354  -0.36608073  1.0
  Co  Co22  1  0.61608073  0.98059065  0.78722215  1.0
  Co  Co23  1  0.61610646  0.78722215  0.98059065  1.0
