# generated using pymatgen
data_Mg2CoH5
_symmetry_space_group_name_H-M   'P 1'
_cell_length_a   4.44109226
_cell_length_b   4.44109226
_cell_length_c   6.57946504
_cell_angle_alpha   90.00000000
_cell_angle_beta   90.00000000
_cell_angle_gamma   90.00000000
_symmetry_Int_Tables_number   1
_chemical_formula_structural   Mg2CoH5
_chemical_formula_sum   'Mg4 Co2 H10'
_cell_volume   129.76876560
_cell_formula_units_Z   2
loop_
 _symmetry_equiv_pos_site_id
 _symmetry_equiv_pos_as_xyz
  1  'x, y, z'
loop_
 _atom_site_type_symbol
 _atom_site_label
 _atom_site_symmetry_multiplicity
 _atom_site_fract_x
 _atom_site_fract_y
 _atom_site_fract_z
 _atom_site_occupancy
  Mg  Mg0  1  0.00000000  0.00000000  0.00000000  1.0
  Mg  Mg1  1  0.50000000  0.50000000  0.00000000  1.0
  Mg  Mg2  1  0.00000000  0.00000000  0.50000000  1.0
  Mg  Mg3  1  0.50000000  0.50000000  0.50000000  1.0
  Co  Co4  1  0.50000000  0.00000000  0.24254672  1.0
  Co  Co5  1  0.00000000  0.50000000  0.75745328  1.0
  H  H6  1  0.74227447  0.24227447  0.27084605  1.0
  H  H7  1  0.74227447  0.75772553  0.27084605  1.0
  H  H8  1  0.24227447  0.74227447  0.72915395  1.0
  H  H9  1  0.24227447  0.25772553  0.72915395  1.0
  H  H10  1  0.75772553  0.74227447  0.72915395  1.0
  H  H11  1  0.75772553  0.25772553  0.72915395  1.0
  H  H12  1  0.25772553  0.24227447  0.27084605  1.0
  H  H13  1  0.25772553  0.75772553  0.27084605  1.0
  H  H14  1  0.50000000  0.00000000  0.00485634  1.0
  H  H15  1  0.00000000  0.50000000  0.99514366  1.0
