# generated using pymatgen
data_K4H6C2O9
_symmetry_space_group_name_H-M   'P 1'
_cell_length_a   9.16660183
_cell_length_b   9.16660183
_cell_length_c   7.24537524
_cell_angle_alpha   70.23800013
_cell_angle_beta   109.76199987
_cell_angle_gamma   83.20881664
_symmetry_Int_Tables_number   1
_chemical_formula_structural   K4H6C2O9
_chemical_formula_sum   'K8 H12 C4 O18'
_cell_volume   520.28276235
_cell_formula_units_Z   2
loop_
 _symmetry_equiv_pos_site_id
 _symmetry_equiv_pos_as_xyz
  1  'x, y, z'
loop_
 _atom_site_type_symbol
 _atom_site_label
 _atom_site_symmetry_multiplicity
 _atom_site_fract_x
 _atom_site_fract_y
 _atom_site_fract_z
 _atom_site_occupancy
  K  K0  1  1.49826279  0.21298214  0.53570604  1.0
  K  K1  1  0.78701786  -0.49826279  0.03570604  1.0
  K  K2  1  1.21298214  0.49826279  0.96429396  1.0
  K  K3  1  0.50173721  -0.21298214  0.46429396  1.0
  K  K4  1  0.88181421  -0.11818579  0.75000000  1.0
  K  K5  1  1.11818579  0.11818579  0.25000000  1.0
  K  K6  1  1.18731087  0.18731087  0.75000000  1.0
  K  K7  1  0.81268913  -0.18731087  0.25000000  1.0
  H  H8  1  1.79913992  0.14703418  0.37184404  1.0
  H  H9  1  0.85296582  -0.79913992  0.87184404  1.0
  H  H10  1  1.14703418  0.79913992  0.12815596  1.0
  H  H11  1  0.20086008  -0.14703418  0.62815596  1.0
  H  H12  1  1.71909090  0.13720875  0.95212909  1.0
  H  H13  1  0.86279125  -0.71909090  0.45212909  1.0
  H  H14  1  1.13720875  0.71909090  0.54787091  1.0
  H  H15  1  0.28090910  -0.13720875  0.04787091  1.0
  H  H16  1  1.51509617  0.37637943  0.84409409  1.0
  H  H17  1  0.62362057  -0.51509617  0.34409409  1.0
  H  H18  1  1.37637943  0.51509617  0.65590591  1.0
  H  H19  1  0.48490383  -0.37637943  0.15590591  1.0
  C  C20  1  0.47702512  -0.13574427  0.84799304  1.0
  C  C21  1  1.13574427  0.52297488  0.34799304  1.0
  C  C22  1  0.86425573  -0.52297488  0.65200696  1.0
  C  C23  1  1.52297488  0.13574427  0.15200696  1.0
  O  O24  1  0.61834671  -0.17530486  0.85287682  1.0
  O  O25  1  1.17530486  0.38165329  0.35287682  1.0
  O  O26  1  0.82469514  -0.38165329  0.64712318  1.0
  O  O27  1  1.38165329  0.17530486  0.14712318  1.0
  O  O28  1  1.81047347  0.10514379  0.91462062  1.0
  O  O29  1  0.89485621  -0.81047347  0.41462062  1.0
  O  O30  1  1.10514379  0.81047347  0.58537938  1.0
  O  O31  1  0.18952653  -0.10514379  0.08537938  1.0
  O  O32  1  0.35421282  -0.05198749  0.66508795  1.0
  O  O33  1  1.05198749  0.64578718  0.16508795  1.0
  O  O34  1  0.94801251  -0.64578718  0.83491205  1.0
  O  O35  1  1.64578718  0.05198749  0.33491205  1.0
  O  O36  1  1.54463428  0.17868042  0.97348804  1.0
  O  O37  1  0.82131958  -0.54463428  0.47348804  1.0
  O  O38  1  1.17868042  0.54463428  0.52651196  1.0
  O  O39  1  0.45536572  -0.17868042  0.02651196  1.0
  O  O40  1  1.49228750  0.49228750  0.75000000  1.0
  O  O41  1  0.50771250  -0.49228750  0.25000000  1.0
