# generated using pymatgen
data_Sr2LiReN4
_symmetry_space_group_name_H-M   'P 1'
_cell_length_a   6.18926867
_cell_length_b   5.88487962
_cell_length_c   6.92728562
_cell_angle_alpha   90.00000000
_cell_angle_beta   106.54194163
_cell_angle_gamma   90.00000000
_symmetry_Int_Tables_number   1
_chemical_formula_structural   Sr2LiReN4
_chemical_formula_sum   'Sr4 Li2 Re2 N8'
_cell_volume   241.87037656
_cell_formula_units_Z   2
loop_
 _symmetry_equiv_pos_site_id
 _symmetry_equiv_pos_as_xyz
  1  'x, y, z'
loop_
 _atom_site_type_symbol
 _atom_site_label
 _atom_site_symmetry_multiplicity
 _atom_site_fract_x
 _atom_site_fract_y
 _atom_site_fract_z
 _atom_site_occupancy
  Sr  Sr0  1  0.28279038  0.25000000  0.06961811  1.0
  Sr  Sr1  1  0.71720962  0.75000000  0.93038189  1.0
  Sr  Sr2  1  0.23801579  0.25000000  0.55602396  1.0
  Sr  Sr3  1  0.76198421  0.75000000  0.44397604  1.0
  Li  Li4  1  0.81035176  0.25000000  0.18796487  1.0
  Li  Li5  1  0.18964824  0.75000000  0.81203513  1.0
  Re  Re6  1  0.78233760  0.25000000  0.70204708  1.0
  Re  Re7  1  0.21766240  0.75000000  0.29795292  1.0
  N  N8  1  0.96978271  0.49526809  0.75191613  1.0
  N  N9  1  0.96978271  0.00473191  0.75191613  1.0
  N  N10  1  0.03021729  0.99526809  0.24808387  1.0
  N  N11  1  0.03021729  0.50473191  0.24808387  1.0
  N  N12  1  0.61690940  0.25000000  0.43721771  1.0
  N  N13  1  0.38309060  0.75000000  0.56278229  1.0
  N  N14  1  0.59863383  0.25000000  0.87145924  1.0
  N  N15  1  0.40136617  0.75000000  0.12854076  1.0
