# generated using pymatgen
data_KAlP4(H2O7)2
_symmetry_space_group_name_H-M   'P 1'
_cell_length_a   5.00742545
_cell_length_b   7.96950687
_cell_length_c   7.70826054
_cell_angle_alpha   80.48751032
_cell_angle_beta   72.23754983
_cell_angle_gamma   82.91514915
_symmetry_Int_Tables_number   1
_chemical_formula_structural   KAlP4(H2O7)2
_chemical_formula_sum   'K1 Al1 P4 H4 O14'
_cell_volume   288.04709456
_cell_formula_units_Z   1
loop_
 _symmetry_equiv_pos_site_id
 _symmetry_equiv_pos_as_xyz
  1  'x, y, z'
loop_
 _atom_site_type_symbol
 _atom_site_label
 _atom_site_symmetry_multiplicity
 _atom_site_fract_x
 _atom_site_fract_y
 _atom_site_fract_z
 _atom_site_occupancy
  K  K0  1  0.00000000  0.00000000  0.00000000  1.0
  Al  Al1  1  -0.00000000  0.00000000  -0.50000000  1.0
  P  P2  1  -0.59216891  -0.77656825  -0.40175269  1.0
  P  P3  1  -0.40783109  -0.22343175  -0.59824731  1.0
  P  P4  1  -0.68629734  -0.68442438  -0.76698041  1.0
  P  P5  1  -0.31370266  -0.31557562  -0.23301959  1.0
  H  H6  1  -0.88695195  -0.58754748  -0.22996284  1.0
  H  H7  1  -0.11304805  -0.41245252  -0.77003716  1.0
  H  H8  1  -0.31674258  -0.61909637  -1.00540623  1.0
  H  H9  1  -0.68325742  -0.38090363  0.00540623  1.0
  O  O10  1  -0.39157878  -0.72134238  -0.91111283  1.0
  O  O11  1  -0.60842122  -0.27865762  -0.08888717  1.0
  O  O12  1  -0.28672658  -0.82808657  -0.41362478  1.0
  O  O13  1  -0.71327342  -0.17191343  -0.58637522  1.0
  O  O14  1  -0.84100401  -0.84637715  -0.71945348  1.0
  O  O15  1  -0.15899598  -0.15362285  -0.28054652  1.0
  O  O16  1  -0.83216234  -0.52009280  -0.83538193  1.0
  O  O17  1  -0.16783766  -0.47990720  -0.16461807  1.0
  O  O18  1  -0.77660891  -0.92406397  -0.37324873  1.0
  O  O19  1  -0.22339109  -0.07593603  -0.62675127  1.0
  O  O20  1  -0.70763130  -0.66699085  -0.23961434  1.0
  O  O21  1  -0.29236870  -0.33300915  -0.76038566  1.0
  O  O22  1  -0.61827997  -0.64921033  -0.58305069  1.0
  O  O23  1  -0.38172003  -0.35078967  -0.41694931  1.0
