# generated using pymatgen
data_C3N2OF3
_symmetry_space_group_name_H-M   'P 1'
_cell_length_a   11.24202824
_cell_length_b   6.12892045
_cell_length_c   8.12254903
_cell_angle_alpha   90.00000000
_cell_angle_beta   98.23393410
_cell_angle_gamma   90.00000000
_symmetry_Int_Tables_number   1
_chemical_formula_structural   C3N2OF3
_chemical_formula_sum   'C12 N8 O4 F12'
_cell_volume   553.88662117
_cell_formula_units_Z   4
loop_
 _symmetry_equiv_pos_site_id
 _symmetry_equiv_pos_as_xyz
  1  'x, y, z'
loop_
 _atom_site_type_symbol
 _atom_site_label
 _atom_site_symmetry_multiplicity
 _atom_site_fract_x
 _atom_site_fract_y
 _atom_site_fract_z
 _atom_site_occupancy
  C  C0  1  0.95738268  0.96832842  0.92917904  1.0
  C  C1  1  0.95738268  0.53167158  0.42917904  1.0
  C  C2  1  0.04261732  0.46832842  0.57082096  1.0
  C  C3  1  0.04261732  0.03167158  0.07082096  1.0
  C  C4  1  0.79693824  0.97249574  0.76113086  1.0
  C  C5  1  0.79693824  0.52750426  0.26113086  1.0
  C  C6  1  0.20306176  0.47249574  0.73886914  1.0
  C  C7  1  0.20306176  0.02750426  0.23886914  1.0
  C  C8  1  0.32808337  0.54147423  0.81232625  1.0
  C  C9  1  0.32808337  0.95852577  0.31232625  1.0
  C  C10  1  0.67191663  0.04147423  0.68767375  1.0
  C  C11  1  0.67191663  0.45852577  0.18767375  1.0
  N  N12  1  0.96935462  0.81943606  0.81770803  1.0
  N  N13  1  0.96935462  0.68056394  0.31770803  1.0
  N  N14  1  0.03064538  0.31943606  0.68229197  1.0
  N  N15  1  0.03064538  0.18056394  0.18229197  1.0
  N  N16  1  0.86348752  0.82256173  0.70732249  1.0
  N  N17  1  0.86348752  0.67743827  0.20732249  1.0
  N  N18  1  0.13651248  0.32256173  0.79267751  1.0
  N  N19  1  0.13651248  0.17743827  0.29267751  1.0
  O  O20  1  0.84954563  0.42728159  0.40174637  1.0
  O  O21  1  0.84954563  0.07271841  0.90174637  1.0
  O  O22  1  0.15045437  0.92728159  0.09825363  1.0
  O  O23  1  0.15045437  0.57271841  0.59825363  1.0
  F  F24  1  0.63944297  0.94063074  0.54029013  1.0
  F  F25  1  0.63944297  0.55936926  0.04029013  1.0
  F  F26  1  0.36055703  0.44063074  0.95970987  1.0
  F  F27  1  0.36055703  0.05936926  0.45970987  1.0
  F  F28  1  0.59120621  0.98902521  0.79083716  1.0
  F  F29  1  0.59120621  0.51097479  0.29083716  1.0
  F  F30  1  0.40879379  0.48902521  0.70916284  1.0
  F  F31  1  0.40879379  0.01097479  0.20916284  1.0
  F  F32  1  0.33361368  0.76061352  0.83691780  1.0
  F  F33  1  0.33361368  0.73938648  0.33691780  1.0
  F  F34  1  0.66638632  0.26061352  0.66308220  1.0
  F  F35  1  0.66638632  0.23938648  0.16308220  1.0
