# generated using pymatgen
data_LaScGe
_symmetry_space_group_name_H-M   'P 1'
_cell_length_a   8.69689259
_cell_length_b   8.69689259
_cell_length_c   8.69689259
_cell_angle_alpha   150.84608595
_cell_angle_beta   150.84608595
_cell_angle_gamma   41.70084159
_symmetry_Int_Tables_number   1
_chemical_formula_structural   LaScGe
_chemical_formula_sum   'La2 Sc2 Ge2'
_cell_volume   155.75266838
_cell_formula_units_Z   2
loop_
 _symmetry_equiv_pos_site_id
 _symmetry_equiv_pos_as_xyz
  1  'x, y, z'
loop_
 _atom_site_type_symbol
 _atom_site_label
 _atom_site_symmetry_multiplicity
 _atom_site_fract_x
 _atom_site_fract_y
 _atom_site_fract_z
 _atom_site_occupancy
  La  La0  1  0.67627352  0.67627352  1.00000000  1.0
  La  La1  1  0.32372648  0.32372648  0.00000000  1.0
  Sc  Sc2  1  0.50000000  0.00000000  0.50000000  1.0
  Sc  Sc3  1  0.00000000  0.50000000  0.50000000  1.0
  Ge  Ge4  1  0.88099815  0.88099815  1.00000000  1.0
  Ge  Ge5  1  0.11900185  0.11900185  0.00000000  1.0
