# generated using pymatgen
data_Ba(ZnSb)2
_symmetry_space_group_name_H-M   'P 1'
_cell_length_a   10.67491853
_cell_length_b   4.55711317
_cell_length_c   11.73812867
_cell_angle_alpha   90.00000000
_cell_angle_beta   90.00000000
_cell_angle_gamma   90.00000000
_symmetry_Int_Tables_number   1
_chemical_formula_structural   Ba(ZnSb)2
_chemical_formula_sum   'Ba4 Zn8 Sb8'
_cell_volume   571.02253636
_cell_formula_units_Z   4
loop_
 _symmetry_equiv_pos_site_id
 _symmetry_equiv_pos_as_xyz
  1  'x, y, z'
loop_
 _atom_site_type_symbol
 _atom_site_label
 _atom_site_symmetry_multiplicity
 _atom_site_fract_x
 _atom_site_fract_y
 _atom_site_fract_z
 _atom_site_occupancy
  Ba  Ba0  1  0.75282134  0.75000000  0.32014473  1.0
  Ba  Ba1  1  0.25282134  0.75000000  0.17985527  1.0
  Ba  Ba2  1  0.24717866  0.25000000  0.67985527  1.0
  Ba  Ba3  1  0.74717866  0.25000000  0.82014473  1.0
  Zn  Zn4  1  0.94511121  0.75000000  0.62027788  1.0
  Zn  Zn5  1  0.44511121  0.75000000  0.87972212  1.0
  Zn  Zn6  1  0.05488879  0.25000000  0.37972212  1.0
  Zn  Zn7  1  0.55488879  0.25000000  0.12027788  1.0
  Zn  Zn8  1  0.90295401  0.75000000  0.04731480  1.0
  Zn  Zn9  1  0.40295401  0.75000000  0.45268520  1.0
  Zn  Zn10  1  0.09704599  0.25000000  0.95268520  1.0
  Zn  Zn11  1  0.59704599  0.25000000  0.54731480  1.0
  Sb  Sb12  1  0.65016185  0.75000000  0.03474809  1.0
  Sb  Sb13  1  0.15016185  0.75000000  0.46525191  1.0
  Sb  Sb14  1  0.34983815  0.25000000  0.96525191  1.0
  Sb  Sb15  1  0.84983815  0.25000000  0.53474809  1.0
  Sb  Sb16  1  0.52591515  0.75000000  0.66228003  1.0
  Sb  Sb17  1  0.02591515  0.75000000  0.83771997  1.0
  Sb  Sb18  1  0.47408485  0.25000000  0.33771997  1.0
  Sb  Sb19  1  0.97408485  0.25000000  0.16228003  1.0
