# generated using pymatgen
data_InPb2I5
_symmetry_space_group_name_H-M   'P 1'
_cell_length_a   10.02956110
_cell_length_b   10.02956110
_cell_length_c   10.02956110
_cell_angle_alpha   126.58830994
_cell_angle_beta   126.58830994
_cell_angle_gamma   78.92334491
_symmetry_Int_Tables_number   1
_chemical_formula_structural   InPb2I5
_chemical_formula_sum   'In2 Pb4 I10'
_cell_volume   629.26977882
_cell_formula_units_Z   2
loop_
 _symmetry_equiv_pos_site_id
 _symmetry_equiv_pos_as_xyz
  1  'x, y, z'
loop_
 _atom_site_type_symbol
 _atom_site_label
 _atom_site_symmetry_multiplicity
 _atom_site_fract_x
 _atom_site_fract_y
 _atom_site_fract_z
 _atom_site_occupancy
  In  In0  1  0.75000000  0.75000000  1.00000000  1.0
  In  In1  1  0.25000000  0.25000000  -0.00000000  1.0
  Pb  Pb2  1  0.33689801  0.83689801  1.17379603  1.0
  Pb  Pb3  1  0.16310199  0.33689801  0.50000000  1.0
  Pb  Pb4  1  0.83689801  0.66310199  1.50000000  1.0
  Pb  Pb5  1  0.66310199  0.16310199  0.82620397  1.0
  I  I6  1  0.70415802  1.20415802  1.18732072  1.0
  I  I7  1  0.98316270  0.48316270  1.18732072  1.0
  I  I8  1  0.51683730  0.70415802  0.50000000  1.0
  I  I9  1  0.79584198  0.98316270  1.50000000  1.0
  I  I10  1  1.20415802  1.01683730  1.50000000  1.0
  I  I11  1  0.48316270  0.29584198  0.50000000  1.0
  I  I12  1  1.01683730  0.51683730  0.81267928  1.0
  I  I13  1  0.29584198  0.79584198  0.81267928  1.0
  I  I14  1  0.00000000  0.00000000  0.00000000  1.0
  I  I15  1  0.50000000  0.50000000  1.00000000  1.0
