# generated using pymatgen
data_InF3
_symmetry_space_group_name_H-M   'P 1'
_cell_length_a   8.01621608
_cell_length_b   8.01621608
_cell_length_c   8.16875321
_cell_angle_alpha   90.00000000
_cell_angle_beta   90.00000000
_cell_angle_gamma   119.59821936
_symmetry_Int_Tables_number   1
_chemical_formula_structural   InF3
_chemical_formula_sum   'In6 F18'
_cell_volume   456.42489741
_cell_formula_units_Z   6
loop_
 _symmetry_equiv_pos_site_id
 _symmetry_equiv_pos_as_xyz
  1  'x, y, z'
loop_
 _atom_site_type_symbol
 _atom_site_label
 _atom_site_symmetry_multiplicity
 _atom_site_fract_x
 _atom_site_fract_y
 _atom_site_fract_z
 _atom_site_occupancy
  In  In0  1  -0.00000000  1.50000000  0.50000000  1.0
  In  In1  1  -0.00000000  1.50000000  0.00000000  1.0
  In  In2  1  0.50000000  1.00000000  0.00000000  1.0
  In  In3  1  0.50000000  1.00000000  0.50000000  1.0
  In  In4  1  0.00000000  0.00000000  0.50000000  1.0
  In  In5  1  0.00000000  0.00000000  0.00000000  1.0
  F  F6  1  0.07849254  0.28865995  0.45893043  1.0
  F  F7  1  0.07849254  0.28865995  0.04106957  1.0
  F  F8  1  -0.71134005  1.07849254  0.95893043  1.0
  F  F9  1  -0.71134005  1.07849254  0.54106957  1.0
  F  F10  1  0.71134005  0.92150746  0.45893043  1.0
  F  F11  1  0.71134005  0.92150746  0.04106957  1.0
  F  F12  1  -0.07849254  1.71134005  0.95893043  1.0
  F  F13  1  -0.07849254  1.71134005  0.54106957  1.0
  F  F14  1  -0.06650140  1.49231320  0.25000000  1.0
  F  F15  1  0.49231320  0.93349860  0.75000000  1.0
  F  F16  1  -0.49231320  1.06650140  0.25000000  1.0
  F  F17  1  0.06650140  0.50768680  0.75000000  1.0
  F  F18  1  0.28347024  0.71652976  0.45323546  1.0
  F  F19  1  0.28347024  0.71652976  0.04676454  1.0
  F  F20  1  -0.28347024  1.28347024  0.95323546  1.0
  F  F21  1  -0.28347024  1.28347024  0.54676454  1.0
  F  F22  1  0.03671319  0.96328681  0.25000000  1.0
  F  F23  1  -0.03671319  1.03671319  0.75000000  1.0
