# generated using pymatgen
data_BaHgAs2O7
_symmetry_space_group_name_H-M   'P 1'
_cell_length_a   5.95580879
_cell_length_b   7.98510169
_cell_length_c   7.73233459
_cell_angle_alpha   102.09233884
_cell_angle_beta   97.72627964
_cell_angle_gamma   88.01775540
_symmetry_Int_Tables_number   1
_chemical_formula_structural   BaHgAs2O7
_chemical_formula_sum   'Ba2 Hg2 As4 O14'
_cell_volume   356.30066297
_cell_formula_units_Z   2
loop_
 _symmetry_equiv_pos_site_id
 _symmetry_equiv_pos_as_xyz
  1  'x, y, z'
loop_
 _atom_site_type_symbol
 _atom_site_label
 _atom_site_symmetry_multiplicity
 _atom_site_fract_x
 _atom_site_fract_y
 _atom_site_fract_z
 _atom_site_occupancy
  Ba  Ba0  1  -0.70196785  -0.93535170  -0.27173368  1.0
  Ba  Ba1  1  -0.29803215  -0.06464830  -0.72826632  1.0
  Hg  Hg2  1  -0.31008611  -0.59481647  -0.82188945  1.0
  Hg  Hg3  1  -0.68991389  -0.40518353  -0.17811055  1.0
  As  As4  1  -0.81388054  -0.80655018  -0.76675447  1.0
  As  As5  1  -0.18611946  -0.19344982  -0.23324553  1.0
  As  As6  1  -0.78042293  -0.38976256  -0.66655543  1.0
  As  As7  1  -0.21957707  -0.61023744  -0.33344457  1.0
  O  O8  1  -0.95813675  -0.64255553  -0.22179309  1.0
  O  O9  1  -0.04186325  -0.35744447  -0.77820691  1.0
  O  O10  1  -0.78087672  -0.95647434  -0.63636133  1.0
  O  O11  1  -0.21912328  -0.04352566  -0.36363867  1.0
  O  O12  1  -0.78208760  -0.60113891  -0.61212893  1.0
  O  O13  1  -0.21791240  -0.39886109  -0.38787107  1.0
  O  O14  1  -0.56714142  -0.38813088  -0.80415463  1.0
  O  O15  1  -0.43285858  -0.61186912  -0.19584537  1.0
  O  O16  1  -0.60872686  -0.82650190  -0.90665733  1.0
  O  O17  1  -0.39127314  -0.17349810  -0.09334267  1.0
  O  O18  1  -0.28614481  -0.73530066  -0.53995759  1.0
  O  O19  1  -0.71385519  -0.26469934  -0.46004241  1.0
  O  O20  1  -0.08710344  -0.81717912  -0.88345652  1.0
  O  O21  1  -0.91289656  -0.18282088  -0.11654348  1.0
