# generated using pymatgen
data_NaNbO3
_symmetry_space_group_name_H-M   'P 1'
_cell_length_a   7.80854976
_cell_length_b   7.89575408
_cell_length_c   7.88931220
_cell_angle_alpha   90.00000000
_cell_angle_beta   90.00000000
_cell_angle_gamma   90.00000000
_symmetry_Int_Tables_number   1
_chemical_formula_structural   NaNbO3
_chemical_formula_sum   'Na8 Nb8 O24'
_cell_volume   486.41072026
_cell_formula_units_Z   8
loop_
 _symmetry_equiv_pos_site_id
 _symmetry_equiv_pos_as_xyz
  1  'x, y, z'
loop_
 _atom_site_type_symbol
 _atom_site_label
 _atom_site_symmetry_multiplicity
 _atom_site_fract_x
 _atom_site_fract_y
 _atom_site_fract_z
 _atom_site_occupancy
  Na  Na0  1  0.00000000  0.50000000  0.23949635  1.0
  Na  Na1  1  0.50000000  0.00000000  0.76050365  1.0
  Na  Na2  1  0.00000000  0.50000000  0.74467030  1.0
  Na  Na3  1  0.50000000  0.00000000  0.25532970  1.0
  Na  Na4  1  0.00000000  0.00000000  0.25891590  1.0
  Na  Na5  1  0.50000000  0.50000000  0.74108410  1.0
  Na  Na6  1  0.00000000  0.00000000  0.75359102  1.0
  Na  Na7  1  0.50000000  0.50000000  0.24640898  1.0
  Nb  Nb8  1  0.25000000  0.25000000  0.50000000  1.0
  Nb  Nb9  1  0.25000000  0.75000000  0.50000000  1.0
  Nb  Nb10  1  0.75000000  0.75000000  0.50000000  1.0
  Nb  Nb11  1  0.75000000  0.25000000  0.50000000  1.0
  Nb  Nb12  1  0.25000000  0.25000000  0.00000000  1.0
  Nb  Nb13  1  0.25000000  0.75000000  0.00000000  1.0
  Nb  Nb14  1  0.75000000  0.75000000  0.00000000  1.0
  Nb  Nb15  1  0.75000000  0.25000000  0.00000000  1.0
  O  O16  1  0.21028340  0.24697281  0.74999678  1.0
  O  O17  1  0.21028340  0.75302719  0.74999678  1.0
  O  O18  1  0.71028340  0.74697281  0.25000322  1.0
  O  O19  1  0.71028340  0.25302719  0.25000322  1.0
  O  O20  1  0.28971660  0.74697281  0.25000322  1.0
  O  O21  1  0.28971660  0.25302719  0.25000322  1.0
  O  O22  1  0.78971660  0.24697281  0.74999678  1.0
  O  O23  1  0.78971660  0.75302719  0.74999678  1.0
  O  O24  1  0.21248105  0.00000000  0.49125607  1.0
  O  O25  1  0.71248105  0.50000000  0.50874393  1.0
  O  O26  1  0.28751895  0.50000000  0.50874393  1.0
  O  O27  1  0.78751895  0.00000000  0.49125607  1.0
  O  O28  1  0.71206086  0.00000000  -0.00269226  1.0
  O  O29  1  0.21206086  0.50000000  1.00269226  1.0
  O  O30  1  0.78793914  0.50000000  1.00269226  1.0
  O  O31  1  0.28793914  0.00000000  -0.00269226  1.0
  O  O32  1  0.00000000  0.21334491  0.03857961  1.0
  O  O33  1  0.00000000  0.78665509  0.03857961  1.0
  O  O34  1  0.50000000  0.71334491  0.96142039  1.0
  O  O35  1  0.50000000  0.28665509  0.96142039  1.0
  O  O36  1  0.00000000  0.71255953  0.46243310  1.0
  O  O37  1  0.00000000  0.28744047  0.46243310  1.0
  O  O38  1  0.50000000  0.21255953  0.53756690  1.0
  O  O39  1  0.50000000  0.78744047  0.53756690  1.0
