# generated using pymatgen
data_CdSb2Se3Br2
_symmetry_space_group_name_H-M   'P 1'
_cell_length_a   11.15798303
_cell_length_b   11.15798303
_cell_length_c   12.79525544
_cell_angle_alpha   59.03730643
_cell_angle_beta   120.96269357
_cell_angle_gamma   158.90659509
_symmetry_Int_Tables_number   1
_chemical_formula_structural   CdSb2Se3Br2
_chemical_formula_sum   'Cd2 Sb4 Se6 Br4'
_cell_volume   488.53784684
_cell_formula_units_Z   2
loop_
 _symmetry_equiv_pos_site_id
 _symmetry_equiv_pos_as_xyz
  1  'x, y, z'
loop_
 _atom_site_type_symbol
 _atom_site_label
 _atom_site_symmetry_multiplicity
 _atom_site_fract_x
 _atom_site_fract_y
 _atom_site_fract_z
 _atom_site_occupancy
  Cd  Cd0  1  0.65172298  0.34827702  0.95126070  1.0
  Cd  Cd1  1  1.34827702  -0.34827702  0.04873930  1.0
  Sb  Sb2  1  0.95438993  -0.95438993  0.71670738  1.0
  Sb  Sb3  1  0.04561007  -0.04561007  0.28329262  1.0
  Sb  Sb4  1  0.70758911  0.29241089  0.58730669  1.0
  Sb  Sb5  1  1.29241089  -0.29241089  0.41269331  1.0
  Se  Se6  1  0.89563889  -0.89563889  0.47599508  1.0
  Se  Se7  1  0.10436111  -0.10436111  0.52400492  1.0
  Se  Se8  1  0.67762838  0.32237162  0.36154899  1.0
  Se  Se9  1  1.32237162  -0.32237162  0.63845101  1.0
  Se  Se10  1  0.53690077  0.46309923  0.71533690  1.0
  Se  Se11  1  1.46309923  -0.46309923  0.28466310  1.0
  Br  Br12  1  0.89542473  0.10457527  0.96248527  1.0
  Br  Br13  1  1.10457527  -0.10457527  0.03751473  1.0
  Br  Br14  1  0.20998736  -0.20998736  0.85198777  1.0
  Br  Br15  1  0.79001264  -0.79001264  0.14801223  1.0
