# generated using pymatgen
data_NaFeS2
_symmetry_space_group_name_H-M   'P 1'
_cell_length_a   6.98154504
_cell_length_b   6.98154504
_cell_length_c   6.98154504
_cell_angle_alpha   134.61453839
_cell_angle_beta   118.64766762
_cell_angle_gamma   79.52795087
_symmetry_Int_Tables_number   1
_chemical_formula_structural   NaFeS2
_chemical_formula_sum   'Na2 Fe2 S4'
_cell_volume   205.94022822
_cell_formula_units_Z   2
loop_
 _symmetry_equiv_pos_site_id
 _symmetry_equiv_pos_as_xyz
  1  'x, y, z'
loop_
 _atom_site_type_symbol
 _atom_site_label
 _atom_site_symmetry_multiplicity
 _atom_site_fract_x
 _atom_site_fract_y
 _atom_site_fract_z
 _atom_site_occupancy
  Na  Na0  1  0.30556722  0.30556722  0.00000000  1.0
  Na  Na1  1  0.69443278  0.69443278  1.00000000  1.0
  Fe  Fe2  1  0.00000000  0.50000000  0.50000000  1.0
  Fe  Fe3  1  0.00000000  0.00000000  0.00000000  1.0
  S  S4  1  0.91717119  0.85074534  1.56235165  1.0
  S  S5  1  1.08282881  0.64518046  0.93357415  1.0
  S  S6  1  0.71160631  1.14925466  1.06642585  1.0
  S  S7  1  0.28839369  0.35481954  0.43764835  1.0
