# generated using pymatgen
data_CoCu2SnS4
_symmetry_space_group_name_H-M   'P 1'
_cell_length_a   6.58978323
_cell_length_b   6.58978323
_cell_length_c   6.58978323
_cell_angle_alpha   131.33158540
_cell_angle_beta   131.33158540
_cell_angle_gamma   71.28678613
_symmetry_Int_Tables_number   1
_chemical_formula_structural   CoCu2SnS4
_chemical_formula_sum   'Co1 Cu2 Sn1 S4'
_cell_volume   157.94273834
_cell_formula_units_Z   1
loop_
 _symmetry_equiv_pos_site_id
 _symmetry_equiv_pos_as_xyz
  1  'x, y, z'
loop_
 _atom_site_type_symbol
 _atom_site_label
 _atom_site_symmetry_multiplicity
 _atom_site_fract_x
 _atom_site_fract_y
 _atom_site_fract_z
 _atom_site_occupancy
  Co  Co0  1  0.00000000  0.00000000  0.00000000  1.0
  Cu  Cu1  1  0.25000000  0.75000000  0.50000000  1.0
  Cu  Cu2  1  0.75000000  0.25000000  0.50000000  1.0
  Sn  Sn3  1  0.50000000  0.50000000  1.00000000  1.0
  S  S4  1  0.36101500  0.90188177  1.00000000  1.0
  S  S5  1  1.09811823  1.09811823  1.45913323  1.0
  S  S6  1  0.63898500  0.63898500  0.54086677  1.0
  S  S7  1  0.90188177  0.36101500  1.00000000  1.0
