# generated using pymatgen
data_MgZn2
_symmetry_space_group_name_H-M   'P 1'
_cell_length_a   5.20974599
_cell_length_b   5.20974599
_cell_length_c   8.50981333
_cell_angle_alpha   90.00000000
_cell_angle_beta   90.00000000
_cell_angle_gamma   120.00000000
_symmetry_Int_Tables_number   1
_chemical_formula_structural   MgZn2
_chemical_formula_sum   'Mg4 Zn8'
_cell_volume   200.02476265
_cell_formula_units_Z   4
loop_
 _symmetry_equiv_pos_site_id
 _symmetry_equiv_pos_as_xyz
  1  'x, y, z'
loop_
 _atom_site_type_symbol
 _atom_site_label
 _atom_site_symmetry_multiplicity
 _atom_site_fract_x
 _atom_site_fract_y
 _atom_site_fract_z
 _atom_site_occupancy
  Mg  Mg0  1  0.33333333  0.66666667  0.93722551  1.0
  Mg  Mg1  1  0.33333333  0.66666667  0.56277449  1.0
  Mg  Mg2  1  0.66666667  0.33333333  0.43722551  1.0
  Mg  Mg3  1  0.66666667  0.33333333  0.06277449  1.0
  Zn  Zn4  1  0.16987284  0.83012716  0.25000000  1.0
  Zn  Zn5  1  0.16987284  0.33974568  0.25000000  1.0
  Zn  Zn6  1  0.83012716  0.16987284  0.75000000  1.0
  Zn  Zn7  1  0.83012716  0.66025432  0.75000000  1.0
  Zn  Zn8  1  0.66025432  0.83012716  0.25000000  1.0
  Zn  Zn9  1  0.33974568  0.16987284  0.75000000  1.0
  Zn  Zn10  1  0.00000000  0.00000000  0.50000000  1.0
  Zn  Zn11  1  0.00000000  0.00000000  0.00000000  1.0
