# generated using pymatgen
data_Cs3LiI4
_symmetry_space_group_name_H-M   'P 1'
_cell_length_a   5.18968464
_cell_length_b   9.33827283
_cell_length_c   17.52058929
_cell_angle_alpha   90.00000000
_cell_angle_beta   98.46222245
_cell_angle_gamma   90.00000000
_symmetry_Int_Tables_number   1
_chemical_formula_structural   Cs3LiI4
_chemical_formula_sum   'Cs6 Li2 I8'
_cell_volume   839.85090026
_cell_formula_units_Z   2
loop_
 _symmetry_equiv_pos_site_id
 _symmetry_equiv_pos_as_xyz
  1  'x, y, z'
loop_
 _atom_site_type_symbol
 _atom_site_label
 _atom_site_symmetry_multiplicity
 _atom_site_fract_x
 _atom_site_fract_y
 _atom_site_fract_z
 _atom_site_occupancy
  Cs  Cs0  1  0.27392075  0.75000000  0.54268928  1.0
  Cs  Cs1  1  0.72607925  0.25000000  0.45731072  1.0
  Cs  Cs2  1  0.62857302  0.75000000  0.26061461  1.0
  Cs  Cs3  1  0.37142698  0.25000000  0.73938539  1.0
  Cs  Cs4  1  0.50000000  0.50000000  -0.00000000  1.0
  Cs  Cs5  1  0.50000000  0.00000000  -0.00000000  1.0
  Li  Li6  1  0.87191923  0.75000000  0.73895324  1.0
  Li  Li7  1  0.12808077  0.25000000  0.26104676  1.0
  I  I8  1  0.17845861  0.49359230  0.36174432  1.0
  I  I9  1  0.82154139  -0.00640770  0.63825568  1.0
  I  I10  1  0.82154139  0.50640770  0.63825568  1.0
  I  I11  1  0.17845861  1.00640770  0.36174432  1.0
  I  I12  1  0.40827041  0.75000000  0.81235386  1.0
  I  I13  1  0.59172959  0.25000000  0.18764614  1.0
  I  I14  1  0.04591644  0.75000000  0.09291356  1.0
  I  I15  1  0.95408356  0.25000000  0.90708644  1.0
