# generated using pymatgen
data_BaCoBP2HO9
_symmetry_space_group_name_H-M   'P 1'
_cell_length_a   8.36625601
_cell_length_b   8.07375918
_cell_length_c   5.37979198
_cell_angle_alpha   87.04856814
_cell_angle_beta   79.35934541
_cell_angle_gamma   88.36728762
_symmetry_Int_Tables_number   1
_chemical_formula_structural   BaCoBP2HO9
_chemical_formula_sum   'Ba2 Co2 B2 P4 H2 O18'
_cell_volume   356.60044401
_cell_formula_units_Z   2
loop_
 _symmetry_equiv_pos_site_id
 _symmetry_equiv_pos_as_xyz
  1  'x, y, z'
loop_
 _atom_site_type_symbol
 _atom_site_label
 _atom_site_symmetry_multiplicity
 _atom_site_fract_x
 _atom_site_fract_y
 _atom_site_fract_z
 _atom_site_occupancy
  Ba  Ba0  1  -0.88619705  -0.68868301  -0.27780637  1.0
  Ba  Ba1  1  -0.11380295  -0.31131699  -0.72219363  1.0
  Co  Co2  1  -0.19712064  -0.80006521  -0.72704600  1.0
  Co  Co3  1  -0.80287936  -0.19993479  -0.27295400  1.0
  B  B4  1  -0.54668319  -0.74588597  -0.88828355  1.0
  B  B5  1  -0.45331681  -0.25411403  -0.11171645  1.0
  P  P6  1  -0.69694244  -0.43258450  -0.80012229  1.0
  P  P7  1  -0.30305756  -0.56741550  -0.19987771  1.0
  P  P8  1  -0.81920648  -0.94069473  -0.77546232  1.0
  P  P9  1  -0.18079352  -0.05930527  -0.22453768  1.0
  H  H10  1  -0.44219733  -0.95116583  -0.75742549  1.0
  H  H11  1  -0.55780267  -0.04883417  -0.24257451  1.0
  O  O12  1  -0.20765190  -0.56964502  -0.97998507  1.0
  O  O13  1  -0.79234810  -0.43035498  -0.02001493  1.0
  O  O14  1  -0.66026142  -0.86522401  -0.95960723  1.0
  O  O15  1  -0.33973858  -0.13477599  -0.04039277  1.0
  O  O16  1  -0.86487209  -0.08859583  -0.91163264  1.0
  O  O17  1  -0.13512791  -0.91140417  -0.08836736  1.0
  O  O18  1  -0.54035578  -0.32506023  -0.86650585  1.0
  O  O19  1  -0.45964422  -0.67493977  -0.13349415  1.0
  O  O20  1  -0.94597306  -0.79312562  -0.75831460  1.0
  O  O21  1  -0.05402694  -0.20687438  -0.24168540  1.0
  O  O22  1  -0.63766494  -0.61526144  -0.73069384  1.0
  O  O23  1  -0.36233506  -0.38473856  -0.26930616  1.0
  O  O24  1  -0.43949770  -0.83206518  -0.73525690  1.0
  O  O25  1  -0.56050230  -0.16793482  -0.26474310  1.0
  O  O26  1  -0.80612934  -0.38056864  -0.55254208  1.0
  O  O27  1  -0.19387066  -0.61943136  -0.44745792  1.0
  O  O28  1  -0.78253199  -0.98316436  -0.50819349  1.0
  O  O29  1  -0.21746801  -0.01683564  -0.49180651  1.0
