# generated using pymatgen
data_SbS2NCl6
_symmetry_space_group_name_H-M   'P 1'
_cell_length_a   7.44058113
_cell_length_b   7.44058113
_cell_length_c   7.44058113
_cell_angle_alpha   121.47724850
_cell_angle_beta   113.27767497
_cell_angle_gamma   94.74104482
_symmetry_Int_Tables_number   1
_chemical_formula_structural   SbS2NCl6
_chemical_formula_sum   'Sb1 S2 N1 Cl6'
_cell_volume   299.95364028
_cell_formula_units_Z   1
loop_
 _symmetry_equiv_pos_site_id
 _symmetry_equiv_pos_as_xyz
  1  'x, y, z'
loop_
 _atom_site_type_symbol
 _atom_site_label
 _atom_site_symmetry_multiplicity
 _atom_site_fract_x
 _atom_site_fract_y
 _atom_site_fract_z
 _atom_site_occupancy
  Sb  Sb0  1  0.00000000  0.00000000  0.00000000  1.0
  S  S1  1  0.31611863  0.50000000  0.81611863  1.0
  S  S2  1  0.68388137  0.50000000  1.18388137  1.0
  N  N3  1  0.50000000  0.50000000  1.00000000  1.0
  Cl  Cl4  1  0.83134132  0.59350639  0.76216507  1.0
  Cl  Cl5  1  1.16865868  0.93082374  0.76216507  1.0
  Cl  Cl6  1  0.83134132  1.06917626  1.23783493  1.0
  Cl  Cl7  1  1.16865868  1.40649361  1.23783493  1.0
  Cl  Cl8  1  0.70541990  -0.00000000  0.70541990  1.0
  Cl  Cl9  1  0.29458010  0.00000000  0.29458010  1.0
