# generated using pymatgen
data_K3SO4F
_symmetry_space_group_name_H-M   'P 1'
_cell_length_a   7.60381765
_cell_length_b   7.60381765
_cell_length_c   7.60381765
_cell_angle_alpha   121.88637284
_cell_angle_beta   121.88637284
_cell_angle_gamma   86.76262443
_symmetry_Int_Tables_number   1
_chemical_formula_structural   K3SO4F
_chemical_formula_sum   'K6 S2 O8 F2'
_cell_volume   301.48358190
_cell_formula_units_Z   2
loop_
 _symmetry_equiv_pos_site_id
 _symmetry_equiv_pos_as_xyz
  1  'x, y, z'
loop_
 _atom_site_type_symbol
 _atom_site_label
 _atom_site_symmetry_multiplicity
 _atom_site_fract_x
 _atom_site_fract_y
 _atom_site_fract_z
 _atom_site_occupancy
  K  K0  1  0.30833476  0.80833476  1.11666951  1.0
  K  K1  1  0.19166524  0.30833476  0.50000000  1.0
  K  K2  1  0.80833476  0.69166524  1.50000000  1.0
  K  K3  1  0.69166524  0.19166524  0.88333049  1.0
  K  K4  1  0.75000000  0.75000000  1.00000000  1.0
  K  K5  1  0.25000000  0.25000000  -0.00000000  1.0
  S  S6  1  0.25000000  0.75000000  0.50000000  1.0
  S  S7  1  0.75000000  0.25000000  0.50000000  1.0
  O  O8  1  0.71253947  1.21253947  1.26662003  1.0
  O  O9  1  1.05408056  0.55408056  1.26662003  1.0
  O  O10  1  0.44591944  0.71253947  0.50000000  1.0
  O  O11  1  0.78746053  1.05408056  1.50000000  1.0
  O  O12  1  1.21253947  0.94591944  1.50000000  1.0
  O  O13  1  0.55408056  0.28746053  0.50000000  1.0
  O  O14  1  0.94591944  0.44591944  0.73337997  1.0
  O  O15  1  0.28746053  0.78746053  0.73337997  1.0
  F  F16  1  0.00000000  0.00000000  0.00000000  1.0
  F  F17  1  0.50000000  0.50000000  1.00000000  1.0
