# generated using pymatgen
data_CsAuCl4
_symmetry_space_group_name_H-M   'P 1'
_cell_length_a   7.26635228
_cell_length_b   7.26635228
_cell_length_c   10.50476381
_cell_angle_alpha   78.33759634
_cell_angle_beta   101.66240366
_cell_angle_gamma   128.22085297
_symmetry_Int_Tables_number   1
_chemical_formula_structural   CsAuCl4
_chemical_formula_sum   'Cs2 Au2 Cl8'
_cell_volume   424.60823260
_cell_formula_units_Z   2
loop_
 _symmetry_equiv_pos_site_id
 _symmetry_equiv_pos_as_xyz
  1  'x, y, z'
loop_
 _atom_site_type_symbol
 _atom_site_label
 _atom_site_symmetry_multiplicity
 _atom_site_fract_x
 _atom_site_fract_y
 _atom_site_fract_z
 _atom_site_occupancy
  Cs  Cs0  1  0.73161620  0.73161620  0.75000000  1.0
  Cs  Cs1  1  0.26838380  0.26838380  0.25000000  1.0
  Au  Au2  1  0.50000000  0.00000000  0.00000000  1.0
  Au  Au3  1  1.00000000  0.50000000  0.50000000  1.0
  Cl  Cl4  1  0.71298099  0.24866657  0.64234826  1.0
  Cl  Cl5  1  0.75133343  0.28701901  0.14234826  1.0
  Cl  Cl6  1  1.24866657  0.71298099  0.85765174  1.0
  Cl  Cl7  1  0.28701901  -0.24866657  0.35765174  1.0
  Cl  Cl8  1  0.30219387  0.16339820  0.93079085  1.0
  Cl  Cl9  1  0.83660180  0.69780613  0.43079085  1.0
  Cl  Cl10  1  1.16339820  0.30219387  0.56920915  1.0
  Cl  Cl11  1  0.69780613  -0.16339820  0.06920915  1.0
