# generated using pymatgen
data_Ca(ClO2)2
_symmetry_space_group_name_H-M   'P 1'
_cell_length_a   7.57674241
_cell_length_b   7.57674241
_cell_length_c   5.79913256
_cell_angle_alpha   90.00000000
_cell_angle_beta   90.00000000
_cell_angle_gamma   134.87743710
_symmetry_Int_Tables_number   1
_chemical_formula_structural   Ca(ClO2)2
_chemical_formula_sum   'Ca2 Cl4 O8'
_cell_volume   235.90661008
_cell_formula_units_Z   2
loop_
 _symmetry_equiv_pos_site_id
 _symmetry_equiv_pos_as_xyz
  1  'x, y, z'
loop_
 _atom_site_type_symbol
 _atom_site_label
 _atom_site_symmetry_multiplicity
 _atom_site_fract_x
 _atom_site_fract_y
 _atom_site_fract_z
 _atom_site_occupancy
  Ca  Ca0  1  -0.00000000  1.00000000  0.50000000  1.0
  Ca  Ca1  1  -0.50000000  0.50000000  0.00000000  1.0
  Cl  Cl2  1  -0.34792352  0.34792352  0.50000000  1.0
  Cl  Cl3  1  0.15207648  0.84792352  0.00000000  1.0
  Cl  Cl4  1  -0.15207648  1.15207648  0.00000000  1.0
  Cl  Cl5  1  -0.65207648  0.65207648  0.50000000  1.0
  O  O6  1  0.42805956  1.25153052  0.66011699  1.0
  O  O7  1  0.24846948  1.07194044  0.16011699  1.0
  O  O8  1  -0.24846948  0.92805956  0.16011699  1.0
  O  O9  1  -0.42805956  0.74846948  0.66011699  1.0
  O  O10  1  0.07194044  1.24846948  0.83988301  1.0
  O  O11  1  0.25153052  1.42805956  0.33988301  1.0
  O  O12  1  -0.25153052  0.57194044  0.33988301  1.0
  O  O13  1  -0.07194044  0.75153052  0.83988301  1.0
