# generated using pymatgen
data_Y(GaFe)6
_symmetry_space_group_name_H-M   'P 1'
_cell_length_a   6.56876207
_cell_length_b   6.56876207
_cell_length_c   6.56876207
_cell_angle_alpha   134.97316453
_cell_angle_beta   99.28506354
_cell_angle_gamma   97.57812422
_symmetry_Int_Tables_number   1
_chemical_formula_structural   Y(GaFe)6
_chemical_formula_sum   'Y1 Ga6 Fe6'
_cell_volume   185.20272550
_cell_formula_units_Z   1
loop_
 _symmetry_equiv_pos_site_id
 _symmetry_equiv_pos_as_xyz
  1  'x, y, z'
loop_
 _atom_site_type_symbol
 _atom_site_label
 _atom_site_symmetry_multiplicity
 _atom_site_fract_x
 _atom_site_fract_y
 _atom_site_fract_z
 _atom_site_occupancy
  Y  Y0  1  0.00000000  0.00000000  0.00000000  1.0
  Ga  Ga1  1  0.81586080  0.31586080  0.50000000  1.0
  Ga  Ga2  1  1.18413920  0.68413920  0.50000000  1.0
  Ga  Ga3  1  0.65555967  0.65555967  1.00000000  1.0
  Ga  Ga4  1  1.34444033  1.34444033  1.00000000  1.0
  Ga  Ga5  1  0.66682739  -0.00000000  0.66682739  1.0
  Ga  Ga6  1  0.33317261  0.00000000  0.33317261  1.0
  Fe  Fe7  1  1.50000000  1.50000000  1.50000000  1.0
  Fe  Fe8  1  1.00000000  1.00000000  1.50000000  1.0
  Fe  Fe9  1  1.00000000  0.50000000  1.00000000  1.0
  Fe  Fe10  1  1.50000000  1.00000000  1.00000000  1.0
  Fe  Fe11  1  0.24322824  0.50000000  0.74322824  1.0
  Fe  Fe12  1  0.75677176  0.50000000  1.25677176  1.0
