# generated using pymatgen
data_NaGeSbO5
_symmetry_space_group_name_H-M   'P 1'
_cell_length_a   5.67888217
_cell_length_b   5.67888217
_cell_length_c   7.36061422
_cell_angle_alpha   75.09121964
_cell_angle_beta   104.90878036
_cell_angle_gamma   74.52114628
_symmetry_Int_Tables_number   1
_chemical_formula_structural   NaGeSbO5
_chemical_formula_sum   'Na2 Ge2 Sb2 O10'
_cell_volume   207.08458653
_cell_formula_units_Z   2
loop_
 _symmetry_equiv_pos_site_id
 _symmetry_equiv_pos_as_xyz
  1  'x, y, z'
loop_
 _atom_site_type_symbol
 _atom_site_label
 _atom_site_symmetry_multiplicity
 _atom_site_fract_x
 _atom_site_fract_y
 _atom_site_fract_z
 _atom_site_occupancy
  Na  Na0  1  0.66633221  -0.33366779  0.25000000  1.0
  Na  Na1  1  1.33366779  0.33366779  0.75000000  1.0
  Ge  Ge2  1  1.31342854  0.31342854  0.25000000  1.0
  Ge  Ge3  1  0.68657146  -0.31342854  0.75000000  1.0
  Sb  Sb4  1  0.00000000  -0.00000000  0.50000000  1.0
  Sb  Sb5  1  0.00000000  -0.00000000  0.00000000  1.0
  O  O6  1  1.62874117  0.24600301  0.42043778  1.0
  O  O7  1  0.75399699  -0.62874117  0.92043778  1.0
  O  O8  1  1.24600301  0.62874117  0.07956222  1.0
  O  O9  1  0.37125883  -0.24600301  0.57956222  1.0
  O  O10  1  1.31230765  0.09372135  0.11576225  1.0
  O  O11  1  0.90627865  -0.31230765  0.61576225  1.0
  O  O12  1  1.09372135  0.31230765  0.38423775  1.0
  O  O13  1  0.68769235  -0.09372135  0.88423775  1.0
  O  O14  1  0.92005026  -0.07994974  0.25000000  1.0
  O  O15  1  1.07994974  0.07994974  0.75000000  1.0
