# generated using pymatgen
data_Sn2Bi2O7
_symmetry_space_group_name_H-M   'P 1'
_cell_length_a   7.66346078
_cell_length_b   7.66346078
_cell_length_c   13.28176191
_cell_angle_alpha   73.07937017
_cell_angle_beta   106.92062983
_cell_angle_gamma   120.10138488
_symmetry_Int_Tables_number   1
_chemical_formula_structural   Sn2Bi2O7
_chemical_formula_sum   'Sn8 Bi8 O28'
_cell_volume   635.61666136
_cell_formula_units_Z   4
loop_
 _symmetry_equiv_pos_site_id
 _symmetry_equiv_pos_as_xyz
  1  'x, y, z'
loop_
 _atom_site_type_symbol
 _atom_site_label
 _atom_site_symmetry_multiplicity
 _atom_site_fract_x
 _atom_site_fract_y
 _atom_site_fract_z
 _atom_site_occupancy
  Sn  Sn0  1  1.74700401  0.24426173  0.25139166  1.0
  Sn  Sn1  1  0.75573827  -0.74700401  0.75139166  1.0
  Sn  Sn2  1  1.24695093  -0.24649121  0.74124159  1.0
  Sn  Sn3  1  1.24649121  -0.24695093  0.24124159  1.0
  Sn  Sn4  1  0.74669899  -0.25279455  0.24781016  1.0
  Sn  Sn5  1  1.25279455  -0.74669899  0.74781016  1.0
  Sn  Sn6  1  1.49837520  0.00266201  0.99502724  1.0
  Sn  Sn7  1  0.99733799  -0.49837520  0.49502724  1.0
  Bi  Bi8  1  0.54251064  -0.51164390  0.51333857  1.0
  Bi  Bi9  1  1.51164390  0.45748936  0.01333857  1.0
  Bi  Bi10  1  0.96427726  -0.01164419  0.01149806  1.0
  Bi  Bi11  1  1.01164419  -0.96427726  0.51149806  1.0
  Bi  Bi12  1  1.45868185  -0.03601114  0.47813973  1.0
  Bi  Bi13  1  1.03601114  -0.45868185  0.97813973  1.0
  Bi  Bi14  1  1.22668784  0.28036536  0.24821584  1.0
  Bi  Bi15  1  1.71963464  -0.22668784  0.74821584  1.0
  O  O16  1  0.87177349  0.04176186  0.28170374  1.0
  O  O17  1  0.95823814  -0.87177349  0.78170374  1.0
  O  O18  1  1.37344359  -0.44874843  0.77545455  1.0
  O  O19  1  0.44874843  -0.37344359  0.27545455  1.0
  O  O20  1  0.76676849  -0.64238659  0.58754234  1.0
  O  O21  1  1.64238659  0.23323151  0.08754234  1.0
  O  O22  1  1.25230665  -0.17262838  0.07790648  1.0
  O  O23  1  1.17262838  -0.25230665  0.57790648  1.0
  O  O24  1  1.46488567  0.02703701  0.29310160  1.0
  O  O25  1  0.97296299  -0.46488567  0.79310160  1.0
  O  O26  1  1.15290750  -0.67124049  0.58183429  1.0
  O  O27  1  0.67124049  -0.15290750  0.08183429  1.0
  O  O28  1  0.84076819  -0.74684892  0.41457411  1.0
  O  O29  1  1.74684892  0.15923181  0.91457411  1.0
  O  O30  1  1.32078246  -0.23172026  0.90546014  1.0
  O  O31  1  1.23172026  -0.32078246  0.40546014  1.0
  O  O32  1  0.53794726  0.36354439  0.70318962  1.0
  O  O33  1  0.63645561  -0.53794726  0.20318962  1.0
  O  O34  1  1.02907190  -0.13921582  0.19879949  1.0
  O  O35  1  0.13921582  -0.02907190  0.69879949  1.0
  O  O36  1  1.54748355  -0.04069969  0.71603932  1.0
  O  O37  1  1.04069969  -0.54748355  0.21603932  1.0
  O  O38  1  0.81330692  -0.35724817  0.40972509  1.0
  O  O39  1  0.35724817  0.18669308  0.90972509  1.0
  O  O40  1  1.31093533  0.19541603  0.44187026  1.0
  O  O41  1  0.80458397  0.68906467  0.94187026  1.0
  O  O42  1  1.67782024  -0.18265870  0.56499612  1.0
  O  O43  1  1.18265870  0.32217976  0.06499612  1.0
