# generated using pymatgen
data_Sr(BIr)2
_symmetry_space_group_name_H-M   'P 1'
_cell_length_a   7.15005340
_cell_length_b   6.17499431
_cell_length_c   5.62152788
_cell_angle_alpha   74.45235362
_cell_angle_beta   56.30753732
_cell_angle_gamma   49.24010906
_symmetry_Int_Tables_number   1
_chemical_formula_structural   Sr(BIr)2
_chemical_formula_sum   'Sr2 B4 Ir4'
_cell_volume   154.66522214
_cell_formula_units_Z   2
loop_
 _symmetry_equiv_pos_site_id
 _symmetry_equiv_pos_as_xyz
  1  'x, y, z'
loop_
 _atom_site_type_symbol
 _atom_site_label
 _atom_site_symmetry_multiplicity
 _atom_site_fract_x
 _atom_site_fract_y
 _atom_site_fract_z
 _atom_site_occupancy
  Sr  Sr0  1  0.50000000  -0.50000000  0.50000000  1.0
  Sr  Sr1  1  0.75000000  0.75000000  0.75000000  1.0
  B  B2  1  0.82563801  -0.82563801  0.82563801  1.0
  B  B3  1  1.42436199  0.07563801  0.42436199  1.0
  B  B4  1  0.17436199  -0.17436199  0.17436199  1.0
  B  B5  1  1.07563801  0.42436199  0.07563801  1.0
  Ir  Ir6  1  0.86896282  0.86896282  -0.86896282  1.0
  Ir  Ir7  1  0.13103718  0.13103718  -0.13103718  1.0
  Ir  Ir8  1  1.38103718  0.38103718  0.11896282  1.0
  Ir  Ir9  1  0.11896282  0.11896282  1.38103718  1.0
