# generated using pymatgen
data_Na2VOF4
_symmetry_space_group_name_H-M   'P 1'
_cell_length_a   8.32442506
_cell_length_b   8.32442506
_cell_length_c   6.82885175
_cell_angle_alpha   77.03040427
_cell_angle_beta   102.96959573
_cell_angle_gamma   102.14092086
_symmetry_Int_Tables_number   1
_chemical_formula_structural   Na2VOF4
_chemical_formula_sum   'Na8 V4 O4 F16'
_cell_volume   442.95649352
_cell_formula_units_Z   4
loop_
 _symmetry_equiv_pos_site_id
 _symmetry_equiv_pos_as_xyz
  1  'x, y, z'
loop_
 _atom_site_type_symbol
 _atom_site_label
 _atom_site_symmetry_multiplicity
 _atom_site_fract_x
 _atom_site_fract_y
 _atom_site_fract_z
 _atom_site_occupancy
  Na  Na0  1  0.76248643  -0.56904969  0.53474229  1.0
  Na  Na1  1  0.43095031  -0.23751357  0.96525771  1.0
  Na  Na2  1  1.23751357  0.56904969  0.46525771  1.0
  Na  Na3  1  1.56904969  0.23751357  0.03474229  1.0
  Na  Na4  1  0.99942856  -0.79233903  0.37429972  1.0
  Na  Na5  1  0.20766097  -0.00057144  0.12570028  1.0
  Na  Na6  1  1.00057144  0.79233903  0.62570028  1.0
  Na  Na7  1  1.79233903  0.00057144  0.87429972  1.0
  V  V8  1  1.39627635  0.13011503  0.58110269  1.0
  V  V9  1  1.13011503  0.39627635  0.91889731  1.0
  V  V10  1  0.60372365  -0.13011503  0.41889731  1.0
  V  V11  1  0.86988497  -0.39627635  0.08110269  1.0
  O  O12  1  1.34031004  0.31137476  0.51692097  1.0
  O  O13  1  1.31137476  0.34031004  0.98307903  1.0
  O  O14  1  0.65968996  -0.31137476  0.48307903  1.0
  O  O15  1  0.68862524  -0.34031004  0.01692097  1.0
  F  F16  1  1.34291767  0.03221571  0.84586444  1.0
  F  F17  1  1.03221571  0.34291767  0.65413556  1.0
  F  F18  1  0.65708233  -0.03221571  0.15413556  1.0
  F  F19  1  0.96778429  -0.34291767  0.34586444  1.0
  F  F20  1  1.62258546  0.20322594  0.72530758  1.0
  F  F21  1  1.20322594  0.62258546  0.77469242  1.0
  F  F22  1  0.37741454  -0.20322594  0.27469242  1.0
  F  F23  1  0.79677406  -0.62258546  0.22530758  1.0
  F  F24  1  1.18587358  0.00191777  0.46258298  1.0
  F  F25  1  1.00191777  0.18587358  0.03741702  1.0
  F  F26  1  0.81412642  -0.00191777  0.53741702  1.0
  F  F27  1  0.99808223  -0.18587358  0.96258298  1.0
  F  F28  1  0.51262864  -0.11581992  0.65398091  1.0
  F  F29  1  0.88418008  -0.48737136  0.84601909  1.0
  F  F30  1  1.48737136  0.11581992  0.34601909  1.0
  F  F31  1  1.11581992  0.48737136  0.15398091  1.0
