# generated using pymatgen
data_Hf3(NbGe2)2
_symmetry_space_group_name_H-M   'P 1'
_cell_length_a   6.90319895
_cell_length_b   13.30888337
_cell_length_c   7.01971496
_cell_angle_alpha   90.00000000
_cell_angle_beta   90.00000000
_cell_angle_gamma   90.00000000
_symmetry_Int_Tables_number   1
_chemical_formula_structural   Hf3(NbGe2)2
_chemical_formula_sum   'Hf12 Nb8 Ge16'
_cell_volume   644.92837791
_cell_formula_units_Z   4
loop_
 _symmetry_equiv_pos_site_id
 _symmetry_equiv_pos_as_xyz
  1  'x, y, z'
loop_
 _atom_site_type_symbol
 _atom_site_label
 _atom_site_symmetry_multiplicity
 _atom_site_fract_x
 _atom_site_fract_y
 _atom_site_fract_z
 _atom_site_occupancy
  Hf  Hf0  1  0.82999403  0.75000000  0.49374571  1.0
  Hf  Hf1  1  0.32999403  0.75000000  0.00625429  1.0
  Hf  Hf2  1  0.17000597  0.25000000  0.50625429  1.0
  Hf  Hf3  1  0.67000597  0.25000000  0.99374571  1.0
  Hf  Hf4  1  0.51265965  0.09265661  0.32638409  1.0
  Hf  Hf5  1  0.01265965  0.40734339  0.17361591  1.0
  Hf  Hf6  1  0.48734035  0.59265661  0.67361591  1.0
  Hf  Hf7  1  0.98734035  0.90734339  0.82638409  1.0
  Hf  Hf8  1  0.48734035  0.90734339  0.67361591  1.0
  Hf  Hf9  1  0.98734035  0.59265661  0.82638409  1.0
  Hf  Hf10  1  0.51265965  0.40734339  0.32638409  1.0
  Hf  Hf11  1  0.01265965  0.09265661  0.17361591  1.0
  Nb  Nb12  1  0.65763985  0.62299635  0.17111972  1.0
  Nb  Nb13  1  0.15763985  0.87700365  0.32888028  1.0
  Nb  Nb14  1  0.34236015  0.12299635  0.82888028  1.0
  Nb  Nb15  1  0.84236015  0.37700365  0.67111972  1.0
  Nb  Nb16  1  0.34236015  0.37700365  0.82888028  1.0
  Nb  Nb17  1  0.84236015  0.12299635  0.67111972  1.0
  Nb  Nb18  1  0.65763985  0.87700365  0.17111972  1.0
  Nb  Nb19  1  0.15763985  0.62299635  0.32888028  1.0
  Ge  Ge20  1  0.69168947  0.75000000  0.85534858  1.0
  Ge  Ge21  1  0.19168947  0.75000000  0.64465142  1.0
  Ge  Ge22  1  0.30831053  0.25000000  0.14465142  1.0
  Ge  Ge23  1  0.80831053  0.25000000  0.35534858  1.0
  Ge  Ge24  1  0.95455630  0.75000000  0.11531165  1.0
  Ge  Ge25  1  0.45455630  0.75000000  0.38468835  1.0
  Ge  Ge26  1  0.04544370  0.25000000  0.88468835  1.0
  Ge  Ge27  1  0.54544370  0.25000000  0.61531165  1.0
  Ge  Ge28  1  0.68331390  0.03829993  0.96409398  1.0
  Ge  Ge29  1  0.18331390  0.46170007  0.53590602  1.0
  Ge  Ge30  1  0.31668610  0.53829993  0.03590602  1.0
  Ge  Ge31  1  0.81668610  0.96170007  0.46409398  1.0
  Ge  Ge32  1  0.31668610  0.96170007  0.03590602  1.0
  Ge  Ge33  1  0.81668610  0.53829993  0.46409398  1.0
  Ge  Ge34  1  0.68331390  0.46170007  0.96409398  1.0
  Ge  Ge35  1  0.18331390  0.03829993  0.53590602  1.0
