# generated using pymatgen
data_Nb12Cr5C
_symmetry_space_group_name_H-M   'P 1'
_cell_length_a   9.91430333
_cell_length_b   9.91430333
_cell_length_c   9.91430333
_cell_angle_alpha   60.00000000
_cell_angle_beta   60.00000000
_cell_angle_gamma   60.00000000
_symmetry_Int_Tables_number   1
_chemical_formula_structural   Nb12Cr5C
_chemical_formula_sum   'Nb24 Cr10 C2'
_cell_volume   689.08311586
_cell_formula_units_Z   2
loop_
 _symmetry_equiv_pos_site_id
 _symmetry_equiv_pos_as_xyz
  1  'x, y, z'
loop_
 _atom_site_type_symbol
 _atom_site_label
 _atom_site_symmetry_multiplicity
 _atom_site_fract_x
 _atom_site_fract_y
 _atom_site_fract_z
 _atom_site_occupancy
  Nb  Nb0  1  0.95721795  -0.61283185  0.69839594  1.0
  Nb  Nb1  1  -0.04278205  0.69839594  0.38716815  1.0
  Nb  Nb2  1  -0.13716815  0.29278205  0.29278205  1.0
  Nb  Nb3  1  0.55160406  0.29278205  0.29278205  1.0
  Nb  Nb4  1  -0.61283185  0.95721795  0.69839594  1.0
  Nb  Nb5  1  0.95721795  -0.04278205  0.69839594  1.0
  Nb  Nb6  1  0.95721795  -0.30160406  0.95721795  1.0
  Nb  Nb7  1  -0.61283185  0.69839594  0.95721795  1.0
  Nb  Nb8  1  0.29278205  -0.13716815  0.29278205  1.0
  Nb  Nb9  1  0.29278205  0.29278205  -0.13716815  1.0
  Nb  Nb10  1  0.55160406  0.29278205  -0.13716815  1.0
  Nb  Nb11  1  0.55160406  -0.13716815  0.29278205  1.0
  Nb  Nb12  1  0.69839594  -0.04278205  0.95721795  1.0
  Nb  Nb13  1  -0.61283185  0.95721795  0.95721795  1.0
  Nb  Nb14  1  0.29278205  0.55160406  -0.13716815  1.0
  Nb  Nb15  1  0.29278205  -0.13716815  0.55160406  1.0
  Nb  Nb16  1  -0.30160406  0.95721795  0.38716815  1.0
  Nb  Nb17  1  0.69839594  -0.61283185  0.95721795  1.0
  Nb  Nb18  1  0.95721795  -0.61283185  0.95721795  1.0
  Nb  Nb19  1  -0.04278205  0.95721795  0.38716815  1.0
  Nb  Nb20  1  0.29278205  0.55160406  0.29278205  1.0
  Nb  Nb21  1  -0.13716815  0.55160406  0.29278205  1.0
  Nb  Nb22  1  -0.13716815  0.29278205  0.55160406  1.0
  Nb  Nb23  1  0.29278205  0.29278205  0.55160406  1.0
  Cr  Cr24  1  0.66225419  -0.33774581  1.01323743  1.0
  Cr  Cr25  1  0.66225419  0.01323743  0.66225419  1.0
  Cr  Cr26  1  0.58774581  -0.41225419  0.58774581  1.0
  Cr  Cr27  1  1.23676257  -0.41225419  0.58774581  1.0
  Cr  Cr28  1  1.01323743  -0.33774581  0.66225419  1.0
  Cr  Cr29  1  0.66225419  -0.33774581  0.66225419  1.0
  Cr  Cr30  1  0.58774581  0.23676257  0.58774581  1.0
  Cr  Cr31  1  0.58774581  -0.41225419  1.23676257  1.0
  Cr  Cr32  1  0.50000000  0.50000000  -0.50000000  1.0
  Cr  Cr33  1  0.75000000  -0.25000000  0.75000000  1.0
  C  C34  1  0.00000000  1.00000000  -0.00000000  1.0
  C  C35  1  0.25000000  0.25000000  0.25000000  1.0
