# generated using pymatgen
data_Pb
_symmetry_space_group_name_H-M   'P 1'
_cell_length_a   3.49932769
_cell_length_b   3.49932769
_cell_length_c   30.62321501
_cell_angle_alpha   90.00000000
_cell_angle_beta   90.00000000
_cell_angle_gamma   120.00000000
_symmetry_Int_Tables_number   1
_chemical_formula_structural   Pb
_chemical_formula_sum   Pb10
_cell_volume   324.75110770
_cell_formula_units_Z   10
loop_
 _symmetry_equiv_pos_site_id
 _symmetry_equiv_pos_as_xyz
  1  'x, y, z'
loop_
 _atom_site_type_symbol
 _atom_site_label
 _atom_site_symmetry_multiplicity
 _atom_site_fract_x
 _atom_site_fract_y
 _atom_site_fract_z
 _atom_site_occupancy
  Pb  Pb0  1  0.33333333  0.66666667  0.45394290  1.0
  Pb  Pb1  1  0.66666667  0.33333333  0.54605710  1.0
  Pb  Pb2  1  0.66666667  0.33333333  0.95394290  1.0
  Pb  Pb3  1  0.33333333  0.66666667  0.04605710  1.0
  Pb  Pb4  1  0.33333333  0.66666667  0.34468402  1.0
  Pb  Pb5  1  0.66666667  0.33333333  0.65531598  1.0
  Pb  Pb6  1  0.66666667  0.33333333  0.84468402  1.0
  Pb  Pb7  1  0.33333333  0.66666667  0.15531598  1.0
  Pb  Pb8  1  0.00000000  -0.00000000  0.25000000  1.0
  Pb  Pb9  1  0.00000000  0.00000000  0.75000000  1.0
