# generated using pymatgen
data_ZnH12N4(ClO4)2
_symmetry_space_group_name_H-M   'P 1'
_cell_length_a   7.40501202
_cell_length_b   7.40501202
_cell_length_c   7.40501202
_cell_angle_alpha   60.00000000
_cell_angle_beta   60.00000000
_cell_angle_gamma   60.00000000
_symmetry_Int_Tables_number   1
_chemical_formula_structural   ZnH12N4(ClO4)2
_chemical_formula_sum   'Zn1 H12 N4 Cl2 O8'
_cell_volume   287.11924594
_cell_formula_units_Z   1
loop_
 _symmetry_equiv_pos_site_id
 _symmetry_equiv_pos_as_xyz
  1  'x, y, z'
loop_
 _atom_site_type_symbol
 _atom_site_label
 _atom_site_symmetry_multiplicity
 _atom_site_fract_x
 _atom_site_fract_y
 _atom_site_fract_z
 _atom_site_occupancy
  Zn  Zn0  1  0.75000000  0.75000000  -0.25000000  1.0
  H  H1  1  0.54294533  1.14703453  -0.45705467  1.0
  H  H2  1  -0.45705467  0.54294533  1.14703453  1.0
  H  H3  1  -0.23292518  0.54294533  1.14703453  1.0
  H  H4  1  0.76707482  1.14703453  -0.45705467  1.0
  H  H5  1  1.14703453  0.54294533  -0.45705467  1.0
  H  H6  1  -0.23292518  0.54294533  0.54294533  1.0
  H  H7  1  1.14703453  0.54294533  -0.23292518  1.0
  H  H8  1  -0.45705467  0.54294533  0.76707482  1.0
  H  H9  1  -0.45705467  0.76707482  0.54294533  1.0
  H  H10  1  1.14703453  0.76707482  -0.45705467  1.0
  H  H11  1  0.54294533  1.14703453  -0.23292518  1.0
  H  H12  1  -0.45705467  0.76707482  1.14703453  1.0
  N  N13  1  -0.36247368  0.63752632  0.63752632  1.0
  N  N14  1  1.08742105  0.63752632  -0.36247368  1.0
  N  N15  1  -0.36247368  0.63752632  1.08742105  1.0
  N  N16  1  0.63752632  1.08742105  -0.36247368  1.0
  Cl  Cl17  1  0.25000000  0.25000000  0.25000000  1.0
  Cl  Cl18  1  0.00000000  0.00000000  0.00000000  1.0
  O  O19  1  0.91902125  0.91902125  -0.08097875  1.0
  O  O20  1  0.24293626  0.91902125  -0.08097875  1.0
  O  O21  1  0.91902125  0.91902125  -0.75706374  1.0
  O  O22  1  0.91902125  0.24293626  -0.08097875  1.0
  O  O23  1  0.33106998  0.33106998  0.33106998  1.0
  O  O24  1  0.00679007  0.33106998  0.33106998  1.0
  O  O25  1  0.33106998  0.33106998  0.00679007  1.0
  O  O26  1  0.33106998  0.00679007  0.33106998  1.0
