# generated using pymatgen
data_Ta5AuS
_symmetry_space_group_name_H-M   'P 1'
_cell_length_a   8.90043062
_cell_length_b   8.90043062
_cell_length_c   8.90043062
_cell_angle_alpha   60.00000000
_cell_angle_beta   60.00000000
_cell_angle_gamma   60.00000000
_symmetry_Int_Tables_number   1
_chemical_formula_structural   Ta5AuS
_chemical_formula_sum   'Ta20 Au4 S4'
_cell_volume   498.56072097
_cell_formula_units_Z   4
loop_
 _symmetry_equiv_pos_site_id
 _symmetry_equiv_pos_as_xyz
  1  'x, y, z'
loop_
 _atom_site_type_symbol
 _atom_site_label
 _atom_site_symmetry_multiplicity
 _atom_site_fract_x
 _atom_site_fract_y
 _atom_site_fract_z
 _atom_site_occupancy
  Ta  Ta0  1  0.55312270  0.94687730  -0.05312270  1.0
  Ta  Ta1  1  0.94687730  0.94687730  -0.44687730  1.0
  Ta  Ta2  1  0.94687730  0.55312270  -0.05312270  1.0
  Ta  Ta3  1  0.55312270  0.55312270  -0.05312270  1.0
  Ta  Ta4  1  0.55312270  0.94687730  -0.44687730  1.0
  Ta  Ta5  1  0.94687730  0.55312270  -0.44687730  1.0
  Ta  Ta6  1  -0.77732161  0.77732161  0.77732161  1.0
  Ta  Ta7  1  -0.22267839  0.77732161  0.22267839  1.0
  Ta  Ta8  1  -0.22267839  0.22267839  0.77732161  1.0
  Ta  Ta9  1  0.22267839  1.22267839  -0.22267839  1.0
  Ta  Ta10  1  0.22267839  -0.22267839  0.22267839  1.0
  Ta  Ta11  1  -0.22267839  0.22267839  0.22267839  1.0
  Ta  Ta12  1  -0.41799844  0.58200156  0.58200156  1.0
  Ta  Ta13  1  1.25399532  0.58200156  -0.41799844  1.0
  Ta  Ta14  1  -0.41799844  0.58200156  1.25399532  1.0
  Ta  Ta15  1  0.58200156  1.25399532  -0.41799844  1.0
  Ta  Ta16  1  0.36761673  1.36761673  0.36761673  1.0
  Ta  Ta17  1  -0.10285020  0.36761673  0.36761673  1.0
  Ta  Ta18  1  0.36761673  1.36761673  -0.10285020  1.0
  Ta  Ta19  1  0.36761673  -0.10285020  0.36761673  1.0
  Au  Au20  1  0.14945492  0.14945492  0.14945492  1.0
  Au  Au21  1  0.55163525  0.14945492  0.14945492  1.0
  Au  Au22  1  0.14945492  0.14945492  0.55163525  1.0
  Au  Au23  1  0.14945492  0.55163525  0.14945492  1.0
  S  S24  1  0.88130199  0.88130199  -0.11869801  1.0
  S  S25  1  0.35609404  0.88130199  -0.11869801  1.0
  S  S26  1  0.88130199  0.88130199  -0.64390596  1.0
  S  S27  1  0.88130199  0.35609404  -0.11869801  1.0
