# generated using pymatgen
data_Sc(Fe2Si)2
_symmetry_space_group_name_H-M   'P 1'
_cell_length_a   6.87266446
_cell_length_b   6.87266446
_cell_length_c   3.76052019
_cell_angle_alpha   90.00000000
_cell_angle_beta   90.00000000
_cell_angle_gamma   90.00000000
_symmetry_Int_Tables_number   1
_chemical_formula_structural   Sc(Fe2Si)2
_chemical_formula_sum   'Sc2 Fe8 Si4'
_cell_volume   177.62259363
_cell_formula_units_Z   2
loop_
 _symmetry_equiv_pos_site_id
 _symmetry_equiv_pos_as_xyz
  1  'x, y, z'
loop_
 _atom_site_type_symbol
 _atom_site_label
 _atom_site_symmetry_multiplicity
 _atom_site_fract_x
 _atom_site_fract_y
 _atom_site_fract_z
 _atom_site_occupancy
  Sc  Sc0  1  0.50000000  0.50000000  0.50000000  1.0
  Sc  Sc1  1  0.00000000  0.00000000  0.00000000  1.0
  Fe  Fe2  1  0.35288654  0.09091582  0.50000000  1.0
  Fe  Fe3  1  0.85288654  0.40908418  0.00000000  1.0
  Fe  Fe4  1  0.90908418  0.64711346  0.50000000  1.0
  Fe  Fe5  1  0.40908418  0.85288654  0.00000000  1.0
  Fe  Fe6  1  0.64711346  0.90908418  0.50000000  1.0
  Fe  Fe7  1  0.14711346  0.59091582  0.00000000  1.0
  Fe  Fe8  1  0.09091582  0.35288654  0.50000000  1.0
  Fe  Fe9  1  0.59091582  0.14711346  0.00000000  1.0
  Si  Si10  1  0.21684498  0.78315502  0.50000000  1.0
  Si  Si11  1  0.71684498  0.71684498  0.00000000  1.0
  Si  Si12  1  0.78315502  0.21684498  0.50000000  1.0
  Si  Si13  1  0.28315502  0.28315502  0.00000000  1.0
