# generated using pymatgen
data_Hf2P2O9
_symmetry_space_group_name_H-M   'P 1'
_cell_length_a   5.48897344
_cell_length_b   5.48897344
_cell_length_c   11.95216170
_cell_angle_alpha   90.00000000
_cell_angle_beta   90.00000000
_cell_angle_gamma   105.12126628
_symmetry_Int_Tables_number   1
_chemical_formula_structural   Hf2P2O9
_chemical_formula_sum   'Hf4 P4 O18'
_cell_volume   347.63633276
_cell_formula_units_Z   2
loop_
 _symmetry_equiv_pos_site_id
 _symmetry_equiv_pos_as_xyz
  1  'x, y, z'
loop_
 _atom_site_type_symbol
 _atom_site_label
 _atom_site_symmetry_multiplicity
 _atom_site_fract_x
 _atom_site_fract_y
 _atom_site_fract_z
 _atom_site_occupancy
  Hf  Hf0  1  -0.29484096  1.29484096  0.43775408  1.0
  Hf  Hf1  1  0.20515904  0.79484096  0.06224592  1.0
  Hf  Hf2  1  0.29484096  0.70515904  0.56224592  1.0
  Hf  Hf3  1  -0.20515904  1.20515904  0.93775408  1.0
  P  P4  1  -0.39373902  1.39373902  0.14726248  1.0
  P  P5  1  0.10626098  0.89373902  0.35273752  1.0
  P  P6  1  0.39373902  0.60626098  0.85273752  1.0
  P  P7  1  -0.10626098  1.10626098  0.64726248  1.0
  O  O8  1  -0.06517732  1.06517732  0.37646921  1.0
  O  O9  1  0.43482268  0.56517732  0.12353079  1.0
  O  O10  1  0.06517732  0.93482268  0.62353079  1.0
  O  O11  1  -0.43482268  1.43482268  0.87646921  1.0
  O  O12  1  -0.36177696  1.36177696  0.27253793  1.0
  O  O13  1  0.13822304  0.86177696  0.22746207  1.0
  O  O14  1  0.36177696  0.63822304  0.72746207  1.0
  O  O15  1  -0.13822304  1.13822304  0.77253793  1.0
  O  O16  1  0.36772801  0.98475955  0.41546435  1.0
  O  O17  1  -0.13227199  1.48475955  0.08453565  1.0
  O  O18  1  -0.01524045  1.36772801  0.58453565  1.0
  O  O19  1  0.48475955  0.86772801  0.91546435  1.0
  O  O20  1  0.01524045  0.63227199  0.41546435  1.0
  O  O21  1  -0.48475955  1.13227199  0.08453565  1.0
  O  O22  1  -0.36772801  1.01524045  0.58453565  1.0
  O  O23  1  0.13227199  0.51524045  0.91546435  1.0
  O  O24  1  -0.50000000  0.50000000  0.50000000  1.0
  O  O25  1  -0.00000000  1.00000000  0.00000000  1.0
