# generated using pymatgen
data_Ba3Bi(ClO)3
_symmetry_space_group_name_H-M   'P 1'
_cell_length_a   7.11419436
_cell_length_b   12.10228432
_cell_length_c   12.66673617
_cell_angle_alpha   90.00000000
_cell_angle_beta   90.00000000
_cell_angle_gamma   90.00000000
_symmetry_Int_Tables_number   1
_chemical_formula_structural   Ba3Bi(ClO)3
_chemical_formula_sum   'Ba12 Bi4 Cl12 O12'
_cell_volume   1090.58068669
_cell_formula_units_Z   4
loop_
 _symmetry_equiv_pos_site_id
 _symmetry_equiv_pos_as_xyz
  1  'x, y, z'
loop_
 _atom_site_type_symbol
 _atom_site_label
 _atom_site_symmetry_multiplicity
 _atom_site_fract_x
 _atom_site_fract_y
 _atom_site_fract_z
 _atom_site_occupancy
  Ba  Ba0  1  0.33511919  0.43363261  0.88453908  1.0
  Ba  Ba1  1  0.33511919  0.06636739  0.88453908  1.0
  Ba  Ba2  1  0.83511919  0.43363261  0.61546092  1.0
  Ba  Ba3  1  0.83511919  0.06636739  0.61546092  1.0
  Ba  Ba4  1  0.66488081  0.93363261  0.11546092  1.0
  Ba  Ba5  1  0.66488081  0.56636739  0.11546092  1.0
  Ba  Ba6  1  0.16488081  0.93363261  0.38453908  1.0
  Ba  Ba7  1  0.16488081  0.56636739  0.38453908  1.0
  Ba  Ba8  1  0.14889663  0.75000000  0.03475900  1.0
  Ba  Ba9  1  0.64889663  0.75000000  0.46524100  1.0
  Ba  Ba10  1  0.85110337  0.25000000  0.96524100  1.0
  Ba  Ba11  1  0.35110337  0.25000000  0.53475900  1.0
  Bi  Bi12  1  0.09759453  0.75000000  0.61368849  1.0
  Bi  Bi13  1  0.59759453  0.75000000  0.88631151  1.0
  Bi  Bi14  1  0.90240547  0.25000000  0.38631151  1.0
  Bi  Bi15  1  0.40240547  0.25000000  0.11368849  1.0
  Cl  Cl16  1  0.39934430  0.99380101  0.63923177  1.0
  Cl  Cl17  1  0.39934430  0.50619899  0.63923177  1.0
  Cl  Cl18  1  0.89934430  0.99380101  0.86076823  1.0
  Cl  Cl19  1  0.89934430  0.50619899  0.86076823  1.0
  Cl  Cl20  1  0.60065570  0.49380101  0.36076823  1.0
  Cl  Cl21  1  0.60065570  0.00619899  0.36076823  1.0
  Cl  Cl22  1  0.10065570  0.49380101  0.13923177  1.0
  Cl  Cl23  1  0.10065570  0.00619899  0.13923177  1.0
  Cl  Cl24  1  0.41224532  0.75000000  0.23232365  1.0
  Cl  Cl25  1  0.91224532  0.75000000  0.26767635  1.0
  Cl  Cl26  1  0.58775468  0.25000000  0.76767635  1.0
  Cl  Cl27  1  0.08775468  0.25000000  0.73232365  1.0
  O  O28  1  0.42754573  0.87363827  0.95485323  1.0
  O  O29  1  0.42754573  0.62636173  0.95485323  1.0
  O  O30  1  0.92754573  0.87363827  0.54514677  1.0
  O  O31  1  0.92754573  0.62636173  0.54514677  1.0
  O  O32  1  0.57245427  0.37363827  0.04514677  1.0
  O  O33  1  0.57245427  0.12636173  0.04514677  1.0
  O  O34  1  0.07245427  0.37363827  0.45485323  1.0
  O  O35  1  0.07245427  0.12636173  0.45485323  1.0
  O  O36  1  0.28417556  0.75000000  0.48629831  1.0
  O  O37  1  0.78417556  0.75000000  0.01370169  1.0
  O  O38  1  0.71582444  0.25000000  0.51370169  1.0
  O  O39  1  0.21582444  0.25000000  -0.01370169  1.0
