# generated using pymatgen
data_H20C3(N2O5)2
_symmetry_space_group_name_H-M   'P 1'
_cell_length_a   9.58539085
_cell_length_b   6.43629418
_cell_length_c   8.79396741
_cell_angle_alpha   76.26369445
_cell_angle_beta   40.71254287
_cell_angle_gamma   63.02376268
_symmetry_Int_Tables_number   1
_chemical_formula_structural   H20C3(N2O5)2
_chemical_formula_sum   'H20 C3 N4 O10'
_cell_volume   310.04788817
_cell_formula_units_Z   1
loop_
 _symmetry_equiv_pos_site_id
 _symmetry_equiv_pos_as_xyz
  1  'x, y, z'
loop_
 _atom_site_type_symbol
 _atom_site_label
 _atom_site_symmetry_multiplicity
 _atom_site_fract_x
 _atom_site_fract_y
 _atom_site_fract_z
 _atom_site_occupancy
  H  H0  1  1.34784161  0.44756357  -0.44756357  1.0
  H  H1  1  0.44756357  1.34784161  -0.34784161  1.0
  H  H2  1  -0.36757829  0.58010641  1.08035170  1.0
  H  H3  1  -0.41989359  0.63242171  0.70712019  1.0
  H  H4  1  0.29287981  -0.08035170  0.41989359  1.0
  H  H5  1  -0.08035170  0.29287981  0.36757829  1.0
  H  H6  1  0.88935225  0.54462074  -0.21900897  1.0
  H  H7  1  0.54462074  0.88935225  -0.21496402  1.0
  H  H8  1  0.21496402  0.21900897  0.45537926  1.0
  H  H9  1  0.21900897  0.21496402  0.11064775  1.0
  H  H10  1  0.82785685  0.66511443  -0.01243949  1.0
  H  H11  1  0.66511443  0.82785685  -0.48053180  1.0
  H  H12  1  0.48053180  0.01243949  0.33488557  1.0
  H  H13  1  0.01243949  0.48053180  0.17214315  1.0
  H  H14  1  0.90007817  0.36963005  -0.04879364  1.0
  H  H15  1  0.36963005  0.90007817  -0.22091458  1.0
  H  H16  1  0.22091458  0.04879364  0.63036995  1.0
  H  H17  1  0.04879364  0.22091458  0.09992183  1.0
  H  H18  1  1.09240580  0.78029656  -0.78029656  1.0
  H  H19  1  0.78029656  1.09240580  -0.09240580  1.0
  C  C20  1  -0.07395842  0.92604158  0.07395842  1.0
  C  C21  1  1.19768226  0.64047397  -0.64047397  1.0
  C  C22  1  0.64047397  1.19768226  -0.19768226  1.0
  N  N23  1  0.81186708  0.54007192  -0.04948661  1.0
  N  N24  1  0.54007192  0.81186708  -0.30245240  1.0
  N  N25  1  0.30245240  0.04948661  0.45992808  1.0
  N  N26  1  0.04948661  0.30245240  0.18813292  1.0
  O  O27  1  0.34279884  1.34279884  -0.34279884  1.0
  O  O28  1  0.79380247  -0.06627776  0.06627776  1.0
  O  O29  1  -0.06627776  0.79380247  0.20619753  1.0
  O  O30  1  0.04904110  1.04904110  -0.04904110  1.0
  O  O31  1  1.20006112  0.78203726  -0.78203726  1.0
  O  O32  1  0.78203726  1.20006112  -0.20006112  1.0
  O  O33  1  1.32778075  0.63235102  -0.63235102  1.0
  O  O34  1  0.63235102  1.32778075  -0.32778075  1.0
  O  O35  1  1.07069425  0.52826636  -0.52826636  1.0
  O  O36  1  0.52826636  1.07069425  -0.07069425  1.0
