# generated using pymatgen
data_KNaC2
_symmetry_space_group_name_H-M   'P 1'
_cell_length_a   7.42388135
_cell_length_b   5.48386420
_cell_length_c   7.75103474
_cell_angle_alpha   90.00000000
_cell_angle_beta   90.00000000
_cell_angle_gamma   90.00000000
_symmetry_Int_Tables_number   1
_chemical_formula_structural   KNaC2
_chemical_formula_sum   'K4 Na4 C8'
_cell_volume   315.55669332
_cell_formula_units_Z   4
loop_
 _symmetry_equiv_pos_site_id
 _symmetry_equiv_pos_as_xyz
  1  'x, y, z'
loop_
 _atom_site_type_symbol
 _atom_site_label
 _atom_site_symmetry_multiplicity
 _atom_site_fract_x
 _atom_site_fract_y
 _atom_site_fract_z
 _atom_site_occupancy
  K  K0  1  0.99214948  0.75000000  0.68788967  1.0
  K  K1  1  0.49214948  0.75000000  0.81211033  1.0
  K  K2  1  0.00785052  0.25000000  0.31211033  1.0
  K  K3  1  0.50785052  0.25000000  0.18788967  1.0
  Na  Na4  1  0.85976236  0.75000000  0.09498423  1.0
  Na  Na5  1  0.35976236  0.75000000  0.40501577  1.0
  Na  Na6  1  0.14023764  0.25000000  0.90501577  1.0
  Na  Na7  1  0.64023764  0.25000000  0.59498423  1.0
  C  C8  1  0.71684203  0.86532430  0.40713401  1.0
  C  C9  1  0.71684203  0.63467570  0.40713401  1.0
  C  C10  1  0.21684203  0.86532430  0.09286599  1.0
  C  C11  1  0.21684203  0.63467570  0.09286599  1.0
  C  C12  1  0.28315797  0.36532430  0.59286599  1.0
  C  C13  1  0.28315797  0.13467570  0.59286599  1.0
  C  C14  1  0.78315797  0.36532430  0.90713401  1.0
  C  C15  1  0.78315797  0.13467570  0.90713401  1.0
