# generated using pymatgen
data_C2(SN)3
_symmetry_space_group_name_H-M   'P 1'
_cell_length_a   9.30911330
_cell_length_b   4.54377005
_cell_length_c   15.72192178
_cell_angle_alpha   90.00000000
_cell_angle_beta   105.67781756
_cell_angle_gamma   90.00000000
_symmetry_Int_Tables_number   1
_chemical_formula_structural   C2(SN)3
_chemical_formula_sum   'C8 S12 N12'
_cell_volume   640.27237917
_cell_formula_units_Z   4
loop_
 _symmetry_equiv_pos_site_id
 _symmetry_equiv_pos_as_xyz
  1  'x, y, z'
loop_
 _atom_site_type_symbol
 _atom_site_label
 _atom_site_symmetry_multiplicity
 _atom_site_fract_x
 _atom_site_fract_y
 _atom_site_fract_z
 _atom_site_occupancy
  C  C0  1  0.82433013  0.23158279  0.41854264  1.0
  C  C1  1  0.82433013  0.26841721  0.91854264  1.0
  C  C2  1  0.17566987  0.73158279  0.08145736  1.0
  C  C3  1  0.17566987  0.76841721  0.58145736  1.0
  C  C4  1  0.68651932  0.38366452  0.37913751  1.0
  C  C5  1  0.68651932  0.11633548  0.87913751  1.0
  C  C6  1  0.31348068  0.88366452  0.12086249  1.0
  C  C7  1  0.31348068  0.61633548  0.62086249  1.0
  S  S8  1  0.69849315  0.19486388  0.03119254  1.0
  S  S9  1  0.69849315  0.30513612  0.53119254  1.0
  S  S10  1  0.30150685  0.69486388  0.46880746  1.0
  S  S11  1  0.30150685  0.80513612  0.96880746  1.0
  S  S12  1  0.92999908  0.16059019  0.34483414  1.0
  S  S13  1  0.92999908  0.33940981  0.84483414  1.0
  S  S14  1  0.07000092  0.66059019  0.15516586  1.0
  S  S15  1  0.07000092  0.83940981  0.65516586  1.0
  S  S16  1  0.66044915  0.46096751  0.26763933  1.0
  S  S17  1  0.66044915  0.03903249  0.76763933  1.0
  S  S18  1  0.33955085  0.96096751  0.23236067  1.0
  S  S19  1  0.33955085  0.53903249  0.73236067  1.0
  N  N20  1  0.84565920  0.32682000  0.00345627  1.0
  N  N21  1  0.84565920  0.17318000  0.50345627  1.0
  N  N22  1  0.15434080  0.82682000  0.49654373  1.0
  N  N23  1  0.15434080  0.67318000  0.99654373  1.0
  N  N24  1  0.60434748  0.43857297  0.43394704  1.0
  N  N25  1  0.60434748  0.06142703  0.93394704  1.0
  N  N26  1  0.39565252  0.93857297  0.06605296  1.0
  N  N27  1  0.39565252  0.56142703  0.56605296  1.0
  N  N28  1  0.81752578  0.31544232  0.25542676  1.0
  N  N29  1  0.81752578  0.18455768  0.75542676  1.0
  N  N30  1  0.18247422  0.81544232  0.24457324  1.0
  N  N31  1  0.18247422  0.68455768  0.74457324  1.0
