# generated using pymatgen
data_RbPbIO6
_symmetry_space_group_name_H-M   'P 1'
_cell_length_a   5.61291354
_cell_length_b   5.61291354
_cell_length_c   12.68674721
_cell_angle_alpha   90.00000000
_cell_angle_beta   90.00000000
_cell_angle_gamma   120.00000000
_symmetry_Int_Tables_number   1
_chemical_formula_structural   RbPbIO6
_chemical_formula_sum   'Rb2 Pb2 I2 O12'
_cell_volume   346.14464908
_cell_formula_units_Z   2
loop_
 _symmetry_equiv_pos_site_id
 _symmetry_equiv_pos_as_xyz
  1  'x, y, z'
loop_
 _atom_site_type_symbol
 _atom_site_label
 _atom_site_symmetry_multiplicity
 _atom_site_fract_x
 _atom_site_fract_y
 _atom_site_fract_z
 _atom_site_occupancy
  Rb  Rb0  1  0.00000000  0.00000000  -0.00000000  1.0
  Rb  Rb1  1  0.00000000  0.00000000  0.50000000  1.0
  Pb  Pb2  1  0.33333333  0.66666667  0.75000000  1.0
  Pb  Pb3  1  0.66666667  0.33333333  0.25000000  1.0
  I  I4  1  0.33333333  0.66666667  0.25000000  1.0
  I  I5  1  0.66666667  0.33333333  0.75000000  1.0
  O  O6  1  0.36469902  0.96568263  0.15895299  1.0
  O  O7  1  0.36469902  0.39901640  0.34104701  1.0
  O  O8  1  0.96568263  0.36469902  0.84104701  1.0
  O  O9  1  0.96568263  0.60098360  0.65895299  1.0
  O  O10  1  0.60098360  0.96568263  0.34104701  1.0
  O  O11  1  0.60098360  0.63530098  0.15895299  1.0
  O  O12  1  0.03431737  0.63530098  0.34104701  1.0
  O  O13  1  0.03431737  0.39901640  0.15895299  1.0
  O  O14  1  0.63530098  0.60098360  0.84104701  1.0
  O  O15  1  0.63530098  0.03431737  0.65895299  1.0
  O  O16  1  0.39901640  0.36469902  0.65895299  1.0
  O  O17  1  0.39901640  0.03431737  0.84104701  1.0
