# generated using pymatgen
data_Y(P3Ru)4
_symmetry_space_group_name_H-M   'P 1'
_cell_length_a   6.99600713
_cell_length_b   6.99600713
_cell_length_c   6.99600713
_cell_angle_alpha   109.47122063
_cell_angle_beta   109.47122063
_cell_angle_gamma   109.47122063
_symmetry_Int_Tables_number   1
_chemical_formula_structural   Y(P3Ru)4
_chemical_formula_sum   'Y1 P12 Ru4'
_cell_volume   263.58994540
_cell_formula_units_Z   1
loop_
 _symmetry_equiv_pos_site_id
 _symmetry_equiv_pos_as_xyz
  1  'x, y, z'
loop_
 _atom_site_type_symbol
 _atom_site_label
 _atom_site_symmetry_multiplicity
 _atom_site_fract_x
 _atom_site_fract_y
 _atom_site_fract_z
 _atom_site_occupancy
  Y  Y0  1  0.00000000  0.00000000  0.00000000  1.0
  P  P1  1  0.85681023  1.35675251  1.21356274  1.0
  P  P2  1  0.85681023  0.64324749  0.50005772  1.0
  P  P3  1  0.14318977  0.35675251  0.49994228  1.0
  P  P4  1  0.14318977  0.64324749  0.78643726  1.0
  P  P5  1  0.50005772  0.85681023  0.64324749  1.0
  P  P6  1  1.21356274  0.85681023  1.35675251  1.0
  P  P7  1  0.64324749  0.78643726  0.14318977  1.0
  P  P8  1  0.64324749  0.50005772  0.85681023  1.0
  P  P9  1  0.78643726  0.14318977  0.64324749  1.0
  P  P10  1  0.49994228  0.14318977  0.35675251  1.0
  P  P11  1  0.35675251  0.49994228  0.14318977  1.0
  P  P12  1  1.35675251  1.21356274  0.85681023  1.0
  Ru  Ru13  1  0.50000000  1.00000000  1.00000000  1.0
  Ru  Ru14  1  0.50000000  0.50000000  0.50000000  1.0
  Ru  Ru15  1  1.00000000  1.00000000  0.50000000  1.0
  Ru  Ru16  1  1.00000000  0.50000000  1.00000000  1.0
