# generated using pymatgen
data_Eu2AlNO3
_symmetry_space_group_name_H-M   'P 1'
_cell_length_a   6.74886357
_cell_length_b   6.74886357
_cell_length_c   6.74886357
_cell_angle_alpha   148.06765625
_cell_angle_beta   148.06765625
_cell_angle_gamma   45.78550147
_symmetry_Int_Tables_number   1
_chemical_formula_structural   Eu2AlNO3
_chemical_formula_sum   'Eu2 Al1 N1 O3'
_cell_volume   85.70534635
_cell_formula_units_Z   1
loop_
 _symmetry_equiv_pos_site_id
 _symmetry_equiv_pos_as_xyz
  1  'x, y, z'
loop_
 _atom_site_type_symbol
 _atom_site_label
 _atom_site_symmetry_multiplicity
 _atom_site_fract_x
 _atom_site_fract_y
 _atom_site_fract_z
 _atom_site_occupancy
  Eu  Eu0  1  0.51887440  0.51887440  1.00000000  1.0
  Eu  Eu1  1  0.80807422  0.80807422  1.00000000  1.0
  Al  Al2  1  0.16268697  0.16268697  0.00000000  1.0
  N  N3  1  -0.00361874  -0.00361874  0.00000000  1.0
  O  O4  1  0.66848547  0.16848547  0.50000000  1.0
  O  O5  1  0.16848547  0.66848547  0.50000000  1.0
  O  O6  1  0.32971221  0.32971221  0.00000000  1.0
