# generated using pymatgen
data_La4CdIr
_symmetry_space_group_name_H-M   'P 1'
_cell_length_a   10.13652737
_cell_length_b   10.13652737
_cell_length_c   10.13652737
_cell_angle_alpha   60.00000000
_cell_angle_beta   60.00000000
_cell_angle_gamma   60.00000000
_symmetry_Int_Tables_number   1
_chemical_formula_structural   La4CdIr
_chemical_formula_sum   'La16 Cd4 Ir4'
_cell_volume   736.46581756
_cell_formula_units_Z   4
loop_
 _symmetry_equiv_pos_site_id
 _symmetry_equiv_pos_as_xyz
  1  'x, y, z'
loop_
 _atom_site_type_symbol
 _atom_site_label
 _atom_site_symmetry_multiplicity
 _atom_site_fract_x
 _atom_site_fract_y
 _atom_site_fract_z
 _atom_site_occupancy
  La  La0  1  0.06006998  0.43993002  0.43993002  1.0
  La  La1  1  0.43993002  0.43993002  0.06006998  1.0
  La  La2  1  0.43993002  0.06006998  0.43993002  1.0
  La  La3  1  0.06006998  0.06006998  0.43993002  1.0
  La  La4  1  0.06006998  0.43993002  0.06006998  1.0
  La  La5  1  0.43993002  0.06006998  0.06006998  1.0
  La  La6  1  -0.80921660  0.80921660  0.80921660  1.0
  La  La7  1  -0.19078340  0.80921660  0.19078340  1.0
  La  La8  1  -0.19078340  0.19078340  0.80921660  1.0
  La  La9  1  0.19078340  1.19078340  -0.19078340  1.0
  La  La10  1  0.19078340  -0.19078340  0.19078340  1.0
  La  La11  1  -0.19078340  0.19078340  0.19078340  1.0
  La  La12  1  -0.34735057  0.65264943  0.65264943  1.0
  La  La13  1  1.04205170  0.65264943  -0.34735057  1.0
  La  La14  1  -0.34735057  0.65264943  1.04205170  1.0
  La  La15  1  0.65264943  1.04205170  -0.34735057  1.0
  Cd  Cd16  1  0.42076386  1.42076386  0.42076386  1.0
  Cd  Cd17  1  -0.26229158  0.42076386  0.42076386  1.0
  Cd  Cd18  1  0.42076386  1.42076386  -0.26229158  1.0
  Cd  Cd19  1  0.42076386  -0.26229158  0.42076386  1.0
  Ir  Ir20  1  0.85896447  0.85896447  -0.14103553  1.0
  Ir  Ir21  1  0.42310660  0.85896447  -0.14103553  1.0
  Ir  Ir22  1  0.85896447  0.85896447  -0.57689340  1.0
  Ir  Ir23  1  0.85896447  0.42310660  -0.14103553  1.0
