# generated using pymatgen
data_LaSi3N5
_symmetry_space_group_name_H-M   'P 1'
_cell_length_a   4.81671067
_cell_length_b   7.74238280
_cell_length_c   11.78457348
_cell_angle_alpha   90.00000000
_cell_angle_beta   90.00000000
_cell_angle_gamma   90.00000000
_symmetry_Int_Tables_number   1
_chemical_formula_structural   LaSi3N5
_chemical_formula_sum   'La4 Si12 N20'
_cell_volume   439.47995219
_cell_formula_units_Z   4
loop_
 _symmetry_equiv_pos_site_id
 _symmetry_equiv_pos_as_xyz
  1  'x, y, z'
loop_
 _atom_site_type_symbol
 _atom_site_label
 _atom_site_symmetry_multiplicity
 _atom_site_fract_x
 _atom_site_fract_y
 _atom_site_fract_z
 _atom_site_occupancy
  Si  Si0  1  0.59083799  0.68991375  0.65711865  1.0
  Si  Si1  1  0.09083799  0.81008625  0.34288135  1.0
  Si  Si2  1  0.40916201  0.18991375  0.84288135  1.0
  Si  Si3  1  0.90916201  0.31008625  0.15711865  1.0
  Si  Si4  1  0.55051633  0.79642469  0.92077819  1.0
  Si  Si5  1  0.05051633  0.70357531  0.07922181  1.0
  Si  Si6  1  0.44948367  0.29642469  0.57922181  1.0
  Si  Si7  1  0.94948367  0.20357531  0.42077819  1.0
  Si  Si8  1  -0.04876637  0.53859162  0.54061021  1.0
  Si  Si9  1  0.45123363  0.96140838  0.45938979  1.0
  Si  Si10  1  1.04876637  0.03859162  0.95938979  1.0
  Si  Si11  1  0.54876637  0.46140838  0.04061021  1.0
  La  La12  1  0.98684909  0.99760609  0.66179343  1.0
  La  La13  1  0.48684909  0.50239391  0.33820657  1.0
  La  La14  1  0.01315091  0.49760609  0.83820657  1.0
  La  La15  1  0.51315091  0.00239391  0.16179343  1.0
  N  N16  1  0.50679229  0.87411165  0.58798464  1.0
  N  N17  1  1.00679229  0.62588835  0.41201536  1.0
  N  N18  1  0.49320771  0.37411165  0.91201536  1.0
  N  N19  1  -0.00679229  0.12588835  0.08798464  1.0
  N  N20  1  0.50172930  0.69340094  0.79690422  1.0
  N  N21  1  1.00172930  0.80659906  0.20309578  1.0
  N  N22  1  0.49827070  0.19340094  0.70309578  1.0
  N  N23  1  -0.00172930  0.30659906  0.29690422  1.0
  N  N24  1  0.09353503  0.32292022  0.53825622  1.0
  N  N25  1  0.59353503  0.17707978  0.46174378  1.0
  N  N26  1  0.90646497  0.82292022  -0.03825622  1.0
  N  N27  1  0.40646497  0.67707978  1.03825622  1.0
  N  N28  1  0.96529649  0.66794685  0.65986619  1.0
  N  N29  1  0.46529649  0.83205315  0.34013381  1.0
  N  N30  1  0.03470351  0.16794685  0.84013381  1.0
  N  N31  1  0.53470351  0.33205315  0.15986619  1.0
  N  N32  1  0.42056359  1.00367360  0.93723284  1.0
  N  N33  1  0.92056359  0.49632640  0.06276716  1.0
  N  N34  1  0.57943641  0.50367360  0.56276716  1.0
  N  N35  1  0.07943641  -0.00367360  0.43723284  1.0
