# generated using pymatgen
data_La3BeAlS7
_symmetry_space_group_name_H-M   'P 1'
_cell_length_a   10.20190776
_cell_length_b   10.20190776
_cell_length_c   6.01956307
_cell_angle_alpha   90.00000000
_cell_angle_beta   90.00000000
_cell_angle_gamma   120.00000000
_symmetry_Int_Tables_number   1
_chemical_formula_structural   La3BeAlS7
_chemical_formula_sum   'La6 Be2 Al2 S14'
_cell_volume   542.57325955
_cell_formula_units_Z   2
loop_
 _symmetry_equiv_pos_site_id
 _symmetry_equiv_pos_as_xyz
  1  'x, y, z'
loop_
 _atom_site_type_symbol
 _atom_site_label
 _atom_site_symmetry_multiplicity
 _atom_site_fract_x
 _atom_site_fract_y
 _atom_site_fract_z
 _atom_site_occupancy
  La  La0  1  0.74967748  0.14152730  0.73612935  1.0
  La  La1  1  0.39184981  0.25032252  0.73612935  1.0
  La  La2  1  0.85847270  0.60815019  0.73612935  1.0
  La  La3  1  0.25032252  0.85847270  0.23612935  1.0
  La  La4  1  0.60815019  0.74967748  0.23612935  1.0
  La  La5  1  0.14152730  0.39184981  0.23612935  1.0
  Be  Be6  1  0.66666667  0.33333333  0.14771833  1.0
  Be  Be7  1  0.33333333  0.66666667  0.64771833  1.0
  Al  Al8  1  0.00000000  0.00000000  0.53804250  1.0
  Al  Al9  1  0.00000000  0.00000000  0.03804250  1.0
  S  S10  1  0.86320747  0.07926474  0.29544413  1.0
  S  S11  1  0.21605727  0.13679253  0.29544413  1.0
  S  S12  1  0.92073526  0.78394273  0.29544413  1.0
  S  S13  1  0.13679253  0.92073526  0.79544413  1.0
  S  S14  1  0.78394273  0.86320747  0.79544413  1.0
  S  S15  1  0.07926474  0.21605727  0.79544413  1.0
  S  S16  1  0.88737792  0.40722510  0.01996268  1.0
  S  S17  1  0.51984718  0.11262208  0.01996268  1.0
  S  S18  1  0.59277490  0.48015282  0.01996268  1.0
  S  S19  1  0.11262208  0.59277490  0.51996268  1.0
  S  S20  1  0.48015282  0.88737792  0.51996268  1.0
  S  S21  1  0.40722510  0.51984718  0.51996268  1.0
  S  S22  1  0.66666667  0.33333333  0.49863069  1.0
  S  S23  1  0.33333333  0.66666667  -0.00136931  1.0
