# generated using pymatgen
data_NaLiCO3
_symmetry_space_group_name_H-M   'P 1'
_cell_length_a   10.03183084
_cell_length_b   10.03183084
_cell_length_c   4.27874880
_cell_angle_alpha   90.00000000
_cell_angle_beta   90.00000000
_cell_angle_gamma   120.00000000
_symmetry_Int_Tables_number   1
_chemical_formula_structural   NaLiCO3
_chemical_formula_sum   'Na3 Li3 C3 O9'
_cell_volume   372.91325692
_cell_formula_units_Z   3
loop_
 _symmetry_equiv_pos_site_id
 _symmetry_equiv_pos_as_xyz
  1  'x, y, z'
loop_
 _atom_site_type_symbol
 _atom_site_label
 _atom_site_symmetry_multiplicity
 _atom_site_fract_x
 _atom_site_fract_y
 _atom_site_fract_z
 _atom_site_occupancy
  Li  Li0  1  0.34443166  0.17221583  0.50000000  1.0
  Li  Li1  1  0.82778417  0.17221583  0.50000000  1.0
  Li  Li2  1  0.82778417  0.65556834  0.50000000  1.0
  Na  Na3  1  0.00000000  0.00000000  0.50000000  1.0
  Na  Na4  1  0.66666667  0.33333333  0.50000000  1.0
  Na  Na5  1  0.33333333  0.66666667  0.50000000  1.0
  O  O6  1  0.51564683  0.25782341  0.00000000  1.0
  O  O7  1  0.74217659  0.25782341  0.00000000  1.0
  O  O8  1  0.74217659  0.48435317  0.00000000  1.0
  O  O9  1  0.84975015  0.92487508  0.00000000  1.0
  O  O10  1  0.07512492  0.92487508  0.00000000  1.0
  O  O11  1  0.07512492  0.15024985  0.00000000  1.0
  O  O12  1  0.18359858  0.59179929  0.00000000  1.0
  O  O13  1  0.40820071  0.59179929  0.00000000  1.0
  O  O14  1  0.40820071  0.81640142  0.00000000  1.0
  C  C15  1  0.00000000  0.00000000  0.00000000  1.0
  C  C16  1  0.33333333  0.66666667  0.00000000  1.0
  C  C17  1  0.66666667  0.33333333  0.00000000  1.0
