# generated using pymatgen
data_KSc(SeO3)2
_symmetry_space_group_name_H-M   'P 1'
_cell_length_a   13.39974926
_cell_length_b   5.62346363
_cell_length_c   8.56062650
_cell_angle_alpha   90.00000000
_cell_angle_beta   90.00000000
_cell_angle_gamma   90.00000000
_symmetry_Int_Tables_number   1
_chemical_formula_structural   KSc(SeO3)2
_chemical_formula_sum   'K4 Sc4 Se8 O24'
_cell_volume   645.06891133
_cell_formula_units_Z   4
loop_
 _symmetry_equiv_pos_site_id
 _symmetry_equiv_pos_as_xyz
  1  'x, y, z'
loop_
 _atom_site_type_symbol
 _atom_site_label
 _atom_site_symmetry_multiplicity
 _atom_site_fract_x
 _atom_site_fract_y
 _atom_site_fract_z
 _atom_site_occupancy
  K  K0  1  0.12135747  0.75000000  0.98859208  1.0
  K  K1  1  0.62135747  0.75000000  0.51140792  1.0
  K  K2  1  0.87864253  0.25000000  0.01140792  1.0
  K  K3  1  0.37864253  0.25000000  0.48859208  1.0
  Sc  Sc4  1  0.39459042  0.75000000  0.80563224  1.0
  Sc  Sc5  1  0.89459042  0.75000000  0.69436776  1.0
  Sc  Sc6  1  0.60540958  0.25000000  0.19436776  1.0
  Sc  Sc7  1  0.10540958  0.25000000  0.30563224  1.0
  Se  Se8  1  0.43880131  0.75000000  0.20962991  1.0
  Se  Se9  1  0.93880131  0.75000000  0.29037009  1.0
  Se  Se10  1  0.56119869  0.25000000  0.79037009  1.0
  Se  Se11  1  0.06119869  0.25000000  0.70962991  1.0
  Se  Se12  1  0.20496228  0.75000000  0.50891959  1.0
  Se  Se13  1  0.70496228  0.75000000  0.99108041  1.0
  Se  Se14  1  0.79503772  0.25000000  0.49108041  1.0
  Se  Se15  1  0.29503772  0.25000000  0.00891959  1.0
  O  O16  1  0.49412889  0.48672700  0.71609000  1.0
  O  O17  1  0.49412889  0.01327300  0.71609000  1.0
  O  O18  1  -0.00587111  0.48672700  0.78391000  1.0
  O  O19  1  -0.00587111  0.01327300  0.78391000  1.0
  O  O20  1  0.50587111  0.98672700  0.28391000  1.0
  O  O21  1  0.50587111  0.51327300  0.28391000  1.0
  O  O22  1  1.00587111  0.98672700  0.21609000  1.0
  O  O23  1  1.00587111  0.51327300  0.21609000  1.0
  O  O24  1  0.28996522  0.48934482  0.88343169  1.0
  O  O25  1  0.28996522  0.01065518  0.88343169  1.0
  O  O26  1  0.78996522  0.48934482  0.61656831  1.0
  O  O27  1  0.78996522  0.01065518  0.61656831  1.0
  O  O28  1  0.71003478  0.98934482  0.11656831  1.0
  O  O29  1  0.71003478  0.51065518  0.11656831  1.0
  O  O30  1  0.21003478  0.98934482  0.38343169  1.0
  O  O31  1  0.21003478  0.51065518  0.38343169  1.0
  O  O32  1  0.47066893  0.75000000  0.01672589  1.0
  O  O33  1  0.97066893  0.75000000  0.48327411  1.0
  O  O34  1  0.52933107  0.25000000  0.98327411  1.0
  O  O35  1  0.02933107  0.25000000  0.51672589  1.0
  O  O36  1  0.32612455  0.75000000  0.57825589  1.0
  O  O37  1  0.82612455  0.75000000  0.92174411  1.0
  O  O38  1  0.67387545  0.25000000  0.42174411  1.0
  O  O39  1  0.17387545  0.25000000  0.07825589  1.0
