# generated using pymatgen
data_TlAgTe
_symmetry_space_group_name_H-M   'P 1'
_cell_length_a   8.74474462
_cell_length_b   4.94585126
_cell_length_c   8.06539558
_cell_angle_alpha   90.00000000
_cell_angle_beta   90.00000000
_cell_angle_gamma   90.00000000
_symmetry_Int_Tables_number   1
_chemical_formula_structural   TlAgTe
_chemical_formula_sum   'Tl4 Ag4 Te4'
_cell_volume   348.83002174
_cell_formula_units_Z   4
loop_
 _symmetry_equiv_pos_site_id
 _symmetry_equiv_pos_as_xyz
  1  'x, y, z'
loop_
 _atom_site_type_symbol
 _atom_site_label
 _atom_site_symmetry_multiplicity
 _atom_site_fract_x
 _atom_site_fract_y
 _atom_site_fract_z
 _atom_site_occupancy
  Tl  Tl0  1  0.48805986  0.75000000  0.18250991  1.0
  Tl  Tl1  1  0.98805986  0.75000000  0.31749009  1.0
  Tl  Tl2  1  0.51194014  0.25000000  0.81749009  1.0
  Tl  Tl3  1  0.01194014  0.25000000  0.68250991  1.0
  Ag  Ag4  1  0.16700721  0.75000000  0.91247653  1.0
  Ag  Ag5  1  0.66700721  0.75000000  0.58752347  1.0
  Ag  Ag6  1  0.83299279  0.25000000  0.08752347  1.0
  Ag  Ag7  1  0.33299279  0.25000000  0.41247653  1.0
  Te  Te8  1  0.31233908  0.75000000  0.59666070  1.0
  Te  Te9  1  0.81233908  0.75000000  0.90333930  1.0
  Te  Te10  1  0.68766092  0.25000000  0.40333930  1.0
  Te  Te11  1  0.18766092  0.25000000  0.09666070  1.0
