# generated using pymatgen
data_RbH4CN3
_symmetry_space_group_name_H-M   'P 1'
_cell_length_a   7.06849875
_cell_length_b   7.18541545
_cell_length_c   7.70848632
_cell_angle_alpha   90.00000000
_cell_angle_beta   90.00000000
_cell_angle_gamma   90.00000000
_symmetry_Int_Tables_number   1
_chemical_formula_structural   RbH4CN3
_chemical_formula_sum   'Rb4 H16 C4 N12'
_cell_volume   391.51479234
_cell_formula_units_Z   4
loop_
 _symmetry_equiv_pos_site_id
 _symmetry_equiv_pos_as_xyz
  1  'x, y, z'
loop_
 _atom_site_type_symbol
 _atom_site_label
 _atom_site_symmetry_multiplicity
 _atom_site_fract_x
 _atom_site_fract_y
 _atom_site_fract_z
 _atom_site_occupancy
  Rb  Rb0  1  0.46486809  0.75000000  0.07480429  1.0
  Rb  Rb1  1  0.96486809  0.75000000  0.42519571  1.0
  Rb  Rb2  1  0.53513191  0.25000000  0.92519571  1.0
  Rb  Rb3  1  0.03513191  0.25000000  0.57480429  1.0
  H  H4  1  0.45116410  0.37167775  0.56100483  1.0
  H  H5  1  0.45116410  0.12832225  0.56100483  1.0
  H  H6  1  0.95116410  0.37167775  0.93899517  1.0
  H  H7  1  0.95116410  0.12832225  0.93899517  1.0
  H  H8  1  0.54883590  0.87167775  0.43899517  1.0
  H  H9  1  0.54883590  0.62832225  0.43899517  1.0
  H  H10  1  0.04883590  0.87167775  0.06100483  1.0
  H  H11  1  0.04883590  0.62832225  0.06100483  1.0
  H  H12  1  0.20530919  0.90243626  0.76658428  1.0
  H  H13  1  0.20530919  0.59756374  0.76658428  1.0
  H  H14  1  0.70530919  0.90243626  0.73341572  1.0
  H  H15  1  0.70530919  0.59756374  0.73341572  1.0
  H  H16  1  0.79469081  0.40243626  0.23341572  1.0
  H  H17  1  0.79469081  0.09756374  0.23341572  1.0
  H  H18  1  0.29469081  0.40243626  0.26658428  1.0
  H  H19  1  0.29469081  0.09756374  0.26658428  1.0
  C  C20  1  0.35712081  0.75000000  0.61264951  1.0
  C  C21  1  0.85712081  0.75000000  0.88735049  1.0
  C  C22  1  0.64287919  0.25000000  0.38735049  1.0
  C  C23  1  0.14287919  0.25000000  0.11264951  1.0
  N  N24  1  0.30192926  0.91929649  0.66852700  1.0
  N  N25  1  0.30192926  0.58070351  0.66852700  1.0
  N  N26  1  0.80192926  0.91929649  0.83147300  1.0
  N  N27  1  0.80192926  0.58070351  0.83147300  1.0
  N  N28  1  0.69807074  0.41929649  0.33147300  1.0
  N  N29  1  0.69807074  0.08070351  0.33147300  1.0
  N  N30  1  0.19807074  0.41929649  0.16852700  1.0
  N  N31  1  0.19807074  0.08070351  0.16852700  1.0
  N  N32  1  0.98108037  0.75000000  0.02674376  1.0
  N  N33  1  0.48108037  0.75000000  0.47325624  1.0
  N  N34  1  0.01891963  0.25000000  0.97325624  1.0
  N  N35  1  0.51891963  0.25000000  0.52674376  1.0
