# generated using pymatgen
data_Y2O3
_symmetry_space_group_name_H-M   'P 1'
_cell_length_a   9.22677467
_cell_length_b   9.22677467
_cell_length_c   9.22677467
_cell_angle_alpha   109.47122063
_cell_angle_beta   109.47122063
_cell_angle_gamma   109.47122063
_symmetry_Int_Tables_number   1
_chemical_formula_structural   Y2O3
_chemical_formula_sum   'Y16 O24'
_cell_volume   604.68313080
_cell_formula_units_Z   8
loop_
 _symmetry_equiv_pos_site_id
 _symmetry_equiv_pos_as_xyz
  1  'x, y, z'
loop_
 _atom_site_type_symbol
 _atom_site_label
 _atom_site_symmetry_multiplicity
 _atom_site_fract_x
 _atom_site_fract_y
 _atom_site_fract_z
 _atom_site_occupancy
  Y  Y0  1  0.49993839  0.50000000  0.00000000  1.0
  Y  Y1  1  1.00006161  1.00006161  1.00006161  1.0
  Y  Y2  1  0.50000000  1.00000000  0.49993839  1.0
  Y  Y3  1  0.00000000  0.49993839  0.50000000  1.0
  Y  Y4  1  0.96735636  0.21735636  0.75000000  1.0
  Y  Y5  1  1.28264364  1.25000000  1.53264364  1.0
  Y  Y6  1  1.21735636  0.75000000  0.96735636  1.0
  Y  Y7  1  0.75000000  0.96735636  0.21735636  1.0
  Y  Y8  1  1.25000000  1.53264364  1.28264364  1.0
  Y  Y9  1  1.53264364  1.28264364  1.25000000  1.0
  Y  Y10  1  0.46738670  0.71738670  0.75000000  1.0
  Y  Y11  1  0.78261330  1.25000000  1.03261330  1.0
  Y  Y12  1  0.71738670  0.75000000  0.46738670  1.0
  Y  Y13  1  0.75000000  0.46738670  0.71738670  1.0
  Y  Y14  1  0.25000000  1.03261330  0.78261330  1.0
  Y  Y15  1  1.03261330  0.78261330  0.25000000  1.0
  O  O16  1  1.22926653  1.27179569  1.76072837  1.0
  O  O17  1  1.03146184  1.04252916  1.27073347  1.0
  O  O18  1  1.27179569  0.76072837  1.22926653  1.0
  O  O19  1  0.22820431  0.45747084  0.48893268  1.0
  O  O20  1  1.46853816  0.73927163  1.01106732  1.0
  O  O21  1  1.76072837  1.22926653  1.27179569  1.0
  O  O22  1  1.04252916  1.27073347  1.03146184  1.0
  O  O23  1  0.73927163  1.01106732  0.46853816  1.0
  O  O24  1  0.45747084  0.48893268  0.22820431  1.0
  O  O25  1  1.48893268  1.22820431  1.45747084  1.0
  O  O26  1  1.01106732  1.46853816  0.73927163  1.0
  O  O27  1  1.27073347  1.03146184  1.04252916  1.0
  O  O28  1  1.53147160  1.26073214  0.98895458  1.0
  O  O29  1  0.95748298  0.72926054  0.96852840  1.0
  O  O30  1  1.26073214  0.98895458  1.53147160  1.0
  O  O31  1  0.23926786  0.77073946  0.72822244  1.0
  O  O32  1  0.54251702  0.51104542  0.77177756  1.0
  O  O33  1  0.98895458  0.53147160  1.26073214  1.0
  O  O34  1  1.72926054  0.96852840  0.95748298  1.0
  O  O35  1  0.51104542  0.77177756  0.54251702  1.0
  O  O36  1  0.77073946  0.72822244  0.23926786  1.0
  O  O37  1  0.72822244  1.23926786  0.77073946  1.0
  O  O38  1  0.77177756  0.54251702  0.51104542  1.0
  O  O39  1  0.96852840  0.95748298  1.72926054  1.0
