# generated using pymatgen
data_H2SO4
_symmetry_space_group_name_H-M   'P 1'
_cell_length_a   8.12025939
_cell_length_b   4.66904474
_cell_length_c   9.60369239
_cell_angle_alpha   90.00000000
_cell_angle_beta   109.02973632
_cell_angle_gamma   90.00000000
_symmetry_Int_Tables_number   1
_chemical_formula_structural   H2SO4
_chemical_formula_sum   'H8 S4 O16'
_cell_volume   344.21403025
_cell_formula_units_Z   4
loop_
 _symmetry_equiv_pos_site_id
 _symmetry_equiv_pos_as_xyz
  1  'x, y, z'
loop_
 _atom_site_type_symbol
 _atom_site_label
 _atom_site_symmetry_multiplicity
 _atom_site_fract_x
 _atom_site_fract_y
 _atom_site_fract_z
 _atom_site_occupancy
  H  H0  1  0.85047172  0.63210093  0.32186383  1.0
  H  H1  1  0.85047172  0.86789907  0.82186383  1.0
  H  H2  1  0.14952828  0.13210093  0.17813617  1.0
  H  H3  1  0.14952828  0.36789907  0.67813617  1.0
  H  H4  1  0.43793275  0.28089665  0.10669634  1.0
  H  H5  1  0.43793275  0.21910335  0.60669634  1.0
  H  H6  1  0.56206725  0.78089665  0.39330366  1.0
  H  H7  1  0.56206725  0.71910335  0.89330366  1.0
  S  S8  1  0.73055818  0.04716381  0.31606923  1.0
  S  S9  1  0.73055818  0.45283619  0.81606923  1.0
  S  S10  1  0.26944182  0.54716381  0.18393077  1.0
  S  S11  1  0.26944182  0.95283619  0.68393077  1.0
  O  O12  1  0.87808789  0.83998269  0.30917514  1.0
  O  O13  1  0.87808789  0.66001731  0.80917514  1.0
  O  O14  1  0.12191211  0.33998269  0.19082486  1.0
  O  O15  1  0.12191211  0.16001731  0.69082486  1.0
  O  O16  1  0.81512415  0.31563865  0.37182016  1.0
  O  O17  1  0.81512415  0.18436135  0.87182016  1.0
  O  O18  1  0.18487585  0.81563865  0.12817984  1.0
  O  O19  1  0.18487585  0.68436135  0.62817984  1.0
  O  O20  1  0.66085493  0.92224454  0.43696401  1.0
  O  O21  1  0.66085493  0.57775546  0.93696401  1.0
  O  O22  1  0.33914507  0.42224454  0.06303599  1.0
  O  O23  1  0.33914507  0.07775546  0.56303599  1.0
  O  O24  1  0.59141031  0.04832449  0.17425704  1.0
  O  O25  1  0.59141031  0.45167551  0.67425704  1.0
  O  O26  1  0.40858969  0.54832449  0.32574296  1.0
  O  O27  1  0.40858969  0.95167551  0.82574296  1.0
