# generated using pymatgen
data_K3V3(BiO6)2
_symmetry_space_group_name_H-M   'P 1'
_cell_length_a   9.98238789
_cell_length_b   9.98238789
_cell_length_c   7.28320072
_cell_angle_alpha   73.51679965
_cell_angle_beta   106.48320035
_cell_angle_gamma   90.33229973
_symmetry_Int_Tables_number   1
_chemical_formula_structural   K3V3(BiO6)2
_chemical_formula_sum   'K6 V6 Bi4 O24'
_cell_volume   665.12360817
_cell_formula_units_Z   2
loop_
 _symmetry_equiv_pos_site_id
 _symmetry_equiv_pos_as_xyz
  1  'x, y, z'
loop_
 _atom_site_type_symbol
 _atom_site_label
 _atom_site_symmetry_multiplicity
 _atom_site_fract_x
 _atom_site_fract_y
 _atom_site_fract_z
 _atom_site_occupancy
  K  K0  1  0.00000000  -0.00000000  0.50000000  1.0
  K  K1  1  0.00000000  0.00000000  0.00000000  1.0
  K  K2  1  0.50417972  0.50417972  0.25000000  1.0
  K  K3  1  0.49582028  0.49582028  0.75000000  1.0
  K  K4  1  0.77268662  0.77268662  0.25000000  1.0
  K  K5  1  0.22731338  0.22731338  0.75000000  1.0
  V  V6  1  0.63257935  0.15184342  0.13424824  1.0
  V  V7  1  0.84815658  0.36742065  0.63424824  1.0
  V  V8  1  1.15184342  -0.36742065  0.36575176  1.0
  V  V9  1  1.36742065  -0.15184342  0.86575176  1.0
  V  V10  1  0.24757534  0.24757534  0.25000000  1.0
  V  V11  1  0.75242466  0.75242466  0.75000000  1.0
  Bi  Bi12  1  1.41811173  -0.11762603  0.34588846  1.0
  Bi  Bi13  1  1.11762603  -0.41811173  0.84588846  1.0
  Bi  Bi14  1  0.88237397  0.41811173  0.15411154  1.0
  Bi  Bi15  1  0.58188827  0.11762603  0.65411154  1.0
  O  O16  1  0.39047777  0.25306357  0.45318398  1.0
  O  O17  1  0.74693643  0.60952223  0.95318398  1.0
  O  O18  1  1.25306357  -0.60952223  0.04681602  1.0
  O  O19  1  1.60952223  -0.25306357  0.54681602  1.0
  O  O20  1  0.25278317  0.09993950  0.17929185  1.0
  O  O21  1  0.90006050  0.74721683  0.67929185  1.0
  O  O22  1  1.09993950  -0.74721683  0.32070815  1.0
  O  O23  1  1.74721683  -0.09993950  0.82070815  1.0
  O  O24  1  0.65278398  0.32060085  0.14348126  1.0
  O  O25  1  0.67939915  0.34721602  0.64348126  1.0
  O  O26  1  1.32060085  -0.34721602  0.35651874  1.0
  O  O27  1  1.34721602  -0.32060085  0.85651874  1.0
  O  O28  1  0.57201074  0.05503754  0.33743220  1.0
  O  O29  1  0.94496246  0.42798926  0.83743220  1.0
  O  O30  1  1.05503754  -0.42798926  0.16256780  1.0
  O  O31  1  1.42798926  -0.05503754  0.66256780  1.0
  O  O32  1  1.48700722  -0.15969153  0.09730821  1.0
  O  O33  1  1.15969153  -0.48700722  0.59730821  1.0
  O  O34  1  0.84030847  0.48700722  0.40269179  1.0
  O  O35  1  0.51299278  0.15969153  0.90269179  1.0
  O  O36  1  0.78774723  0.07834612  0.15030320  1.0
  O  O37  1  0.92165388  0.21225277  0.65030320  1.0
  O  O38  1  1.07834612  -0.21225277  0.34969680  1.0
  O  O39  1  1.21225277  -0.07834612  0.84969680  1.0
