# generated using pymatgen
data_SbOF
_symmetry_space_group_name_H-M   'P 1'
_cell_length_a   8.90806882
_cell_length_b   4.18013048
_cell_length_c   5.86826272
_cell_angle_alpha   90.00000000
_cell_angle_beta   90.00000000
_cell_angle_gamma   90.00000000
_symmetry_Int_Tables_number   1
_chemical_formula_structural   SbOF
_chemical_formula_sum   'Sb4 O4 F4'
_cell_volume   218.51585355
_cell_formula_units_Z   4
loop_
 _symmetry_equiv_pos_site_id
 _symmetry_equiv_pos_as_xyz
  1  'x, y, z'
loop_
 _atom_site_type_symbol
 _atom_site_label
 _atom_site_symmetry_multiplicity
 _atom_site_fract_x
 _atom_site_fract_y
 _atom_site_fract_z
 _atom_site_occupancy
  Sb  Sb0  1  0.43123469  0.75000000  0.70378952  1.0
  Sb  Sb1  1  0.93123469  0.75000000  0.79621048  1.0
  Sb  Sb2  1  0.56876531  0.25000000  0.29621048  1.0
  Sb  Sb3  1  0.06876531  0.25000000  0.20378952  1.0
  O  O4  1  0.05069585  0.75000000  0.09104889  1.0
  O  O5  1  0.55069585  0.75000000  0.40895111  1.0
  O  O6  1  0.94930415  0.25000000  0.90895111  1.0
  O  O7  1  0.44930415  0.25000000  0.59104889  1.0
  F  F8  1  0.22683270  0.75000000  0.55887337  1.0
  F  F9  1  0.72683270  0.75000000  0.94112663  1.0
  F  F10  1  0.77316730  0.25000000  0.44112663  1.0
  F  F11  1  0.27316730  0.25000000  0.05887337  1.0
