# generated using pymatgen
data_Mg3Al9FeSi5
_symmetry_space_group_name_H-M   'P 1'
_cell_length_a   6.63109292
_cell_length_b   6.63109292
_cell_length_c   7.86787358
_cell_angle_alpha   90.00000000
_cell_angle_beta   90.00000000
_cell_angle_gamma   120.00000000
_symmetry_Int_Tables_number   1
_chemical_formula_structural   Mg3Al9FeSi5
_chemical_formula_sum   'Mg3 Al9 Fe1 Si5'
_cell_volume   299.61132997
_cell_formula_units_Z   1
loop_
 _symmetry_equiv_pos_site_id
 _symmetry_equiv_pos_as_xyz
  1  'x, y, z'
loop_
 _atom_site_type_symbol
 _atom_site_label
 _atom_site_symmetry_multiplicity
 _atom_site_fract_x
 _atom_site_fract_y
 _atom_site_fract_z
 _atom_site_occupancy
  Mg  Mg0  1  0.41735897  0.41735897  0.50000000  1.0
  Mg  Mg1  1  -0.00000000  0.58264103  0.50000000  1.0
  Mg  Mg2  1  0.58264103  0.00000000  0.50000000  1.0
  Al  Al3  1  0.75082372  0.75082372  0.77668698  1.0
  Al  Al4  1  0.75082372  0.75082372  0.22331302  1.0
  Al  Al5  1  0.00000000  0.24917628  0.77668698  1.0
  Al  Al6  1  0.00000000  0.24917628  0.22331302  1.0
  Al  Al7  1  0.24917628  0.00000000  0.77668698  1.0
  Al  Al8  1  0.24917628  0.00000000  0.22331302  1.0
  Al  Al9  1  0.37628522  0.37628522  0.00000000  1.0
  Al  Al10  1  -0.00000000  0.62371478  0.00000000  1.0
  Al  Al11  1  0.62371478  0.00000000  0.00000000  1.0
  Fe  Fe12  1  0.00000000  0.00000000  0.00000000  1.0
  Si  Si13  1  0.33333333  0.66666667  0.76216480  1.0
  Si  Si14  1  0.33333333  0.66666667  0.23783520  1.0
  Si  Si15  1  0.66666667  0.33333333  0.76216480  1.0
  Si  Si16  1  0.66666667  0.33333333  0.23783520  1.0
  Si  Si17  1  0.00000000  0.00000000  0.50000000  1.0
