# generated using pymatgen
data_AgPb2Br5
_symmetry_space_group_name_H-M   'P 1'
_cell_length_a   9.12489918
_cell_length_b   9.12489918
_cell_length_c   8.09027732
_cell_angle_alpha   85.43266439
_cell_angle_beta   94.56733561
_cell_angle_gamma   132.75767771
_symmetry_Int_Tables_number   1
_chemical_formula_structural   AgPb2Br5
_chemical_formula_sum   'Ag2 Pb4 Br10'
_cell_volume   492.72668200
_cell_formula_units_Z   2
loop_
 _symmetry_equiv_pos_site_id
 _symmetry_equiv_pos_as_xyz
  1  'x, y, z'
loop_
 _atom_site_type_symbol
 _atom_site_label
 _atom_site_symmetry_multiplicity
 _atom_site_fract_x
 _atom_site_fract_y
 _atom_site_fract_z
 _atom_site_occupancy
  Ag  Ag0  1  1.50000000  -0.00000000  0.50000000  1.0
  Ag  Ag1  1  1.00000000  -0.50000000  -0.00000000  1.0
  Pb  Pb2  1  1.65758580  -0.13810974  0.94416220  1.0
  Pb  Pb3  1  1.13810974  -0.65758580  0.44416220  1.0
  Pb  Pb4  1  0.86189026  -0.34241420  0.55583780  1.0
  Pb  Pb5  1  1.34241420  0.13810974  0.05583780  1.0
  Br  Br6  1  1.69503560  0.14250510  0.17387040  1.0
  Br  Br7  1  0.85749490  -0.69503560  0.67387040  1.0
  Br  Br8  1  1.14250510  -0.30496440  0.32612960  1.0
  Br  Br9  1  1.30496440  -0.14250510  0.82612960  1.0
  Br  Br10  1  1.46886587  0.29357447  0.41989025  1.0
  Br  Br11  1  0.70642553  -0.46886587  0.91989025  1.0
  Br  Br12  1  1.29357447  -0.53113413  0.08010975  1.0
  Br  Br13  1  1.53113413  -0.29357447  0.58010975  1.0
  Br  Br14  1  0.93349361  0.93349361  0.25000000  1.0
  Br  Br15  1  0.06650639  0.06650639  0.75000000  1.0
