# generated using pymatgen
data_Re3S4Br
_symmetry_space_group_name_H-M   'P 1'
_cell_length_a   6.42782509
_cell_length_b   11.60845007
_cell_length_c   11.38799500
_cell_angle_alpha   90.00000000
_cell_angle_beta   112.53379001
_cell_angle_gamma   90.00000000
_symmetry_Int_Tables_number   1
_chemical_formula_structural   Re3S4Br
_chemical_formula_sum   'Re12 S16 Br4'
_cell_volume   784.86456799
_cell_formula_units_Z   4
loop_
 _symmetry_equiv_pos_site_id
 _symmetry_equiv_pos_as_xyz
  1  'x, y, z'
loop_
 _atom_site_type_symbol
 _atom_site_label
 _atom_site_symmetry_multiplicity
 _atom_site_fract_x
 _atom_site_fract_y
 _atom_site_fract_z
 _atom_site_occupancy
  Re  Re0  1  0.96559182  0.35504494  0.05836877  1.0
  Re  Re1  1  0.96559182  0.14495506  0.55836877  1.0
  Re  Re2  1  0.03440818  0.85504494  0.44163123  1.0
  Re  Re3  1  0.03440818  0.64495506  0.94163123  1.0
  Re  Re4  1  0.97060179  0.06509514  0.34600155  1.0
  Re  Re5  1  0.97060179  0.43490486  0.84600155  1.0
  Re  Re6  1  0.02939821  0.56509514  0.15399845  1.0
  Re  Re7  1  0.02939821  0.93490486  0.65399845  1.0
  Re  Re8  1  0.69310148  0.97797257  0.43999186  1.0
  Re  Re9  1  0.69310148  0.52202743  0.93999186  1.0
  Re  Re10  1  0.30689852  0.47797257  0.06000814  1.0
  Re  Re11  1  0.30689852  0.02202743  0.56000814  1.0
  S  S12  1  0.72322725  0.44241403  0.15169994  1.0
  S  S13  1  0.72322725  0.05758597  0.65169994  1.0
  S  S14  1  0.27677275  0.94241403  0.34830006  1.0
  S  S15  1  0.27677275  0.55758597  0.84830006  1.0
  S  S16  1  0.72102542  0.90629361  0.24924261  1.0
  S  S17  1  0.72102542  0.59370639  0.74924261  1.0
  S  S18  1  0.27897458  0.40629361  0.25075739  1.0
  S  S19  1  0.27897458  0.09370639  0.75075739  1.0
  S  S20  1  0.65850333  0.17090935  0.35594799  1.0
  S  S21  1  0.65850333  0.32909065  0.85594799  1.0
  S  S22  1  0.34149667  0.67090935  0.14405201  1.0
  S  S23  1  0.34149667  0.82909065  0.64405201  1.0
  S  S24  1  0.22493670  0.21221735  0.46871621  1.0
  S  S25  1  0.22493670  0.28778265  0.96871621  1.0
  S  S26  1  0.77506330  0.71221735  0.03128379  1.0
  S  S27  1  0.77506330  0.78778265  0.53128379  1.0
  Br  Br28  1  0.90616376  0.14128017  0.11712183  1.0
  Br  Br29  1  0.90616376  0.35871983  0.61712183  1.0
  Br  Br30  1  0.09383624  0.64128017  0.38287817  1.0
  Br  Br31  1  0.09383624  0.85871983  0.88287817  1.0
