# generated using pymatgen
data_Li2SnSe3
_symmetry_space_group_name_H-M   'P 1'
_cell_length_a   7.33972425
_cell_length_b   7.33972425
_cell_length_c   7.92617276
_cell_angle_alpha   63.50404070
_cell_angle_beta   116.49595930
_cell_angle_gamma   120.14354827
_symmetry_Int_Tables_number   1
_chemical_formula_structural   Li2SnSe3
_chemical_formula_sum   'Li4 Sn2 Se6'
_cell_volume   316.56853057
_cell_formula_units_Z   2
loop_
 _symmetry_equiv_pos_site_id
 _symmetry_equiv_pos_as_xyz
  1  'x, y, z'
loop_
 _atom_site_type_symbol
 _atom_site_label
 _atom_site_symmetry_multiplicity
 _atom_site_fract_x
 _atom_site_fract_y
 _atom_site_fract_z
 _atom_site_occupancy
  Li  Li0  1  1.77045748  0.05092462  0.03320722  1.0
  Li  Li1  1  0.94907538  -0.77045748  0.53320722  1.0
  Li  Li2  1  1.24995762  -0.12101885  0.50995822  1.0
  Li  Li3  1  1.12101885  -0.24995762  1.00995822  1.0
  Sn  Sn4  1  0.58819852  0.58398751  0.50104994  1.0
  Sn  Sn5  1  0.41601249  0.41180148  0.00104994  1.0
  Se  Se6  1  1.89525588  -0.05990567  0.40436038  1.0
  Se  Se7  1  1.05990567  -0.89525588  0.90436038  1.0
  Se  Se8  1  1.21316559  -0.40454913  0.38446009  1.0
  Se  Se9  1  1.40454913  -0.21316559  0.88446009  1.0
  Se  Se10  1  1.56244046  0.27783707  0.39136416  1.0
  Se  Se11  1  0.72216293  -0.56244046  0.89136416  1.0
