# generated using pymatgen
data_Rb4CdCl6
_symmetry_space_group_name_H-M   'P 1'
_cell_length_a   9.03380536
_cell_length_b   9.03380536
_cell_length_c   9.03380536
_cell_angle_alpha   89.48017370
_cell_angle_beta   89.48017370
_cell_angle_gamma   89.48017370
_symmetry_Int_Tables_number   1
_chemical_formula_structural   Rb4CdCl6
_chemical_formula_sum   'Rb8 Cd2 Cl12'
_cell_volume   737.15511655
_cell_formula_units_Z   2
loop_
 _symmetry_equiv_pos_site_id
 _symmetry_equiv_pos_as_xyz
  1  'x, y, z'
loop_
 _atom_site_type_symbol
 _atom_site_label
 _atom_site_symmetry_multiplicity
 _atom_site_fract_x
 _atom_site_fract_y
 _atom_site_fract_z
 _atom_site_occupancy
  Rb  Rb0  1  0.87532137  0.25000000  -0.37532137  1.0
  Rb  Rb1  1  0.37532137  0.12467863  -0.25000000  1.0
  Rb  Rb2  1  0.75000000  0.37532137  -0.87532137  1.0
  Rb  Rb3  1  0.25000000  0.62467863  -0.12467863  1.0
  Rb  Rb4  1  0.12467863  0.75000000  -0.62467863  1.0
  Rb  Rb5  1  0.62467863  -0.12467863  0.25000000  1.0
  Rb  Rb6  1  1.25000000  1.25000000  0.25000000  1.0
  Rb  Rb7  1  0.75000000  0.75000000  -0.25000000  1.0
  Cd  Cd8  1  0.50000000  0.50000000  -0.50000000  1.0
  Cd  Cd9  1  0.00000000  0.00000000  0.00000000  1.0
  Cl  Cl10  1  0.21582897  0.43026688  -0.44149857  1.0
  Cl  Cl11  1  0.71582897  0.05850143  -0.06973312  1.0
  Cl  Cl12  1  0.94149857  0.06973312  -0.71582897  1.0
  Cl  Cl13  1  0.44149857  0.78417103  -0.43026688  1.0
  Cl  Cl14  1  0.56973312  0.44149857  -0.21582897  1.0
  Cl  Cl15  1  1.06973312  -0.71582897  -0.05850143  1.0
  Cl  Cl16  1  0.78417103  0.56973312  -0.55850143  1.0
  Cl  Cl17  1  0.28417103  -0.05850143  0.06973312  1.0
  Cl  Cl18  1  0.55850143  0.21582897  -0.56973312  1.0
  Cl  Cl19  1  1.05850143  -0.06973312  -0.28417103  1.0
  Cl  Cl20  1  0.93026688  -0.28417103  0.05850143  1.0
  Cl  Cl21  1  0.43026688  0.55850143  -0.78417103  1.0
