# generated using pymatgen
data_Sc6Sn5
_symmetry_space_group_name_H-M   'P 1'
_cell_length_a   10.97965179
_cell_length_b   10.97965179
_cell_length_c   10.97965179
_cell_angle_alpha   132.27430335
_cell_angle_beta   58.79290495
_cell_angle_gamma   147.72041767
_symmetry_Int_Tables_number   1
_chemical_formula_structural   Sc6Sn5
_chemical_formula_sum   'Sc12 Sn10'
_cell_volume   518.74366089
_cell_formula_units_Z   2
loop_
 _symmetry_equiv_pos_site_id
 _symmetry_equiv_pos_as_xyz
  1  'x, y, z'
loop_
 _atom_site_type_symbol
 _atom_site_label
 _atom_site_symmetry_multiplicity
 _atom_site_fract_x
 _atom_site_fract_y
 _atom_site_fract_z
 _atom_site_occupancy
  Sc  Sc0  1  0.35877546  0.38525072  0.74402618  1.0
  Sc  Sc1  1  0.14122454  0.88525072  1.02647526  1.0
  Sc  Sc2  1  0.85877546  1.11474928  0.97352474  1.0
  Sc  Sc3  1  0.64122454  0.61474928  0.25597382  1.0
  Sc  Sc4  1  0.06212706  0.26002338  0.32215044  1.0
  Sc  Sc5  1  0.43787294  0.76002338  1.19789633  1.0
  Sc  Sc6  1  0.56212706  1.23997662  0.80210367  1.0
  Sc  Sc7  1  0.93787294  0.73997662  0.67784956  1.0
  Sc  Sc8  1  0.94355271  1.25000000  0.69355271  1.0
  Sc  Sc9  1  0.44355271  0.75000000  0.69355271  1.0
  Sc  Sc10  1  1.05644729  0.75000000  0.30644729  1.0
  Sc  Sc11  1  0.55644729  0.25000000  0.30644729  1.0
  Sn  Sn12  1  0.20856821  0.19735458  0.40592279  1.0
  Sn  Sn13  1  0.29143179  0.69735458  0.98878636  1.0
  Sn  Sn14  1  0.70856821  1.30264542  1.01121364  1.0
  Sn  Sn15  1  0.79143179  0.80264542  0.59407721  1.0
  Sn  Sn16  1  0.42838362  0.09610587  0.52448949  1.0
  Sn  Sn17  1  0.07161638  0.59610587  0.66772224  1.0
  Sn  Sn18  1  0.92838362  1.40389413  1.33227776  1.0
  Sn  Sn19  1  0.57161638  0.90389413  0.47551051  1.0
  Sn  Sn20  1  0.25000000  0.25000000  0.00000000  1.0
  Sn  Sn21  1  0.75000000  0.75000000  0.00000000  1.0
