# generated using pymatgen
data_BAsPbO5
_symmetry_space_group_name_H-M   'P 1'
_cell_length_a   7.30382092
_cell_length_b   7.30382092
_cell_length_c   6.99752201
_cell_angle_alpha   90.00000000
_cell_angle_beta   90.00000000
_cell_angle_gamma   120.00000000
_symmetry_Int_Tables_number   1
_chemical_formula_structural   BAsPbO5
_chemical_formula_sum   'B3 As3 Pb3 O15'
_cell_volume   323.27724554
_cell_formula_units_Z   3
loop_
 _symmetry_equiv_pos_site_id
 _symmetry_equiv_pos_as_xyz
  1  'x, y, z'
loop_
 _atom_site_type_symbol
 _atom_site_label
 _atom_site_symmetry_multiplicity
 _atom_site_fract_x
 _atom_site_fract_y
 _atom_site_fract_z
 _atom_site_occupancy
  B  B0  1  0.98664284  0.89386706  0.71272055  1.0
  B  B1  1  0.90722422  0.01335716  0.37938721  1.0
  B  B2  1  0.10613294  0.09277578  0.04605388  1.0
  As  As3  1  0.40209899  0.99865370  0.85483360  1.0
  As  As4  1  0.59655472  0.59790101  0.52150027  1.0
  As  As5  1  0.00134630  0.40344528  0.18816694  1.0
  Pb  Pb6  1  0.39427212  0.99892203  0.35497330  1.0
  Pb  Pb7  1  0.60464991  0.60572788  0.02163997  1.0
  Pb  Pb8  1  0.00107797  0.39535009  0.68830663  1.0
  O  O9  1  0.95828005  0.94439946  0.90767734  1.0
  O  O10  1  0.98611940  0.04171995  0.57434400  1.0
  O  O11  1  0.05560054  0.01388060  0.24101067  1.0
  O  O12  1  0.18352808  0.87075750  0.69492212  1.0
  O  O13  1  0.68722943  0.81647192  0.36158879  1.0
  O  O14  1  0.12924250  0.31277057  0.02825545  1.0
  O  O15  1  0.42885388  0.83956874  0.01781334  1.0
  O  O16  1  0.41071486  0.57114612  0.68448001  1.0
  O  O17  1  0.16043126  0.58928514  0.35114667  1.0
  O  O18  1  0.81952617  0.66460047  0.67039702  1.0
  O  O19  1  0.84507430  0.18047383  0.33706368  1.0
  O  O20  1  0.33539953  0.15492570  0.00373035  1.0
  O  O21  1  0.85807613  0.46104420  0.03279607  1.0
  O  O22  1  0.60296807  0.14192387  0.69946273  1.0
  O  O23  1  0.53895580  0.39703193  0.36612940  1.0
