# generated using pymatgen
data_K2WC2O9
_symmetry_space_group_name_H-M   'P 1'
_cell_length_a   7.15091201
_cell_length_b   9.04076170
_cell_length_c   15.37753048
_cell_angle_alpha   90.00000000
_cell_angle_beta   115.36431754
_cell_angle_gamma   90.00000000
_symmetry_Int_Tables_number   1
_chemical_formula_structural   K2WC2O9
_chemical_formula_sum   'K8 W4 C8 O36'
_cell_volume   898.31852453
_cell_formula_units_Z   4
loop_
 _symmetry_equiv_pos_site_id
 _symmetry_equiv_pos_as_xyz
  1  'x, y, z'
loop_
 _atom_site_type_symbol
 _atom_site_label
 _atom_site_symmetry_multiplicity
 _atom_site_fract_x
 _atom_site_fract_y
 _atom_site_fract_z
 _atom_site_occupancy
  K  K0  1  0.79612778  0.84749127  0.02590343  1.0
  K  K1  1  0.79612778  0.65250873  0.52590343  1.0
  K  K2  1  0.20387222  0.15250873  0.97409657  1.0
  K  K3  1  0.20387222  0.34749127  0.47409657  1.0
  K  K4  1  0.50956269  0.93118111  0.26966435  1.0
  K  K5  1  0.50956269  0.56881889  0.76966435  1.0
  K  K6  1  0.49043731  0.06881889  0.73033565  1.0
  K  K7  1  0.49043731  0.43118111  0.23033565  1.0
  W  W8  1  0.09593131  0.70544153  0.33461551  1.0
  W  W9  1  0.09593131  0.79455847  0.83461551  1.0
  W  W10  1  0.90406869  0.29455847  0.66538449  1.0
  W  W11  1  0.90406869  0.20544153  0.16538449  1.0
  C  C12  1  0.25328545  0.93246080  0.48746551  1.0
  C  C13  1  0.25328545  0.56753920  0.98746551  1.0
  C  C14  1  0.74671455  0.06753920  0.51253449  1.0
  C  C15  1  0.74671455  0.43246080  0.01253449  1.0
  C  C16  1  0.29623191  0.78748934  0.54812698  1.0
  C  C17  1  0.29623191  0.71251066  0.04812698  1.0
  C  C18  1  0.70376809  0.21251066  0.45187302  1.0
  C  C19  1  0.70376809  0.28748934  0.95187302  1.0
  O  O20  1  0.84199279  0.71771764  0.35619816  1.0
  O  O21  1  0.84199279  0.78228236  0.85619816  1.0
  O  O22  1  0.15800721  0.28228236  0.64380184  1.0
  O  O23  1  0.15800721  0.21771764  0.14380184  1.0
  O  O24  1  0.88390392  0.56608363  0.33123020  1.0
  O  O25  1  0.88390392  0.93391637  0.83123020  1.0
  O  O26  1  0.11609608  0.43391637  0.66876980  1.0
  O  O27  1  0.11609608  0.06608363  0.16876980  1.0
  O  O28  1  0.39500933  0.67856586  0.36808703  1.0
  O  O29  1  0.39500933  0.82143414  0.86808703  1.0
  O  O30  1  0.60499067  0.32143414  0.63191297  1.0
  O  O31  1  0.60499067  0.17856586  0.13191297  1.0
  O  O32  1  0.27395549  0.53900759  0.33795527  1.0
  O  O33  1  0.27395549  0.96099241  0.83795527  1.0
  O  O34  1  0.72604451  0.46099241  0.66204473  1.0
  O  O35  1  0.72604451  0.03900759  0.16204473  1.0
  O  O36  1  0.00558467  0.76912671  0.21719325  1.0
  O  O37  1  0.00558467  0.73087329  0.71719325  1.0
  O  O38  1  0.99441533  0.23087329  0.78280675  1.0
  O  O39  1  0.99441533  0.26912671  0.28280675  1.0
  O  O40  1  0.17056476  0.91223511  0.39405368  1.0
  O  O41  1  0.17056476  0.58776489  0.89405368  1.0
  O  O42  1  0.82943524  0.08776489  0.60594632  1.0
  O  O43  1  0.82943524  0.41223511  0.10594632  1.0
  O  O44  1  0.29406825  0.05486159  0.52594253  1.0
  O  O45  1  0.29406825  0.44513841  0.02594253  1.0
  O  O46  1  0.70593175  0.94513841  0.47405747  1.0
  O  O47  1  0.70593175  0.55486159  0.97405747  1.0
  O  O48  1  0.22768356  0.66967556  0.49715182  1.0
  O  O49  1  0.22768356  0.83032444  0.99715182  1.0
  O  O50  1  0.77231644  0.33032444  0.50284818  1.0
  O  O51  1  0.77231644  0.16967556  0.00284818  1.0
  O  O52  1  0.38743718  0.79521778  0.63694440  1.0
  O  O53  1  0.38743718  0.70478222  0.13694440  1.0
  O  O54  1  0.61256282  0.20478222  0.36305560  1.0
  O  O55  1  0.61256282  0.29521778  0.86305560  1.0
