# generated using pymatgen
data_NbS2
_symmetry_space_group_name_H-M   'P 1'
_cell_length_a   6.90066681
_cell_length_b   6.90066681
_cell_length_c   6.90066681
_cell_angle_alpha   28.05221837
_cell_angle_beta   28.05221837
_cell_angle_gamma   28.05221837
_symmetry_Int_Tables_number   1
_chemical_formula_structural   NbS2
_chemical_formula_sum   'Nb1 S2'
_cell_volume   64.19335818
_cell_formula_units_Z   1
loop_
 _symmetry_equiv_pos_site_id
 _symmetry_equiv_pos_as_xyz
  1  'x, y, z'
loop_
 _atom_site_type_symbol
 _atom_site_label
 _atom_site_symmetry_multiplicity
 _atom_site_fract_x
 _atom_site_fract_y
 _atom_site_fract_z
 _atom_site_occupancy
  Nb  Nb0  1  0.58098854  0.58098854  -0.41901146  1.0
  S  S1  1  -0.00698650  -0.00698650  -0.00698650  1.0
  S  S2  1  0.83569796  -0.16430204  -0.16430204  1.0
