# generated using pymatgen
data_Na2Se2O7
_symmetry_space_group_name_H-M   'P 1'
_cell_length_a   7.11135622
_cell_length_b   7.23052756
_cell_length_c   7.31242650
_cell_angle_alpha   66.59296598
_cell_angle_beta   81.21335649
_cell_angle_gamma   82.22091408
_symmetry_Int_Tables_number   1
_chemical_formula_structural   Na2Se2O7
_chemical_formula_sum   'Na4 Se4 O14'
_cell_volume   339.84700827
_cell_formula_units_Z   2
loop_
 _symmetry_equiv_pos_site_id
 _symmetry_equiv_pos_as_xyz
  1  'x, y, z'
loop_
 _atom_site_type_symbol
 _atom_site_label
 _atom_site_symmetry_multiplicity
 _atom_site_fract_x
 _atom_site_fract_y
 _atom_site_fract_z
 _atom_site_occupancy
  Na  Na0  1  0.92437554  0.27233019  0.72892736  1.0
  Na  Na1  1  0.07562446  0.72766981  0.27107264  1.0
  Na  Na2  1  0.34631221  0.89300944  0.73328564  1.0
  Na  Na3  1  0.65368779  0.10699056  0.26671436  1.0
  Se  Se4  1  0.85337082  0.78562018  0.74022903  1.0
  Se  Se5  1  0.14662918  0.21437982  0.25977097  1.0
  Se  Se6  1  0.39777124  0.35326437  0.82043217  1.0
  Se  Se7  1  0.60222876  0.64673563  0.17956783  1.0
  O  O8  1  0.00074776  0.90089958  0.80551533  1.0
  O  O9  1  0.99925224  0.09910042  0.19448467  1.0
  O  O10  1  0.95965988  0.63623249  0.62843206  1.0
  O  O11  1  0.04034012  0.36376751  0.37156794  1.0
  O  O12  1  0.74851007  0.59678483  0.96677871  1.0
  O  O13  1  0.25148993  0.40321517  0.03322129  1.0
  O  O14  1  0.73272044  0.78233717  0.23669904  1.0
  O  O15  1  0.26727956  0.21766283  0.76330096  1.0
  O  O16  1  0.67916901  0.94392037  0.62828305  1.0
  O  O17  1  0.32083099  0.05607963  0.37171695  1.0
  O  O18  1  0.59896826  0.23323064  0.90735928  1.0
  O  O19  1  0.40103174  0.76676936  0.09264072  1.0
  O  O20  1  0.41334288  0.58790293  0.66574280  1.0
  O  O21  1  0.58665712  0.41209707  0.33425720  1.0
