# generated using pymatgen
data_Ba(P2Au)2
_symmetry_space_group_name_H-M   'P 1'
_cell_length_a   12.10870415
_cell_length_b   11.68445843
_cell_length_c   5.57996911
_cell_angle_alpha   80.71374910
_cell_angle_beta   72.23523630
_cell_angle_gamma   27.05101460
_symmetry_Int_Tables_number   1
_chemical_formula_structural   Ba(P2Au)2
_chemical_formula_sum   'Ba2 P8 Au4'
_cell_volume   330.63227120
_cell_formula_units_Z   2
loop_
 _symmetry_equiv_pos_site_id
 _symmetry_equiv_pos_as_xyz
  1  'x, y, z'
loop_
 _atom_site_type_symbol
 _atom_site_label
 _atom_site_symmetry_multiplicity
 _atom_site_fract_x
 _atom_site_fract_y
 _atom_site_fract_z
 _atom_site_occupancy
  Ba  Ba0  1  0.50000000  0.50000000  0.50000000  1.0
  Ba  Ba1  1  0.75000000  -0.25000000  0.75000000  1.0
  P  P2  1  0.15267790  0.50491919  0.11979374  1.0
  P  P3  1  0.22260917  0.11979374  0.50491919  1.0
  P  P4  1  0.11979374  0.22260917  0.15267790  1.0
  P  P5  1  0.50491919  0.15267790  0.22260917  1.0
  P  P6  1  0.09732210  0.74508081  0.13020626  1.0
  P  P7  1  1.02739083  0.13020626  0.74508081  1.0
  P  P8  1  0.13020626  1.02739083  0.09732210  1.0
  P  P9  1  0.74508081  0.09732210  1.02739083  1.0
  Au  Au10  1  0.33596771  0.33596771  -0.33596771  1.0
  Au  Au11  1  -0.33596771  0.66403229  0.33596771  1.0
  Au  Au12  1  -0.08596771  0.91403229  0.58596771  1.0
  Au  Au13  1  0.58596771  0.58596771  -0.08596771  1.0
