# generated using pymatgen
data_Cs2Li3I5
_symmetry_space_group_name_H-M   'P 1'
_cell_length_a   8.77986531
_cell_length_b   8.77986531
_cell_length_c   11.11452597
_cell_angle_alpha   65.85781815
_cell_angle_beta   114.14218185
_cell_angle_gamma   148.55503343
_symmetry_Int_Tables_number   1
_chemical_formula_structural   Cs2Li3I5
_chemical_formula_sum   'Cs2 Li3 I5'
_cell_volume   404.60777005
_cell_formula_units_Z   1
loop_
 _symmetry_equiv_pos_site_id
 _symmetry_equiv_pos_as_xyz
  1  'x, y, z'
loop_
 _atom_site_type_symbol
 _atom_site_label
 _atom_site_symmetry_multiplicity
 _atom_site_fract_x
 _atom_site_fract_y
 _atom_site_fract_z
 _atom_site_occupancy
  Cs  Cs0  1  0.81563347  -0.81563347  0.27108781  1.0
  Cs  Cs1  1  0.18436653  -0.18436653  0.72891219  1.0
  Li  Li2  1  1.45087206  -0.45087206  0.70893123  1.0
  Li  Li3  1  0.54912794  0.45087206  0.29106877  1.0
  Li  Li4  1  0.00000000  0.00000000  0.00000000  1.0
  I  I5  1  0.86426253  -0.86426253  0.70569069  1.0
  I  I6  1  0.13573747  -0.13573747  0.29430931  1.0
  I  I7  1  0.60104922  0.39895078  0.93805705  1.0
  I  I8  1  1.39895078  -0.39895078  0.06194295  1.0
  I  I9  1  0.50000000  0.50000000  0.50000000  1.0
