# generated using pymatgen
data_AgAsS2
_symmetry_space_group_name_H-M   'P 1'
_cell_length_a   8.67639038
_cell_length_b   8.67639038
_cell_length_c   17.87970836
_cell_angle_alpha   78.54130247
_cell_angle_beta   101.45869753
_cell_angle_gamma   125.55829650
_symmetry_Int_Tables_number   1
_chemical_formula_structural   AgAsS2
_chemical_formula_sum   'Ag12 As12 S24'
_cell_volume   1067.31271648
_cell_formula_units_Z   12
loop_
 _symmetry_equiv_pos_site_id
 _symmetry_equiv_pos_as_xyz
  1  'x, y, z'
loop_
 _atom_site_type_symbol
 _atom_site_label
 _atom_site_symmetry_multiplicity
 _atom_site_fract_x
 _atom_site_fract_y
 _atom_site_fract_z
 _atom_site_occupancy
  Ag  Ag0  1  0.54763809  -0.32203955  0.89988418  1.0
  Ag  Ag1  1  1.32203955  0.45236191  0.39988418  1.0
  Ag  Ag2  1  0.67796045  0.54763809  0.60011582  1.0
  Ag  Ag3  1  0.45236191  0.32203955  0.10011582  1.0
  Ag  Ag4  1  0.26005764  -0.04086938  0.92099052  1.0
  Ag  Ag5  1  1.04086938  0.73994236  0.42099052  1.0
  Ag  Ag6  1  0.95913062  0.26005764  0.57900948  1.0
  Ag  Ag7  1  0.73994236  0.04086938  0.07900948  1.0
  Ag  Ag8  1  0.87248868  0.87248868  0.75000000  1.0
  Ag  Ag9  1  0.12751132  0.12751132  0.25000000  1.0
  Ag  Ag10  1  0.36546529  0.36546529  0.75000000  1.0
  Ag  Ag11  1  0.63453471  0.63453471  0.25000000  1.0
  As  As12  1  0.79615011  -0.02341723  0.41167962  1.0
  As  As13  1  1.02341723  0.20384989  0.91167962  1.0
  As  As14  1  0.97658277  0.79615011  0.08832038  1.0
  As  As15  1  0.20384989  0.02341723  0.58832038  1.0
  As  As16  1  0.43605226  -0.21534673  0.58600916  1.0
  As  As17  1  1.21534673  0.56394774  0.08600916  1.0
  As  As18  1  0.78465327  0.43605226  0.91399084  1.0
  As  As19  1  0.56394774  0.21534673  0.41399084  1.0
  As  As20  1  0.61394827  0.12581741  0.72821435  1.0
  As  As21  1  0.87418259  0.38605173  0.22821435  1.0
  As  As22  1  1.12581741  0.61394827  0.77178565  1.0
  As  As23  1  0.38605173  -0.12581741  0.27178565  1.0
  S  S24  1  0.47306833  0.33417222  0.89759243  1.0
  S  S25  1  0.66582778  0.52693167  0.39759243  1.0
  S  S26  1  1.33417222  0.47306833  0.60240757  1.0
  S  S27  1  0.52693167  -0.33417222  0.10240757  1.0
  S  S28  1  0.89826533  -0.08950269  0.60380604  1.0
  S  S29  1  1.08950269  0.10173467  0.10380604  1.0
  S  S30  1  0.91049731  0.89826533  0.89619396  1.0
  S  S31  1  0.10173467  0.08950269  0.39619396  1.0
  S  S32  1  0.52719615  -0.18430811  0.71696942  1.0
  S  S33  1  1.18430811  0.47280385  0.21696942  1.0
  S  S34  1  0.81569189  0.52719615  0.78303058  1.0
  S  S35  1  0.47280385  0.18430811  0.28303058  1.0
  S  S36  1  0.72397262  0.13321211  0.92270771  1.0
  S  S37  1  0.86678789  0.27602738  0.42270771  1.0
  S  S38  1  1.13321211  0.72397262  0.57729229  1.0
  S  S39  1  0.27602738  -0.13321211  0.07729229  1.0
  S  S40  1  0.67290514  0.25295118  0.60511214  1.0
  S  S41  1  0.74704882  0.32709486  0.10511214  1.0
  S  S42  1  1.25295118  0.67290514  0.89488786  1.0
  S  S43  1  0.32709486  -0.25295118  0.39488786  1.0
  S  S44  1  0.29615006  0.04045881  0.71981232  1.0
  S  S45  1  0.95954119  0.70384994  0.21981232  1.0
  S  S46  1  1.04045881  0.29615006  0.78018768  1.0
  S  S47  1  0.70384994  -0.04045881  0.28018768  1.0
