# generated using pymatgen
data_Sr5P3BrO12
_symmetry_space_group_name_H-M   'P 1'
_cell_length_a   10.14943193
_cell_length_b   10.14943193
_cell_length_c   7.23700180
_cell_angle_alpha   90.00000000
_cell_angle_beta   90.00000000
_cell_angle_gamma   120.00000000
_symmetry_Int_Tables_number   1
_chemical_formula_structural   Sr5P3BrO12
_chemical_formula_sum   'Sr10 P6 Br2 O24'
_cell_volume   645.61376758
_cell_formula_units_Z   2
loop_
 _symmetry_equiv_pos_site_id
 _symmetry_equiv_pos_as_xyz
  1  'x, y, z'
loop_
 _atom_site_type_symbol
 _atom_site_label
 _atom_site_symmetry_multiplicity
 _atom_site_fract_x
 _atom_site_fract_y
 _atom_site_fract_z
 _atom_site_occupancy
  Sr  Sr0  1  1.00072457  0.73984336  0.25000000  1.0
  Sr  Sr1  1  0.73984336  0.73911879  0.75000000  1.0
  Sr  Sr2  1  0.73911879  -0.00072457  0.25000000  1.0
  Sr  Sr3  1  0.26015664  0.26088121  0.25000000  1.0
  Sr  Sr4  1  -0.00072457  0.26015664  0.75000000  1.0
  Sr  Sr5  1  0.26088121  1.00072457  0.75000000  1.0
  Sr  Sr6  1  0.33333333  0.66666667  0.50214834  1.0
  Sr  Sr7  1  0.33333333  0.66666667  -0.00214834  1.0
  Sr  Sr8  1  0.66666667  0.33333333  1.00214834  1.0
  Sr  Sr9  1  0.66666667  0.33333333  0.49785166  1.0
  P  P10  1  0.37378951  0.96398663  0.25000000  1.0
  P  P11  1  0.96398663  0.59019712  0.75000000  1.0
  P  P12  1  0.59019712  0.62621049  0.25000000  1.0
  P  P13  1  0.03601337  0.40980288  0.25000000  1.0
  P  P14  1  0.62621049  0.03601337  0.75000000  1.0
  P  P15  1  0.40980288  0.37378951  0.75000000  1.0
  Br  Br16  1  0.00000000  0.00000000  0.50000000  1.0
  Br  Br17  1  0.00000000  0.00000000  0.00000000  1.0
  O  O18  1  0.26975737  0.91127888  0.42484535  1.0
  O  O19  1  0.26975737  0.91127888  0.07515465  1.0
  O  O20  1  0.91127888  0.64152151  0.92484535  1.0
  O  O21  1  0.91127888  0.64152151  0.57515465  1.0
  O  O22  1  0.64152151  0.73024263  0.42484535  1.0
  O  O23  1  0.64152151  0.73024263  0.07515465  1.0
  O  O24  1  0.08872112  0.35847849  0.42484535  1.0
  O  O25  1  0.08872112  0.35847849  0.07515465  1.0
  O  O26  1  0.73024263  0.08872112  0.92484535  1.0
  O  O27  1  0.73024263  0.08872112  0.57515465  1.0
  O  O28  1  0.35847849  0.26975737  0.92484535  1.0
  O  O29  1  0.35847849  0.26975737  0.57515465  1.0
  O  O30  1  0.46328355  0.87451531  0.25000000  1.0
  O  O31  1  0.87451531  0.41123177  0.75000000  1.0
  O  O32  1  0.41123177  0.53671645  0.25000000  1.0
  O  O33  1  0.12548469  0.58876823  0.25000000  1.0
  O  O34  1  0.53671645  0.12548469  0.75000000  1.0
  O  O35  1  0.58876823  0.46328355  0.75000000  1.0
  O  O36  1  0.65354019  0.51402727  0.25000000  1.0
  O  O37  1  0.51402727  0.86048707  0.75000000  1.0
  O  O38  1  0.86048707  0.34645981  0.25000000  1.0
  O  O39  1  0.48597273  0.13951293  0.25000000  1.0
  O  O40  1  0.34645981  0.48597273  0.75000000  1.0
  O  O41  1  0.13951293  0.65354019  0.75000000  1.0
