# generated using pymatgen
data_Ba5Mg18Si13
_symmetry_space_group_name_H-M   'P 1'
_cell_length_a   14.54189892
_cell_length_b   14.54189892
_cell_length_c   4.49379899
_cell_angle_alpha   90.00000000
_cell_angle_beta   90.00000000
_cell_angle_gamma   120.00000000
_symmetry_Int_Tables_number   1
_chemical_formula_structural   Ba5Mg18Si13
_chemical_formula_sum   'Ba5 Mg18 Si13'
_cell_volume   822.97476178
_cell_formula_units_Z   1
loop_
 _symmetry_equiv_pos_site_id
 _symmetry_equiv_pos_as_xyz
  1  'x, y, z'
loop_
 _atom_site_type_symbol
 _atom_site_label
 _atom_site_symmetry_multiplicity
 _atom_site_fract_x
 _atom_site_fract_y
 _atom_site_fract_z
 _atom_site_occupancy
  Ba  Ba0  1  0.17983407  0.17983407  0.50000000  1.0
  Ba  Ba1  1  0.00000000  0.82016593  0.50000000  1.0
  Ba  Ba2  1  0.82016593  -0.00000000  0.50000000  1.0
  Ba  Ba3  1  0.33333333  0.66666667  -0.00000000  1.0
  Ba  Ba4  1  0.66666667  0.33333333  0.00000000  1.0
  Mg  Mg5  1  0.12197438  0.63893216  0.50000000  1.0
  Mg  Mg6  1  0.63893216  0.12197438  0.50000000  1.0
  Mg  Mg7  1  0.51695778  0.87802562  0.50000000  1.0
  Mg  Mg8  1  0.36106784  0.48304222  0.50000000  1.0
  Mg  Mg9  1  0.87802562  0.51695778  0.50000000  1.0
  Mg  Mg10  1  0.48304222  0.36106784  0.50000000  1.0
  Mg  Mg11  1  0.19543666  0.82271913  0.00000000  1.0
  Mg  Mg12  1  0.82271913  0.19543666  -0.00000000  1.0
  Mg  Mg13  1  0.62728247  0.80456334  -0.00000000  1.0
  Mg  Mg14  1  0.17728087  0.37271753  -0.00000000  1.0
  Mg  Mg15  1  0.80456334  0.62728247  -0.00000000  1.0
  Mg  Mg16  1  0.37271753  0.17728087  0.00000000  1.0
  Mg  Mg17  1  0.72230892  0.72230892  0.50000000  1.0
  Mg  Mg18  1  0.00000000  0.27769108  0.50000000  1.0
  Mg  Mg19  1  0.27769108  0.00000000  0.50000000  1.0
  Mg  Mg20  1  0.55802708  0.55802708  -0.00000000  1.0
  Mg  Mg21  1  0.00000000  0.44197292  0.00000000  1.0
  Mg  Mg22  1  0.44197292  -0.00000000  -0.00000000  1.0
  Si  Si23  1  0.30877937  0.83349019  0.50000000  1.0
  Si  Si24  1  0.83349019  0.30877937  0.50000000  1.0
  Si  Si25  1  0.52471082  0.69122063  0.50000000  1.0
  Si  Si26  1  0.16650981  0.47528918  0.50000000  1.0
  Si  Si27  1  0.69122063  0.52471082  0.50000000  1.0
  Si  Si28  1  0.47528918  0.16650981  0.50000000  1.0
  Si  Si29  1  0.83384473  0.83384473  0.00000000  1.0
  Si  Si30  1  0.00000000  0.16615527  0.00000000  1.0
  Si  Si31  1  0.16615527  0.00000000  -0.00000000  1.0
  Si  Si32  1  0.37026571  0.37026571  -0.00000000  1.0
  Si  Si33  1  0.00000000  0.62973429  0.00000000  1.0
  Si  Si34  1  0.62973429  -0.00000000  -0.00000000  1.0
  Si  Si35  1  -0.00000000  0.00000000  -0.00000000  1.0
