# generated using pymatgen
data_B12Pb6O25
_symmetry_space_group_name_H-M   'P 1'
_cell_length_a   8.93814308
_cell_length_b   8.93814308
_cell_length_c   8.93814308
_cell_angle_alpha   81.82129671
_cell_angle_beta   81.82129671
_cell_angle_gamma   81.82129671
_symmetry_Int_Tables_number   1
_chemical_formula_structural   B12Pb6O25
_chemical_formula_sum   'B12 Pb6 O25'
_cell_volume   694.17318534
_cell_formula_units_Z   1
loop_
 _symmetry_equiv_pos_site_id
 _symmetry_equiv_pos_as_xyz
  1  'x, y, z'
loop_
 _atom_site_type_symbol
 _atom_site_label
 _atom_site_symmetry_multiplicity
 _atom_site_fract_x
 _atom_site_fract_y
 _atom_site_fract_z
 _atom_site_occupancy
  O  O0  1  1.60931497  1.00058266  0.20948790  1.0
  O  O1  1  1.60931497  1.20948790  0.00058266  1.0
  O  O2  1  0.79051210  -0.00058266  0.39068503  1.0
  O  O3  1  0.79051210  0.39068503  -0.00058266  1.0
  O  O4  1  0.99941734  -0.20948790  0.39068503  1.0
  O  O5  1  0.99941734  0.39068503  -0.20948790  1.0
  O  O6  1  1.39068503  -0.00058266  -0.20948790  1.0
  O  O7  1  1.39068503  -0.20948790  -0.00058266  1.0
  O  O8  1  1.20948790  1.60931497  0.00058266  1.0
  O  O9  1  1.20948790  1.00058266  0.60931497  1.0
  O  O10  1  1.00058266  1.60931497  0.20948790  1.0
  O  O11  1  1.00058266  1.20948790  0.60931497  1.0
  O  O12  1  0.14521383  0.14521383  -0.17915930  1.0
  O  O13  1  0.14521383  0.82084070  -0.85478617  1.0
  O  O14  1  1.17915930  -0.14521383  -0.14521383  1.0
  O  O15  1  0.85478617  0.17915930  -0.14521383  1.0
  O  O16  1  0.85478617  -0.14521383  0.17915930  1.0
  O  O17  1  0.82084070  0.14521383  -0.85478617  1.0
  O  O18  1  1.10891957  1.10891957  0.38146004  1.0
  O  O19  1  1.10891957  1.38146004  0.10891957  1.0
  O  O20  1  0.61853996  0.89108043  -0.10891957  1.0
  O  O21  1  0.89108043  0.61853996  -0.10891957  1.0
  O  O22  1  0.89108043  0.89108043  -0.38146004  1.0
  O  O23  1  1.38146004  1.10891957  0.10891957  1.0
  O  O24  1  0.00000000  0.00000000  0.00000000  1.0
  Pb  Pb25  1  0.29545247  0.29545247  -0.08116588  1.0
  Pb  Pb26  1  0.29545247  0.91883412  -0.70454753  1.0
  Pb  Pb27  1  1.08116588  -0.29545247  -0.29545247  1.0
  Pb  Pb28  1  0.70454753  0.08116588  -0.29545247  1.0
  Pb  Pb29  1  0.70454753  -0.29545247  0.08116588  1.0
  Pb  Pb30  1  0.91883412  0.29545247  -0.70454753  1.0
  B  B31  1  1.10659422  1.10659422  0.53646705  1.0
  B  B32  1  1.10659422  1.53646705  0.10659422  1.0
  B  B33  1  0.46353295  0.89340578  -0.10659422  1.0
  B  B34  1  0.89340578  0.46353295  -0.10659422  1.0
  B  B35  1  0.89340578  0.89340578  -0.53646705  1.0
  B  B36  1  1.53646705  1.10659422  0.10659422  1.0
  B  B37  1  0.77150439  -0.00000000  0.22849561  1.0
  B  B38  1  0.77150439  -0.77150439  -0.00000000  1.0
  B  B39  1  0.00000000  0.77150439  -0.77150439  1.0
  B  B40  1  -0.00000000  0.22849561  -0.22849561  1.0
  B  B41  1  1.22849561  0.00000000  -0.22849561  1.0
  B  B42  1  0.22849561  -0.22849561  0.00000000  1.0
