# generated using pymatgen
data_CaTe
_symmetry_space_group_name_H-M   'P 1'
_cell_length_a   7.65025106
_cell_length_b   4.46371585
_cell_length_c   7.73498195
_cell_angle_alpha   90.00000000
_cell_angle_beta   90.00000000
_cell_angle_gamma   90.00000000
_symmetry_Int_Tables_number   1
_chemical_formula_structural   CaTe
_chemical_formula_sum   'Ca4 Te4'
_cell_volume   264.13839373
_cell_formula_units_Z   4
loop_
 _symmetry_equiv_pos_site_id
 _symmetry_equiv_pos_as_xyz
  1  'x, y, z'
loop_
 _atom_site_type_symbol
 _atom_site_label
 _atom_site_symmetry_multiplicity
 _atom_site_fract_x
 _atom_site_fract_y
 _atom_site_fract_z
 _atom_site_occupancy
  Ca  Ca0  1  0.50001333  0.75000000  0.75001260  1.0
  Ca  Ca1  1  1.00001333  0.75000000  0.74998740  1.0
  Ca  Ca2  1  0.49998667  0.25000000  0.24998740  1.0
  Ca  Ca3  1  -0.00001333  0.25000000  0.25001260  1.0
  Te  Te4  1  0.24998615  0.75000000  1.08339060  1.0
  Te  Te5  1  0.74998615  0.75000000  0.41660940  1.0
  Te  Te6  1  0.75001385  0.25000000  -0.08339060  1.0
  Te  Te7  1  0.25001385  0.25000000  0.58339060  1.0
