# generated using pymatgen
data_Gd3W(ClO2)3
_symmetry_space_group_name_H-M   'P 1'
_cell_length_a   9.23098693
_cell_length_b   9.23098693
_cell_length_c   5.31368976
_cell_angle_alpha   90.00000000
_cell_angle_beta   90.00000000
_cell_angle_gamma   120.00000000
_symmetry_Int_Tables_number   1
_chemical_formula_structural   Gd3W(ClO2)3
_chemical_formula_sum   'Gd6 W2 Cl6 O12'
_cell_volume   392.12370599
_cell_formula_units_Z   2
loop_
 _symmetry_equiv_pos_site_id
 _symmetry_equiv_pos_as_xyz
  1  'x, y, z'
loop_
 _atom_site_type_symbol
 _atom_site_label
 _atom_site_symmetry_multiplicity
 _atom_site_fract_x
 _atom_site_fract_y
 _atom_site_fract_z
 _atom_site_occupancy
  Gd  Gd0  1  0.68282152  0.59450679  0.25000000  1.0
  Gd  Gd1  1  0.59450679  0.91168526  0.75000000  1.0
  Gd  Gd2  1  0.91168526  0.31717848  0.25000000  1.0
  Gd  Gd3  1  0.40549321  0.08831474  0.25000000  1.0
  Gd  Gd4  1  0.31717848  0.40549321  0.75000000  1.0
  Gd  Gd5  1  0.08831474  0.68282152  0.75000000  1.0
  W  W6  1  0.33333333  0.66666667  0.25000000  1.0
  W  W7  1  0.66666667  0.33333333  0.75000000  1.0
  Cl  Cl8  1  0.04819575  0.80706604  0.25000000  1.0
  Cl  Cl9  1  0.80706604  0.75887028  0.75000000  1.0
  Cl  Cl10  1  0.75887028  0.95180425  0.25000000  1.0
  Cl  Cl11  1  0.19293396  0.24112972  0.25000000  1.0
  Cl  Cl12  1  0.95180425  0.19293396  0.75000000  1.0
  Cl  Cl13  1  0.24112972  0.04819575  0.75000000  1.0
  O  O14  1  0.36577154  0.84183930  0.48413924  1.0
  O  O15  1  0.36577154  0.84183930  0.01586076  1.0
  O  O16  1  0.84183930  0.47606777  0.98413924  1.0
  O  O17  1  0.84183930  0.47606777  0.51586076  1.0
  O  O18  1  0.47606777  0.63422846  0.48413924  1.0
  O  O19  1  0.47606777  0.63422846  0.01586076  1.0
  O  O20  1  0.15816070  0.52393223  0.48413924  1.0
  O  O21  1  0.15816070  0.52393223  0.01586076  1.0
  O  O22  1  0.63422846  0.15816070  0.98413924  1.0
  O  O23  1  0.63422846  0.15816070  0.51586076  1.0
  O  O24  1  0.52393223  0.36577154  0.98413924  1.0
  O  O25  1  0.52393223  0.36577154  0.51586076  1.0
