# generated using pymatgen
data_Li7Si2
_symmetry_space_group_name_H-M   'P 1'
_cell_length_a   8.04491930
_cell_length_b   14.90123352
_cell_length_c   4.46063635
_cell_angle_alpha   90.00000000
_cell_angle_beta   90.00000000
_cell_angle_gamma   90.00000000
_symmetry_Int_Tables_number   1
_chemical_formula_structural   Li7Si2
_chemical_formula_sum   'Li28 Si8'
_cell_volume   534.73761128
_cell_formula_units_Z   4
loop_
 _symmetry_equiv_pos_site_id
 _symmetry_equiv_pos_as_xyz
  1  'x, y, z'
loop_
 _atom_site_type_symbol
 _atom_site_label
 _atom_site_symmetry_multiplicity
 _atom_site_fract_x
 _atom_site_fract_y
 _atom_site_fract_z
 _atom_site_occupancy
  Li  Li0  1  0.32660695  0.48734082  0.50000000  1.0
  Li  Li1  1  0.82660695  1.01265918  0.50000000  1.0
  Li  Li2  1  0.67339305  0.51265918  0.50000000  1.0
  Li  Li3  1  0.17339305  -0.01265918  0.50000000  1.0
  Li  Li4  1  0.29673751  0.83316847  0.50000000  1.0
  Li  Li5  1  0.79673751  0.66683153  0.50000000  1.0
  Li  Li6  1  0.70326249  0.16683153  0.50000000  1.0
  Li  Li7  1  0.20326249  0.33316847  0.50000000  1.0
  Li  Li8  1  0.11642777  0.68945506  0.50000000  1.0
  Li  Li9  1  0.61642777  0.81054494  0.50000000  1.0
  Li  Li10  1  0.88357223  0.31054494  0.50000000  1.0
  Li  Li11  1  0.38357223  0.18945506  0.50000000  1.0
  Li  Li12  1  0.41450347  0.75730817  0.00000000  1.0
  Li  Li13  1  0.91450347  0.74269183  0.00000000  1.0
  Li  Li14  1  0.58549653  0.24269183  0.00000000  1.0
  Li  Li15  1  0.08549653  0.25730817  0.00000000  1.0
  Li  Li16  1  0.23368754  0.60224992  0.00000000  1.0
  Li  Li17  1  0.73368754  0.89775008  0.00000000  1.0
  Li  Li18  1  0.76631246  0.39775008  0.00000000  1.0
  Li  Li19  1  0.26631246  0.10224992  0.00000000  1.0
  Li  Li20  1  0.12137964  0.85614455  0.00000000  1.0
  Li  Li21  1  0.62137964  0.64385545  0.00000000  1.0
  Li  Li22  1  0.87862036  0.14385545  0.00000000  1.0
  Li  Li23  1  0.37862036  0.35614455  0.00000000  1.0
  Li  Li24  1  0.50000000  0.00000000  0.50000000  1.0
  Li  Li25  1  0.00000000  0.50000000  0.50000000  1.0
  Li  Li26  1  0.50000000  0.50000000  0.00000000  1.0
  Li  Li27  1  0.00000000  0.00000000  0.00000000  1.0
  Si  Si28  1  0.44284423  0.65358193  0.50000000  1.0
  Si  Si29  1  0.94284423  0.84641807  0.50000000  1.0
  Si  Si30  1  0.55715577  0.34641807  0.50000000  1.0
  Si  Si31  1  0.05715577  0.15358193  0.50000000  1.0
  Si  Si32  1  0.39920396  0.93606440  0.00000000  1.0
  Si  Si33  1  0.89920396  0.56393560  0.00000000  1.0
  Si  Si34  1  0.60079604  0.06393560  0.00000000  1.0
  Si  Si35  1  0.10079604  0.43606440  0.00000000  1.0
