# generated using pymatgen
data_La5(CoB3)2
_symmetry_space_group_name_H-M   'P 1'
_cell_length_a   9.12567380
_cell_length_b   9.12567380
_cell_length_c   9.12567380
_cell_angle_alpha   34.85731781
_cell_angle_beta   34.85731781
_cell_angle_gamma   34.85731781
_symmetry_Int_Tables_number   1
_chemical_formula_structural   La5(CoB3)2
_chemical_formula_sum   'La5 Co2 B6'
_cell_volume   221.59902571
_cell_formula_units_Z   1
loop_
 _symmetry_equiv_pos_site_id
 _symmetry_equiv_pos_as_xyz
  1  'x, y, z'
loop_
 _atom_site_type_symbol
 _atom_site_label
 _atom_site_symmetry_multiplicity
 _atom_site_fract_x
 _atom_site_fract_y
 _atom_site_fract_z
 _atom_site_occupancy
  La  La0  1  0.75068604  0.75068604  0.75068604  1.0
  La  La1  1  1.24931396  1.24931396  0.24931396  1.0
  La  La2  1  1.58187638  0.58187638  0.58187638  1.0
  La  La3  1  1.41812362  0.41812362  0.41812362  1.0
  La  La4  1  0.00000000  0.00000000  0.00000000  1.0
  Co  Co5  1  0.87605456  0.87605456  0.87605456  1.0
  Co  Co6  1  1.12394544  1.12394544  0.12394544  1.0
  B  B7  1  1.16713721  0.50000000  0.83286279  1.0
  B  B8  1  1.16713721  0.83286279  0.50000000  1.0
  B  B9  1  1.50000000  0.16713721  0.83286279  1.0
  B  B10  1  1.50000000  0.83286279  0.16713721  1.0
  B  B11  1  1.83286279  0.50000000  0.16713721  1.0
  B  B12  1  1.83286279  0.16713721  0.50000000  1.0
