# generated using pymatgen
data_Mg2B(PO5)2
_symmetry_space_group_name_H-M   'P 1'
_cell_length_a   6.54025781
_cell_length_b   8.39356950
_cell_length_c   6.54025438
_cell_angle_alpha   84.13876395
_cell_angle_beta   81.32660286
_cell_angle_gamma   84.13761617
_symmetry_Int_Tables_number   1
_chemical_formula_structural   Mg2B(PO5)2
_chemical_formula_sum   'Mg4 B2 P4 O20'
_cell_volume   351.69694760
_cell_formula_units_Z   2
loop_
 _symmetry_equiv_pos_site_id
 _symmetry_equiv_pos_as_xyz
  1  'x, y, z'
loop_
 _atom_site_type_symbol
 _atom_site_label
 _atom_site_symmetry_multiplicity
 _atom_site_fract_x
 _atom_site_fract_y
 _atom_site_fract_z
 _atom_site_occupancy
  O  O0  1  -0.13311626  -0.06356985  -0.13104806  1.0
  O  O1  1  -0.38721020  -0.33400621  -0.09009768  1.0
  O  O2  1  -0.40729779  -0.06314222  -0.40635451  1.0
  O  O3  1  -0.44614039  -0.41287153  -0.44517227  1.0
  O  O4  1  -0.72143472  -0.41245538  -0.71936906  1.0
  O  O5  1  -0.76238405  -0.14202741  -0.46526981  1.0
  O  O6  1  -0.07685216  -0.81703619  -0.41664148  1.0
  O  O7  1  -0.43585741  -0.65898920  -0.77562021  1.0
  O  O8  1  -0.49245380  -0.83261612  0.01450470  1.0
  O  O9  1  -0.86696259  -0.64342423  -0.36002983  1.0
  O  O10  1  -0.76255809  -0.04930004  -0.05880994  1.0
  O  O11  1  -0.79369649  -0.42673459  -0.08992011  1.0
  O  O12  1  -0.08303287  -0.45610125  -0.79703501  1.0
  O  O13  1  -0.05543161  -0.01990866  -0.76946192  1.0
  O  O14  1  -1.01524784  -0.80098284  -0.06412580  1.0
  O  O15  1  -0.78837791  -0.67504401  -0.83722578  1.0
  O  O16  1  -0.22919211  -0.59399972  -0.21945090  1.0
  O  O17  1  -0.63303515  -0.88203362  -0.62329457  1.0
  O  O18  1  -0.45941391  -0.14756663  -0.76028731  1.0
  O  O19  1  -0.09218989  -0.32846392  -0.39307293  1.0
  P  P20  1  0.00854979  0.01022226  -0.00265181  1.0
  P  P21  1  -0.28791291  -0.41251683  -0.29085182  1.0
  P  P22  1  -0.56163147  -0.06351300  -0.56456276  1.0
  P  P23  1  -0.84984203  -0.48624632  -0.86103003  1.0
  Mg  Mg24  1  -0.08012388  -0.07117341  -0.46024947  1.0
  Mg  Mg25  1  -0.39225243  -0.40485479  -0.77234828  1.0
  Mg  Mg26  1  -0.45177723  -0.08276672  -0.07860157  1.0
  Mg  Mg27  1  -0.77388104  -0.39325225  -0.40069770  1.0
  B  B28  1  -0.05410553  -0.71169366  -0.26366064  1.0
  B  B29  1  -0.58883803  -0.76433163  -0.79836342  1.0
