# generated using pymatgen
data_Mg2VBiO6
_symmetry_space_group_name_H-M   'P 1'
_cell_length_a   12.42940134
_cell_length_b   5.50570005
_cell_length_c   7.99178130
_cell_angle_alpha   90.00000000
_cell_angle_beta   90.00000000
_cell_angle_gamma   90.00000000
_symmetry_Int_Tables_number   1
_chemical_formula_structural   Mg2VBiO6
_chemical_formula_sum   'Mg8 V4 Bi4 O24'
_cell_volume   546.89801768
_cell_formula_units_Z   4
loop_
 _symmetry_equiv_pos_site_id
 _symmetry_equiv_pos_as_xyz
  1  'x, y, z'
loop_
 _atom_site_type_symbol
 _atom_site_label
 _atom_site_symmetry_multiplicity
 _atom_site_fract_x
 _atom_site_fract_y
 _atom_site_fract_z
 _atom_site_occupancy
  Mg  Mg0  1  0.41461520  0.75000000  0.19979078  1.0
  Mg  Mg1  1  0.91461520  0.75000000  0.30020922  1.0
  Mg  Mg2  1  0.58538480  0.25000000  0.80020922  1.0
  Mg  Mg3  1  0.08538480  0.25000000  0.69979078  1.0
  Mg  Mg4  1  0.40473945  0.75000000  0.81332535  1.0
  Mg  Mg5  1  0.90473945  0.75000000  0.68667465  1.0
  Mg  Mg6  1  0.59526055  0.25000000  0.18667465  1.0
  Mg  Mg7  1  0.09526055  0.25000000  0.31332535  1.0
  V  V8  1  0.19870658  0.75000000  0.52099490  1.0
  V  V9  1  0.69870658  0.75000000  0.97900510  1.0
  V  V10  1  0.80129342  0.25000000  0.47900510  1.0
  V  V11  1  0.30129342  0.25000000  0.02099490  1.0
  Bi  Bi12  1  0.09112832  0.75000000  0.98663524  1.0
  Bi  Bi13  1  0.59112832  0.75000000  0.51336476  1.0
  Bi  Bi14  1  0.90887168  0.25000000  0.01336476  1.0
  Bi  Bi15  1  0.40887168  0.25000000  0.48663524  1.0
  O  O16  1  0.49241383  0.99757694  0.67174365  1.0
  O  O17  1  0.49241383  0.50242306  0.67174365  1.0
  O  O18  1  0.99241383  0.99757694  0.82825635  1.0
  O  O19  1  0.99241383  0.50242306  0.82825635  1.0
  O  O20  1  0.50758617  0.49757694  0.32825635  1.0
  O  O21  1  0.50758617  0.00242306  0.32825635  1.0
  O  O22  1  0.00758617  0.49757694  0.17174365  1.0
  O  O23  1  0.00758617  0.00242306  0.17174365  1.0
  O  O24  1  0.11850740  0.00898543  0.50768958  1.0
  O  O25  1  0.11850740  0.49101457  0.50768958  1.0
  O  O26  1  0.61850740  0.00898543  0.99231042  1.0
  O  O27  1  0.61850740  0.49101457  0.99231042  1.0
  O  O28  1  0.88149260  0.50898543  0.49231042  1.0
  O  O29  1  0.88149260  0.99101457  0.49231042  1.0
  O  O30  1  0.38149260  0.50898543  0.00768958  1.0
  O  O31  1  0.38149260  0.99101457  0.00768958  1.0
  O  O32  1  0.25799156  0.75000000  0.71199703  1.0
  O  O33  1  0.75799156  0.75000000  0.78800297  1.0
  O  O34  1  0.74200844  0.25000000  0.28800297  1.0
  O  O35  1  0.24200844  0.25000000  0.21199703  1.0
  O  O36  1  0.79405797  0.75000000  0.13126039  1.0
  O  O37  1  0.29405797  0.75000000  0.36873961  1.0
  O  O38  1  0.20594203  0.25000000  0.86873961  1.0
  O  O39  1  0.70594203  0.25000000  0.63126039  1.0
