# generated using pymatgen
data_TlSn2I5
_symmetry_space_group_name_H-M   'P 1'
_cell_length_a   10.08976016
_cell_length_b   10.08976016
_cell_length_c   10.08976016
_cell_angle_alpha   127.43868203
_cell_angle_beta   127.43868203
_cell_angle_gamma   77.53612203
_symmetry_Int_Tables_number   1
_chemical_formula_structural   TlSn2I5
_chemical_formula_sum   'Tl2 Sn4 I10'
_cell_volume   628.02424275
_cell_formula_units_Z   2
loop_
 _symmetry_equiv_pos_site_id
 _symmetry_equiv_pos_as_xyz
  1  'x, y, z'
loop_
 _atom_site_type_symbol
 _atom_site_label
 _atom_site_symmetry_multiplicity
 _atom_site_fract_x
 _atom_site_fract_y
 _atom_site_fract_z
 _atom_site_occupancy
  Tl  Tl0  1  0.75000000  0.75000000  1.00000000  1.0
  Tl  Tl1  1  0.25000000  0.25000000  -0.00000000  1.0
  Sn  Sn2  1  0.32545335  0.82545335  1.15090671  1.0
  Sn  Sn3  1  0.17454665  0.32545335  0.50000000  1.0
  Sn  Sn4  1  0.82545335  0.67454665  1.50000000  1.0
  Sn  Sn5  1  0.67454665  0.17454665  0.84909329  1.0
  I  I6  1  0.70425671  1.20425671  1.18349693  1.0
  I  I7  1  0.97924022  0.47924022  1.18349693  1.0
  I  I8  1  0.52075978  0.70425671  0.50000000  1.0
  I  I9  1  0.79574329  0.97924022  1.50000000  1.0
  I  I10  1  1.20425671  1.02075978  1.50000000  1.0
  I  I11  1  0.47924022  0.29574329  0.50000000  1.0
  I  I12  1  1.02075978  0.52075978  0.81650307  1.0
  I  I13  1  0.29574329  0.79574329  0.81650307  1.0
  I  I14  1  0.00000000  0.00000000  0.00000000  1.0
  I  I15  1  0.50000000  0.50000000  1.00000000  1.0
