# generated using pymatgen
data_Mg3B7ClO13
_symmetry_space_group_name_H-M   'P 1'
_cell_length_a   8.59607884
_cell_length_b   8.59607884
_cell_length_c   8.59607884
_cell_angle_alpha   60.00000000
_cell_angle_beta   60.00000000
_cell_angle_gamma   60.00000000
_symmetry_Int_Tables_number   1
_chemical_formula_structural   Mg3B7ClO13
_chemical_formula_sum   'Mg6 B14 Cl2 O26'
_cell_volume   449.14458926
_cell_formula_units_Z   2
loop_
 _symmetry_equiv_pos_site_id
 _symmetry_equiv_pos_as_xyz
  1  'x, y, z'
loop_
 _atom_site_type_symbol
 _atom_site_label
 _atom_site_symmetry_multiplicity
 _atom_site_fract_x
 _atom_site_fract_y
 _atom_site_fract_z
 _atom_site_occupancy
  Mg  Mg0  1  0.50000000  0.00000000  -0.00000000  1.0
  Mg  Mg1  1  1.00000000  0.50000000  -0.50000000  1.0
  Mg  Mg2  1  -0.50000000  0.50000000  1.00000000  1.0
  Mg  Mg3  1  0.00000000  0.50000000  -0.00000000  1.0
  Mg  Mg4  1  0.00000000  -0.00000000  0.50000000  1.0
  Mg  Mg5  1  0.50000000  1.00000000  -0.50000000  1.0
  B  B6  1  0.91931426  0.91931426  -0.08068574  1.0
  B  B7  1  0.41931426  1.41931426  0.41931426  1.0
  B  B8  1  0.24205721  0.91931426  -0.08068574  1.0
  B  B9  1  -0.25794279  0.41931426  0.41931426  1.0
  B  B10  1  0.91931426  0.91931426  -0.75794279  1.0
  B  B11  1  0.41931426  1.41931426  -0.25794279  1.0
  B  B12  1  0.91931426  0.24205721  -0.08068574  1.0
  B  B13  1  0.41931426  -0.25794279  0.41931426  1.0
  B  B14  1  -0.75000000  0.75000000  0.75000000  1.0
  B  B15  1  -0.25000000  0.25000000  0.25000000  1.0
  B  B16  1  0.25000000  1.25000000  -0.25000000  1.0
  B  B17  1  -0.25000000  0.25000000  0.75000000  1.0
  B  B18  1  -0.25000000  0.75000000  0.25000000  1.0
  B  B19  1  0.25000000  -0.25000000  0.25000000  1.0
  Cl  Cl20  1  0.75000000  0.75000000  -0.25000000  1.0
  Cl  Cl21  1  0.25000000  0.25000000  0.25000000  1.0
  O  O22  1  0.74186078  1.06266306  -0.10408904  1.0
  O  O23  1  0.24186078  1.39591096  0.56266306  1.0
  O  O24  1  -0.70043479  0.89591096  1.06266306  1.0
  O  O25  1  -0.20043479  0.56266306  0.39591096  1.0
  O  O26  1  0.39591096  1.56266306  0.24186078  1.0
  O  O27  1  -0.10408904  0.74186078  1.06266306  1.0
  O  O28  1  -0.20043479  0.24186078  0.56266306  1.0
  O  O29  1  0.29956521  1.06266306  -0.25813922  1.0
  O  O30  1  1.06266306  0.89591096  -0.25813922  1.0
  O  O31  1  0.56266306  1.24186078  0.39591096  1.0
  O  O32  1  -0.70043479  0.74186078  0.89591096  1.0
  O  O33  1  -0.20043479  0.39591096  0.24186078  1.0
  O  O34  1  1.06266306  0.74186078  -0.70043479  1.0
  O  O35  1  0.39591096  1.24186078  -0.20043479  1.0
  O  O36  1  -0.10408904  0.29956521  0.74186078  1.0
  O  O37  1  0.56266306  -0.20043479  0.24186078  1.0
  O  O38  1  0.56266306  1.39591096  -0.20043479  1.0
  O  O39  1  -0.25813922  0.89591096  0.29956521  1.0
  O  O40  1  0.24186078  -0.20043479  0.39591096  1.0
  O  O41  1  1.06266306  0.29956521  -0.10408904  1.0
  O  O42  1  0.89591096  1.06266306  -0.70043479  1.0
  O  O43  1  0.24186078  1.56266306  -0.20043479  1.0
  O  O44  1  -0.25813922  0.29956521  1.06266306  1.0
  O  O45  1  0.39591096  -0.20043479  0.56266306  1.0
  O  O46  1  0.00000000  0.00000000  0.00000000  1.0
  O  O47  1  -0.50000000  0.50000000  0.50000000  1.0
