# generated using pymatgen
data_Bi
_symmetry_space_group_name_H-M   'P 1'
_cell_length_a   6.63028736
_cell_length_b   6.63028736
_cell_length_c   6.70040196
_cell_angle_alpha   90.00000000
_cell_angle_beta   90.00000000
_cell_angle_gamma   61.50683498
_symmetry_Int_Tables_number   1
_chemical_formula_structural   Bi
_chemical_formula_sum   Bi8
_cell_volume   258.87623890
_cell_formula_units_Z   8
loop_
 _symmetry_equiv_pos_site_id
 _symmetry_equiv_pos_as_xyz
  1  'x, y, z'
loop_
 _atom_site_type_symbol
 _atom_site_label
 _atom_site_symmetry_multiplicity
 _atom_site_fract_x
 _atom_site_fract_y
 _atom_site_fract_z
 _atom_site_occupancy
  Bi  Bi0  1  -0.32165266  1.32165266  0.33520326  1.0
  Bi  Bi1  1  0.17834734  0.82165266  0.16479674  1.0
  Bi  Bi2  1  0.32165266  0.67834734  0.66479674  1.0
  Bi  Bi3  1  -0.17834734  1.17834734  0.83520326  1.0
  Bi  Bi4  1  0.20408071  1.20408071  0.50000000  1.0
  Bi  Bi5  1  -0.29591929  0.70408071  0.00000000  1.0
  Bi  Bi6  1  -0.20408071  0.79591929  0.50000000  1.0
  Bi  Bi7  1  0.29591929  1.29591929  0.00000000  1.0
