# generated using pymatgen
data_Ba(PdS2)2
_symmetry_space_group_name_H-M   'P 1'
_cell_length_a   6.77239751
_cell_length_b   6.87762144
_cell_length_c   7.31437640
_cell_angle_alpha   90.00000000
_cell_angle_beta   109.87991311
_cell_angle_gamma   90.00000000
_symmetry_Int_Tables_number   1
_chemical_formula_structural   Ba(PdS2)2
_chemical_formula_sum   'Ba2 Pd4 S8'
_cell_volume   320.38638525
_cell_formula_units_Z   2
loop_
 _symmetry_equiv_pos_site_id
 _symmetry_equiv_pos_as_xyz
  1  'x, y, z'
loop_
 _atom_site_type_symbol
 _atom_site_label
 _atom_site_symmetry_multiplicity
 _atom_site_fract_x
 _atom_site_fract_y
 _atom_site_fract_z
 _atom_site_occupancy
  Ba  Ba0  1  0.71480955  0.75000000  0.50441374  1.0
  Ba  Ba1  1  0.28519045  0.25000000  0.49558626  1.0
  Pd  Pd2  1  0.48305383  0.75000000  0.99067180  1.0
  Pd  Pd3  1  0.51694617  0.25000000  0.00932820  1.0
  Pd  Pd4  1  0.00000000  -0.00000000  0.00000000  1.0
  Pd  Pd5  1  0.00000000  0.50000000  0.00000000  1.0
  S  S6  1  0.63244016  0.99428723  0.85669518  1.0
  S  S7  1  0.63244016  0.50571277  0.85669518  1.0
  S  S8  1  0.36755984  0.49428723  0.14330482  1.0
  S  S9  1  0.36755984  0.00571277  0.14330482  1.0
  S  S10  1  0.97383048  0.75000000  0.21073379  1.0
  S  S11  1  0.02616952  0.25000000  0.78926621  1.0
  S  S12  1  0.20644472  0.75000000  0.48775255  1.0
  S  S13  1  0.79355528  0.25000000  0.51224745  1.0
