# generated using pymatgen
data_LiYbF4
_symmetry_space_group_name_H-M   'P 1'
_cell_length_a   6.51238771
_cell_length_b   6.51238771
_cell_length_c   6.51238771
_cell_angle_alpha   132.88435575
_cell_angle_beta   132.88435575
_cell_angle_gamma   68.83581861
_symmetry_Int_Tables_number   1
_chemical_formula_structural   LiYbF4
_chemical_formula_sum   'Li2 Yb2 F8'
_cell_volume   145.58411882
_cell_formula_units_Z   2
loop_
 _symmetry_equiv_pos_site_id
 _symmetry_equiv_pos_as_xyz
  1  'x, y, z'
loop_
 _atom_site_type_symbol
 _atom_site_label
 _atom_site_symmetry_multiplicity
 _atom_site_fract_x
 _atom_site_fract_y
 _atom_site_fract_z
 _atom_site_occupancy
  Li  Li0  1  0.75000000  0.25000000  0.50000000  1.0
  Li  Li1  1  1.00000000  1.00000000  1.00000000  1.0
  Yb  Yb2  1  0.25000000  0.75000000  0.50000000  1.0
  Yb  Yb3  1  0.50000000  0.50000000  0.00000000  1.0
  F  F4  1  0.63718843  0.74675504  0.55006612  1.0
  F  F5  1  1.19668892  1.08712232  1.44993388  1.0
  F  F6  1  0.83712232  0.88718843  1.39043340  1.0
  F  F7  1  0.49675504  0.44668892  0.60956660  1.0
  F  F8  1  1.11281157  0.50324496  0.94993388  1.0
  F  F9  1  0.55331108  1.16287768  1.05006612  1.0
  F  F10  1  0.91287768  1.36281157  1.10956660  1.0
  F  F11  1  1.25324496  0.80331108  0.89043340  1.0
