# generated using pymatgen
data_Yb2B6Mo
_symmetry_space_group_name_H-M   'P 1'
_cell_length_a   9.25496394
_cell_length_b   11.55917994
_cell_length_c   3.56579994
_cell_angle_alpha   90.00000000
_cell_angle_beta   90.00000000
_cell_angle_gamma   90.00000000
_symmetry_Int_Tables_number   1
_chemical_formula_structural   Yb2B6Mo
_chemical_formula_sum   'Yb8 B24 Mo4'
_cell_volume   381.46854088
_cell_formula_units_Z   4
loop_
 _symmetry_equiv_pos_site_id
 _symmetry_equiv_pos_as_xyz
  1  'x, y, z'
loop_
 _atom_site_type_symbol
 _atom_site_label
 _atom_site_symmetry_multiplicity
 _atom_site_fract_x
 _atom_site_fract_y
 _atom_site_fract_z
 _atom_site_occupancy
  Yb  Yb0  1  0.17602905  0.91364330  0.50000000  1.0
  Yb  Yb1  1  0.67602905  0.58635670  0.50000000  1.0
  Yb  Yb2  1  0.82397095  0.08635670  0.50000000  1.0
  Yb  Yb3  1  0.32397095  0.41364330  0.50000000  1.0
  Yb  Yb4  1  0.05569995  0.62853597  0.50000000  1.0
  Yb  Yb5  1  0.55569995  0.87146403  0.50000000  1.0
  Yb  Yb6  1  0.94430005  0.37146403  0.50000000  1.0
  Yb  Yb7  1  0.44430005  0.12853597  0.50000000  1.0
  B  B8  1  0.44723292  0.56484657  0.00000000  1.0
  B  B9  1  0.94723292  0.93515343  0.00000000  1.0
  B  B10  1  0.55276708  0.43515343  0.00000000  1.0
  B  B11  1  0.05276708  0.06484657  0.00000000  1.0
  B  B12  1  0.39701356  0.97154906  0.00000000  1.0
  B  B13  1  0.89701356  0.52845094  0.00000000  1.0
  B  B14  1  0.60298644  0.02845094  0.00000000  1.0
  B  B15  1  0.10298644  0.47154906  0.00000000  1.0
  B  B16  1  0.36757726  0.81806807  -0.00000000  1.0
  B  B17  1  0.86757726  0.68193193  0.00000000  1.0
  B  B18  1  0.63242274  0.18193193  -0.00000000  1.0
  B  B19  1  0.13242274  0.31806807  0.00000000  1.0
  B  B20  1  0.24731064  0.57765946  0.00000000  1.0
  B  B21  1  0.74731064  0.92234054  0.00000000  1.0
  B  B22  1  0.75268936  0.42234054  0.00000000  1.0
  B  B23  1  0.25268936  0.07765946  0.00000000  1.0
  B  B24  1  0.20368081  0.73693504  -0.00000000  1.0
  B  B25  1  0.70368081  0.76306496  0.00000000  1.0
  B  B26  1  0.79631919  0.26306496  -0.00000000  1.0
  B  B27  1  0.29631919  0.23693504  0.00000000  1.0
  B  B28  1  0.02027627  0.78764215  0.00000000  1.0
  B  B29  1  0.52027627  0.71235785  0.00000000  1.0
  B  B30  1  0.97972373  0.21235785  0.00000000  1.0
  B  B31  1  0.47972373  0.28764215  0.00000000  1.0
  Mo  Mo32  1  0.35832660  0.68019537  0.50000000  1.0
  Mo  Mo33  1  0.85832660  0.81980463  0.50000000  1.0
  Mo  Mo34  1  0.64167340  0.31980463  0.50000000  1.0
  Mo  Mo35  1  0.14167340  0.18019537  0.50000000  1.0
