# generated using pymatgen
data_Cs3Li2Cl5
_symmetry_space_group_name_H-M   'P 1'
_cell_length_a   12.67654758
_cell_length_b   12.67654758
_cell_length_c   4.22967974
_cell_angle_alpha   80.39560495
_cell_angle_beta   99.60439505
_cell_angle_gamma   33.52780225
_symmetry_Int_Tables_number   1
_chemical_formula_structural   Cs3Li2Cl5
_chemical_formula_sum   'Cs3 Li2 Cl5'
_cell_volume   306.23399288
_cell_formula_units_Z   1
loop_
 _symmetry_equiv_pos_site_id
 _symmetry_equiv_pos_as_xyz
  1  'x, y, z'
loop_
 _atom_site_type_symbol
 _atom_site_label
 _atom_site_symmetry_multiplicity
 _atom_site_fract_x
 _atom_site_fract_y
 _atom_site_fract_z
 _atom_site_occupancy
  Cs  Cs0  1  1.60149615  -0.35162795  0.73220226  1.0
  Cs  Cs1  1  1.35162795  0.39850385  0.73220226  1.0
  Cs  Cs2  1  0.97974646  -0.97974646  0.23655046  1.0
  Li  Li3  1  1.17661252  0.25404038  0.71700455  1.0
  Li  Li4  1  1.74595962  -0.17661252  0.71700455  1.0
  Cl  Cl5  1  0.48222106  -0.48222106  0.23917867  1.0
  Cl  Cl6  1  1.10629934  0.13242522  0.74263791  1.0
  Cl  Cl7  1  0.86757478  0.89370066  0.74263791  1.0
  Cl  Cl8  1  1.33568259  0.17706047  0.33499071  1.0
  Cl  Cl9  1  0.82293953  0.66431741  0.33499071  1.0
