# generated using pymatgen
data_KAuC2N2Cl2O
_symmetry_space_group_name_H-M   'P 1'
_cell_length_a   9.17377395
_cell_length_b   9.17377395
_cell_length_c   7.04066351
_cell_angle_alpha   74.61262790
_cell_angle_beta   105.38737210
_cell_angle_gamma   129.98242064
_symmetry_Int_Tables_number   1
_chemical_formula_structural   KAuC2N2Cl2O
_chemical_formula_sum   'K2 Au2 C4 N4 Cl4 O2'
_cell_volume   434.12306278
_cell_formula_units_Z   2
loop_
 _symmetry_equiv_pos_site_id
 _symmetry_equiv_pos_as_xyz
  1  'x, y, z'
loop_
 _atom_site_type_symbol
 _atom_site_label
 _atom_site_symmetry_multiplicity
 _atom_site_fract_x
 _atom_site_fract_y
 _atom_site_fract_z
 _atom_site_occupancy
  K  K0  1  0.68440502  0.68440502  0.25000000  1.0
  K  K1  1  0.31559498  0.31559498  0.75000000  1.0
  Au  Au2  1  1.50000000  -0.00000000  0.50000000  1.0
  Au  Au3  1  1.00000000  -0.50000000  0.00000000  1.0
  C  C4  1  1.49394644  0.18737299  0.28207834  1.0
  C  C5  1  0.81262701  -0.49394644  0.78207834  1.0
  C  C6  1  1.18737299  -0.50605356  0.21792166  1.0
  C  C7  1  1.50605356  -0.18737299  0.71792166  1.0
  N  N8  1  1.49096688  0.29664172  0.15410431  1.0
  N  N9  1  0.70335828  -0.49096688  0.65410431  1.0
  N  N10  1  1.29664172  -0.50903312  0.34589569  1.0
  N  N11  1  1.50903312  -0.29664172  0.84589569  1.0
  Cl  Cl12  1  1.73235806  0.04924316  0.35836168  1.0
  Cl  Cl13  1  0.95075684  -0.73235806  0.85836168  1.0
  Cl  Cl14  1  1.04924316  -0.26764194  0.14163832  1.0
  Cl  Cl15  1  1.26764194  -0.04924316  0.64163832  1.0
  O  O16  1  0.00000000  -0.00000000  0.50000000  1.0
  O  O17  1  0.00000000  0.00000000  0.00000000  1.0
