# generated using pymatgen
data_Cd(InSe2)2
_symmetry_space_group_name_H-M   'P 1'
_cell_length_a   12.82670245
_cell_length_b   12.82670245
_cell_length_c   12.82670245
_cell_angle_alpha   153.44868581
_cell_angle_beta   153.44868581
_cell_angle_gamma   37.90142801
_symmetry_Int_Tables_number   1
_chemical_formula_structural   Cd(InSe2)2
_chemical_formula_sum   'Cd2 In4 Se8'
_cell_volume   421.00228818
_cell_formula_units_Z   2
loop_
 _symmetry_equiv_pos_site_id
 _symmetry_equiv_pos_as_xyz
  1  'x, y, z'
loop_
 _atom_site_type_symbol
 _atom_site_label
 _atom_site_symmetry_multiplicity
 _atom_site_fract_x
 _atom_site_fract_y
 _atom_site_fract_z
 _atom_site_occupancy
  Cd  Cd0  1  0.12547635  0.12547635  -0.00000000  1.0
  Cd  Cd1  1  0.87452365  0.87452365  1.00000000  1.0
  In  In2  1  0.25000000  0.75000000  0.50000000  1.0
  In  In3  1  0.75000000  0.25000000  0.50000000  1.0
  In  In4  1  0.00000000  0.50000000  0.50000000  1.0
  In  In5  1  0.50000000  0.00000000  0.50000000  1.0
  Se  Se6  1  0.54129245  1.09168275  1.00000000  1.0
  Se  Se7  1  0.90831725  0.90831725  1.44960969  1.0
  Se  Se8  1  0.45870755  0.45870755  0.55039031  1.0
  Se  Se9  1  1.09168275  0.54129245  1.00000000  1.0
  Se  Se10  1  0.33926759  0.79388820  1.00000000  1.0
  Se  Se11  1  1.20611180  1.20611180  1.54537939  1.0
  Se  Se12  1  0.66073241  0.66073241  0.45462061  1.0
  Se  Se13  1  0.79388820  0.33926759  1.00000000  1.0
