# generated using pymatgen
data_Ta6Co16Ge7
_symmetry_space_group_name_H-M   'P 1'
_cell_length_a   8.01817951
_cell_length_b   8.01817951
_cell_length_c   8.01817951
_cell_angle_alpha   60.00000000
_cell_angle_beta   60.00000000
_cell_angle_gamma   60.00000000
_symmetry_Int_Tables_number   1
_chemical_formula_structural   Ta6Co16Ge7
_chemical_formula_sum   'Ta6 Co16 Ge7'
_cell_volume   364.51241683
_cell_formula_units_Z   1
loop_
 _symmetry_equiv_pos_site_id
 _symmetry_equiv_pos_as_xyz
  1  'x, y, z'
loop_
 _atom_site_type_symbol
 _atom_site_label
 _atom_site_symmetry_multiplicity
 _atom_site_fract_x
 _atom_site_fract_y
 _atom_site_fract_z
 _atom_site_occupancy
  Ta  Ta0  1  -0.70089822  0.70089822  0.70089822  1.0
  Ta  Ta1  1  -0.29910178  0.29910178  0.70089822  1.0
  Ta  Ta2  1  0.70089822  0.70089822  -0.70089822  1.0
  Ta  Ta3  1  0.29910178  1.29910178  -0.29910178  1.0
  Ta  Ta4  1  0.29910178  -0.29910178  1.29910178  1.0
  Ta  Ta5  1  -0.29910178  0.29910178  0.29910178  1.0
  Co  Co6  1  0.88105367  0.88105367  -0.11894633  1.0
  Co  Co7  1  1.11894633  0.11894633  0.64316101  1.0
  Co  Co8  1  1.11894633  0.64316101  0.11894633  1.0
  Co  Co9  1  0.35683899  0.88105367  -0.11894633  1.0
  Co  Co10  1  1.64316101  0.11894633  0.11894633  1.0
  Co  Co11  1  0.88105367  0.35683899  -0.11894633  1.0
  Co  Co12  1  0.88105367  0.88105367  -0.64316101  1.0
  Co  Co13  1  1.11894633  0.11894633  0.11894633  1.0
  Co  Co14  1  0.66501707  0.66501707  -0.33498293  1.0
  Co  Co15  1  1.33498293  0.33498293  -0.00494880  1.0
  Co  Co16  1  1.33498293  -0.00494880  0.33498293  1.0
  Co  Co17  1  1.00494880  0.66501707  -0.33498293  1.0
  Co  Co18  1  0.99505120  0.33498293  0.33498293  1.0
  Co  Co19  1  0.66501707  1.00494880  -0.33498293  1.0
  Co  Co20  1  0.66501707  0.66501707  0.00494880  1.0
  Co  Co21  1  1.33498293  0.33498293  0.33498293  1.0
  Ge  Ge22  1  1.50000000  0.00000000  -0.00000000  1.0
  Ge  Ge23  1  1.00000000  0.50000000  -0.50000000  1.0
  Ge  Ge24  1  0.00000000  1.50000000  -0.00000000  1.0
  Ge  Ge25  1  0.50000000  1.00000000  -0.50000000  1.0
  Ge  Ge26  1  -0.00000000  -0.00000000  0.50000000  1.0
  Ge  Ge27  1  0.50000000  -0.50000000  1.00000000  1.0
  Ge  Ge28  1  0.00000000  0.00000000  0.00000000  1.0
