# generated using pymatgen
data_BeH2
_symmetry_space_group_name_H-M   'P 1'
_cell_length_a   3.84331420
_cell_length_b   3.83961385
_cell_length_c   2.30281477
_cell_angle_alpha   90.00000000
_cell_angle_beta   90.00000000
_cell_angle_gamma   90.00000000
_symmetry_Int_Tables_number   1
_chemical_formula_structural   BeH2
_chemical_formula_sum   'Be2 H4'
_cell_volume   33.98227470
_cell_formula_units_Z   2
loop_
 _symmetry_equiv_pos_site_id
 _symmetry_equiv_pos_as_xyz
  1  'x, y, z'
loop_
 _atom_site_type_symbol
 _atom_site_label
 _atom_site_symmetry_multiplicity
 _atom_site_fract_x
 _atom_site_fract_y
 _atom_site_fract_z
 _atom_site_occupancy
  Be  Be0  1  0.50000000  0.50000000  0.50000000  1.0
  Be  Be1  1  0.00000000  0.00000000  0.00000000  1.0
  H  H2  1  0.80447857  0.19632631  0.50000000  1.0
  H  H3  1  0.19552143  0.80367369  0.50000000  1.0
  H  H4  1  0.69552143  0.69632631  0.00000000  1.0
  H  H5  1  0.30447857  0.30367369  0.00000000  1.0
