# generated using pymatgen
data_CoCl2
_symmetry_space_group_name_H-M   'P 1'
_cell_length_a   7.00061556
_cell_length_b   7.00061556
_cell_length_c   7.00061556
_cell_angle_alpha   29.13161969
_cell_angle_beta   29.13161969
_cell_angle_gamma   29.13161970
_symmetry_Int_Tables_number   1
_chemical_formula_structural   CoCl2
_chemical_formula_sum   'Co1 Cl2'
_cell_volume   71.93105543
_cell_formula_units_Z   1
loop_
 _symmetry_equiv_pos_site_id
 _symmetry_equiv_pos_as_xyz
  1  'x, y, z'
loop_
 _atom_site_type_symbol
 _atom_site_label
 _atom_site_symmetry_multiplicity
 _atom_site_fract_x
 _atom_site_fract_y
 _atom_site_fract_z
 _atom_site_occupancy
  Co  Co0  1  0.00000000  0.00000000  0.00000000  1.0
  Cl  Cl1  1  0.60013338  0.60013338  -0.39986662  1.0
  Cl  Cl2  1  0.39986662  0.39986662  -0.60013338  1.0
