# generated using pymatgen
data_Sc(CrGe)6
_symmetry_space_group_name_H-M   'P 1'
_cell_length_a   5.05486251
_cell_length_b   5.05486251
_cell_length_c   8.27069807
_cell_angle_alpha   90.00000000
_cell_angle_beta   90.00000000
_cell_angle_gamma   120.00000000
_symmetry_Int_Tables_number   1
_chemical_formula_structural   Sc(CrGe)6
_chemical_formula_sum   'Sc1 Cr6 Ge6'
_cell_volume   183.01702547
_cell_formula_units_Z   1
loop_
 _symmetry_equiv_pos_site_id
 _symmetry_equiv_pos_as_xyz
  1  'x, y, z'
loop_
 _atom_site_type_symbol
 _atom_site_label
 _atom_site_symmetry_multiplicity
 _atom_site_fract_x
 _atom_site_fract_y
 _atom_site_fract_z
 _atom_site_occupancy
  Sc  Sc0  1  0.00000000  0.00000000  0.00000000  1.0
  Cr  Cr1  1  0.50000000  0.50000000  0.75134010  1.0
  Cr  Cr2  1  0.50000000  0.50000000  0.24865990  1.0
  Cr  Cr3  1  0.50000000  0.00000000  0.75134010  1.0
  Cr  Cr4  1  0.50000000  0.00000000  0.24865990  1.0
  Cr  Cr5  1  0.00000000  0.50000000  0.75134010  1.0
  Cr  Cr6  1  0.00000000  0.50000000  0.24865990  1.0
  Ge  Ge7  1  0.00000000  0.00000000  0.65814187  1.0
  Ge  Ge8  1  0.00000000  0.00000000  0.34185813  1.0
  Ge  Ge9  1  0.33333333  0.66666667  0.50000000  1.0
  Ge  Ge10  1  0.66666667  0.33333333  0.50000000  1.0
  Ge  Ge11  1  0.33333333  0.66666667  0.00000000  1.0
  Ge  Ge12  1  0.66666667  0.33333333  0.00000000  1.0
