# generated using pymatgen
data_KF2
_symmetry_space_group_name_H-M   'P 1'
_cell_length_a   5.24943621
_cell_length_b   5.24943621
_cell_length_c   5.24943621
_cell_angle_alpha   117.31801658
_cell_angle_beta   117.31801658
_cell_angle_gamma   94.71170366
_symmetry_Int_Tables_number   1
_chemical_formula_structural   KF2
_chemical_formula_sum   'K2 F4'
_cell_volume   106.04617470
_cell_formula_units_Z   2
loop_
 _symmetry_equiv_pos_site_id
 _symmetry_equiv_pos_as_xyz
  1  'x, y, z'
loop_
 _atom_site_type_symbol
 _atom_site_label
 _atom_site_symmetry_multiplicity
 _atom_site_fract_x
 _atom_site_fract_y
 _atom_site_fract_z
 _atom_site_occupancy
  K  K0  1  0.25000000  0.25000000  0.00000000  1.0
  K  K1  1  0.75000000  0.75000000  0.00000000  1.0
  F  F2  1  0.87052926  0.37052926  1.24105852  1.0
  F  F3  1  0.62947074  0.87052926  0.50000000  1.0
  F  F4  1  0.37052926  0.12947074  0.50000000  1.0
  F  F5  1  1.12947074  0.62947074  0.75894148  1.0
