# generated using pymatgen
data_ZrSiO4
_symmetry_space_group_name_H-M   'P 1'
_cell_length_a   6.29086602
_cell_length_b   6.29086602
_cell_length_c   6.29086602
_cell_angle_alpha   135.44694874
_cell_angle_beta   135.44694874
_cell_angle_gamma   64.83652995
_symmetry_Int_Tables_number   1
_chemical_formula_structural   ZrSiO4
_chemical_formula_sum   'Zr2 Si2 O8'
_cell_volume   120.80073563
_cell_formula_units_Z   2
loop_
 _symmetry_equiv_pos_site_id
 _symmetry_equiv_pos_as_xyz
  1  'x, y, z'
loop_
 _atom_site_type_symbol
 _atom_site_label
 _atom_site_symmetry_multiplicity
 _atom_site_fract_x
 _atom_site_fract_y
 _atom_site_fract_z
 _atom_site_occupancy
  Zr  Zr0  1  0.25000000  0.75000000  0.50000000  1.0
  Zr  Zr1  1  0.50000000  0.50000000  1.00000000  1.0
  Si  Si2  1  0.75000000  0.25000000  0.50000000  1.0
  Si  Si3  1  0.00000000  0.00000000  0.00000000  1.0
  O  O4  1  0.56785400  0.48625597  0.39965938  1.0
  O  O5  1  1.08659659  1.16819461  1.60034062  1.0
  O  O6  1  0.66340341  1.08180539  0.89965938  1.0
  O  O7  1  1.18214600  0.76374403  1.10034062  1.0
  O  O8  1  0.51374403  0.91340341  1.08159802  1.0
  O  O9  1  0.83180539  0.43214600  0.91840198  1.0
  O  O10  1  0.91819461  0.81785400  1.58159802  1.0
  O  O11  1  0.23625597  0.33659659  0.41840198  1.0
