# generated using pymatgen
data_SiO2
_symmetry_space_group_name_H-M   'P 1'
_cell_length_a   14.86037898
_cell_length_b   14.86037898
_cell_length_c   14.86037898
_cell_angle_alpha   149.33021266
_cell_angle_beta   149.33021266
_cell_angle_gamma   43.92547542
_symmetry_Int_Tables_number   1
_chemical_formula_structural   SiO2
_chemical_formula_sum   'Si16 O32'
_cell_volume   851.43382632
_cell_formula_units_Z   16
loop_
 _symmetry_equiv_pos_site_id
 _symmetry_equiv_pos_as_xyz
  1  'x, y, z'
loop_
 _atom_site_type_symbol
 _atom_site_label
 _atom_site_symmetry_multiplicity
 _atom_site_fract_x
 _atom_site_fract_y
 _atom_site_fract_z
 _atom_site_occupancy
  Si  Si0  1  1.55800420  1.05800420  1.11600841  1.0
  Si  Si1  1  0.94199580  1.05800420  0.50000000  1.0
  Si  Si2  1  0.80800420  0.80800420  1.61600841  1.0
  Si  Si3  1  0.19199580  0.80800420  1.00000000  1.0
  Si  Si4  1  1.55800420  1.44199580  1.50000000  1.0
  Si  Si5  1  0.94199580  1.44199580  0.88399159  1.0
  Si  Si6  1  0.80800420  0.19199580  1.00000000  1.0
  Si  Si7  1  0.19199580  0.19199580  0.38399159  1.0
  Si  Si8  1  1.31801287  1.61431399  1.29630112  1.0
  Si  Si9  1  0.36431399  0.56801287  0.79630112  1.0
  Si  Si10  1  0.77171175  0.56801287  1.20369888  1.0
  Si  Si11  1  1.31801287  1.02171175  0.70369888  1.0
  Si  Si12  1  1.43198713  1.63568601  1.20369888  1.0
  Si  Si13  1  1.38568601  0.68198713  0.70369888  1.0
  Si  Si14  1  0.97828825  0.68198713  0.29630112  1.0
  Si  Si15  1  1.43198713  1.22828825  0.79630112  1.0
  O  O16  1  1.46471238  1.07505505  0.95274027  1.0
  O  O17  1  1.12231478  1.07505505  0.61034268  1.0
  O  O18  1  0.82505505  0.71471238  1.45274027  1.0
  O  O19  1  0.26197210  0.71471238  0.88965732  1.0
  O  O20  1  1.46471238  1.51197210  1.38965732  1.0
  O  O21  1  1.12231478  1.51197210  1.04725973  1.0
  O  O22  1  0.82505505  0.37231478  1.11034268  1.0
  O  O23  1  0.26197210  0.37231478  0.54725973  1.0
  O  O24  1  1.28528762  1.17494495  0.54725973  1.0
  O  O25  1  1.62768522  1.17494495  0.88965732  1.0
  O  O26  1  0.92494495  1.53528762  1.04725973  1.0
  O  O27  1  1.48802790  1.53528762  1.61034268  1.0
  O  O28  1  1.28528762  1.73802790  1.11034268  1.0
  O  O29  1  1.62768522  1.73802790  1.45274027  1.0
  O  O30  1  0.92494495  0.87768522  0.38965732  1.0
  O  O31  1  1.48802790  0.87768522  0.95274027  1.0
  O  O32  1  0.97784988  1.76345888  0.78560899  1.0
  O  O33  1  1.51345888  1.22784988  1.28560899  1.0
  O  O34  1  0.94224089  1.22784988  0.71439101  1.0
  O  O35  1  0.97784988  1.19224089  0.21439101  1.0
  O  O36  1  0.77215012  1.48654112  0.71439101  1.0
  O  O37  1  0.23654112  0.02215012  0.21439101  1.0
  O  O38  1  0.80775911  0.02215012  0.78560899  1.0
  O  O39  1  0.77215012  1.05775911  0.28560899  1.0
  O  O40  1  1.31014916  0.81014916  0.50000000  1.0
  O  O41  1  0.56014916  0.56014916  1.00000000  1.0
  O  O42  1  1.43985084  1.43985084  1.00000000  1.0
  O  O43  1  1.18985084  0.68985084  0.50000000  1.0
  O  O44  1  1.37500000  1.62500000  1.25000000  1.0
  O  O45  1  1.37500000  0.62500000  0.75000000  1.0
  O  O46  1  0.87500000  0.62500000  0.25000000  1.0
  O  O47  1  1.37500000  1.12500000  0.75000000  1.0
