# generated using pymatgen
data_Ca3(SiO5)2
_symmetry_space_group_name_H-M   'P 1'
_cell_length_a   8.56285467
_cell_length_b   8.56285467
_cell_length_c   11.86208597
_cell_angle_alpha   58.26264026
_cell_angle_beta   121.73735974
_cell_angle_gamma   142.73027816
_symmetry_Int_Tables_number   1
_chemical_formula_structural   Ca3(SiO5)2
_chemical_formula_sum   'Ca6 Si4 O20'
_cell_volume   438.08783992
_cell_formula_units_Z   2
loop_
 _symmetry_equiv_pos_site_id
 _symmetry_equiv_pos_as_xyz
  1  'x, y, z'
loop_
 _atom_site_type_symbol
 _atom_site_label
 _atom_site_symmetry_multiplicity
 _atom_site_fract_x
 _atom_site_fract_y
 _atom_site_fract_z
 _atom_site_occupancy
  Si  Si0  1  1.73946892  -0.13656487  0.39257017  1.0
  Si  Si1  1  1.13656487  0.26053108  0.89257017  1.0
  Si  Si2  1  0.46501738  0.13776626  0.88076503  1.0
  Si  Si3  1  0.86223374  0.53498261  0.38076503  1.0
  O  O4  1  0.99892962  0.96761101  0.51966418  1.0
  O  O5  1  0.03238899  0.00107038  0.01966418  1.0
  O  O6  1  1.12382760  0.84823522  0.33700363  1.0
  O  O7  1  0.15176478  -0.12382760  0.83700363  1.0
  O  O8  1  0.60260737  0.43072113  0.25375823  1.0
  O  O9  1  0.56927887  0.39739263  0.75375823  1.0
  O  O10  1  1.18990843  -0.48362171  0.13519681  1.0
  O  O11  1  1.48362171  -0.18990843  0.63519681  1.0
  O  O12  1  1.11633138  -0.40980574  0.13913385  1.0
  O  O13  1  0.40980574  -0.11633138  0.63913385  1.0
  O  O14  1  0.60167600  0.04305980  0.92227705  1.0
  O  O15  1  0.95694020  -0.60167600  0.42227705  1.0
  O  O16  1  1.64469442  -0.00000700  0.35112735  1.0
  O  O17  1  1.00000700  0.35530558  0.85112735  1.0
  O  O18  1  1.55175102  0.23243552  0.00935220  1.0
  O  O19  1  0.76756448  0.44824898  0.50935220  1.0
  O  O20  1  1.83438222  -0.04958085  0.26400931  1.0
  O  O21  1  1.04958085  -0.83438222  0.76400931  1.0
  O  O22  1  1.47780420  -0.44986463  0.43624949  1.0
  O  O23  1  1.44986463  -0.47780420  0.93624949  1.0
  Ca  Ca24  1  1.68482637  -0.20289369  0.08387896  1.0
  Ca  Ca25  1  1.20289369  -0.68482637  0.58387896  1.0
  Ca  Ca26  1  1.39865407  0.08312123  0.18954210  1.0
  Ca  Ca27  1  0.91687877  0.60134593  0.68954210  1.0
  Ca  Ca28  1  0.30081524  0.19908256  0.38677165  1.0
  Ca  Ca29  1  0.80091744  0.69918476  0.88677165  1.0
