# generated using pymatgen
data_CeGa6Pd
_symmetry_space_group_name_H-M   'P 1'
_cell_length_a   4.39106113
_cell_length_b   4.39106113
_cell_length_c   7.91437335
_cell_angle_alpha   90.00000000
_cell_angle_beta   90.00000000
_cell_angle_gamma   90.00000000
_symmetry_Int_Tables_number   1
_chemical_formula_structural   CeGa6Pd
_chemical_formula_sum   'Ce1 Ga6 Pd1'
_cell_volume   152.60033971
_cell_formula_units_Z   1
loop_
 _symmetry_equiv_pos_site_id
 _symmetry_equiv_pos_as_xyz
  1  'x, y, z'
loop_
 _atom_site_type_symbol
 _atom_site_label
 _atom_site_symmetry_multiplicity
 _atom_site_fract_x
 _atom_site_fract_y
 _atom_site_fract_z
 _atom_site_occupancy
  Ce  Ce0  1  0.00000000  0.00000000  0.50000000  1.0
  Ga  Ga1  1  0.00000000  0.50000000  0.82626770  1.0
  Ga  Ga2  1  0.00000000  0.50000000  0.17373230  1.0
  Ga  Ga3  1  0.50000000  0.00000000  0.82626770  1.0
  Ga  Ga4  1  0.50000000  0.00000000  0.17373230  1.0
  Ga  Ga5  1  0.50000000  0.50000000  0.65084339  1.0
  Ga  Ga6  1  0.50000000  0.50000000  0.34915661  1.0
  Pd  Pd7  1  0.00000000  0.00000000  0.00000000  1.0
