# generated using pymatgen
data_Rb4CO4
_symmetry_space_group_name_H-M   'P 1'
_cell_length_a   6.90109651
_cell_length_b   6.90109651
_cell_length_c   6.90109651
_cell_angle_alpha   99.68951798
_cell_angle_beta   99.68951798
_cell_angle_gamma   131.55830913
_symmetry_Int_Tables_number   1
_chemical_formula_structural   Rb4CO4
_chemical_formula_sum   'Rb4 C1 O4'
_cell_volume   224.28488500
_cell_formula_units_Z   1
loop_
 _symmetry_equiv_pos_site_id
 _symmetry_equiv_pos_as_xyz
  1  'x, y, z'
loop_
 _atom_site_type_symbol
 _atom_site_label
 _atom_site_symmetry_multiplicity
 _atom_site_fract_x
 _atom_site_fract_y
 _atom_site_fract_z
 _atom_site_occupancy
  Rb  Rb0  1  0.33779269  0.33779269  0.34833367  1.0
  Rb  Rb1  1  0.98945902  0.98945902  0.65166633  1.0
  Rb  Rb2  1  0.66220731  1.01054098  1.00000000  1.0
  Rb  Rb3  1  1.01054098  1.66220731  1.00000000  1.0
  C  C4  1  0.50000000  0.50000000  -0.00000000  1.0
  O  O5  1  0.54817604  0.54817604  0.81018055  1.0
  O  O6  1  0.73799549  0.73799549  0.18981945  1.0
  O  O7  1  0.45182396  1.26200451  1.00000000  1.0
  O  O8  1  1.26200451  1.45182396  1.00000000  1.0
