# generated using pymatgen
data_Si3NiP4
_symmetry_space_group_name_H-M   'P 1'
_cell_length_a   6.38989240
_cell_length_b   6.38989240
_cell_length_c   6.38989240
_cell_angle_alpha   131.88789123
_cell_angle_beta   131.88789123
_cell_angle_gamma   70.40614823
_symmetry_Int_Tables_number   1
_chemical_formula_structural   Si3NiP4
_chemical_formula_sum   'Si3 Ni1 P4'
_cell_volume   141.69547057
_cell_formula_units_Z   1
loop_
 _symmetry_equiv_pos_site_id
 _symmetry_equiv_pos_as_xyz
  1  'x, y, z'
loop_
 _atom_site_type_symbol
 _atom_site_label
 _atom_site_symmetry_multiplicity
 _atom_site_fract_x
 _atom_site_fract_y
 _atom_site_fract_z
 _atom_site_occupancy
  Si  Si0  1  0.25000000  0.75000000  0.50000000  1.0
  Si  Si1  1  0.75000000  0.25000000  0.50000000  1.0
  Si  Si2  1  0.50000000  0.50000000  1.00000000  1.0
  Ni  Ni3  1  0.00000000  0.00000000  0.00000000  1.0
  P  P4  1  0.36014698  0.87700358  1.00000000  1.0
  P  P5  1  1.12299642  1.12299642  1.48314340  1.0
  P  P6  1  0.63985302  0.63985302  0.51685660  1.0
  P  P7  1  0.87700358  0.36014698  1.00000000  1.0
