# generated using pymatgen
data_NaHO
_symmetry_space_group_name_H-M   'P 1'
_cell_length_a   3.44340888
_cell_length_b   3.42562313
_cell_length_c   7.73972221
_cell_angle_alpha   90.00000000
_cell_angle_beta   132.02826719
_cell_angle_gamma   90.00000000
_symmetry_Int_Tables_number   1
_chemical_formula_structural   NaHO
_chemical_formula_sum   'Na2 H2 O2'
_cell_volume   67.81628460
_cell_formula_units_Z   2
loop_
 _symmetry_equiv_pos_site_id
 _symmetry_equiv_pos_as_xyz
  1  'x, y, z'
loop_
 _atom_site_type_symbol
 _atom_site_label
 _atom_site_symmetry_multiplicity
 _atom_site_fract_x
 _atom_site_fract_y
 _atom_site_fract_z
 _atom_site_occupancy
  Na  Na0  1  0.51352035  0.25000000  0.17522012  1.0
  Na  Na1  1  0.48647965  0.75000000  0.82477988  1.0
  H  H2  1  0.64800875  0.25000000  0.59938172  1.0
  H  H3  1  0.35199125  0.75000000  0.40061828  1.0
  O  O4  1  0.90122545  0.25000000  0.76827811  1.0
  O  O5  1  0.09877455  0.75000000  0.23172189  1.0
