# generated using pymatgen
data_LaSb3Pd
_symmetry_space_group_name_H-M   'P 1'
_cell_length_a   13.05645677
_cell_length_b   6.43773451
_cell_length_c   12.62249013
_cell_angle_alpha   90.00000000
_cell_angle_beta   90.00000000
_cell_angle_gamma   90.00000000
_symmetry_Int_Tables_number   1
_chemical_formula_structural   LaSb3Pd
_chemical_formula_sum   'La8 Sb24 Pd8'
_cell_volume   1060.97081425
_cell_formula_units_Z   8
loop_
 _symmetry_equiv_pos_site_id
 _symmetry_equiv_pos_as_xyz
  1  'x, y, z'
loop_
 _atom_site_type_symbol
 _atom_site_label
 _atom_site_symmetry_multiplicity
 _atom_site_fract_x
 _atom_site_fract_y
 _atom_site_fract_z
 _atom_site_occupancy
  La  La0  1  0.80850046  0.72433511  0.75000000  1.0
  La  La1  1  0.80850046  0.77566489  0.25000000  1.0
  La  La2  1  0.19149954  0.22433511  0.75000000  1.0
  La  La3  1  0.19149954  0.27566489  0.25000000  1.0
  La  La4  1  0.19868267  0.75000000  -0.00000000  1.0
  La  La5  1  0.19868267  0.75000000  0.50000000  1.0
  La  La6  1  0.80131733  0.25000000  0.00000000  1.0
  La  La7  1  0.80131733  0.25000000  0.50000000  1.0
  Sb  Sb8  1  0.99685617  0.98761892  0.87882727  1.0
  Sb  Sb9  1  0.99685617  0.98761892  0.62117273  1.0
  Sb  Sb10  1  0.99685617  0.51238108  0.37882727  1.0
  Sb  Sb11  1  0.99685617  0.51238108  0.12117273  1.0
  Sb  Sb12  1  0.00314383  0.48761892  0.87882727  1.0
  Sb  Sb13  1  0.00314383  0.48761892  0.62117273  1.0
  Sb  Sb14  1  0.00314383  0.01238108  0.37882727  1.0
  Sb  Sb15  1  0.00314383  0.01238108  0.12117273  1.0
  Sb  Sb16  1  0.56230490  0.58061300  0.75000000  1.0
  Sb  Sb17  1  0.56230490  0.91938700  0.25000000  1.0
  Sb  Sb18  1  0.43769510  0.08061300  0.75000000  1.0
  Sb  Sb19  1  0.43769510  0.41938700  0.25000000  1.0
  Sb  Sb20  1  0.27480101  0.73565802  0.75000000  1.0
  Sb  Sb21  1  0.27480101  0.76434198  0.25000000  1.0
  Sb  Sb22  1  0.72519899  0.23565802  0.75000000  1.0
  Sb  Sb23  1  0.72519899  0.26434198  0.25000000  1.0
  Sb  Sb24  1  0.73584954  0.75000000  0.00000000  1.0
  Sb  Sb25  1  0.73584954  0.75000000  0.50000000  1.0
  Sb  Sb26  1  0.26415046  0.25000000  0.00000000  1.0
  Sb  Sb27  1  0.26415046  0.25000000  0.50000000  1.0
  Sb  Sb28  1  0.47447219  0.75000000  0.00000000  1.0
  Sb  Sb29  1  0.47447219  0.75000000  0.50000000  1.0
  Sb  Sb30  1  0.52552781  0.25000000  0.00000000  1.0
  Sb  Sb31  1  0.52552781  0.25000000  0.50000000  1.0
  Pd  Pd32  1  0.60328543  0.95331025  0.86583818  1.0
  Pd  Pd33  1  0.60328543  0.95331025  0.63416182  1.0
  Pd  Pd34  1  0.60328543  0.54668975  0.36583818  1.0
  Pd  Pd35  1  0.60328543  0.54668975  0.13416182  1.0
  Pd  Pd36  1  0.39671457  0.45331025  0.86583818  1.0
  Pd  Pd37  1  0.39671457  0.45331025  0.63416182  1.0
  Pd  Pd38  1  0.39671457  0.04668975  0.36583818  1.0
  Pd  Pd39  1  0.39671457  0.04668975  0.13416182  1.0
