# generated using pymatgen
data_Ba5P4
_symmetry_space_group_name_H-M   'P 1'
_cell_length_a   9.34552297
_cell_length_b   9.34552297
_cell_length_c   8.49300392
_cell_angle_alpha   90.00000000
_cell_angle_beta   90.00000000
_cell_angle_gamma   53.49229609
_symmetry_Int_Tables_number   1
_chemical_formula_structural   Ba5P4
_chemical_formula_sum   'Ba10 P8'
_cell_volume   596.21658053
_cell_formula_units_Z   2
loop_
 _symmetry_equiv_pos_site_id
 _symmetry_equiv_pos_as_xyz
  1  'x, y, z'
loop_
 _atom_site_type_symbol
 _atom_site_label
 _atom_site_symmetry_multiplicity
 _atom_site_fract_x
 _atom_site_fract_y
 _atom_site_fract_z
 _atom_site_occupancy
  Ba  Ba0  1  0.68565219  1.01996025  0.33795993  1.0
  Ba  Ba1  1  0.18565219  1.51996025  0.16204007  1.0
  Ba  Ba2  1  0.01996025  1.68565219  0.66204007  1.0
  Ba  Ba3  1  0.51996025  1.18565219  0.83795993  1.0
  Ba  Ba4  1  -0.01996025  1.31434781  0.33795993  1.0
  Ba  Ba5  1  0.48003975  0.81434781  0.16204007  1.0
  Ba  Ba6  1  0.31434781  0.98003975  0.66204007  1.0
  Ba  Ba7  1  -0.18565219  1.48003975  0.83795993  1.0
  Ba  Ba8  1  -0.50000000  0.50000000  0.50000000  1.0
  Ba  Ba9  1  0.00000000  0.00000000  0.00000000  1.0
  P  P10  1  -0.40233305  0.40233305  0.09545924  1.0
  P  P11  1  -0.90233305  0.90233305  0.40454076  1.0
  P  P12  1  -0.59766695  0.59766695  0.90454076  1.0
  P  P13  1  -0.09766695  0.09766695  0.59545924  1.0
  P  P14  1  0.30326128  1.30326128  0.50000000  1.0
  P  P15  1  0.80326128  0.80326128  0.00000000  1.0
  P  P16  1  0.69673872  0.69673872  0.50000000  1.0
  P  P17  1  0.19673872  1.19673872  0.00000000  1.0
