# generated using pymatgen
data_Mg2SiO4
_symmetry_space_group_name_H-M   'P 1'
_cell_length_a   5.75965575
_cell_length_b   5.75965575
_cell_length_c   5.75965575
_cell_angle_alpha   119.99425296
_cell_angle_beta   119.99425296
_cell_angle_gamma   90.00995445
_symmetry_Int_Tables_number   1
_chemical_formula_structural   Mg2SiO4
_chemical_formula_sum   'Mg4 Si2 O8'
_cell_volume   135.11771707
_cell_formula_units_Z   2
loop_
 _symmetry_equiv_pos_site_id
 _symmetry_equiv_pos_as_xyz
  1  'x, y, z'
loop_
 _atom_site_type_symbol
 _atom_site_label
 _atom_site_symmetry_multiplicity
 _atom_site_fract_x
 _atom_site_fract_y
 _atom_site_fract_z
 _atom_site_occupancy
  Mg  Mg0  1  1.87500077  1.12500000  1.25000077  1.0
  Mg  Mg1  1  0.87499923  1.62500000  0.74999923  1.0
  Mg  Mg2  1  1.37500000  1.12499923  1.24999923  1.0
  Mg  Mg3  1  0.87500000  1.12500077  0.75000077  1.0
  Si  Si4  1  1.25000000  0.75000000  0.50000000  1.0
  Si  Si5  1  0.50000000  0.50000000  -0.00000000  1.0
  O  O6  1  0.61922159  0.38078757  0.76156528  1.0
  O  O7  1  1.13077770  0.86921243  0.73843402  1.0
  O  O8  1  1.61922230  0.85765632  1.23843472  1.0
  O  O9  1  1.13077841  0.39234368  1.26156598  1.0
  O  O10  1  1.14234368  1.38077841  0.76156598  1.0
  O  O11  1  1.13078757  0.86922159  0.26156528  1.0
  O  O12  1  0.61921243  0.38077770  0.23843402  1.0
  O  O13  1  0.60765632  0.86922230  0.73843472  1.0
