# generated using pymatgen
data_V23C6
_symmetry_space_group_name_H-M   'P 1'
_cell_length_a   7.77538539
_cell_length_b   7.77538539
_cell_length_c   7.77538539
_cell_angle_alpha   60.00000000
_cell_angle_beta   60.00000000
_cell_angle_gamma   60.00000000
_symmetry_Int_Tables_number   1
_chemical_formula_structural   V23C6
_chemical_formula_sum   'V23 C6'
_cell_volume   332.39216251
_cell_formula_units_Z   1
loop_
 _symmetry_equiv_pos_site_id
 _symmetry_equiv_pos_as_xyz
  1  'x, y, z'
loop_
 _atom_site_type_symbol
 _atom_site_label
 _atom_site_symmetry_multiplicity
 _atom_site_fract_x
 _atom_site_fract_y
 _atom_site_fract_z
 _atom_site_occupancy
  V  V0  1  0.00000000  0.00000000  0.00000000  1.0
  V  V1  1  0.75000000  0.75000000  -0.25000000  1.0
  V  V2  1  1.25000000  0.25000000  0.25000000  1.0
  V  V3  1  0.61476893  0.61476893  1.15569322  1.0
  V  V4  1  0.61476893  1.15569322  -0.38523107  1.0
  V  V5  1  1.15569322  0.61476893  0.61476893  1.0
  V  V6  1  0.61476893  0.61476893  -0.38523107  1.0
  V  V7  1  0.38523107  1.38523107  -0.15569322  1.0
  V  V8  1  1.38523107  -0.15569322  0.38523107  1.0
  V  V9  1  -0.15569322  1.38523107  0.38523107  1.0
  V  V10  1  1.38523107  0.38523107  0.38523107  1.0
  V  V11  1  -0.00000000  0.00000000  0.34379352  1.0
  V  V12  1  0.65620648  1.00000000  -0.65620648  1.0
  V  V13  1  1.00000000  0.65620648  -0.65620648  1.0
  V  V14  1  0.65620648  -0.65620648  1.00000000  1.0
  V  V15  1  -0.00000000  1.34379352  0.00000000  1.0
  V  V16  1  1.00000000  0.34379352  -0.34379352  1.0
  V  V17  1  0.34379352  -0.34379352  1.00000000  1.0
  V  V18  1  0.34379352  1.00000000  -0.34379352  1.0
  V  V19  1  1.34379352  -0.00000000  0.00000000  1.0
  V  V20  1  -0.00000000  -0.00000000  0.65620648  1.0
  V  V21  1  -0.00000000  1.65620648  0.00000000  1.0
  V  V22  1  1.65620648  -0.00000000  0.00000000  1.0
  C  C23  1  0.72624588  0.72624588  -0.72624588  1.0
  C  C24  1  0.27375412  -0.27375412  1.27375412  1.0
  C  C25  1  -0.27375412  0.27375412  0.27375412  1.0
  C  C26  1  0.27375412  1.27375412  -0.27375412  1.0
  C  C27  1  -0.27375412  0.27375412  0.72624588  1.0
  C  C28  1  -0.72624588  0.72624588  0.72624588  1.0
