# generated using pymatgen
data_TbSiIr
_symmetry_space_group_name_H-M   'P 1'
_cell_length_a   6.91577950
_cell_length_b   4.23991645
_cell_length_c   7.38825958
_cell_angle_alpha   90.00000000
_cell_angle_beta   90.00000000
_cell_angle_gamma   90.00000000
_symmetry_Int_Tables_number   1
_chemical_formula_structural   TbSiIr
_chemical_formula_sum   'Tb4 Si4 Ir4'
_cell_volume   216.64096515
_cell_formula_units_Z   4
loop_
 _symmetry_equiv_pos_site_id
 _symmetry_equiv_pos_as_xyz
  1  'x, y, z'
loop_
 _atom_site_type_symbol
 _atom_site_label
 _atom_site_symmetry_multiplicity
 _atom_site_fract_x
 _atom_site_fract_y
 _atom_site_fract_z
 _atom_site_occupancy
  Tb  Tb0  1  0.99940768  0.75000000  0.68498252  1.0
  Tb  Tb1  1  0.49940768  0.75000000  0.81501748  1.0
  Tb  Tb2  1  0.00059232  0.25000000  0.31501748  1.0
  Tb  Tb3  1  0.50059232  0.25000000  0.18498252  1.0
  Si  Si4  1  0.70070412  0.75000000  0.39088024  1.0
  Si  Si5  1  0.20070412  0.75000000  0.10911976  1.0
  Si  Si6  1  0.29929588  0.25000000  0.60911976  1.0
  Si  Si7  1  0.79929588  0.25000000  0.89088024  1.0
  Ir  Ir8  1  0.84398402  0.75000000  0.06933564  1.0
  Ir  Ir9  1  0.34398402  0.75000000  0.43066436  1.0
  Ir  Ir10  1  0.15601598  0.25000000  0.93066436  1.0
  Ir  Ir11  1  0.65601598  0.25000000  0.56933564  1.0
