# generated using pymatgen
data_Bi2Te3
_symmetry_space_group_name_H-M   'P 1'
_cell_length_a   10.17389266
_cell_length_b   10.17389266
_cell_length_c   10.17389266
_cell_angle_alpha   25.29848081
_cell_angle_beta   25.29848081
_cell_angle_gamma   25.29848081
_symmetry_Int_Tables_number   1
_chemical_formula_structural   Bi2Te3
_chemical_formula_sum   'Bi2 Te3'
_cell_volume   169.24694719
_cell_formula_units_Z   1
loop_
 _symmetry_equiv_pos_site_id
 _symmetry_equiv_pos_as_xyz
  1  'x, y, z'
loop_
 _atom_site_type_symbol
 _atom_site_label
 _atom_site_symmetry_multiplicity
 _atom_site_fract_x
 _atom_site_fract_y
 _atom_site_fract_z
 _atom_site_occupancy
  Bi  Bi0  1  0.41143833  0.41143833  -0.58856167  1.0
  Bi  Bi1  1  0.00255554  0.00255554  0.00255554  1.0
  Te  Te2  1  0.80585539  -0.19414461  -0.19414461  1.0
  Te  Te3  1  0.60813139  0.60813139  -0.39186861  1.0
  Te  Te4  1  0.20701935  0.20701935  0.20701935  1.0
