# generated using pymatgen
data_La2Br5
_symmetry_space_group_name_H-M   'P 1'
_cell_length_a   8.10638736
_cell_length_b   4.28348373
_cell_length_c   13.78655857
_cell_angle_alpha   90.00000000
_cell_angle_beta   89.79509382
_cell_angle_gamma   90.00000000
_symmetry_Int_Tables_number   1
_chemical_formula_structural   La2Br5
_chemical_formula_sum   'La4 Br10'
_cell_volume   478.71558585
_cell_formula_units_Z   2
loop_
 _symmetry_equiv_pos_site_id
 _symmetry_equiv_pos_as_xyz
  1  'x, y, z'
loop_
 _atom_site_type_symbol
 _atom_site_label
 _atom_site_symmetry_multiplicity
 _atom_site_fract_x
 _atom_site_fract_y
 _atom_site_fract_z
 _atom_site_occupancy
  La  La0  1  0.07533263  0.25000000  0.84226770  1.0
  La  La1  1  0.92466737  0.75000000  0.15773230  1.0
  La  La2  1  0.57394405  0.25000000  0.33974358  1.0
  La  La3  1  0.42605595  0.75000000  0.66025642  1.0
  Br  Br4  1  0.15986366  0.25000000  0.62468620  1.0
  Br  Br5  1  0.84013634  0.75000000  0.37531380  1.0
  Br  Br6  1  0.16001461  0.25000000  0.22649142  1.0
  Br  Br7  1  0.83998539  0.75000000  0.77350858  1.0
  Br  Br8  1  0.45193272  0.25000000  0.81910804  1.0
  Br  Br9  1  0.54806728  0.75000000  0.18089196  1.0
  Br  Br10  1  0.64694284  0.25000000  0.56829003  1.0
  Br  Br11  1  0.35305716  0.75000000  0.43170997  1.0
  Br  Br12  1  0.81160276  0.25000000  0.01313153  1.0
  Br  Br13  1  0.18839724  0.75000000  0.98686847  1.0
