# generated using pymatgen
data_Ba5Ta4O15
_symmetry_space_group_name_H-M   'P 1'
_cell_length_a   5.84481720
_cell_length_b   5.84481720
_cell_length_c   11.97128968
_cell_angle_alpha   90.00000000
_cell_angle_beta   90.00000000
_cell_angle_gamma   120.00000000
_symmetry_Int_Tables_number   1
_chemical_formula_structural   Ba5Ta4O15
_chemical_formula_sum   'Ba5 Ta4 O15'
_cell_volume   354.17135882
_cell_formula_units_Z   1
loop_
 _symmetry_equiv_pos_site_id
 _symmetry_equiv_pos_as_xyz
  1  'x, y, z'
loop_
 _atom_site_type_symbol
 _atom_site_label
 _atom_site_symmetry_multiplicity
 _atom_site_fract_x
 _atom_site_fract_y
 _atom_site_fract_z
 _atom_site_occupancy
  Ba  Ba0  1  0.00000000  0.00000000  0.00000000  1.0
  Ba  Ba1  1  0.66666667  0.33333333  0.21155826  1.0
  Ba  Ba2  1  0.33333333  0.66666667  0.78844174  1.0
  Ba  Ba3  1  0.66666667  0.33333333  0.56724302  1.0
  Ba  Ba4  1  0.33333333  0.66666667  0.43275698  1.0
  Ta  Ta5  1  0.00000000  0.00000000  0.31286994  1.0
  Ta  Ta6  1  0.00000000  0.00000000  0.68713006  1.0
  Ta  Ta7  1  0.66666667  0.33333333  0.89659742  1.0
  Ta  Ta8  1  0.33333333  0.66666667  0.10340258  1.0
  O  O9  1  0.50000000  0.00000000  0.00000000  1.0
  O  O10  1  0.50000000  0.50000000  0.00000000  1.0
  O  O11  1  -0.00000000  0.50000000  0.00000000  1.0
  O  O12  1  0.33785947  0.16892974  0.80985383  1.0
  O  O13  1  0.83107026  0.66214053  0.80985383  1.0
  O  O14  1  0.83107026  0.16892974  0.80985383  1.0
  O  O15  1  0.66214053  0.83107026  0.19014617  1.0
  O  O16  1  0.16892974  0.33785947  0.19014617  1.0
  O  O17  1  0.16892974  0.83107026  0.19014617  1.0
  O  O18  1  0.32653726  0.16326863  0.38539051  1.0
  O  O19  1  0.83673137  0.67346274  0.38539051  1.0
  O  O20  1  0.83673137  0.16326863  0.38539051  1.0
  O  O21  1  0.67346274  0.83673137  0.61460949  1.0
  O  O22  1  0.16326863  0.32653726  0.61460949  1.0
  O  O23  1  0.16326863  0.83673137  0.61460949  1.0
