# generated using pymatgen
data_Co21(B3W)2
_symmetry_space_group_name_H-M   'P 1'
_cell_length_a   7.38181191
_cell_length_b   7.38181191
_cell_length_c   7.38181191
_cell_angle_alpha   60.00000000
_cell_angle_beta   60.00000000
_cell_angle_gamma   60.00000000
_symmetry_Int_Tables_number   1
_chemical_formula_structural   Co21(B3W)2
_chemical_formula_sum   'Co21 B6 W2'
_cell_volume   284.42903477
_cell_formula_units_Z   1
loop_
 _symmetry_equiv_pos_site_id
 _symmetry_equiv_pos_as_xyz
  1  'x, y, z'
loop_
 _atom_site_type_symbol
 _atom_site_label
 _atom_site_symmetry_multiplicity
 _atom_site_fract_x
 _atom_site_fract_y
 _atom_site_fract_z
 _atom_site_occupancy
  Co  Co0  1  1.66109371  0.00000000  -0.00000000  1.0
  Co  Co1  1  1.00000000  0.33890629  -0.33890629  1.0
  Co  Co2  1  1.00000000  0.66109371  -0.66109371  1.0
  Co  Co3  1  1.33890629  0.00000000  -0.00000000  1.0
  Co  Co4  1  0.00000000  1.66109371  -0.00000000  1.0
  Co  Co5  1  0.33890629  1.00000000  -0.33890629  1.0
  Co  Co6  1  -0.00000000  0.00000000  0.66109371  1.0
  Co  Co7  1  0.33890629  -0.33890629  1.00000000  1.0
  Co  Co8  1  0.66109371  1.00000000  -0.66109371  1.0
  Co  Co9  1  0.00000000  1.33890629  -0.00000000  1.0
  Co  Co10  1  0.66109371  -0.66109371  1.00000000  1.0
  Co  Co11  1  -0.00000000  -0.00000000  0.33890629  1.0
  Co  Co12  1  0.61769990  0.61769990  -0.38230010  1.0
  Co  Co13  1  0.38230010  1.38230010  -0.14690030  1.0
  Co  Co14  1  1.38230010  -0.14690030  0.38230010  1.0
  Co  Co15  1  1.14690030  0.61769990  0.61769990  1.0
  Co  Co16  1  -0.14690030  1.38230010  0.38230010  1.0
  Co  Co17  1  0.61769990  1.14690030  -0.38230010  1.0
  Co  Co18  1  0.61769990  0.61769990  1.14690030  1.0
  Co  Co19  1  1.38230010  0.38230010  0.38230010  1.0
  Co  Co20  1  0.00000000  0.00000000  0.00000000  1.0
  B  B21  1  -0.72576916  0.72576916  0.72576916  1.0
  B  B22  1  -0.27423084  0.27423084  0.72576916  1.0
  B  B23  1  0.72576916  0.72576916  -0.72576916  1.0
  B  B24  1  0.27423084  1.27423084  -0.27423084  1.0
  B  B25  1  0.27423084  -0.27423084  1.27423084  1.0
  B  B26  1  -0.27423084  0.27423084  0.27423084  1.0
  W  W27  1  0.75000000  0.75000000  -0.25000000  1.0
  W  W28  1  1.25000000  0.25000000  0.25000000  1.0
