# generated using pymatgen
data_Rb2PrF6
_symmetry_space_group_name_H-M   'P 1'
_cell_length_a   7.12371103
_cell_length_b   7.12371103
_cell_length_c   7.57923559
_cell_angle_alpha   90.00000000
_cell_angle_beta   90.00000000
_cell_angle_gamma   120.94804662
_symmetry_Int_Tables_number   1
_chemical_formula_structural   Rb2PrF6
_chemical_formula_sum   'Rb4 Pr2 F12'
_cell_volume   329.86783177
_cell_formula_units_Z   2
loop_
 _symmetry_equiv_pos_site_id
 _symmetry_equiv_pos_as_xyz
  1  'x, y, z'
loop_
 _atom_site_type_symbol
 _atom_site_label
 _atom_site_symmetry_multiplicity
 _atom_site_fract_x
 _atom_site_fract_y
 _atom_site_fract_z
 _atom_site_occupancy
  Rb  Rb0  1  0.15908422  0.84091578  0.50189083  1.0
  Rb  Rb1  1  0.15908422  0.84091578  -0.00189083  1.0
  Rb  Rb2  1  -0.15908422  1.15908422  0.00189083  1.0
  Rb  Rb3  1  -0.15908422  1.15908422  0.49810917  1.0
  Pr  Pr4  1  -0.45002888  1.45002888  0.25000000  1.0
  Pr  Pr5  1  0.45002888  0.54997112  0.75000000  1.0
  F  F6  1  0.78266030  0.80378106  0.25000000  1.0
  F  F7  1  0.80378106  0.78266030  0.75000000  1.0
  F  F8  1  0.19621894  0.21733970  0.25000000  1.0
  F  F9  1  0.21733970  0.19621894  0.75000000  1.0
  F  F10  1  -0.11039786  1.49690517  0.25000000  1.0
  F  F11  1  0.49690517  0.88960214  0.75000000  1.0
  F  F12  1  -0.49690517  1.11039786  0.25000000  1.0
  F  F13  1  0.11039786  0.50309483  0.75000000  1.0
  F  F14  1  0.39988578  0.60011422  0.45939371  1.0
  F  F15  1  0.39988578  0.60011422  0.04060629  1.0
  F  F16  1  -0.39988578  1.39988578  0.95939371  1.0
  F  F17  1  -0.39988578  1.39988578  0.54060629  1.0
