# generated using pymatgen
data_Mn2SiO4
_symmetry_space_group_name_H-M   'P 1'
_cell_length_a   10.71114470
_cell_length_b   6.30318380
_cell_length_c   4.93396108
_cell_angle_alpha   90.00000000
_cell_angle_beta   90.00000000
_cell_angle_gamma   90.00000000
_symmetry_Int_Tables_number   1
_chemical_formula_structural   Mn2SiO4
_chemical_formula_sum   'Mn8 Si4 O16'
_cell_volume   333.11299685
_cell_formula_units_Z   4
loop_
 _symmetry_equiv_pos_site_id
 _symmetry_equiv_pos_as_xyz
  1  'x, y, z'
loop_
 _atom_site_type_symbol
 _atom_site_label
 _atom_site_symmetry_multiplicity
 _atom_site_fract_x
 _atom_site_fract_y
 _atom_site_fract_z
 _atom_site_occupancy
  Mn  Mn0  1  0.78103627  0.25000000  0.51384159  1.0
  Mn  Mn1  1  0.28103627  0.25000000  0.98615841  1.0
  Mn  Mn2  1  0.21896373  0.75000000  0.48615841  1.0
  Mn  Mn3  1  0.71896373  0.75000000  0.01384159  1.0
  Mn  Mn4  1  -0.00000000  0.50000000  0.00000000  1.0
  Mn  Mn5  1  0.00000000  0.00000000  0.00000000  1.0
  Mn  Mn6  1  0.50000000  0.50000000  0.50000000  1.0
  Mn  Mn7  1  0.50000000  0.00000000  0.50000000  1.0
  Si  Si8  1  0.59657486  0.25000000  0.07206817  1.0
  Si  Si9  1  0.09657486  0.25000000  0.42793183  1.0
  Si  Si10  1  0.40342514  0.75000000  0.92793183  1.0
  Si  Si11  1  0.90342514  0.75000000  0.57206817  1.0
  O  O12  1  0.59371847  0.25000000  0.73964706  1.0
  O  O13  1  0.09371847  0.25000000  0.76035294  1.0
  O  O14  1  0.40628153  0.75000000  0.26035294  1.0
  O  O15  1  0.90628153  0.75000000  0.23964706  1.0
  O  O16  1  0.66395501  0.45981637  0.21231541  1.0
  O  O17  1  0.66395501  0.04018363  0.21231541  1.0
  O  O18  1  0.16395501  0.45981637  0.28768459  1.0
  O  O19  1  0.16395501  0.04018363  0.28768459  1.0
  O  O20  1  0.33604499  0.95981637  0.78768459  1.0
  O  O21  1  0.33604499  0.54018363  0.78768459  1.0
  O  O22  1  0.83604499  0.95981637  0.71231541  1.0
  O  O23  1  0.83604499  0.54018363  0.71231541  1.0
  O  O24  1  0.95343109  0.25000000  0.28907728  1.0
  O  O25  1  0.45343109  0.25000000  0.21092272  1.0
  O  O26  1  0.04656891  0.75000000  0.71092272  1.0
  O  O27  1  0.54656891  0.75000000  0.78907728  1.0
