# generated using pymatgen
data_Yb8AlPd24
_symmetry_space_group_name_H-M   'P 1'
_cell_length_a   8.32882048
_cell_length_b   8.32882048
_cell_length_c   8.32882048
_cell_angle_alpha   90.00000000
_cell_angle_beta   90.00000000
_cell_angle_gamma   90.00000000
_symmetry_Int_Tables_number   1
_chemical_formula_structural   Yb8AlPd24
_chemical_formula_sum   'Yb8 Al1 Pd24'
_cell_volume   577.76403394
_cell_formula_units_Z   1
loop_
 _symmetry_equiv_pos_site_id
 _symmetry_equiv_pos_as_xyz
  1  'x, y, z'
loop_
 _atom_site_type_symbol
 _atom_site_label
 _atom_site_symmetry_multiplicity
 _atom_site_fract_x
 _atom_site_fract_y
 _atom_site_fract_z
 _atom_site_occupancy
  Yb  Yb0  1  0.74918016  0.74918016  0.74918016  1.0
  Yb  Yb1  1  0.74918016  0.74918016  0.25081984  1.0
  Yb  Yb2  1  0.74918016  0.25081984  0.74918016  1.0
  Yb  Yb3  1  0.74918016  0.25081984  0.25081984  1.0
  Yb  Yb4  1  0.25081984  0.74918016  0.74918016  1.0
  Yb  Yb5  1  0.25081984  0.74918016  0.25081984  1.0
  Yb  Yb6  1  0.25081984  0.25081984  0.74918016  1.0
  Yb  Yb7  1  0.25081984  0.25081984  0.25081984  1.0
  Al  Al8  1  0.00000000  0.00000000  0.00000000  1.0
  Pd  Pd9  1  0.73868225  0.50000000  -0.00000000  1.0
  Pd  Pd10  1  0.73868225  -0.00000000  0.50000000  1.0
  Pd  Pd11  1  0.50000000  0.73868225  0.00000000  1.0
  Pd  Pd12  1  0.50000000  -0.00000000  0.73868225  1.0
  Pd  Pd13  1  0.50000000  -0.00000000  0.26131775  1.0
  Pd  Pd14  1  0.50000000  0.26131775  0.00000000  1.0
  Pd  Pd15  1  -0.00000000  0.73868225  0.50000000  1.0
  Pd  Pd16  1  0.00000000  0.50000000  0.73868225  1.0
  Pd  Pd17  1  0.00000000  0.50000000  0.26131775  1.0
  Pd  Pd18  1  -0.00000000  0.26131775  0.50000000  1.0
  Pd  Pd19  1  0.26131775  0.50000000  -0.00000000  1.0
  Pd  Pd20  1  0.26131775  -0.00000000  0.50000000  1.0
  Pd  Pd21  1  0.74615860  0.50000000  0.50000000  1.0
  Pd  Pd22  1  0.50000000  0.74615860  0.50000000  1.0
  Pd  Pd23  1  0.50000000  0.50000000  0.74615860  1.0
  Pd  Pd24  1  0.50000000  0.50000000  0.25384140  1.0
  Pd  Pd25  1  0.50000000  0.25384140  0.50000000  1.0
  Pd  Pd26  1  0.25384140  0.50000000  0.50000000  1.0
  Pd  Pd27  1  0.70759668  -0.00000000  0.00000000  1.0
  Pd  Pd28  1  -0.00000000  0.70759668  0.00000000  1.0
  Pd  Pd29  1  -0.00000000  0.00000000  0.70759668  1.0
  Pd  Pd30  1  -0.00000000  0.00000000  0.29240332  1.0
  Pd  Pd31  1  -0.00000000  0.29240332  0.00000000  1.0
  Pd  Pd32  1  0.29240332  -0.00000000  0.00000000  1.0
