# generated using pymatgen
data_LiHS
_symmetry_space_group_name_H-M   'P 1'
_cell_length_a   7.88249010
_cell_length_b   7.88249010
_cell_length_c   6.17804430
_cell_angle_alpha   90.00000000
_cell_angle_beta   90.00000000
_cell_angle_gamma   90.00000000
_symmetry_Int_Tables_number   1
_chemical_formula_structural   LiHS
_chemical_formula_sum   'Li8 H8 S8'
_cell_volume   383.86444327
_cell_formula_units_Z   8
loop_
 _symmetry_equiv_pos_site_id
 _symmetry_equiv_pos_as_xyz
  1  'x, y, z'
loop_
 _atom_site_type_symbol
 _atom_site_label
 _atom_site_symmetry_multiplicity
 _atom_site_fract_x
 _atom_site_fract_y
 _atom_site_fract_z
 _atom_site_occupancy
  Li  Li0  1  0.00000000  0.50000000  0.75000000  1.0
  Li  Li1  1  0.50000000  0.00000000  0.25000000  1.0
  Li  Li2  1  0.50000000  0.00000000  0.75000000  1.0
  Li  Li3  1  0.00000000  0.50000000  0.25000000  1.0
  Li  Li4  1  0.50000000  0.50000000  0.75000000  1.0
  Li  Li5  1  0.50000000  0.50000000  0.25000000  1.0
  Li  Li6  1  0.00000000  0.00000000  0.75000000  1.0
  Li  Li7  1  0.00000000  0.00000000  0.25000000  1.0
  H  H8  1  0.25112601  0.18704613  0.50000000  1.0
  H  H9  1  0.18704613  0.74887399  0.00000000  1.0
  H  H10  1  0.24887399  0.68704613  0.50000000  1.0
  H  H11  1  0.68704613  0.75112601  0.00000000  1.0
  H  H12  1  0.74887399  0.81295387  0.50000000  1.0
  H  H13  1  0.81295387  0.25112601  0.00000000  1.0
  H  H14  1  0.75112601  0.31295387  0.50000000  1.0
  H  H15  1  0.31295387  0.24887399  0.00000000  1.0
  S  S16  1  0.98471981  0.24985899  0.00000000  1.0
  S  S17  1  0.24985899  0.01528019  0.50000000  1.0
  S  S18  1  0.51528019  0.74985899  0.00000000  1.0
  S  S19  1  0.74985899  0.48471981  0.50000000  1.0
  S  S20  1  0.01528019  0.75014101  0.00000000  1.0
  S  S21  1  0.75014101  0.98471981  0.50000000  1.0
  S  S22  1  0.48471981  0.25014101  0.00000000  1.0
  S  S23  1  0.25014101  0.51528019  0.50000000  1.0
