# generated using pymatgen
data_Cs6K7
_symmetry_space_group_name_H-M   'P 1'
_cell_length_a   9.15826811
_cell_length_b   9.15826811
_cell_length_c   33.23998585
_cell_angle_alpha   90.00000000
_cell_angle_beta   90.00000000
_cell_angle_gamma   120.00000000
_symmetry_Int_Tables_number   1
_chemical_formula_structural   Cs6K7
_chemical_formula_sum   'Cs12 K14'
_cell_volume   2414.44973444
_cell_formula_units_Z   2
loop_
 _symmetry_equiv_pos_site_id
 _symmetry_equiv_pos_as_xyz
  1  'x, y, z'
loop_
 _atom_site_type_symbol
 _atom_site_label
 _atom_site_symmetry_multiplicity
 _atom_site_fract_x
 _atom_site_fract_y
 _atom_site_fract_z
 _atom_site_occupancy
  Cs  Cs0  1  0.00000000  0.00000000  0.25000000  1.0
  Cs  Cs1  1  0.00000000  0.00000000  0.75000000  1.0
  Cs  Cs2  1  0.33333333  0.66666667  0.97760341  1.0
  Cs  Cs3  1  0.33333333  0.66666667  0.52239659  1.0
  Cs  Cs4  1  0.66666667  0.33333333  0.47760341  1.0
  Cs  Cs5  1  0.66666667  0.33333333  0.02239659  1.0
  Cs  Cs6  1  0.33333333  0.66666667  0.82312316  1.0
  Cs  Cs7  1  0.33333333  0.66666667  0.67687684  1.0
  Cs  Cs8  1  0.66666667  0.33333333  0.32312316  1.0
  Cs  Cs9  1  0.66666667  0.33333333  0.17687684  1.0
  Cs  Cs10  1  0.33333333  0.66666667  0.25000000  1.0
  Cs  Cs11  1  0.66666667  0.33333333  0.75000000  1.0
  K  K12  1  0.00000000  0.00000000  0.50000000  1.0
  K  K13  1  0.00000000  0.00000000  0.00000000  1.0
  K  K14  1  0.16756633  0.83243367  0.38704747  1.0
  K  K15  1  0.16756633  0.83243367  0.11295253  1.0
  K  K16  1  0.16756633  0.33513267  0.38704747  1.0
  K  K17  1  0.16756633  0.33513267  0.11295253  1.0
  K  K18  1  0.83243367  0.16756633  0.88704747  1.0
  K  K19  1  0.83243367  0.16756633  0.61295253  1.0
  K  K20  1  0.83243367  0.66486733  0.88704747  1.0
  K  K21  1  0.83243367  0.66486733  0.61295253  1.0
  K  K22  1  0.66486733  0.83243367  0.38704747  1.0
  K  K23  1  0.66486733  0.83243367  0.11295253  1.0
  K  K24  1  0.33513267  0.16756633  0.88704747  1.0
  K  K25  1  0.33513267  0.16756633  0.61295253  1.0
