# generated using pymatgen
data_MnSnO3
_symmetry_space_group_name_H-M   'P 1'
_cell_length_a   5.70464435
_cell_length_b   5.70464435
_cell_length_c   5.70464435
_cell_angle_alpha   56.91700416
_cell_angle_beta   56.91700416
_cell_angle_gamma   56.91700416
_symmetry_Int_Tables_number   1
_chemical_formula_structural   MnSnO3
_chemical_formula_sum   'Mn2 Sn2 O6'
_cell_volume   121.93608690
_cell_formula_units_Z   2
loop_
 _symmetry_equiv_pos_site_id
 _symmetry_equiv_pos_as_xyz
  1  'x, y, z'
loop_
 _atom_site_type_symbol
 _atom_site_label
 _atom_site_symmetry_multiplicity
 _atom_site_fract_x
 _atom_site_fract_y
 _atom_site_fract_z
 _atom_site_occupancy
  Mn  Mn0  1  0.78288128  -0.21711872  -0.21711872  1.0
  Mn  Mn1  1  0.28288128  0.28288128  0.28288128  1.0
  Sn  Sn2  1  0.00087044  0.00087044  0.00087044  1.0
  Sn  Sn3  1  0.50087044  0.50087044  -0.49912956  1.0
  O  O4  1  0.61154214  -0.11584244  0.21164858  1.0
  O  O5  1  0.11154214  0.71164858  -0.61584244  1.0
  O  O6  1  0.71164858  0.38415756  -0.88845786  1.0
  O  O7  1  1.21164858  -0.38845786  -0.11584244  1.0
  O  O8  1  0.38415756  0.11154214  -0.28835142  1.0
  O  O9  1  0.88415756  0.21164858  -0.38845786  1.0
