# generated using pymatgen
data_ReN2
_symmetry_space_group_name_H-M   'P 1'
_cell_length_a   2.86316837
_cell_length_b   2.86316837
_cell_length_c   9.21161683
_cell_angle_alpha   80.70990642
_cell_angle_beta   99.29009358
_cell_angle_gamma   119.98905094
_symmetry_Int_Tables_number   1
_chemical_formula_structural   ReN2
_chemical_formula_sum   'Re2 N4'
_cell_volume   64.25808332
_cell_formula_units_Z   2
loop_
 _symmetry_equiv_pos_site_id
 _symmetry_equiv_pos_as_xyz
  1  'x, y, z'
loop_
 _atom_site_type_symbol
 _atom_site_label
 _atom_site_symmetry_multiplicity
 _atom_site_fract_x
 _atom_site_fract_y
 _atom_site_fract_z
 _atom_site_occupancy
  Re  Re0  1  0.07807455  -0.07807455  0.06181205  1.0
  Re  Re1  1  0.22876169  -0.22876169  0.49714137  1.0
  N  N2  1  1.45997199  -0.45997199  0.20209942  1.0
  N  N3  1  0.51355235  0.48644765  0.35691738  1.0
  N  N4  1  0.60714284  0.39285716  0.62707130  1.0
  N  N5  1  0.36649659  -0.36649659  0.93195848  1.0
