# generated using pymatgen
data_Na3AlTe3
_symmetry_space_group_name_H-M   'P 1'
_cell_length_a   8.13192770
_cell_length_b   7.84962853
_cell_length_c   16.32372024
_cell_angle_alpha   90.00000000
_cell_angle_beta   119.62433179
_cell_angle_gamma   90.00000000
_symmetry_Int_Tables_number   1
_chemical_formula_structural   Na3AlTe3
_chemical_formula_sum   'Na12 Al4 Te12'
_cell_volume   905.78262799
_cell_formula_units_Z   4
loop_
 _symmetry_equiv_pos_site_id
 _symmetry_equiv_pos_as_xyz
  1  'x, y, z'
loop_
 _atom_site_type_symbol
 _atom_site_label
 _atom_site_symmetry_multiplicity
 _atom_site_fract_x
 _atom_site_fract_y
 _atom_site_fract_z
 _atom_site_occupancy
  Na  Na0  1  0.44769535  0.01999951  0.72158221  1.0
  Na  Na1  1  0.44769535  0.48000049  0.22158221  1.0
  Na  Na2  1  0.55230465  0.51999951  0.77841779  1.0
  Na  Na3  1  0.55230465  0.98000049  0.27841779  1.0
  Na  Na4  1  0.18075182  0.50420483  0.89705826  1.0
  Na  Na5  1  0.18075182  -0.00420483  0.39705826  1.0
  Na  Na6  1  0.81924818  1.00420483  0.60294174  1.0
  Na  Na7  1  0.81924818  0.49579517  0.10294174  1.0
  Na  Na8  1  0.77571512  0.50528697  0.60324264  1.0
  Na  Na9  1  0.77571512  -0.00528697  0.10324264  1.0
  Na  Na10  1  0.22428488  1.00528697  0.89675736  1.0
  Na  Na11  1  0.22428488  0.49471303  0.39675736  1.0
  Al  Al12  1  0.16389482  0.64136480  0.58149099  1.0
  Al  Al13  1  0.16389482  0.85863520  0.08149099  1.0
  Al  Al14  1  0.83610518  0.14136480  0.91850901  1.0
  Al  Al15  1  0.83610518  0.35863520  0.41850901  1.0
  Te  Te16  1  0.15852867  0.29884903  0.57551334  1.0
  Te  Te17  1  0.15852867  0.20115097  0.07551334  1.0
  Te  Te18  1  0.84147133  0.79884903  0.92448666  1.0
  Te  Te19  1  0.84147133  0.70115097  0.42448666  1.0
  Te  Te20  1  0.84493170  0.24648941  0.76930028  1.0
  Te  Te21  1  0.84493170  0.25351059  0.26930028  1.0
  Te  Te22  1  0.15506830  0.74648941  0.73069972  1.0
  Te  Te23  1  0.15506830  0.75351059  0.23069972  1.0
  Te  Te24  1  0.54609011  0.26039628  0.92686649  1.0
  Te  Te25  1  0.54609011  0.23960372  0.42686649  1.0
  Te  Te26  1  0.45390989  0.76039628  0.57313351  1.0
  Te  Te27  1  0.45390989  0.73960372  0.07313351  1.0
