# generated using pymatgen
data_Li12Al3Si4
_symmetry_space_group_name_H-M   'P 1'
_cell_length_a   9.10040097
_cell_length_b   9.10040097
_cell_length_c   9.10040097
_cell_angle_alpha   109.47122063
_cell_angle_beta   109.47122063
_cell_angle_gamma   109.47122063
_symmetry_Int_Tables_number   1
_chemical_formula_structural   Li12Al3Si4
_chemical_formula_sum   'Li24 Al6 Si8'
_cell_volume   580.17591204
_cell_formula_units_Z   2
loop_
 _symmetry_equiv_pos_site_id
 _symmetry_equiv_pos_as_xyz
  1  'x, y, z'
loop_
 _atom_site_type_symbol
 _atom_site_label
 _atom_site_symmetry_multiplicity
 _atom_site_fract_x
 _atom_site_fract_y
 _atom_site_fract_z
 _atom_site_occupancy
  Li  Li0  1  1.07877058  0.30976432  0.96402291  1.0
  Li  Li1  1  0.84574140  1.11474767  0.53597709  1.0
  Li  Li2  1  0.80976432  0.57877058  0.46402291  1.0
  Li  Li3  1  1.61474767  1.34574140  1.03597709  1.0
  Li  Li4  1  0.96402291  1.07877058  0.30976432  1.0
  Li  Li5  1  1.26900626  0.65425860  1.19023568  1.0
  Li  Li6  1  1.57877058  1.46402291  1.80976432  1.0
  Li  Li7  1  0.15425860  0.76900626  0.69023568  1.0
  Li  Li8  1  1.30976432  0.96402291  1.07877058  1.0
  Li  Li9  1  1.38525233  1.23099374  1.42122942  1.0
  Li  Li10  1  0.46402291  0.80976432  0.57877058  1.0
  Li  Li11  1  0.73099374  0.88525233  0.92122942  1.0
  Li  Li12  1  1.65425860  1.19023568  1.26900626  1.0
  Li  Li13  1  1.42122942  1.38525233  1.23099374  1.0
  Li  Li14  1  0.88525233  0.92122942  0.73099374  1.0
  Li  Li15  1  0.69023568  1.15425860  0.76900626  1.0
  Li  Li16  1  1.23099374  1.42122942  1.38525233  1.0
  Li  Li17  1  1.53597709  0.84574140  1.11474767  1.0
  Li  Li18  1  1.34574140  1.03597709  1.61474767  1.0
  Li  Li19  1  0.92122942  0.73099374  0.88525233  1.0
  Li  Li20  1  1.11474767  1.53597709  0.84574140  1.0
  Li  Li21  1  1.19023568  1.26900626  1.65425860  1.0
  Li  Li22  1  0.76900626  0.69023568  0.15425860  1.0
  Li  Li23  1  1.03597709  0.61474767  1.34574140  1.0
  Al  Al24  1  1.12500000  0.87500000  1.25000000  1.0
  Al  Al25  1  0.37500000  0.62500000  0.75000000  1.0
  Al  Al26  1  0.25000000  1.12500000  0.87500000  1.0
  Al  Al27  1  0.75000000  1.37500000  0.62500000  1.0
  Al  Al28  1  0.62500000  0.75000000  0.37500000  1.0
  Al  Al29  1  0.87500000  0.25000000  1.12500000  1.0
  Si  Si30  1  1.09078909  1.09078909  1.09078909  1.0
  Si  Si31  1  1.50000000  1.00000000  1.40921091  1.0
  Si  Si32  1  0.59078909  0.59078909  0.59078909  1.0
  Si  Si33  1  0.50000000  1.00000000  0.90921091  1.0
  Si  Si34  1  1.00000000  1.40921091  1.50000000  1.0
  Si  Si35  1  1.40921091  0.50000000  1.00000000  1.0
  Si  Si36  1  1.00000000  0.90921091  1.50000000  1.0
  Si  Si37  1  0.90921091  1.50000000  1.00000000  1.0
