# generated using pymatgen
data_Y4C7
_symmetry_space_group_name_H-M   'P 1'
_cell_length_a   3.70875807
_cell_length_b   12.59919051
_cell_length_c   13.81274390
_cell_angle_alpha   90.00000000
_cell_angle_beta   98.74602908
_cell_angle_gamma   90.00000000
_symmetry_Int_Tables_number   1
_chemical_formula_structural   Y4C7
_chemical_formula_sum   'Y16 C28'
_cell_volume   637.92785097
_cell_formula_units_Z   4
loop_
 _symmetry_equiv_pos_site_id
 _symmetry_equiv_pos_as_xyz
  1  'x, y, z'
loop_
 _atom_site_type_symbol
 _atom_site_label
 _atom_site_symmetry_multiplicity
 _atom_site_fract_x
 _atom_site_fract_y
 _atom_site_fract_z
 _atom_site_occupancy
  Y  Y0  1  0.87388865  0.46078896  0.11769807  1.0
  Y  Y1  1  0.87388865  0.03921104  0.61769807  1.0
  Y  Y2  1  0.12611135  0.96078896  0.38230193  1.0
  Y  Y3  1  0.12611135  0.53921104  0.88230193  1.0
  Y  Y4  1  0.86721960  0.19553959  0.21012554  1.0
  Y  Y5  1  0.86721960  0.30446041  0.71012554  1.0
  Y  Y6  1  0.13278040  0.69553959  0.28987446  1.0
  Y  Y7  1  0.13278040  0.80446041  0.78987446  1.0
  Y  Y8  1  0.69928642  0.48468063  0.39238067  1.0
  Y  Y9  1  0.69928642  0.01531937  0.89238067  1.0
  Y  Y10  1  0.30071358  0.98468063  0.10761933  1.0
  Y  Y11  1  0.30071358  0.51531937  0.60761933  1.0
  Y  Y12  1  0.26327137  0.26247863  0.49292917  1.0
  Y  Y13  1  0.26327137  0.23752137  0.99292917  1.0
  Y  Y14  1  0.73672863  0.76247863  0.00707083  1.0
  Y  Y15  1  0.73672863  0.73752137  0.50707083  1.0
  C  C16  1  0.83291963  0.85940666  0.17478863  1.0
  C  C17  1  0.83291963  0.64059334  0.67478863  1.0
  C  C18  1  0.16708037  0.35940666  0.32521137  1.0
  C  C19  1  0.16708037  0.14059334  0.82521137  1.0
  C  C20  1  0.79076020  0.11678850  0.04998385  1.0
  C  C21  1  0.79076020  0.38321150  0.54998385  1.0
  C  C22  1  0.20923980  0.61678850  0.45001615  1.0
  C  C23  1  0.20923980  0.88321150  0.95001615  1.0
  C  C24  1  0.75334372  0.10995467  0.45185666  1.0
  C  C25  1  0.75334372  0.39004533  0.95185666  1.0
  C  C26  1  0.24665628  0.60995467  0.04814334  1.0
  C  C27  1  0.24665628  0.89004533  0.54814334  1.0
  C  C28  1  0.69760985  0.84873762  0.25665105  1.0
  C  C29  1  0.69760985  0.65126238  0.75665105  1.0
  C  C30  1  0.30239015  0.34873762  0.24334895  1.0
  C  C31  1  0.30239015  0.15126238  0.74334895  1.0
  C  C32  1  0.58537391  0.10416023  0.36009373  1.0
  C  C33  1  0.58537391  0.39583977  0.86009373  1.0
  C  C34  1  0.41462609  0.60416023  0.13990627  1.0
  C  C35  1  0.41462609  0.89583977  0.63990627  1.0
  C  C36  1  0.41003628  0.08322124  0.27077768  1.0
  C  C37  1  0.41003628  0.41677876  0.77077768  1.0
  C  C38  1  0.58996372  0.58322124  0.22922232  1.0
  C  C39  1  0.58996372  0.91677876  0.72922232  1.0
  C  C40  1  0.37331213  0.32868493  0.15216157  1.0
  C  C41  1  0.37331213  0.17131507  0.65216157  1.0
  C  C42  1  0.62668787  0.82868493  0.34783843  1.0
  C  C43  1  0.62668787  0.67131507  0.84783843  1.0
