# generated using pymatgen
data_LiCuH4Cl3O2
_symmetry_space_group_name_H-M   'P 1'
_cell_length_a   6.30867794
_cell_length_b   11.22664940
_cell_length_c   9.45206014
_cell_angle_alpha   90.00000000
_cell_angle_beta   106.24828588
_cell_angle_gamma   90.00000000
_symmetry_Int_Tables_number   1
_chemical_formula_structural   LiCuH4Cl3O2
_chemical_formula_sum   'Li4 Cu4 H16 Cl12 O8'
_cell_volume   642.70631328
_cell_formula_units_Z   4
loop_
 _symmetry_equiv_pos_site_id
 _symmetry_equiv_pos_as_xyz
  1  'x, y, z'
loop_
 _atom_site_type_symbol
 _atom_site_label
 _atom_site_symmetry_multiplicity
 _atom_site_fract_x
 _atom_site_fract_y
 _atom_site_fract_z
 _atom_site_occupancy
  Cl  Cl0  1  0.93191890  0.36923699  0.35857406  1.0
  Cl  Cl1  1  0.93191890  0.13076301  0.85857406  1.0
  Cl  Cl2  1  0.06808110  0.86923699  0.14142594  1.0
  Cl  Cl3  1  0.06808110  0.63076301  0.64142594  1.0
  Cl  Cl4  1  0.32739613  0.10068443  0.32361657  1.0
  Cl  Cl5  1  0.32739613  0.39931557  0.82361657  1.0
  Cl  Cl6  1  0.67260387  0.60068443  0.17638343  1.0
  Cl  Cl7  1  0.67260387  0.89931557  0.67638343  1.0
  Cl  Cl8  1  0.59817631  0.11883615  0.07157496  1.0
  Cl  Cl9  1  0.59817631  0.38116385  0.57157496  1.0
  Cl  Cl10  1  0.40182369  0.61883615  0.42842504  1.0
  Cl  Cl11  1  0.40182369  0.88116385  0.92842504  1.0
  H  H12  1  0.89083607  0.18181171  0.41910661  1.0
  H  H13  1  0.89083607  0.31818829  0.91910661  1.0
  H  H14  1  0.10916393  0.68181171  0.08089339  1.0
  H  H15  1  0.10916393  0.81818829  0.58089339  1.0
  H  H16  1  0.68309454  0.78294016  0.27145057  1.0
  H  H17  1  0.68309454  0.71705984  0.77145057  1.0
  H  H18  1  0.31690546  0.28294016  0.22854943  1.0
  H  H19  1  0.31690546  0.21705984  0.72854943  1.0
  H  H20  1  0.69276112  0.09949678  0.41895688  1.0
  H  H21  1  0.69276112  0.40050322  0.91895688  1.0
  H  H22  1  0.30723888  0.59949678  0.08104312  1.0
  H  H23  1  0.30723888  0.90050322  0.58104312  1.0
  H  H24  1  0.37017563  0.34736194  0.09689889  1.0
  H  H25  1  0.37017563  0.15263806  0.59689889  1.0
  H  H26  1  0.62982437  0.84736194  0.40310111  1.0
  H  H27  1  0.62982437  0.65263806  0.90310111  1.0
  Li  Li28  1  0.96376031  0.95569130  0.35251935  1.0
  Li  Li29  1  0.96376031  0.54430870  0.85251935  1.0
  Li  Li30  1  0.03623969  0.45569130  0.14748065  1.0
  Li  Li31  1  0.03623969  0.04430870  0.64748065  1.0
  O  O32  1  0.85559287  0.10086200  0.44672032  1.0
  O  O33  1  0.85559287  0.39913800  0.94672032  1.0
  O  O34  1  0.14440713  0.60086200  0.05327968  1.0
  O  O35  1  0.14440713  0.89913800  0.55327968  1.0
  O  O36  1  0.31330443  0.36155964  0.18141977  1.0
  O  O37  1  0.31330443  0.13844036  0.68141977  1.0
  O  O38  1  0.68669557  0.86155964  0.31858023  1.0
  O  O39  1  0.68669557  0.63844036  0.81858023  1.0
  Cu  Cu40  1  0.65131595  0.48853857  0.37628161  1.0
  Cu  Cu41  1  0.65131595  0.01146143  0.87628161  1.0
  Cu  Cu42  1  0.34868405  0.98853857  0.12371839  1.0
  Cu  Cu43  1  0.34868405  0.51146143  0.62371839  1.0
