# generated using pymatgen
data_CsLa(PO3)4
_symmetry_space_group_name_H-M   'P 1'
_cell_length_a   7.33507581
_cell_length_b   9.44071013
_cell_length_c   8.98518943
_cell_angle_alpha   90.00000000
_cell_angle_beta   99.37945159
_cell_angle_gamma   90.00000000
_symmetry_Int_Tables_number   1
_chemical_formula_structural   CsLa(PO3)4
_chemical_formula_sum   'Cs2 La2 P8 O24'
_cell_volume   613.89079339
_cell_formula_units_Z   2
loop_
 _symmetry_equiv_pos_site_id
 _symmetry_equiv_pos_as_xyz
  1  'x, y, z'
loop_
 _atom_site_type_symbol
 _atom_site_label
 _atom_site_symmetry_multiplicity
 _atom_site_fract_x
 _atom_site_fract_y
 _atom_site_fract_z
 _atom_site_occupancy
  Cs  Cs0  1  0.82767196  0.70145361  0.82618056  1.0
  Cs  Cs1  1  0.17232804  0.20145361  0.17381944  1.0
  La  La2  1  0.29869798  0.03474997  0.69777035  1.0
  La  La3  1  0.70130202  0.53474997  0.30222965  1.0
  P  P4  1  0.85370471  0.15983189  0.45634515  1.0
  P  P5  1  0.14629529  0.65983189  0.54365485  1.0
  P  P6  1  0.80664809  0.10875391  0.77295259  1.0
  P  P7  1  0.19335191  0.60875391  0.22704741  1.0
  P  P8  1  0.58490734  0.31073310  0.92618943  1.0
  P  P9  1  0.41509266  0.81073310  0.07381057  1.0
  P  P10  1  0.43716439  0.42645579  0.62484878  1.0
  P  P11  1  0.56283561  0.92645579  0.37515122  1.0
  O  O12  1  0.99300656  0.56720518  0.18358476  1.0
  O  O13  1  0.00699344  0.06720518  0.81641524  1.0
  O  O14  1  0.96025275  0.58917098  0.50928985  1.0
  O  O15  1  0.03974725  0.08917098  0.49071015  1.0
  O  O16  1  0.83775447  0.29515619  0.36722156  1.0
  O  O17  1  0.16224553  0.79515619  0.63277844  1.0
  O  O18  1  0.77231884  0.18967199  0.61068521  1.0
  O  O19  1  0.22768116  0.68967199  0.38931479  1.0
  O  O20  1  0.77389278  0.23826784  0.88453327  1.0
  O  O21  1  0.22610722  0.73826784  0.11546673  1.0
  O  O22  1  0.71273764  0.04898334  0.36004567  1.0
  O  O23  1  0.28726236  0.54898334  0.63995433  1.0
  O  O24  1  0.65848146  -0.00194307  0.77179172  1.0
  O  O25  1  0.34151854  0.49805693  0.22820828  1.0
  O  O26  1  0.64377660  0.38356626  0.07379174  1.0
  O  O27  1  0.35622340  0.88356626  0.92620826  1.0
  O  O28  1  0.57053345  0.48072460  0.52766305  1.0
  O  O29  1  0.42946655  0.98072460  0.47233695  1.0
  O  O30  1  0.54588098  0.43438005  0.79895461  1.0
  O  O31  1  0.45411902  0.93438005  0.20104539  1.0
  O  O32  1  0.42779730  0.20594681  0.90851458  1.0
  O  O33  1  0.57220270  0.70594681  0.09148542  1.0
  O  O34  1  0.34664196  0.28439156  0.59400588  1.0
  O  O35  1  0.65335804  0.78439156  0.40599412  1.0
