# generated using pymatgen
data_Y2GeO5
_symmetry_space_group_name_H-M   'P 1'
_cell_length_a   8.22908704
_cell_length_b   8.22908704
_cell_length_c   10.60257420
_cell_angle_alpha   61.56069334
_cell_angle_beta   118.43930666
_cell_angle_gamma   130.27679277
_symmetry_Int_Tables_number   1
_chemical_formula_structural   Y2GeO5
_chemical_formula_sum   'Y8 Ge4 O20'
_cell_volume   466.25372491
_cell_formula_units_Z   4
loop_
 _symmetry_equiv_pos_site_id
 _symmetry_equiv_pos_as_xyz
  1  'x, y, z'
loop_
 _atom_site_type_symbol
 _atom_site_label
 _atom_site_symmetry_multiplicity
 _atom_site_fract_x
 _atom_site_fract_y
 _atom_site_fract_z
 _atom_site_occupancy
  Y  Y0  1  1.70492361  -0.22169774  0.03004877  1.0
  Y  Y1  1  1.22169774  -0.70492361  0.53004877  1.0
  Y  Y2  1  0.77830226  0.70492361  0.46995123  1.0
  Y  Y3  1  0.29507639  0.22169774  0.96995123  1.0
  Y  Y4  1  0.51757586  0.23993512  0.34018090  1.0
  Y  Y5  1  0.76006488  0.48242414  0.84018090  1.0
  Y  Y6  1  1.23993512  -0.48242414  0.15981910  1.0
  Y  Y7  1  1.48242414  -0.23993512  0.65981910  1.0
  Ge  Ge8  1  0.72089527  0.09047765  0.19335086  1.0
  Ge  Ge9  1  0.90952235  -0.72089527  0.69335086  1.0
  Ge  Ge10  1  1.09047765  0.72089527  0.30664914  1.0
  Ge  Ge11  1  1.27910473  -0.09047765  0.80664914  1.0
  O  O12  1  0.90041094  0.06967292  0.37095464  1.0
  O  O13  1  0.93032708  -0.90041094  0.87095464  1.0
  O  O14  1  1.06967292  0.90041094  0.12904536  1.0
  O  O15  1  1.09958906  -0.06967292  0.62904536  1.0
  O  O16  1  1.58584940  -0.17527123  0.16879455  1.0
  O  O17  1  1.17527123  -0.58584940  0.66879455  1.0
  O  O18  1  0.82472877  0.58584940  0.33120545  1.0
  O  O19  1  0.41415060  0.17527123  0.83120545  1.0
  O  O20  1  0.28587791  -0.12430417  0.43979146  1.0
  O  O21  1  1.12430417  0.71412209  0.93979146  1.0
  O  O22  1  0.87569583  -0.71412209  0.06020854  1.0
  O  O23  1  1.71412209  0.12430417  0.56020854  1.0
  O  O24  1  0.53981573  0.14868272  0.17812125  1.0
  O  O25  1  0.85131728  -0.53981573  0.67812125  1.0
  O  O26  1  1.14868272  0.53981573  0.32187875  1.0
  O  O27  1  1.46018427  -0.14868272  0.82187875  1.0
  O  O28  1  0.42008159  0.38992062  0.39472190  1.0
  O  O29  1  0.61007938  0.57991841  0.89472190  1.0
  O  O30  1  1.38992062  -0.57991841  0.10527810  1.0
  O  O31  1  1.57991841  -0.38992062  0.60527810  1.0
