# generated using pymatgen
data_ZnNi(CN)4
_symmetry_space_group_name_H-M   'P 1'
_cell_length_a   5.32117074
_cell_length_b   5.32117074
_cell_length_c   12.93810970
_cell_angle_alpha   90.00000000
_cell_angle_beta   90.00000000
_cell_angle_gamma   90.00000000
_symmetry_Int_Tables_number   1
_chemical_formula_structural   ZnNi(CN)4
_chemical_formula_sum   'Zn2 Ni2 C8 N8'
_cell_volume   366.34073930
_cell_formula_units_Z   2
loop_
 _symmetry_equiv_pos_site_id
 _symmetry_equiv_pos_as_xyz
  1  'x, y, z'
loop_
 _atom_site_type_symbol
 _atom_site_label
 _atom_site_symmetry_multiplicity
 _atom_site_fract_x
 _atom_site_fract_y
 _atom_site_fract_z
 _atom_site_occupancy
  Zn  Zn0  1  0.50000000  0.50000000  0.75000000  1.0
  Zn  Zn1  1  0.50000000  0.50000000  0.25000000  1.0
  Ni  Ni2  1  0.00000000  0.00000000  0.00000000  1.0
  Ni  Ni3  1  0.00000000  0.00000000  0.50000000  1.0
  C  C4  1  0.82480792  0.82480792  0.90095533  1.0
  C  C5  1  0.82480792  0.82480792  0.09904467  1.0
  C  C6  1  0.82480792  0.17519208  0.40095533  1.0
  C  C7  1  0.82480792  0.17519208  0.59904467  1.0
  C  C8  1  0.17519208  0.82480792  0.40095533  1.0
  C  C9  1  0.17519208  0.82480792  0.59904467  1.0
  C  C10  1  0.17519208  0.17519208  0.90095533  1.0
  C  C11  1  0.17519208  0.17519208  0.09904467  1.0
  N  N12  1  0.71007798  0.71007798  0.84036325  1.0
  N  N13  1  0.71007798  0.71007798  0.15963675  1.0
  N  N14  1  0.71007798  0.28992202  0.34036325  1.0
  N  N15  1  0.71007798  0.28992202  0.65963675  1.0
  N  N16  1  0.28992202  0.71007798  0.34036325  1.0
  N  N17  1  0.28992202  0.71007798  0.65963675  1.0
  N  N18  1  0.28992202  0.28992202  0.84036325  1.0
  N  N19  1  0.28992202  0.28992202  0.15963675  1.0
