# generated using pymatgen
data_Cd2GaAgS4
_symmetry_space_group_name_H-M   'P 1'
_cell_length_a   8.22952775
_cell_length_b   6.99687314
_cell_length_c   6.69125827
_cell_angle_alpha   90.00000000
_cell_angle_beta   90.00000000
_cell_angle_gamma   90.00000000
_symmetry_Int_Tables_number   1
_chemical_formula_structural   Cd2GaAgS4
_chemical_formula_sum   'Cd4 Ga2 Ag2 S8'
_cell_volume   385.28908628
_cell_formula_units_Z   2
loop_
 _symmetry_equiv_pos_site_id
 _symmetry_equiv_pos_as_xyz
  1  'x, y, z'
loop_
 _atom_site_type_symbol
 _atom_site_label
 _atom_site_symmetry_multiplicity
 _atom_site_fract_x
 _atom_site_fract_y
 _atom_site_fract_z
 _atom_site_occupancy
  Cd  Cd0  1  0.24714495  0.17502609  0.01326320  1.0
  Cd  Cd1  1  0.74714495  0.82497391  0.51326320  1.0
  Cd  Cd2  1  0.75285505  0.17502609  0.01326320  1.0
  Cd  Cd3  1  0.25285505  0.82497391  0.51326320  1.0
  Ga  Ga4  1  0.50000000  0.32271391  0.50925103  1.0
  Ga  Ga5  1  0.00000000  0.67728609  0.00925103  1.0
  Ag  Ag6  1  0.50000000  0.65708437  0.00951636  1.0
  Ag  Ag7  1  0.00000000  0.34291563  0.50951636  1.0
  S  S8  1  0.26574092  0.17515326  0.39670507  1.0
  S  S9  1  0.76574092  0.82484674  0.89670507  1.0
  S  S10  1  0.73425908  0.17515326  0.39670507  1.0
  S  S11  1  0.23425908  0.82484674  0.89670507  1.0
  S  S12  1  0.50000000  0.32099817  0.85471653  1.0
  S  S13  1  0.00000000  0.67900183  0.35471653  1.0
  S  S14  1  0.50000000  0.63447102  0.39357953  1.0
  S  S15  1  0.00000000  0.36552898  0.89357953  1.0
