# generated using pymatgen
data_Cr3Se4
_symmetry_space_group_name_H-M   'P 1'
_cell_length_a   6.90817914
_cell_length_b   6.90817914
_cell_length_c   6.43271749
_cell_angle_alpha   63.86233921
_cell_angle_beta   116.13766079
_cell_angle_gamma   149.15351412
_symmetry_Int_Tables_number   1
_chemical_formula_structural   Cr3Se4
_chemical_formula_sum   'Cr3 Se4'
_cell_volume   140.00759222
_cell_formula_units_Z   1
loop_
 _symmetry_equiv_pos_site_id
 _symmetry_equiv_pos_as_xyz
  1  'x, y, z'
loop_
 _atom_site_type_symbol
 _atom_site_label
 _atom_site_symmetry_multiplicity
 _atom_site_fract_x
 _atom_site_fract_y
 _atom_site_fract_z
 _atom_site_occupancy
  Cr  Cr0  1  0.00000000  0.00000000  0.00000000  1.0
  Cr  Cr1  1  0.73799682  -0.73799682  0.71755650  1.0
  Cr  Cr2  1  1.26200318  -0.26200318  0.28244350  1.0
  Se  Se3  1  0.63442760  -0.63442760  0.97781633  1.0
  Se  Se4  1  1.36557240  -0.36557240  0.02218367  1.0
  Se  Se5  1  0.87723001  -0.87723001  0.54939235  1.0
  Se  Se6  1  1.12276999  -0.12276999  0.45060765  1.0
