# generated using pymatgen
data_CaP4(HO6)2
_symmetry_space_group_name_H-M   'P 1'
_cell_length_a   5.85519746
_cell_length_b   9.75970912
_cell_length_c   8.97026703
_cell_angle_alpha   90.00000000
_cell_angle_beta   92.50583411
_cell_angle_gamma   90.00000000
_symmetry_Int_Tables_number   1
_chemical_formula_structural   CaP4(HO6)2
_chemical_formula_sum   'Ca2 P8 H4 O24'
_cell_volume   512.11595802
_cell_formula_units_Z   2
loop_
 _symmetry_equiv_pos_site_id
 _symmetry_equiv_pos_as_xyz
  1  'x, y, z'
loop_
 _atom_site_type_symbol
 _atom_site_label
 _atom_site_symmetry_multiplicity
 _atom_site_fract_x
 _atom_site_fract_y
 _atom_site_fract_z
 _atom_site_occupancy
  Ca  Ca0  1  0.00000000  0.50000000  0.50000000  1.0
  Ca  Ca1  1  -0.00000000  0.00000000  -0.00000000  1.0
  P  P2  1  0.70838406  0.28596499  0.19896062  1.0
  P  P3  1  0.70838406  0.21403501  0.69896062  1.0
  P  P4  1  0.29161594  0.78596499  0.30103938  1.0
  P  P5  1  0.29161594  0.71403501  0.80103938  1.0
  P  P6  1  0.38480908  0.22206218  0.43935049  1.0
  P  P7  1  0.38480908  0.27793782  0.93935049  1.0
  P  P8  1  0.61519092  0.72206218  0.06064951  1.0
  P  P9  1  0.61519092  0.77793782  0.56064951  1.0
  H  H10  1  0.20018808  0.03982478  0.33163779  1.0
  H  H11  1  0.20018808  0.46017522  0.83163779  1.0
  H  H12  1  0.79981192  0.53982478  0.16836221  1.0
  H  H13  1  0.79981192  0.96017522  0.66836221  1.0
  O  O14  1  0.85496963  0.18949462  0.11716797  1.0
  O  O15  1  0.85496963  0.31050538  0.61716797  1.0
  O  O16  1  0.14503037  0.68949462  0.38283203  1.0
  O  O17  1  0.14503037  0.81050538  0.88283203  1.0
  O  O18  1  0.80799938  0.41425555  0.27153649  1.0
  O  O19  1  0.80799938  0.08574445  0.77153649  1.0
  O  O20  1  0.19200062  0.91425555  0.22846351  1.0
  O  O21  1  0.19200062  0.58574445  0.72846351  1.0
  O  O22  1  0.57802707  0.19505758  0.32115941  1.0
  O  O23  1  0.57802707  0.30494242  0.82115941  1.0
  O  O24  1  0.42197293  0.69505758  0.17884059  1.0
  O  O25  1  0.42197293  0.80494242  0.67884059  1.0
  O  O26  1  0.49768586  0.34332155  0.09015445  1.0
  O  O27  1  0.49768586  0.15667845  0.59015445  1.0
  O  O28  1  0.50231414  0.84332155  0.40984555  1.0
  O  O29  1  0.50231414  0.65667845  0.90984555  1.0
  O  O30  1  0.32005277  0.36822908  0.45593065  1.0
  O  O31  1  0.32005277  0.13177092  0.95593065  1.0
  O  O32  1  0.67994723  0.86822908  0.04406935  1.0
  O  O33  1  0.67994723  0.63177092  0.54406935  1.0
  O  O34  1  0.18281835  0.12534026  0.39747507  1.0
  O  O35  1  0.18281835  0.37465974  0.89747507  1.0
  O  O36  1  0.81718165  0.62534026  0.10252493  1.0
  O  O37  1  0.81718165  0.87465974  0.60252493  1.0
