# generated using pymatgen
data_VPb2Se3O10
_symmetry_space_group_name_H-M   'P 1'
_cell_length_a   5.27731057
_cell_length_b   16.34525322
_cell_length_c   12.65417702
_cell_angle_alpha   90.00000000
_cell_angle_beta   113.64745596
_cell_angle_gamma   90.00000000
_symmetry_Int_Tables_number   1
_chemical_formula_structural   VPb2Se3O10
_chemical_formula_sum   'V4 Pb8 Se12 O40'
_cell_volume   999.88095891
_cell_formula_units_Z   4
loop_
 _symmetry_equiv_pos_site_id
 _symmetry_equiv_pos_as_xyz
  1  'x, y, z'
loop_
 _atom_site_type_symbol
 _atom_site_label
 _atom_site_symmetry_multiplicity
 _atom_site_fract_x
 _atom_site_fract_y
 _atom_site_fract_z
 _atom_site_occupancy
  V  V0  1  0.81796613  0.19021601  0.06432009  1.0
  V  V1  1  0.81796613  0.30978399  0.56432009  1.0
  V  V2  1  0.18203387  0.80978399  0.93567991  1.0
  V  V3  1  0.18203387  0.69021601  0.43567991  1.0
  Pb  Pb4  1  0.78976304  0.41021903  0.06107692  1.0
  Pb  Pb5  1  0.78976304  0.08978097  0.56107692  1.0
  Pb  Pb6  1  0.21023696  0.58978097  0.93892308  1.0
  Pb  Pb7  1  0.21023696  0.91021903  0.43892308  1.0
  Pb  Pb8  1  0.44033336  0.49519092  0.68446095  1.0
  Pb  Pb9  1  0.44033336  0.00480908  0.18446095  1.0
  Pb  Pb10  1  0.55966664  0.50480908  0.31553905  1.0
  Pb  Pb11  1  0.55966664  0.99519092  0.81553905  1.0
  Se  Se12  1  0.90522745  0.62337351  0.15790596  1.0
  Se  Se13  1  0.90522745  0.87662649  0.65790596  1.0
  Se  Se14  1  0.09477255  0.37662649  0.84209404  1.0
  Se  Se15  1  0.09477255  0.12337351  0.34209404  1.0
  Se  Se16  1  0.18860246  0.35236061  0.41988493  1.0
  Se  Se17  1  0.18860246  0.14763939  0.91988493  1.0
  Se  Se18  1  0.81139754  0.64763939  0.58011507  1.0
  Se  Se19  1  0.81139754  0.85236061  0.08011507  1.0
  Se  Se20  1  0.46170288  0.21313304  0.70899149  1.0
  Se  Se21  1  0.46170288  0.28686696  0.20899149  1.0
  Se  Se22  1  0.53829712  0.78686696  0.29100851  1.0
  Se  Se23  1  0.53829712  0.71313304  0.79100851  1.0
  O  O24  1  0.14715846  0.42379285  0.31626318  1.0
  O  O25  1  0.14715846  0.07620715  0.81626318  1.0
  O  O26  1  0.85284154  0.57620715  0.68373682  1.0
  O  O27  1  0.85284154  0.92379285  0.18373682  1.0
  O  O28  1  0.64426877  0.55085109  0.09474737  1.0
  O  O29  1  0.64426877  0.94914891  0.59474737  1.0
  O  O30  1  0.35573123  0.44914891  0.90525263  1.0
  O  O31  1  0.35573123  0.05085109  0.40525263  1.0
  O  O32  1  0.74832712  0.24122509  0.19943368  1.0
  O  O33  1  0.74832712  0.25877491  0.69943368  1.0
  O  O34  1  0.25167288  0.75877491  0.80056632  1.0
  O  O35  1  0.25167288  0.74122509  0.30056632  1.0
  O  O36  1  0.93127684  0.38516905  0.46622206  1.0
  O  O37  1  0.93127684  0.11483095  0.96622206  1.0
  O  O38  1  0.06872316  0.61483095  0.53377794  1.0
  O  O39  1  0.06872316  0.88516905  0.03377794  1.0
  O  O40  1  0.93721560  0.61280668  0.29880336  1.0
  O  O41  1  0.93721560  0.88719332  0.79880336  1.0
  O  O42  1  0.06278440  0.38719332  0.70119664  1.0
  O  O43  1  0.06278440  0.11280668  0.20119664  1.0
  O  O44  1  0.82191667  0.43187667  0.84712570  1.0
  O  O45  1  0.82191667  0.06812333  0.34712570  1.0
  O  O46  1  0.17808333  0.56812333  0.15287430  1.0
  O  O47  1  0.17808333  0.93187667  0.65287430  1.0
  O  O48  1  0.63772030  0.26213698  0.97422219  1.0
  O  O49  1  0.63772030  0.23786302  0.47422219  1.0
  O  O50  1  0.36227970  0.73786302  0.02577781  1.0
  O  O51  1  0.36227970  0.76213698  0.52577781  1.0
  O  O52  1  0.49450413  0.38814889  0.53226068  1.0
  O  O53  1  0.49450413  0.11185111  0.03226068  1.0
  O  O54  1  0.50549587  0.61185111  0.46773932  1.0
  O  O55  1  0.50549587  0.88814889  0.96773932  1.0
  O  O56  1  0.48866393  0.38577898  0.16415784  1.0
  O  O57  1  0.48866393  0.11422102  0.66415784  1.0
  O  O58  1  0.51133607  0.61422102  0.83584216  1.0
  O  O59  1  0.51133607  0.88577898  0.33584216  1.0
  O  O60  1  0.17669860  0.24546470  0.59054871  1.0
  O  O61  1  0.17669860  0.25453530  0.09054871  1.0
  O  O62  1  0.82330140  0.75453530  0.40945129  1.0
  O  O63  1  0.82330140  0.74546470  0.90945129  1.0
