# generated using pymatgen
data_Ba2Sm2Fe4O11
_symmetry_space_group_name_H-M   'P 1'
_cell_length_a   15.28383988
_cell_length_b   3.86092068
_cell_length_c   8.06056989
_cell_angle_alpha   90.00000000
_cell_angle_beta   90.00000000
_cell_angle_gamma   90.00000000
_symmetry_Int_Tables_number   1
_chemical_formula_structural   Ba2Sm2Fe4O11
_chemical_formula_sum   'Ba4 Sm4 Fe8 O22'
_cell_volume   475.65175803
_cell_formula_units_Z   2
loop_
 _symmetry_equiv_pos_site_id
 _symmetry_equiv_pos_as_xyz
  1  'x, y, z'
loop_
 _atom_site_type_symbol
 _atom_site_label
 _atom_site_symmetry_multiplicity
 _atom_site_fract_x
 _atom_site_fract_y
 _atom_site_fract_z
 _atom_site_occupancy
  Sm  Sm0  1  0.50000000  0.49984930  0.73673027  1.0
  Sm  Sm1  1  0.50000000  0.50015070  0.26326973  1.0
  Sm  Sm2  1  -0.00000000  0.49984930  0.76326973  1.0
  Sm  Sm3  1  -0.00000000  0.50015070  0.23673027  1.0
  O  O4  1  0.39421569  0.99991122  0.76751984  1.0
  O  O5  1  0.39421569  0.00008878  0.23248016  1.0
  O  O6  1  0.89421569  0.99991122  0.73248016  1.0
  O  O7  1  0.89421569  0.00008878  0.26751984  1.0
  O  O8  1  0.60578431  0.99991122  0.76751984  1.0
  O  O9  1  0.60578431  0.00008878  0.23248016  1.0
  O  O10  1  0.10578431  0.99991122  0.73248016  1.0
  O  O11  1  0.10578431  0.00008878  0.26751984  1.0
  O  O12  1  0.50000000  0.00000000  0.50000000  1.0
  O  O13  1  -0.00000000  0.00000000  0.00000000  1.0
  O  O14  1  0.25383298  0.00000000  0.50000000  1.0
  O  O15  1  0.75383298  0.00000000  0.00000000  1.0
  O  O16  1  0.74616702  0.00000000  0.50000000  1.0
  O  O17  1  0.24616702  0.00000000  0.00000000  1.0
  O  O18  1  0.38331885  0.50000000  0.50000000  1.0
  O  O19  1  0.88331885  0.50000000  0.00000000  1.0
  O  O20  1  0.61668115  0.50000000  0.50000000  1.0
  O  O21  1  0.11668115  0.50000000  0.00000000  1.0
  O  O22  1  0.09883121  0.50000000  0.50000000  1.0
  O  O23  1  0.59883121  0.50000000  0.00000000  1.0
  O  O24  1  0.90116879  0.50000000  0.50000000  1.0
  O  O25  1  0.40116879  0.50000000  0.00000000  1.0
  Ba  Ba26  1  0.25000000  0.49998887  0.75000000  1.0
  Ba  Ba27  1  0.25000000  0.50001113  0.25000000  1.0
  Ba  Ba28  1  0.75000000  0.49998887  0.75000000  1.0
  Ba  Ba29  1  0.75000000  0.50001113  0.25000000  1.0
  Fe  Fe30  1  0.11491182  0.00000000  0.50000000  1.0
  Fe  Fe31  1  0.61491182  0.00000000  0.00000000  1.0
  Fe  Fe32  1  0.88508818  0.00000000  0.50000000  1.0
  Fe  Fe33  1  0.38508818  0.00000000  0.00000000  1.0
  Fe  Fe34  1  0.37689842  0.00000000  0.50000000  1.0
  Fe  Fe35  1  0.87689842  0.00000000  0.00000000  1.0
  Fe  Fe36  1  0.62310158  0.00000000  0.50000000  1.0
  Fe  Fe37  1  0.12310158  0.00000000  -0.00000000  1.0
