# generated using pymatgen
data_LuZn5
_symmetry_space_group_name_H-M   'P 1'
_cell_length_a   8.81762225
_cell_length_b   8.81762225
_cell_length_c   8.93569375
_cell_angle_alpha   90.00000000
_cell_angle_beta   90.00000000
_cell_angle_gamma   120.00000000
_symmetry_Int_Tables_number   1
_chemical_formula_structural   LuZn5
_chemical_formula_sum   'Lu6 Zn30'
_cell_volume   601.67488945
_cell_formula_units_Z   6
loop_
 _symmetry_equiv_pos_site_id
 _symmetry_equiv_pos_as_xyz
  1  'x, y, z'
loop_
 _atom_site_type_symbol
 _atom_site_label
 _atom_site_symmetry_multiplicity
 _atom_site_fract_x
 _atom_site_fract_y
 _atom_site_fract_z
 _atom_site_occupancy
  Lu  Lu0  1  0.19253696  0.80746304  0.25000000  1.0
  Lu  Lu1  1  0.19253696  0.38507392  0.25000000  1.0
  Lu  Lu2  1  0.80746304  0.19253696  0.75000000  1.0
  Lu  Lu3  1  0.80746304  0.61492608  0.75000000  1.0
  Lu  Lu4  1  0.61492608  0.80746304  0.25000000  1.0
  Lu  Lu5  1  0.38507392  0.19253696  0.75000000  1.0
  Zn  Zn6  1  0.15905725  0.84094275  0.90597959  1.0
  Zn  Zn7  1  0.15905725  0.84094275  0.59402041  1.0
  Zn  Zn8  1  0.15905725  0.31811449  0.90597959  1.0
  Zn  Zn9  1  0.15905725  0.31811449  0.59402041  1.0
  Zn  Zn10  1  0.84094275  0.15905725  0.40597959  1.0
  Zn  Zn11  1  0.84094275  0.15905725  0.09402041  1.0
  Zn  Zn12  1  0.84094275  0.68188551  0.40597959  1.0
  Zn  Zn13  1  0.84094275  0.68188551  0.09402041  1.0
  Zn  Zn14  1  0.68188551  0.84094275  0.90597959  1.0
  Zn  Zn15  1  0.68188551  0.84094275  0.59402041  1.0
  Zn  Zn16  1  0.31811449  0.15905725  0.40597959  1.0
  Zn  Zn17  1  0.31811449  0.15905725  0.09402041  1.0
  Zn  Zn18  1  0.56741798  0.43258202  0.25000000  1.0
  Zn  Zn19  1  0.56741798  0.13483597  0.25000000  1.0
  Zn  Zn20  1  0.43258202  0.56741798  0.75000000  1.0
  Zn  Zn21  1  0.43258202  0.86516403  0.75000000  1.0
  Zn  Zn22  1  0.86516403  0.43258202  0.25000000  1.0
  Zn  Zn23  1  0.13483597  0.56741798  0.75000000  1.0
  Zn  Zn24  1  0.50000000  0.50000000  0.50000000  1.0
  Zn  Zn25  1  0.50000000  0.50000000  -0.00000000  1.0
  Zn  Zn26  1  0.50000000  -0.00000000  0.50000000  1.0
  Zn  Zn27  1  0.50000000  0.00000000  -0.00000000  1.0
  Zn  Zn28  1  -0.00000000  0.50000000  0.50000000  1.0
  Zn  Zn29  1  -0.00000000  0.50000000  0.00000000  1.0
  Zn  Zn30  1  0.33333333  0.66666667  0.48241684  1.0
  Zn  Zn31  1  0.33333333  0.66666667  0.01758316  1.0
  Zn  Zn32  1  0.66666667  0.33333333  0.98241684  1.0
  Zn  Zn33  1  0.66666667  0.33333333  0.51758316  1.0
  Zn  Zn34  1  -0.00000000  -0.00000000  0.50000000  1.0
  Zn  Zn35  1  0.00000000  0.00000000  0.00000000  1.0
