# generated using pymatgen
data_Gd2SiTeO4
_symmetry_space_group_name_H-M   'P 1'
_cell_length_a   6.24093921
_cell_length_b   7.12281202
_cell_length_c   11.21006949
_cell_angle_alpha   90.00000000
_cell_angle_beta   90.00000000
_cell_angle_gamma   90.00000000
_symmetry_Int_Tables_number   1
_chemical_formula_structural   Gd2SiTeO4
_chemical_formula_sum   'Gd8 Si4 Te4 O16'
_cell_volume   498.32163234
_cell_formula_units_Z   4
loop_
 _symmetry_equiv_pos_site_id
 _symmetry_equiv_pos_as_xyz
  1  'x, y, z'
loop_
 _atom_site_type_symbol
 _atom_site_label
 _atom_site_symmetry_multiplicity
 _atom_site_fract_x
 _atom_site_fract_y
 _atom_site_fract_z
 _atom_site_occupancy
  Gd  Gd0  1  0.88865160  0.96651287  0.75000000  1.0
  Gd  Gd1  1  0.88865160  0.53348713  0.25000000  1.0
  Gd  Gd2  1  0.11134840  0.46651287  0.75000000  1.0
  Gd  Gd3  1  0.11134840  0.03348713  0.25000000  1.0
  Gd  Gd4  1  0.38809650  0.75000000  0.00000000  1.0
  Gd  Gd5  1  0.38809650  0.75000000  0.50000000  1.0
  Gd  Gd6  1  0.61190350  0.25000000  0.00000000  1.0
  Gd  Gd7  1  0.61190350  0.25000000  0.50000000  1.0
  Si  Si8  1  0.88526159  0.75000000  0.00000000  1.0
  Si  Si9  1  0.88526159  0.75000000  0.50000000  1.0
  Si  Si10  1  0.11473841  0.25000000  0.00000000  1.0
  Si  Si11  1  0.11473841  0.25000000  0.50000000  1.0
  Te  Te12  1  0.59131074  0.59298205  0.75000000  1.0
  Te  Te13  1  0.59131074  0.90701795  0.25000000  1.0
  Te  Te14  1  0.40868926  0.09298205  0.75000000  1.0
  Te  Te15  1  0.40868926  0.40701795  0.25000000  1.0
  O  O16  1  0.94993492  0.23507988  0.88328607  1.0
  O  O17  1  0.94993492  0.23507988  0.61671393  1.0
  O  O18  1  0.94993492  0.26492012  0.38328607  1.0
  O  O19  1  0.94993492  0.26492012  0.11671393  1.0
  O  O20  1  0.05006508  0.73507988  0.88328607  1.0
  O  O21  1  0.05006508  0.73507988  0.61671393  1.0
  O  O22  1  0.05006508  0.76492012  0.38328607  1.0
  O  O23  1  0.05006508  0.76492012  0.11671393  1.0
  O  O24  1  0.72704927  0.92715305  0.96658692  1.0
  O  O25  1  0.72704927  0.92715305  0.53341308  1.0
  O  O26  1  0.72704927  0.57284695  0.46658692  1.0
  O  O27  1  0.72704927  0.57284695  0.03341308  1.0
  O  O28  1  0.27295073  0.42715305  0.96658692  1.0
  O  O29  1  0.27295073  0.42715305  0.53341308  1.0
  O  O30  1  0.27295073  0.07284695  0.46658692  1.0
  O  O31  1  0.27295073  0.07284695  0.03341308  1.0
