# generated using pymatgen
data_CaMg2Rh
_symmetry_space_group_name_H-M   'P 1'
_cell_length_a   7.87900264
_cell_length_b   7.89437846
_cell_length_c   5.68683323
_cell_angle_alpha   90.00000000
_cell_angle_beta   90.00000000
_cell_angle_gamma   90.00000000
_symmetry_Int_Tables_number   1
_chemical_formula_structural   CaMg2Rh
_chemical_formula_sum   'Ca4 Mg8 Rh4'
_cell_volume   353.72005282
_cell_formula_units_Z   4
loop_
 _symmetry_equiv_pos_site_id
 _symmetry_equiv_pos_as_xyz
  1  'x, y, z'
loop_
 _atom_site_type_symbol
 _atom_site_label
 _atom_site_symmetry_multiplicity
 _atom_site_fract_x
 _atom_site_fract_y
 _atom_site_fract_z
 _atom_site_occupancy
  Ca  Ca0  1  0.96670569  0.25000000  0.59792033  1.0
  Ca  Ca1  1  0.46670569  0.25000000  0.90207967  1.0
  Ca  Ca2  1  0.03329431  0.75000000  0.40207967  1.0
  Ca  Ca3  1  0.53329431  0.75000000  0.09792033  1.0
  Mg  Mg4  1  0.83393367  0.44229099  0.10544209  1.0
  Mg  Mg5  1  0.83393367  0.05770901  0.10544209  1.0
  Mg  Mg6  1  0.33393367  0.44229099  0.39455791  1.0
  Mg  Mg7  1  0.33393367  0.05770901  0.39455791  1.0
  Mg  Mg8  1  0.16606633  0.94229099  0.89455791  1.0
  Mg  Mg9  1  0.16606633  0.55770901  0.89455791  1.0
  Mg  Mg10  1  0.66606633  0.94229099  0.60544209  1.0
  Mg  Mg11  1  0.66606633  0.55770901  0.60544209  1.0
  Rh  Rh12  1  0.62666492  0.25000000  0.38446882  1.0
  Rh  Rh13  1  0.12666492  0.25000000  0.11553118  1.0
  Rh  Rh14  1  0.37333508  0.75000000  0.61553118  1.0
  Rh  Rh15  1  0.87333508  0.75000000  0.88446882  1.0
