# generated using pymatgen
data_NaBF4
_symmetry_space_group_name_H-M   'P 1'
_cell_length_a   4.71816167
_cell_length_b   4.71816167
_cell_length_c   6.95847579
_cell_angle_alpha   90.00000000
_cell_angle_beta   90.00000000
_cell_angle_gamma   84.69092283
_symmetry_Int_Tables_number   1
_chemical_formula_structural   NaBF4
_chemical_formula_sum   'Na2 B2 F8'
_cell_volume   154.23844828
_cell_formula_units_Z   2
loop_
 _symmetry_equiv_pos_site_id
 _symmetry_equiv_pos_as_xyz
  1  'x, y, z'
loop_
 _atom_site_type_symbol
 _atom_site_label
 _atom_site_symmetry_multiplicity
 _atom_site_fract_x
 _atom_site_fract_y
 _atom_site_fract_z
 _atom_site_occupancy
  Na  Na0  1  -0.34543455  1.34543455  0.25000000  1.0
  Na  Na1  1  0.34543455  0.65456545  0.75000000  1.0
  B  B2  1  0.16083318  0.83916682  0.25000000  1.0
  B  B3  1  -0.16083318  1.16083318  0.75000000  1.0
  F  F4  1  -0.13354000  1.80377453  0.25000000  1.0
  F  F5  1  0.80377453  0.86646000  0.75000000  1.0
  F  F6  1  -0.80377453  1.13354000  0.25000000  1.0
  F  F7  1  0.13354000  0.19622547  0.75000000  1.0
  F  F8  1  0.29217038  0.70782962  0.41482526  1.0
  F  F9  1  0.29217038  0.70782962  0.08517474  1.0
  F  F10  1  -0.29217038  1.29217038  0.91482526  1.0
  F  F11  1  -0.29217038  1.29217038  0.58517474  1.0
