# generated using pymatgen
data_Ba5As3ClO12
_symmetry_space_group_name_H-M   'P 1'
_cell_length_a   10.77721509
_cell_length_b   10.77721509
_cell_length_c   7.82865367
_cell_angle_alpha   90.00000000
_cell_angle_beta   90.00000000
_cell_angle_gamma   120.00000000
_symmetry_Int_Tables_number   1
_chemical_formula_structural   Ba5As3ClO12
_chemical_formula_sum   'Ba10 As6 Cl2 O24'
_cell_volume   787.46419076
_cell_formula_units_Z   2
loop_
 _symmetry_equiv_pos_site_id
 _symmetry_equiv_pos_as_xyz
  1  'x, y, z'
loop_
 _atom_site_type_symbol
 _atom_site_label
 _atom_site_symmetry_multiplicity
 _atom_site_fract_x
 _atom_site_fract_y
 _atom_site_fract_z
 _atom_site_occupancy
  Ba  Ba0  1  0.99383753  0.74549879  0.25000000  1.0
  Ba  Ba1  1  0.74549879  0.75166127  0.75000000  1.0
  Ba  Ba2  1  0.75166127  0.00616247  0.25000000  1.0
  Ba  Ba3  1  0.25450121  0.24833873  0.25000000  1.0
  Ba  Ba4  1  0.00616247  0.25450121  0.75000000  1.0
  Ba  Ba5  1  0.24833873  0.99383753  0.75000000  1.0
  Ba  Ba6  1  0.33333333  0.66666667  0.50098828  1.0
  Ba  Ba7  1  0.33333333  0.66666667  0.99901172  1.0
  Ba  Ba8  1  0.66666667  0.33333333  0.00098828  1.0
  Ba  Ba9  1  0.66666667  0.33333333  0.49901172  1.0
  As  As10  1  0.37206811  0.96588089  0.25000000  1.0
  As  As11  1  0.96588089  0.59381278  0.75000000  1.0
  As  As12  1  0.59381278  0.62793189  0.25000000  1.0
  As  As13  1  0.03411911  0.40618722  0.25000000  1.0
  As  As14  1  0.62793189  0.03411911  0.75000000  1.0
  As  As15  1  0.40618722  0.37206811  0.75000000  1.0
  Cl  Cl16  1  0.00000000  0.00000000  0.50000000  1.0
  Cl  Cl17  1  0.00000000  0.00000000  0.00000000  1.0
  O  O18  1  0.26137559  0.90563752  0.42861409  1.0
  O  O19  1  0.26137559  0.90563752  0.07138591  1.0
  O  O20  1  0.90563752  0.64426193  0.92861409  1.0
  O  O21  1  0.90563752  0.64426193  0.57138591  1.0
  O  O22  1  0.64426193  0.73862441  0.42861409  1.0
  O  O23  1  0.64426193  0.73862441  0.07138591  1.0
  O  O24  1  0.09436248  0.35573807  0.42861409  1.0
  O  O25  1  0.09436248  0.35573807  0.07138591  1.0
  O  O26  1  0.73862441  0.09436248  0.92861409  1.0
  O  O27  1  0.73862441  0.09436248  0.57138591  1.0
  O  O28  1  0.35573807  0.26137559  0.92861409  1.0
  O  O29  1  0.35573807  0.26137559  0.57138591  1.0
  O  O30  1  0.47041534  0.87702385  0.25000000  1.0
  O  O31  1  0.87702385  0.40660851  0.75000000  1.0
  O  O32  1  0.40660851  0.52958466  0.25000000  1.0
  O  O33  1  0.12297615  0.59339149  0.25000000  1.0
  O  O34  1  0.52958466  0.12297615  0.75000000  1.0
  O  O35  1  0.59339149  0.47041534  0.75000000  1.0
  O  O36  1  0.66849814  0.51742432  0.25000000  1.0
  O  O37  1  0.51742432  0.84892619  0.75000000  1.0
  O  O38  1  0.84892619  0.33150186  0.25000000  1.0
  O  O39  1  0.48257568  0.15107381  0.25000000  1.0
  O  O40  1  0.33150186  0.48257568  0.75000000  1.0
  O  O41  1  0.15107381  0.66849814  0.75000000  1.0
