# generated using pymatgen
data_TcPbO12
_symmetry_space_group_name_H-M   'P 1'
_cell_length_a   7.56502006
_cell_length_b   7.56502006
_cell_length_c   7.56502006
_cell_angle_alpha   60.00000000
_cell_angle_beta   60.00000000
_cell_angle_gamma   60.00000000
_symmetry_Int_Tables_number   1
_chemical_formula_structural   TcPbO12
_chemical_formula_sum   'Tc2 Pb2 O24'
_cell_volume   306.13659999
_cell_formula_units_Z   2
loop_
 _symmetry_equiv_pos_site_id
 _symmetry_equiv_pos_as_xyz
  1  'x, y, z'
loop_
 _atom_site_type_symbol
 _atom_site_label
 _atom_site_symmetry_multiplicity
 _atom_site_fract_x
 _atom_site_fract_y
 _atom_site_fract_z
 _atom_site_occupancy
  Tc  Tc0  1  0.50000000  0.50000000  -0.50000000  1.0
  Tc  Tc1  1  0.75000000  -0.25000000  0.75000000  1.0
  Pb  Pb2  1  0.00000000  1.00000000  -0.00000000  1.0
  Pb  Pb3  1  0.25000000  0.25000000  0.25000000  1.0
  O  O4  1  0.76634375  -0.55997879  1.02729129  1.0
  O  O5  1  -0.23365625  1.02729129  0.44002121  1.0
  O  O6  1  -0.19002121  0.48365625  0.48365625  1.0
  O  O7  1  0.22270871  0.48365625  0.48365625  1.0
  O  O8  1  -0.55997879  0.76634375  1.02729129  1.0
  O  O9  1  0.76634375  -0.23365625  1.02729129  1.0
  O  O10  1  0.76634375  0.02729129  0.76634375  1.0
  O  O11  1  -0.55997879  1.02729129  0.76634375  1.0
  O  O12  1  0.48365625  -0.19002121  0.48365625  1.0
  O  O13  1  0.48365625  0.48365625  -0.19002121  1.0
  O  O14  1  0.22270871  0.48365625  -0.19002121  1.0
  O  O15  1  0.22270871  -0.19002121  0.48365625  1.0
  O  O16  1  1.02729129  -0.23365625  0.76634375  1.0
  O  O17  1  -0.55997879  0.76634375  0.76634375  1.0
  O  O18  1  0.48365625  0.22270871  -0.19002121  1.0
  O  O19  1  0.48365625  -0.19002121  0.22270871  1.0
  O  O20  1  0.02729129  0.76634375  0.44002121  1.0
  O  O21  1  1.02729129  -0.55997879  0.76634375  1.0
  O  O22  1  0.76634375  -0.55997879  0.76634375  1.0
  O  O23  1  -0.23365625  0.76634375  0.44002121  1.0
  O  O24  1  0.48365625  0.22270871  0.48365625  1.0
  O  O25  1  -0.19002121  0.22270871  0.48365625  1.0
  O  O26  1  -0.19002121  0.48365625  0.22270871  1.0
  O  O27  1  0.48365625  0.48365625  0.22270871  1.0
