# generated using pymatgen
data_TlGeI3
_symmetry_space_group_name_H-M   'P 1'
_cell_length_a   10.63405931
_cell_length_b   4.44385517
_cell_length_c   16.46247921
_cell_angle_alpha   90.00000000
_cell_angle_beta   90.00000000
_cell_angle_gamma   90.00000000
_symmetry_Int_Tables_number   1
_chemical_formula_structural   TlGeI3
_chemical_formula_sum   'Tl4 Ge4 I12'
_cell_volume   777.95452989
_cell_formula_units_Z   4
loop_
 _symmetry_equiv_pos_site_id
 _symmetry_equiv_pos_as_xyz
  1  'x, y, z'
loop_
 _atom_site_type_symbol
 _atom_site_label
 _atom_site_symmetry_multiplicity
 _atom_site_fract_x
 _atom_site_fract_y
 _atom_site_fract_z
 _atom_site_occupancy
  Tl  Tl0  1  0.52930610  0.75000000  0.66790290  1.0
  Tl  Tl1  1  0.02930610  0.75000000  0.83209710  1.0
  Tl  Tl2  1  0.47069390  0.25000000  0.33209710  1.0
  Tl  Tl3  1  0.97069390  0.25000000  0.16790290  1.0
  Ge  Ge4  1  0.83605052  0.75000000  0.44228446  1.0
  Ge  Ge5  1  0.33605052  0.75000000  0.05771554  1.0
  Ge  Ge6  1  0.16394948  0.25000000  0.55771554  1.0
  Ge  Ge7  1  0.66394948  0.25000000  0.94228446  1.0
  I  I8  1  0.98875955  0.75000000  0.61098956  1.0
  I  I9  1  0.48875955  0.75000000  0.88901044  1.0
  I  I10  1  0.01124045  0.25000000  0.38901044  1.0
  I  I11  1  0.51124045  0.25000000  0.11098956  1.0
  I  I12  1  0.83277515  0.75000000  0.01025977  1.0
  I  I13  1  0.33277515  0.75000000  0.48974023  1.0
  I  I14  1  0.16722485  0.25000000  0.98974023  1.0
  I  I15  1  0.66722485  0.25000000  0.51025977  1.0
  I  I16  1  0.71485123  0.75000000  0.28642274  1.0
  I  I17  1  0.21485123  0.75000000  0.21357726  1.0
  I  I18  1  0.28514877  0.25000000  0.71357726  1.0
  I  I19  1  0.78514877  0.25000000  0.78642274  1.0
