# generated using pymatgen
data_Rb5Tl3O
_symmetry_space_group_name_H-M   'P 1'
_cell_length_a   18.21923941
_cell_length_b   18.21923941
_cell_length_c   9.28928900
_cell_angle_alpha   90.00000000
_cell_angle_beta   90.00000000
_cell_angle_gamma   151.80794938
_symmetry_Int_Tables_number   1
_chemical_formula_structural   Rb5Tl3O
_chemical_formula_sum   'Rb20 Tl12 O4'
_cell_volume   1456.72990535
_cell_formula_units_Z   4
loop_
 _symmetry_equiv_pos_site_id
 _symmetry_equiv_pos_as_xyz
  1  'x, y, z'
loop_
 _atom_site_type_symbol
 _atom_site_label
 _atom_site_symmetry_multiplicity
 _atom_site_fract_x
 _atom_site_fract_y
 _atom_site_fract_z
 _atom_site_occupancy
  Rb  Rb0  1  0.01568493  1.54474758  0.25000000  1.0
  Rb  Rb1  1  -0.45525242  1.01568493  0.75000000  1.0
  Rb  Rb2  1  -0.54474758  0.98431507  0.25000000  1.0
  Rb  Rb3  1  -0.01568493  1.45525242  0.75000000  1.0
  Rb  Rb4  1  -0.13001596  1.60899891  0.25000000  1.0
  Rb  Rb5  1  -0.39100109  0.86998404  0.75000000  1.0
  Rb  Rb6  1  -0.60899891  1.13001596  0.25000000  1.0
  Rb  Rb7  1  0.13001596  1.39100109  0.75000000  1.0
  Rb  Rb8  1  -0.29072613  1.69547131  0.25000000  1.0
  Rb  Rb9  1  -0.30452869  0.70927387  0.75000000  1.0
  Rb  Rb10  1  -0.69547131  1.29072613  0.25000000  1.0
  Rb  Rb11  1  0.29072613  1.30452869  0.75000000  1.0
  Rb  Rb12  1  -0.94906174  0.94906174  0.96499047  1.0
  Rb  Rb13  1  -0.94906174  0.94906174  0.53500953  1.0
  Rb  Rb14  1  -0.05093826  1.05093826  0.46499047  1.0
  Rb  Rb15  1  -0.05093826  1.05093826  0.03500953  1.0
  Rb  Rb16  1  -0.82233461  0.82233461  0.96416819  1.0
  Rb  Rb17  1  -0.82233461  0.82233461  0.53583181  1.0
  Rb  Rb18  1  -0.17766539  1.17766539  0.46416819  1.0
  Rb  Rb19  1  -0.17766539  1.17766539  0.03583181  1.0
  Tl  Tl20  1  0.17277882  1.42196152  0.25000000  1.0
  Tl  Tl21  1  -0.57803848  1.17277882  0.75000000  1.0
  Tl  Tl22  1  -0.42196152  0.82722118  0.25000000  1.0
  Tl  Tl23  1  -0.17277882  1.57803848  0.75000000  1.0
  Tl  Tl24  1  -0.68147230  0.68147230  0.43690214  1.0
  Tl  Tl25  1  -0.68147230  0.68147230  0.06309786  1.0
  Tl  Tl26  1  -0.31852770  1.31852770  0.93690214  1.0
  Tl  Tl27  1  -0.31852770  1.31852770  0.56309786  1.0
  Tl  Tl28  1  -0.57760282  0.57760282  0.45694853  1.0
  Tl  Tl29  1  -0.57760282  0.57760282  0.04305147  1.0
  Tl  Tl30  1  -0.42239718  1.42239718  0.95694853  1.0
  Tl  Tl31  1  -0.42239718  1.42239718  0.54305147  1.0
  O  O32  1  -0.99343587  0.99343587  0.25000000  1.0
  O  O33  1  -0.00656413  1.00656413  0.75000000  1.0
  O  O34  1  -0.82232472  0.82232472  0.25000000  1.0
  O  O35  1  -0.17767528  1.17767528  0.75000000  1.0
