# generated using pymatgen
data_Si3(BiO3)4
_symmetry_space_group_name_H-M   'P 1'
_cell_length_a   9.05294857
_cell_length_b   9.05294857
_cell_length_c   9.05294857
_cell_angle_alpha   109.47122063
_cell_angle_beta   109.47122063
_cell_angle_gamma   109.47122063
_symmetry_Int_Tables_number   1
_chemical_formula_structural   Si3(BiO3)4
_chemical_formula_sum   'Si6 Bi8 O24'
_cell_volume   571.14748473
_cell_formula_units_Z   2
loop_
 _symmetry_equiv_pos_site_id
 _symmetry_equiv_pos_as_xyz
  1  'x, y, z'
loop_
 _atom_site_type_symbol
 _atom_site_label
 _atom_site_symmetry_multiplicity
 _atom_site_fract_x
 _atom_site_fract_y
 _atom_site_fract_z
 _atom_site_occupancy
  Si  Si0  1  1.12500000  0.87500000  1.25000000  1.0
  Si  Si1  1  0.37500000  0.62500000  0.75000000  1.0
  Si  Si2  1  0.25000000  1.12500000  0.87500000  1.0
  Si  Si3  1  0.75000000  1.37500000  0.62500000  1.0
  Si  Si4  1  0.62500000  0.75000000  0.37500000  1.0
  Si  Si5  1  0.87500000  0.25000000  1.12500000  1.0
  Bi  Bi6  1  1.32880223  1.32880223  1.32880223  1.0
  Bi  Bi7  1  1.50000000  1.00000000  1.17119777  1.0
  Bi  Bi8  1  0.82880223  0.82880223  0.82880223  1.0
  Bi  Bi9  1  0.50000000  1.00000000  0.67119777  1.0
  Bi  Bi10  1  1.00000000  1.17119777  1.50000000  1.0
  Bi  Bi11  1  1.17119777  0.50000000  1.00000000  1.0
  Bi  Bi12  1  1.00000000  0.67119777  1.50000000  1.0
  Bi  Bi13  1  0.67119777  1.50000000  1.00000000  1.0
  O  O14  1  1.30868705  1.15109008  1.07894071  1.0
  O  O15  1  1.57214937  1.22974634  1.42105929  1.0
  O  O16  1  0.65109008  0.80868705  0.57894071  1.0
  O  O17  1  0.72974634  1.07214937  0.92105929  1.0
  O  O18  1  1.07894071  1.30868705  1.15109008  1.0
  O  O19  1  0.65759696  0.92785063  0.34890992  1.0
  O  O20  1  0.80868705  0.57894071  0.65109008  1.0
  O  O21  1  1.42785063  1.15759696  1.84890992  1.0
  O  O22  1  1.15109008  1.07894071  1.30868705  1.0
  O  O23  1  1.27025366  0.84240304  1.19131295  1.0
  O  O24  1  0.57894071  0.65109008  0.80868705  1.0
  O  O25  1  0.34240304  0.77025366  0.69131295  1.0
  O  O26  1  0.92785063  1.34890992  0.65759696  1.0
  O  O27  1  1.19131295  1.27025366  1.84240304  1.0
  O  O28  1  0.77025366  0.69131295  0.34240304  1.0
  O  O29  1  1.84890992  1.42785063  1.15759696  1.0
  O  O30  1  1.84240304  1.19131295  1.27025366  1.0
  O  O31  1  0.42105929  0.57214937  0.22974634  1.0
  O  O32  1  0.07214937  0.92105929  0.72974634  1.0
  O  O33  1  1.69131295  1.34240304  1.77025366  1.0
  O  O34  1  1.22974634  1.42105929  1.57214937  1.0
  O  O35  1  0.34890992  0.65759696  0.92785063  1.0
  O  O36  1  1.15759696  0.84890992  1.42785063  1.0
  O  O37  1  0.92105929  0.72974634  0.07214937  1.0
