# generated using pymatgen
data_Rb3TlF6
_symmetry_space_group_name_H-M   'P 1'
_cell_length_a   6.97767702
_cell_length_b   6.97767702
_cell_length_c   6.97767702
_cell_angle_alpha   119.48378323
_cell_angle_beta   119.48378323
_cell_angle_gamma   90.89646361
_symmetry_Int_Tables_number   1
_chemical_formula_structural   Rb3TlF6
_chemical_formula_sum   'Rb3 Tl1 F6'
_cell_volume   242.06696658
_cell_formula_units_Z   1
loop_
 _symmetry_equiv_pos_site_id
 _symmetry_equiv_pos_as_xyz
  1  'x, y, z'
loop_
 _atom_site_type_symbol
 _atom_site_label
 _atom_site_symmetry_multiplicity
 _atom_site_fract_x
 _atom_site_fract_y
 _atom_site_fract_z
 _atom_site_occupancy
  Rb  Rb0  1  0.50000000  0.50000000  1.00000000  1.0
  Rb  Rb1  1  0.25000000  0.75000000  0.50000000  1.0
  Rb  Rb2  1  0.75000000  0.25000000  0.50000000  1.0
  Tl  Tl3  1  0.00000000  0.00000000  0.00000000  1.0
  F  F4  1  -0.00000000  0.69130403  0.69130403  1.0
  F  F5  1  0.69130403  -0.00000000  0.69130403  1.0
  F  F6  1  0.30869597  0.00000000  0.30869597  1.0
  F  F7  1  -0.00000000  0.30869597  0.30869597  1.0
  F  F8  1  0.76765715  0.76765715  1.00000000  1.0
  F  F9  1  0.23234285  0.23234285  -0.00000000  1.0
