# generated using pymatgen
data_PbClO
_symmetry_space_group_name_H-M   'P 1'
_cell_length_a   6.95251106
_cell_length_b   3.85864507
_cell_length_c   9.22552183
_cell_angle_alpha   90.00000000
_cell_angle_beta   90.00000000
_cell_angle_gamma   90.00000000
_symmetry_Int_Tables_number   1
_chemical_formula_structural   PbClO
_chemical_formula_sum   'Pb4 Cl4 O4'
_cell_volume   247.49558845
_cell_formula_units_Z   4
loop_
 _symmetry_equiv_pos_site_id
 _symmetry_equiv_pos_as_xyz
  1  'x, y, z'
loop_
 _atom_site_type_symbol
 _atom_site_label
 _atom_site_symmetry_multiplicity
 _atom_site_fract_x
 _atom_site_fract_y
 _atom_site_fract_z
 _atom_site_occupancy
  Pb  Pb0  1  0.69424708  0.75000000  0.42349494  1.0
  Pb  Pb1  1  0.19424708  0.75000000  0.07650506  1.0
  Pb  Pb2  1  0.30575292  0.25000000  0.57650506  1.0
  Pb  Pb3  1  0.80575292  0.25000000  0.92349494  1.0
  Cl  Cl4  1  0.97620375  0.75000000  0.67385561  1.0
  Cl  Cl5  1  0.47620375  0.75000000  0.82614439  1.0
  Cl  Cl6  1  0.02379625  0.25000000  0.32614439  1.0
  Cl  Cl7  1  0.52379625  0.25000000  0.17385561  1.0
  O  O8  1  0.86805652  0.75000000  0.04146499  1.0
  O  O9  1  0.36805652  0.75000000  0.45853501  1.0
  O  O10  1  0.13194348  0.25000000  0.95853501  1.0
  O  O11  1  0.63194348  0.25000000  0.54146499  1.0
