# generated using pymatgen
data_Ga2Ir
_symmetry_space_group_name_H-M   'P 1'
_cell_length_a   6.84958710
_cell_length_b   6.84958710
_cell_length_c   10.99146687
_cell_angle_alpha   90.00000000
_cell_angle_beta   90.00000000
_cell_angle_gamma   146.62001119
_symmetry_Int_Tables_number   1
_chemical_formula_structural   Ga2Ir
_chemical_formula_sum   'Ga12 Ir6'
_cell_volume   283.72424129
_cell_formula_units_Z   6
loop_
 _symmetry_equiv_pos_site_id
 _symmetry_equiv_pos_as_xyz
  1  'x, y, z'
loop_
 _atom_site_type_symbol
 _atom_site_label
 _atom_site_symmetry_multiplicity
 _atom_site_fract_x
 _atom_site_fract_y
 _atom_site_fract_z
 _atom_site_occupancy
  Ga  Ga0  1  0.05869291  0.94130709  0.39420798  1.0
  Ga  Ga1  1  0.05869291  0.94130709  0.10579202  1.0
  Ga  Ga2  1  -0.05869291  0.05869291  0.89420798  1.0
  Ga  Ga3  1  -0.05869291  0.05869291  0.60579202  1.0
  Ga  Ga4  1  0.32140105  0.67859895  0.98239907  1.0
  Ga  Ga5  1  0.32140105  0.67859895  0.51760093  1.0
  Ga  Ga6  1  -0.32140105  0.32140105  0.48239907  1.0
  Ga  Ga7  1  -0.32140105  0.32140105  0.01760093  1.0
  Ga  Ga8  1  -0.45960731  0.45960731  0.75000000  1.0
  Ga  Ga9  1  0.45960731  0.54039269  0.25000000  1.0
  Ga  Ga10  1  -0.26630726  0.26630726  0.75000000  1.0
  Ga  Ga11  1  0.26630726  0.73369274  0.25000000  1.0
  Ir  Ir12  1  0.14025071  0.85974929  0.87726796  1.0
  Ir  Ir13  1  0.14025071  0.85974929  0.62273204  1.0
  Ir  Ir14  1  -0.14025071  0.14025071  0.37726796  1.0
  Ir  Ir15  1  -0.14025071  0.14025071  0.12273204  1.0
  Ir  Ir16  1  0.35121081  0.64878919  0.75000000  1.0
  Ir  Ir17  1  -0.35121081  0.35121081  0.25000000  1.0
