# generated using pymatgen
data_Ba5Ta2Cl2O9
_symmetry_space_group_name_H-M   'P 1'
_cell_length_a   6.02725314
_cell_length_b   6.02725314
_cell_length_c   25.05162134
_cell_angle_alpha   90.00000000
_cell_angle_beta   90.00000000
_cell_angle_gamma   120.00000000
_symmetry_Int_Tables_number   1
_chemical_formula_structural   Ba5Ta2Cl2O9
_chemical_formula_sum   'Ba10 Ta4 Cl4 O18'
_cell_volume   788.14356584
_cell_formula_units_Z   2
loop_
 _symmetry_equiv_pos_site_id
 _symmetry_equiv_pos_as_xyz
  1  'x, y, z'
loop_
 _atom_site_type_symbol
 _atom_site_label
 _atom_site_symmetry_multiplicity
 _atom_site_fract_x
 _atom_site_fract_y
 _atom_site_fract_z
 _atom_site_occupancy
  Ba  Ba0  1  0.33333333  0.66666667  0.32761176  1.0
  Ba  Ba1  1  0.33333333  0.66666667  0.17238824  1.0
  Ba  Ba2  1  0.66666667  0.33333333  0.82761176  1.0
  Ba  Ba3  1  0.66666667  0.33333333  0.67238824  1.0
  Ba  Ba4  1  0.33333333  0.66666667  0.91783207  1.0
  Ba  Ba5  1  0.33333333  0.66666667  0.58216793  1.0
  Ba  Ba6  1  0.66666667  0.33333333  0.41783207  1.0
  Ba  Ba7  1  0.66666667  0.33333333  0.08216793  1.0
  Ba  Ba8  1  0.33333333  0.66666667  0.75000000  1.0
  Ba  Ba9  1  0.66666667  0.33333333  0.25000000  1.0
  Ta  Ta10  1  0.00000000  0.00000000  0.31033403  1.0
  Ta  Ta11  1  0.00000000  0.00000000  0.18966597  1.0
  Ta  Ta12  1  0.00000000  0.00000000  0.81033403  1.0
  Ta  Ta13  1  0.00000000  0.00000000  0.68966597  1.0
  Cl  Cl14  1  0.33333333  0.66666667  0.45294869  1.0
  Cl  Cl15  1  0.33333333  0.66666667  0.04705131  1.0
  Cl  Cl16  1  0.66666667  0.33333333  0.95294869  1.0
  Cl  Cl17  1  0.66666667  0.33333333  0.54705131  1.0
  O  O18  1  0.16233862  0.83766138  0.84475806  1.0
  O  O19  1  0.16233862  0.83766138  0.65524194  1.0
  O  O20  1  0.16233862  0.32467723  0.84475806  1.0
  O  O21  1  0.16233862  0.32467723  0.65524194  1.0
  O  O22  1  0.83766138  0.16233862  0.34475806  1.0
  O  O23  1  0.83766138  0.16233862  0.15524194  1.0
  O  O24  1  0.83766138  0.67532277  0.34475806  1.0
  O  O25  1  0.83766138  0.67532277  0.15524194  1.0
  O  O26  1  0.67532277  0.83766138  0.84475806  1.0
  O  O27  1  0.67532277  0.83766138  0.65524194  1.0
  O  O28  1  0.32467723  0.16233862  0.34475806  1.0
  O  O29  1  0.32467723  0.16233862  0.15524194  1.0
  O  O30  1  0.14808137  0.85191863  0.25000000  1.0
  O  O31  1  0.14808137  0.29616274  0.25000000  1.0
  O  O32  1  0.85191863  0.14808137  0.75000000  1.0
  O  O33  1  0.85191863  0.70383726  0.75000000  1.0
  O  O34  1  0.70383726  0.85191863  0.25000000  1.0
  O  O35  1  0.29616274  0.14808137  0.75000000  1.0
