# generated using pymatgen
data_La4Ni3O8
_symmetry_space_group_name_H-M   'P 1'
_cell_length_a   13.73421151
_cell_length_b   13.73421151
_cell_length_c   13.73421151
_cell_angle_alpha   163.82699310
_cell_angle_beta   163.82699310
_cell_angle_gamma   22.94933085
_symmetry_Int_Tables_number   1
_chemical_formula_structural   La4Ni3O8
_chemical_formula_sum   'La4 Ni3 O8'
_cell_volume   200.95261358
_cell_formula_units_Z   1
loop_
 _symmetry_equiv_pos_site_id
 _symmetry_equiv_pos_as_xyz
  1  'x, y, z'
loop_
 _atom_site_type_symbol
 _atom_site_label
 _atom_site_symmetry_multiplicity
 _atom_site_fract_x
 _atom_site_fract_y
 _atom_site_fract_z
 _atom_site_occupancy
  La  La0  1  0.69624559  0.69624559  1.00000000  1.0
  La  La1  1  0.30375441  0.30375441  0.00000000  1.0
  La  La2  1  0.56503802  0.56503802  1.00000000  1.0
  La  La3  1  0.43496198  0.43496198  0.00000000  1.0
  Ni  Ni4  1  0.87767432  0.87767432  1.00000000  1.0
  Ni  Ni5  1  0.12232568  0.12232568  0.00000000  1.0
  Ni  Ni6  1  0.00000000  0.00000000  0.00000000  1.0
  O  O7  1  0.37232851  0.87232851  0.50000000  1.0
  O  O8  1  0.62767149  0.12767149  0.50000000  1.0
  O  O9  1  0.87232851  0.37232851  0.50000000  1.0
  O  O10  1  0.12767149  0.62767149  0.50000000  1.0
  O  O11  1  0.78130523  0.78130523  1.00000000  1.0
  O  O12  1  0.21869477  0.21869477  0.00000000  1.0
  O  O13  1  0.50000000  0.00000000  0.50000000  1.0
  O  O14  1  0.00000000  0.50000000  0.50000000  1.0
