# generated using pymatgen
data_Rb2Pd3S2
_symmetry_space_group_name_H-M   'P 1'
_cell_length_a   14.42164239
_cell_length_b   13.13590840
_cell_length_c   8.25380741
_cell_angle_alpha   81.32836514
_cell_angle_beta   64.21526544
_cell_angle_gamma   34.45636942
_symmetry_Int_Tables_number   1
_chemical_formula_structural   Rb2Pd3S2
_chemical_formula_sum   'Rb8 Pd12 S8'
_cell_volume   727.22590932
_cell_formula_units_Z   4
loop_
 _symmetry_equiv_pos_site_id
 _symmetry_equiv_pos_as_xyz
  1  'x, y, z'
loop_
 _atom_site_type_symbol
 _atom_site_label
 _atom_site_symmetry_multiplicity
 _atom_site_fract_x
 _atom_site_fract_y
 _atom_site_fract_z
 _atom_site_occupancy
  Rb  Rb0  1  0.61680919  0.38180511  1.12785647  1.0
  Rb  Rb1  1  0.87352923  1.12785647  0.38180511  1.0
  Rb  Rb2  1  0.86819489  0.63319081  0.37647077  1.0
  Rb  Rb3  1  1.12214353  0.37647077  0.63319081  1.0
  Rb  Rb4  1  1.12785647  0.87352923  0.61680919  1.0
  Rb  Rb5  1  0.38180511  0.61680919  0.87352923  1.0
  Rb  Rb6  1  0.37647077  1.12214353  0.86819489  1.0
  Rb  Rb7  1  0.63319081  0.86819489  1.12214353  1.0
  Pd  Pd8  1  1.31974459  0.43305600  0.48016306  1.0
  Pd  Pd9  1  0.76703635  0.48016306  0.43305600  1.0
  Pd  Pd10  1  0.81694400  0.93025541  0.48296365  1.0
  Pd  Pd11  1  0.76983694  0.48296365  0.93025541  1.0
  Pd  Pd12  1  1.48016306  -0.23296365  0.31974459  1.0
  Pd  Pd13  1  1.43305600  0.31974459  -0.23296365  1.0
  Pd  Pd14  1  0.48296365  0.76983694  0.81694400  1.0
  Pd  Pd15  1  0.93025541  0.81694400  0.76983694  1.0
  Pd  Pd16  1  1.12500000  0.12500000  0.62500000  1.0
  Pd  Pd17  1  1.12500000  0.62500000  0.12500000  1.0
  Pd  Pd18  1  1.12500000  0.12500000  0.12500000  1.0
  Pd  Pd19  1  1.62500000  0.12500000  0.12500000  1.0
  S  S20  1  0.82259249  0.35579647  0.67099036  1.0
  S  S21  1  1.15062068  0.67099036  0.35579647  1.0
  S  S22  1  0.89420353  0.42740751  1.09937932  1.0
  S  S23  1  0.57900964  1.09937932  0.42740751  1.0
  S  S24  1  1.67099036  0.15062068  -0.17740751  1.0
  S  S25  1  1.35579647  -0.17740751  0.15062068  1.0
  S  S26  1  1.09937932  0.57900964  0.89420353  1.0
  S  S27  1  0.42740751  0.89420353  0.57900964  1.0
