# generated using pymatgen
data_Cr2AgTe4
_symmetry_space_group_name_H-M   'P 1'
_cell_length_a   8.15414692
_cell_length_b   8.15414692
_cell_length_c   8.15414692
_cell_angle_alpha   60.00000000
_cell_angle_beta   60.00000000
_cell_angle_gamma   60.00000000
_symmetry_Int_Tables_number   1
_chemical_formula_structural   Cr2AgTe4
_chemical_formula_sum   'Cr4 Ag2 Te8'
_cell_volume   383.37218376
_cell_formula_units_Z   2
loop_
 _symmetry_equiv_pos_site_id
 _symmetry_equiv_pos_as_xyz
  1  'x, y, z'
loop_
 _atom_site_type_symbol
 _atom_site_label
 _atom_site_symmetry_multiplicity
 _atom_site_fract_x
 _atom_site_fract_y
 _atom_site_fract_z
 _atom_site_occupancy
  Cr  Cr0  1  0.62500000  1.12500000  0.12500000  1.0
  Cr  Cr1  1  0.12500000  1.62500000  0.12500000  1.0
  Cr  Cr2  1  0.12500000  0.12500000  1.62500000  1.0
  Cr  Cr3  1  0.12500000  0.12500000  0.12500000  1.0
  Ag  Ag4  1  0.50000000  -0.50000000  0.50000000  1.0
  Ag  Ag5  1  0.75000000  0.75000000  0.75000000  1.0
  Te  Te6  1  -0.08594218  1.36198073  0.36198073  1.0
  Te  Te7  1  0.36198073  0.91405782  0.36198073  1.0
  Te  Te8  1  0.36198073  1.36198073  -0.08594218  1.0
  Te  Te9  1  0.36198073  1.36198073  0.36198073  1.0
  Te  Te10  1  -0.66405782  0.88801927  0.88801927  1.0
  Te  Te11  1  0.88801927  -0.66405782  0.88801927  1.0
  Te  Te12  1  0.88801927  0.88801927  -0.66405782  1.0
  Te  Te13  1  0.88801927  0.88801927  0.88801927  1.0
