# generated using pymatgen
data_K7NbAs4
_symmetry_space_group_name_H-M   'P 1'
_cell_length_a   10.34603799
_cell_length_b   9.25017148
_cell_length_c   8.41630036
_cell_angle_alpha   90.00000000
_cell_angle_beta   90.00000000
_cell_angle_gamma   90.00000000
_symmetry_Int_Tables_number   1
_chemical_formula_structural   K7NbAs4
_chemical_formula_sum   'K14 Nb2 As8'
_cell_volume   805.46204148
_cell_formula_units_Z   2
loop_
 _symmetry_equiv_pos_site_id
 _symmetry_equiv_pos_as_xyz
  1  'x, y, z'
loop_
 _atom_site_type_symbol
 _atom_site_label
 _atom_site_symmetry_multiplicity
 _atom_site_fract_x
 _atom_site_fract_y
 _atom_site_fract_z
 _atom_site_occupancy
  K  K0  1  0.21658686  0.16596352  0.45047753  1.0
  K  K1  1  0.71658686  0.83403648  0.95047753  1.0
  K  K2  1  0.78341314  0.16596352  0.45047753  1.0
  K  K3  1  0.28341314  0.83403648  0.95047753  1.0
  K  K4  1  0.21165216  0.53362044  0.28767785  1.0
  K  K5  1  0.71165216  0.46637956  0.78767785  1.0
  K  K6  1  0.78834784  0.53362044  0.28767785  1.0
  K  K7  1  0.28834784  0.46637956  0.78767785  1.0
  K  K8  1  0.50000000  0.10739683  0.76903062  1.0
  K  K9  1  0.00000000  0.89260317  0.26903062  1.0
  K  K10  1  0.50000000  0.66027771  0.49737070  1.0
  K  K11  1  0.00000000  0.33972229  -0.00262930  1.0
  K  K12  1  0.50000000  0.96643974  0.28348414  1.0
  K  K13  1  0.00000000  0.03356026  0.78348414  1.0
  Nb  Nb14  1  0.50000000  0.32607535  0.16054701  1.0
  Nb  Nb15  1  0.00000000  0.67392465  0.66054701  1.0
  As  As16  1  0.29706963  0.19335582  0.06553779  1.0
  As  As17  1  0.79706963  0.80664418  0.56553779  1.0
  As  As18  1  0.70293037  0.19335582  0.06553779  1.0
  As  As19  1  0.20293037  0.80664418  0.56553779  1.0
  As  As20  1  0.50000000  0.31644700  0.45833499  1.0
  As  As21  1  0.00000000  0.68355300  0.95833499  1.0
  As  As22  1  0.50000000  0.58985136  0.08194620  1.0
  As  As23  1  0.00000000  0.41014864  0.58194620  1.0
