# generated using pymatgen
data_Nb6Si7Ni16
_symmetry_space_group_name_H-M   'P 1'
_cell_length_a   8.01350813
_cell_length_b   8.01350813
_cell_length_c   8.01350813
_cell_angle_alpha   60.00000000
_cell_angle_beta   60.00000000
_cell_angle_gamma   60.00000000
_symmetry_Int_Tables_number   1
_chemical_formula_structural   Nb6Si7Ni16
_chemical_formula_sum   'Nb6 Si7 Ni16'
_cell_volume   363.87569520
_cell_formula_units_Z   1
loop_
 _symmetry_equiv_pos_site_id
 _symmetry_equiv_pos_as_xyz
  1  'x, y, z'
loop_
 _atom_site_type_symbol
 _atom_site_label
 _atom_site_symmetry_multiplicity
 _atom_site_fract_x
 _atom_site_fract_y
 _atom_site_fract_z
 _atom_site_occupancy
  Nb  Nb0  1  0.71827900  0.71827900  -0.71827900  1.0
  Nb  Nb1  1  0.28172100  -0.28172100  1.28172100  1.0
  Nb  Nb2  1  -0.28172100  0.28172100  0.28172100  1.0
  Nb  Nb3  1  0.28172100  1.28172100  -0.28172100  1.0
  Nb  Nb4  1  -0.28172100  0.28172100  0.71827900  1.0
  Nb  Nb5  1  -0.71827900  0.71827900  0.71827900  1.0
  Si  Si6  1  -0.50000000  0.50000000  0.50000000  1.0
  Si  Si7  1  -0.00000000  -0.00000000  0.50000000  1.0
  Si  Si8  1  0.50000000  1.00000000  -0.50000000  1.0
  Si  Si9  1  1.00000000  0.50000000  -0.50000000  1.0
  Si  Si10  1  0.50000000  -0.50000000  1.00000000  1.0
  Si  Si11  1  -0.00000000  1.50000000  0.00000000  1.0
  Si  Si12  1  1.50000000  -0.00000000  0.00000000  1.0
  Ni  Ni13  1  0.88597664  0.88597664  -0.65792993  1.0
  Ni  Ni14  1  0.88597664  0.34207007  -0.11402336  1.0
  Ni  Ni15  1  0.34207007  0.88597664  -0.11402336  1.0
  Ni  Ni16  1  0.88597664  0.88597664  -0.11402336  1.0
  Ni  Ni17  1  1.11402336  0.11402336  0.65792993  1.0
  Ni  Ni18  1  1.11402336  0.65792993  0.11402336  1.0
  Ni  Ni19  1  1.65792993  0.11402336  0.11402336  1.0
  Ni  Ni20  1  1.11402336  0.11402336  0.11402336  1.0
  Ni  Ni21  1  0.66900272  0.66900272  -0.00700816  1.0
  Ni  Ni22  1  0.66900272  0.99299184  -0.33099728  1.0
  Ni  Ni23  1  0.99299184  0.66900272  -0.33099728  1.0
  Ni  Ni24  1  0.66900272  0.66900272  -0.33099728  1.0
  Ni  Ni25  1  1.33099728  0.33099728  0.00700816  1.0
  Ni  Ni26  1  1.33099728  0.00700816  0.33099728  1.0
  Ni  Ni27  1  1.00700816  0.33099728  0.33099728  1.0
  Ni  Ni28  1  1.33099728  0.33099728  0.33099728  1.0
