# generated using pymatgen
data_Sr2PNO3
_symmetry_space_group_name_H-M   'P 1'
_cell_length_a   7.20239545
_cell_length_b   5.62799373
_cell_length_c   9.91125195
_cell_angle_alpha   90.00000000
_cell_angle_beta   90.00000000
_cell_angle_gamma   90.00000000
_symmetry_Int_Tables_number   1
_chemical_formula_structural   Sr2PNO3
_chemical_formula_sum   'Sr8 P4 N4 O12'
_cell_volume   401.75295835
_cell_formula_units_Z   4
loop_
 _symmetry_equiv_pos_site_id
 _symmetry_equiv_pos_as_xyz
  1  'x, y, z'
loop_
 _atom_site_type_symbol
 _atom_site_label
 _atom_site_symmetry_multiplicity
 _atom_site_fract_x
 _atom_site_fract_y
 _atom_site_fract_z
 _atom_site_occupancy
  Sr  Sr0  1  0.83779814  0.25000000  0.57828823  1.0
  Sr  Sr1  1  0.66220186  0.75000000  0.07828823  1.0
  Sr  Sr2  1  0.16220186  0.75000000  0.42171177  1.0
  Sr  Sr3  1  0.33779814  0.25000000  0.92171177  1.0
  Sr  Sr4  1  0.98241558  0.25000000  0.19990743  1.0
  Sr  Sr5  1  0.51758442  0.75000000  0.69990743  1.0
  Sr  Sr6  1  0.01758442  0.75000000  0.80009257  1.0
  Sr  Sr7  1  0.48241558  0.25000000  0.30009257  1.0
  P  P8  1  0.77951028  0.25000000  0.91886753  1.0
  P  P9  1  0.72048972  0.75000000  0.41886753  1.0
  P  P10  1  0.22048972  0.75000000  0.08113247  1.0
  P  P11  1  0.27951028  0.25000000  0.58113247  1.0
  N  N12  1  0.66572740  0.25000000  0.05677557  1.0
  N  N13  1  0.83427260  0.75000000  0.55677557  1.0
  N  N14  1  0.33427260  0.75000000  0.94322443  1.0
  N  N15  1  0.16572740  0.25000000  0.44322443  1.0
  O  O16  1  0.73290880  0.02570576  0.82624360  1.0
  O  O17  1  0.76709120  0.97429424  0.32624360  1.0
  O  O18  1  0.26709120  0.52570576  0.17375640  1.0
  O  O19  1  0.23290880  0.47429424  0.67375640  1.0
  O  O20  1  0.26709120  0.97429424  0.17375640  1.0
  O  O21  1  0.23290880  0.02570576  0.67375640  1.0
  O  O22  1  0.73290880  0.47429424  0.82624360  1.0
  O  O23  1  0.76709120  0.52570576  0.32624360  1.0
  O  O24  1  0.49868359  0.25000000  0.56576788  1.0
  O  O25  1  0.00131641  0.75000000  0.06576788  1.0
  O  O26  1  0.50131641  0.75000000  0.43423212  1.0
  O  O27  1  0.99868359  0.25000000  0.93423212  1.0
