# generated using pymatgen
data_Mg5(SiO5)2
_symmetry_space_group_name_H-M   'P 1'
_cell_length_a   7.99979516
_cell_length_b   4.78130063
_cell_length_c   10.37261796
_cell_angle_alpha   90.00000000
_cell_angle_beta   109.34939145
_cell_angle_gamma   90.00000000
_symmetry_Int_Tables_number   1
_chemical_formula_structural   Mg5(SiO5)2
_chemical_formula_sum   'Mg10 Si4 O20'
_cell_volume   374.33671449
_cell_formula_units_Z   2
loop_
 _symmetry_equiv_pos_site_id
 _symmetry_equiv_pos_as_xyz
  1  'x, y, z'
loop_
 _atom_site_type_symbol
 _atom_site_label
 _atom_site_symmetry_multiplicity
 _atom_site_fract_x
 _atom_site_fract_y
 _atom_site_fract_z
 _atom_site_occupancy
  Mg  Mg0  1  0.80626621  0.50460072  0.17280251  1.0
  Mg  Mg1  1  0.80626621  0.99539928  0.67280251  1.0
  Mg  Mg2  1  0.19373379  0.00460072  0.32719749  1.0
  Mg  Mg3  1  0.19373379  0.49539928  0.82719749  1.0
  Mg  Mg4  1  0.41651810  0.00187721  0.11079952  1.0
  Mg  Mg5  1  0.41651810  0.49812279  0.61079952  1.0
  Mg  Mg6  1  0.58348190  0.50187721  0.38920048  1.0
  Mg  Mg7  1  0.58348190  0.99812279  0.88920048  1.0
  Mg  Mg8  1  -0.00000000  0.50000000  0.50000000  1.0
  Mg  Mg9  1  0.00000000  0.00000000  0.00000000  1.0
  O  O10  1  0.97123063  0.21987238  0.33071929  1.0
  O  O11  1  0.97123063  0.28012762  0.83071929  1.0
  O  O12  1  0.02876937  0.71987238  0.16928071  1.0
  O  O13  1  0.02876937  0.78012762  0.66928071  1.0
  O  O14  1  0.79839195  0.72750994  0.35612233  1.0
  O  O15  1  0.79839195  0.77249006  0.85612233  1.0
  O  O16  1  0.20160805  0.22750994  0.14387767  1.0
  O  O17  1  0.20160805  0.27249006  0.64387767  1.0
  O  O18  1  0.79364971  0.21757664  0.49886650  1.0
  O  O19  1  0.79364971  0.28242336  -0.00113350  1.0
  O  O20  1  0.20635029  0.71757664  1.00113350  1.0
  O  O21  1  0.20635029  0.78242336  0.50113350  1.0
  O  O22  1  0.62652507  0.21600699  0.23707391  1.0
  O  O23  1  0.62652507  0.28399301  0.73707391  1.0
  O  O24  1  0.37347493  0.71600699  0.26292609  1.0
  O  O25  1  0.37347493  0.78399301  0.76292609  1.0
  O  O26  1  0.38875419  0.27603939  0.43374353  1.0
  O  O27  1  0.38875419  0.22396061  0.93374353  1.0
  O  O28  1  0.61124581  0.77603939  0.06625647  1.0
  O  O29  1  0.61124581  0.72396061  0.56625647  1.0
  Si  Si30  1  0.79736518  0.06847522  0.35457071  1.0
  Si  Si31  1  0.79736518  0.43152478  0.85457071  1.0
  Si  Si32  1  0.20263482  0.56847522  0.14542929  1.0
  Si  Si33  1  0.20263482  0.93152478  0.64542929  1.0
