# generated using pymatgen
data_Li2VPO6
_symmetry_space_group_name_H-M   'P 1'
_cell_length_a   10.49115274
_cell_length_b   4.70742957
_cell_length_c   8.63143862
_cell_angle_alpha   90.00000000
_cell_angle_beta   90.00000000
_cell_angle_gamma   90.00000000
_symmetry_Int_Tables_number   1
_chemical_formula_structural   Li2VPO6
_chemical_formula_sum   'Li8 V4 P4 O24'
_cell_volume   426.27535767
_cell_formula_units_Z   4
loop_
 _symmetry_equiv_pos_site_id
 _symmetry_equiv_pos_as_xyz
  1  'x, y, z'
loop_
 _atom_site_type_symbol
 _atom_site_label
 _atom_site_symmetry_multiplicity
 _atom_site_fract_x
 _atom_site_fract_y
 _atom_site_fract_z
 _atom_site_occupancy
  Li  Li0  1  0.41399378  0.52988748  0.02207086  1.0
  Li  Li1  1  0.91399378  0.97011252  0.02207086  1.0
  Li  Li2  1  0.58600622  0.47011252  0.52207086  1.0
  Li  Li3  1  0.08600622  0.02988748  0.52207086  1.0
  Li  Li4  1  0.13051498  0.53776267  0.81569143  1.0
  Li  Li5  1  0.63051498  0.96223733  0.81569143  1.0
  Li  Li6  1  0.86948502  0.46223733  0.31569143  1.0
  Li  Li7  1  0.36948502  0.03776267  0.31569143  1.0
  V  V8  1  0.38874202  0.97851059  0.69871152  1.0
  V  V9  1  0.88874202  0.52148941  0.69871152  1.0
  V  V10  1  0.61125798  0.02148941  0.19871152  1.0
  V  V11  1  0.11125798  0.47851059  0.19871152  1.0
  P  P12  1  0.28091615  0.58340309  0.49933614  1.0
  P  P13  1  0.78091615  0.91659691  0.49933614  1.0
  P  P14  1  0.71908385  0.41659691  -0.00066386  1.0
  P  P15  1  0.21908385  0.08340309  -0.00066386  1.0
  O  O16  1  0.49076730  0.80457240  0.16946513  1.0
  O  O17  1  0.99076730  0.69542760  0.16946513  1.0
  O  O18  1  0.50923270  0.19542760  0.66946513  1.0
  O  O19  1  0.00923270  0.30457240  0.66946513  1.0
  O  O20  1  0.44802975  0.75588253  0.82564662  1.0
  O  O21  1  0.94802975  0.74411747  0.82564662  1.0
  O  O22  1  0.55197025  0.24411747  0.32564662  1.0
  O  O23  1  0.05197025  0.25588253  0.32564662  1.0
  O  O24  1  0.41621091  0.73328432  0.50929178  1.0
  O  O25  1  0.91621091  0.76671568  0.50929178  1.0
  O  O26  1  0.58378909  0.26671568  0.00929178  1.0
  O  O27  1  0.08378909  0.23328432  0.00929178  1.0
  O  O28  1  0.27772338  0.18478216  0.84046123  1.0
  O  O29  1  0.77772338  0.31521784  0.84046123  1.0
  O  O30  1  0.72227662  0.81521784  0.34046123  1.0
  O  O31  1  0.22227662  0.68478216  0.34046123  1.0
  O  O32  1  0.21514475  0.75938015  0.00862544  1.0
  O  O33  1  0.71514475  0.74061985  0.00862544  1.0
  O  O34  1  0.78485525  0.24061985  0.50862544  1.0
  O  O35  1  0.28485525  0.25938015  0.50862544  1.0
  O  O36  1  0.21047796  0.73768256  0.63499985  1.0
  O  O37  1  0.71047796  0.76231744  0.63499985  1.0
  O  O38  1  0.78952204  0.26231744  0.13499985  1.0
  O  O39  1  0.28952204  0.23768256  0.13499985  1.0
