# generated using pymatgen
data_As2H6CO6
_symmetry_space_group_name_H-M   'P 1'
_cell_length_a   7.33322215
_cell_length_b   7.33322215
_cell_length_c   7.32186995
_cell_angle_alpha   90.00000000
_cell_angle_beta   90.00000000
_cell_angle_gamma   64.69253497
_symmetry_Int_Tables_number   1
_chemical_formula_structural   As2H6CO6
_chemical_formula_sum   'As4 H12 C2 O12'
_cell_volume   355.95330460
_cell_formula_units_Z   2
loop_
 _symmetry_equiv_pos_site_id
 _symmetry_equiv_pos_as_xyz
  1  'x, y, z'
loop_
 _atom_site_type_symbol
 _atom_site_label
 _atom_site_symmetry_multiplicity
 _atom_site_fract_x
 _atom_site_fract_y
 _atom_site_fract_z
 _atom_site_occupancy
  As  As0  1  -0.23532826  1.49576638  0.03744846  1.0
  As  As1  1  -0.49576638  1.23532826  0.96255154  1.0
  As  As2  1  0.26467174  0.99576638  0.46255154  1.0
  As  As3  1  0.00423362  0.73532826  0.53744846  1.0
  H  H4  1  -0.18461582  1.54658674  0.34454672  1.0
  H  H5  1  -0.54658674  1.18461582  0.65545328  1.0
  H  H6  1  -0.68461582  1.04658674  0.15545328  1.0
  H  H7  1  -0.04658674  1.68461582  0.84454672  1.0
  H  H8  1  0.07233427  0.27118359  0.93017953  1.0
  H  H9  1  0.72881641  0.92766573  0.06982047  1.0
  H  H10  1  0.57233427  0.77118359  0.56982047  1.0
  H  H11  1  0.22881641  0.42766573  0.43017953  1.0
  H  H12  1  0.40904182  0.56945622  0.12195681  1.0
  H  H13  1  0.43054378  0.59095818  0.87804319  1.0
  H  H14  1  -0.09095818  1.06945622  0.37804319  1.0
  H  H15  1  -0.06945622  1.09095818  0.62195681  1.0
  C  C16  1  -0.50054393  1.50054393  0.00000000  1.0
  C  C17  1  -0.00054393  1.00054393  0.50000000  1.0
  O  O18  1  -0.16816134  1.42392963  0.26597080  1.0
  O  O19  1  -0.42392963  1.16816134  0.73402920  1.0
  O  O20  1  -0.66816134  0.92392963  0.23402920  1.0
  O  O21  1  0.07607037  1.66816134  0.76597080  1.0
  O  O22  1  -0.07195379  1.29611940  0.89947178  1.0
  O  O23  1  -0.29611940  1.07195379  0.10052822  1.0
  O  O24  1  0.42804621  0.79611940  0.60052822  1.0
  O  O25  1  0.20388060  0.57195379  0.39947178  1.0
  O  O26  1  -0.22371681  1.71509419  0.97727040  1.0
  O  O27  1  -0.71509419  1.22371681  0.02272960  1.0
  O  O28  1  -0.72371681  1.21509419  0.52272960  1.0
  O  O29  1  -0.21509419  1.72371681  0.47727040  1.0
