# generated using pymatgen
data_Al3Au8
_symmetry_space_group_name_H-M   'P 1'
_cell_length_a   14.88724082
_cell_length_b   14.88724082
_cell_length_c   14.88724082
_cell_angle_alpha   30.42496297
_cell_angle_beta   30.42496297
_cell_angle_gamma   30.42496297
_symmetry_Int_Tables_number   1
_chemical_formula_structural   Al3Au8
_chemical_formula_sum   'Al12 Au32'
_cell_volume   749.97808464
_cell_formula_units_Z   4
loop_
 _symmetry_equiv_pos_site_id
 _symmetry_equiv_pos_as_xyz
  1  'x, y, z'
loop_
 _atom_site_type_symbol
 _atom_site_label
 _atom_site_symmetry_multiplicity
 _atom_site_fract_x
 _atom_site_fract_y
 _atom_site_fract_z
 _atom_site_occupancy
  Al  Al0  1  0.43359835  0.75000000  0.06640165  1.0
  Al  Al1  1  0.93359835  -0.43359835  0.25000000  1.0
  Al  Al2  1  0.25000000  0.93359835  -0.43359835  1.0
  Al  Al3  1  0.75000000  1.06640165  -0.56640165  1.0
  Al  Al4  1  0.56640165  0.25000000  -0.06640165  1.0
  Al  Al5  1  1.06640165  0.43359835  -0.25000000  1.0
  Al  Al6  1  0.84402900  -0.15597100  -0.15597100  1.0
  Al  Al7  1  0.34402900  0.34402900  0.34402900  1.0
  Al  Al8  1  0.65597100  0.65597100  -0.34402900  1.0
  Al  Al9  1  1.15597100  0.15597100  0.15597100  1.0
  Al  Al10  1  1.00000000  -0.00000000  0.00000000  1.0
  Al  Al11  1  0.50000000  0.50000000  0.50000000  1.0
  Au  Au12  1  0.88492098  0.14885761  -0.37706449  1.0
  Au  Au13  1  1.38492098  0.12293551  -0.35114239  1.0
  Au  Au14  1  0.87706449  0.35114239  -0.38492098  1.0
  Au  Au15  1  1.37706449  0.11507902  -0.14885761  1.0
  Au  Au16  1  0.85114239  0.37706449  0.11507902  1.0
  Au  Au17  1  0.35114239  0.61507902  -0.12293551  1.0
  Au  Au18  1  1.11507902  -0.14885761  0.37706449  1.0
  Au  Au19  1  0.61507902  0.87706449  -0.64885761  1.0
  Au  Au20  1  0.62293551  -0.11507902  0.14885761  1.0
  Au  Au21  1  1.12293551  -0.35114239  0.38492098  1.0
  Au  Au22  1  0.64885761  0.38492098  0.12293551  1.0
  Au  Au23  1  1.14885761  -0.37706449  -0.11507902  1.0
  Au  Au24  1  0.79570201  1.14925457  -0.49626296  1.0
  Au  Au25  1  1.29570201  0.00373704  -0.35074543  1.0
  Au  Au26  1  0.99626296  0.35074543  -0.29570201  1.0
  Au  Au27  1  0.49626296  0.20429799  -0.14925457  1.0
  Au  Au28  1  0.85074543  0.49626296  -0.79570201  1.0
  Au  Au29  1  0.35074543  0.70429799  -0.00373704  1.0
  Au  Au30  1  0.20429799  0.85074543  -0.50373704  1.0
  Au  Au31  1  0.70429799  0.99626296  -0.64925457  1.0
  Au  Au32  1  0.50373704  0.79570201  0.14925457  1.0
  Au  Au33  1  1.00373704  -0.35074543  0.29570201  1.0
  Au  Au34  1  0.64925457  0.29570201  0.00373704  1.0
  Au  Au35  1  1.14925457  0.50373704  -0.20429799  1.0
  Au  Au36  1  0.93666354  -0.06333646  -0.06333646  1.0
  Au  Au37  1  0.43666354  0.43666354  0.43666354  1.0
  Au  Au38  1  0.56333646  0.56333646  -0.43666354  1.0
  Au  Au39  1  1.06333646  0.06333646  0.06333646  1.0
  Au  Au40  1  0.78260368  0.78260368  -0.21739632  1.0
  Au  Au41  1  0.28260368  0.28260368  0.28260368  1.0
  Au  Au42  1  0.71739632  0.71739632  -0.28260368  1.0
  Au  Au43  1  0.21739632  0.21739632  0.21739632  1.0
