# generated using pymatgen
data_Na2Mn2Se3
_symmetry_space_group_name_H-M   'P 1'
_cell_length_a   10.49417888
_cell_length_b   10.49417888
_cell_length_c   7.34372449
_cell_angle_alpha   69.74048719
_cell_angle_beta   110.25951281
_cell_angle_gamma   96.33002907
_symmetry_Int_Tables_number   1
_chemical_formula_structural   Na2Mn2Se3
_chemical_formula_sum   'Na8 Mn8 Se12'
_cell_volume   711.73252818
_cell_formula_units_Z   4
loop_
 _symmetry_equiv_pos_site_id
 _symmetry_equiv_pos_as_xyz
  1  'x, y, z'
loop_
 _atom_site_type_symbol
 _atom_site_label
 _atom_site_symmetry_multiplicity
 _atom_site_fract_x
 _atom_site_fract_y
 _atom_site_fract_z
 _atom_site_occupancy
  Na  Na0  1  0.80902164  0.02237935  0.35203571  1.0
  Na  Na1  1  0.97762065  0.19097836  0.85203571  1.0
  Na  Na2  1  1.02237935  -0.19097836  0.14796429  1.0
  Na  Na3  1  1.19097836  -0.02237935  0.64796429  1.0
  Na  Na4  1  0.71894939  0.71894939  0.25000000  1.0
  Na  Na5  1  0.28105061  0.28105061  0.75000000  1.0
  Na  Na6  1  0.43029250  0.43029250  0.25000000  1.0
  Na  Na7  1  0.56970750  0.56970750  0.75000000  1.0
  Mn  Mn8  1  1.36605091  -0.21214872  0.20237285  1.0
  Mn  Mn9  1  1.21214872  -0.36605091  0.70237285  1.0
  Mn  Mn10  1  0.78785128  0.36605091  0.29762715  1.0
  Mn  Mn11  1  0.63394909  0.21214872  0.79762715  1.0
  Mn  Mn12  1  0.44648153  0.08182852  0.25959223  1.0
  Mn  Mn13  1  0.91817148  0.55351847  0.75959223  1.0
  Mn  Mn14  1  1.08182852  -0.55351847  0.24040777  1.0
  Mn  Mn15  1  1.55351847  -0.08182852  0.74040777  1.0
  Se  Se16  1  1.77287339  -0.00396478  0.95042437  1.0
  Se  Se17  1  1.00396478  -0.77287339  0.45042437  1.0
  Se  Se18  1  0.99603522  0.77287339  0.54957563  1.0
  Se  Se19  1  0.22712661  0.00396478  0.04957563  1.0
  Se  Se20  1  1.58437673  -0.14625070  0.44941921  1.0
  Se  Se21  1  1.14625070  -0.58437673  0.94941921  1.0
  Se  Se22  1  0.85374930  0.58437673  0.05058079  1.0
  Se  Se23  1  0.41562327  0.14625070  0.55058079  1.0
  Se  Se24  1  0.57314669  0.27720529  0.06787603  1.0
  Se  Se25  1  0.72279471  0.42685331  0.56787603  1.0
  Se  Se26  1  1.27720529  -0.42685331  0.43212397  1.0
  Se  Se27  1  1.42685331  -0.27720529  0.93212397  1.0
