# generated using pymatgen
data_RbB2SbO6
_symmetry_space_group_name_H-M   'P 1'
_cell_length_a   7.05424887
_cell_length_b   7.05424887
_cell_length_c   7.60289355
_cell_angle_alpha   59.41887299
_cell_angle_beta   120.58112701
_cell_angle_gamma   118.05012556
_symmetry_Int_Tables_number   1
_chemical_formula_structural   RbB2SbO6
_chemical_formula_sum   'Rb2 B4 Sb2 O12'
_cell_volume   268.76208260
_cell_formula_units_Z   2
loop_
 _symmetry_equiv_pos_site_id
 _symmetry_equiv_pos_as_xyz
  1  'x, y, z'
loop_
 _atom_site_type_symbol
 _atom_site_label
 _atom_site_symmetry_multiplicity
 _atom_site_fract_x
 _atom_site_fract_y
 _atom_site_fract_z
 _atom_site_occupancy
  Rb  Rb0  1  1.49094361  0.46369040  0.94180542  1.0
  Rb  Rb1  1  0.53630960  0.50905639  0.44180542  1.0
  B  B2  1  1.04688018  -0.63122106  0.03366090  1.0
  B  B3  1  1.63122106  -0.04688018  0.53366090  1.0
  B  B4  1  1.67312113  0.06369689  0.94853849  1.0
  B  B5  1  0.93630311  0.32687887  0.44853849  1.0
  Sb  Sb6  1  0.11808574  -0.09100795  0.77462481  1.0
  Sb  Sb7  1  1.09100795  0.88191426  0.27462481  1.0
  O  O8  1  1.16496341  0.59701125  0.98146157  1.0
  O  O9  1  0.40298875  -0.16496341  0.48146157  1.0
  O  O10  1  0.81250675  -0.70759909  0.92359578  1.0
  O  O11  1  0.70759909  0.18749325  0.42359578  1.0
  O  O12  1  1.17939993  0.22423834  0.20008484  1.0
  O  O13  1  1.77576166  -0.17939993  0.70008484  1.0
  O  O14  1  1.75524594  -0.12174811  0.09050538  1.0
  O  O15  1  1.12174811  0.24475406  0.59050538  1.0
  O  O16  1  1.45051053  0.04535204  0.80866126  1.0
  O  O17  1  0.95464796  0.54948947  0.30866126  1.0
  O  O18  1  1.18688645  -0.02600903  0.03004156  1.0
  O  O19  1  1.02600903  0.81311355  0.53004156  1.0
