# generated using pymatgen
data_SrMgSn
_symmetry_space_group_name_H-M   'P 1'
_cell_length_a   8.22130899
_cell_length_b   4.90965539
_cell_length_c   8.89997581
_cell_angle_alpha   90.00000000
_cell_angle_beta   90.00000000
_cell_angle_gamma   90.00000000
_symmetry_Int_Tables_number   1
_chemical_formula_structural   SrMgSn
_chemical_formula_sum   'Sr4 Mg4 Sn4'
_cell_volume   359.23679003
_cell_formula_units_Z   4
loop_
 _symmetry_equiv_pos_site_id
 _symmetry_equiv_pos_as_xyz
  1  'x, y, z'
loop_
 _atom_site_type_symbol
 _atom_site_label
 _atom_site_symmetry_multiplicity
 _atom_site_fract_x
 _atom_site_fract_y
 _atom_site_fract_z
 _atom_site_occupancy
  Sr  Sr0  1  0.98884133  0.75000000  0.68952362  1.0
  Sr  Sr1  1  0.48884133  0.75000000  0.81047638  1.0
  Sr  Sr2  1  0.01115867  0.25000000  0.31047638  1.0
  Sr  Sr3  1  0.51115867  0.25000000  0.18952362  1.0
  Mg  Mg4  1  0.85116305  0.75000000  0.06770542  1.0
  Mg  Mg5  1  0.35116305  0.75000000  0.43229458  1.0
  Mg  Mg6  1  0.14883695  0.25000000  0.93229458  1.0
  Mg  Mg7  1  0.64883695  0.25000000  0.56770542  1.0
  Sn  Sn8  1  0.72184717  0.75000000  0.39237171  1.0
  Sn  Sn9  1  0.22184717  0.75000000  0.10762829  1.0
  Sn  Sn10  1  0.27815283  0.25000000  0.60762829  1.0
  Sn  Sn11  1  0.77815283  0.25000000  0.89237171  1.0
