# generated using pymatgen
data_Sn3Ir2S3
_symmetry_space_group_name_H-M   'P 1'
_cell_length_a   8.91104781
_cell_length_b   8.91104781
_cell_length_c   8.91104781
_cell_angle_alpha   90.00000000
_cell_angle_beta   90.00000000
_cell_angle_gamma   90.00000000
_symmetry_Int_Tables_number   1
_chemical_formula_structural   Sn3Ir2S3
_chemical_formula_sum   'Sn12 Ir8 S12'
_cell_volume   707.59755234
_cell_formula_units_Z   4
loop_
 _symmetry_equiv_pos_site_id
 _symmetry_equiv_pos_as_xyz
  1  'x, y, z'
loop_
 _atom_site_type_symbol
 _atom_site_label
 _atom_site_symmetry_multiplicity
 _atom_site_fract_x
 _atom_site_fract_y
 _atom_site_fract_z
 _atom_site_occupancy
  Sn  Sn0  1  0.67361979  0.00000000  0.16135562  1.0
  Sn  Sn1  1  0.32638021  0.00000000  0.83864438  1.0
  Sn  Sn2  1  0.32638021  0.00000000  0.16135562  1.0
  Sn  Sn3  1  0.67361979  0.00000000  0.83864438  1.0
  Sn  Sn4  1  0.16135562  0.67361979  0.00000000  1.0
  Sn  Sn5  1  0.83864438  0.32638021  0.00000000  1.0
  Sn  Sn6  1  0.16135562  0.32638021  0.00000000  1.0
  Sn  Sn7  1  0.83864438  0.67361979  0.00000000  1.0
  Sn  Sn8  1  0.00000000  0.16135562  0.67361979  1.0
  Sn  Sn9  1  0.00000000  0.83864438  0.32638021  1.0
  Sn  Sn10  1  0.00000000  0.16135562  0.32638021  1.0
  Sn  Sn11  1  0.00000000  0.83864438  0.67361979  1.0
  Ir  Ir12  1  0.72265229  0.27734771  0.27734771  1.0
  Ir  Ir13  1  0.27734771  0.27734771  0.72265229  1.0
  Ir  Ir14  1  0.27734771  0.72265229  0.27734771  1.0
  Ir  Ir15  1  0.72265229  0.72265229  0.72265229  1.0
  Ir  Ir16  1  0.27734771  0.72265229  0.72265229  1.0
  Ir  Ir17  1  0.72265229  0.72265229  0.27734771  1.0
  Ir  Ir18  1  0.72265229  0.27734771  0.72265229  1.0
  Ir  Ir19  1  0.27734771  0.27734771  0.27734771  1.0
  S  S20  1  0.18301931  0.50000000  0.62799186  1.0
  S  S21  1  0.81698069  0.50000000  0.37200814  1.0
  S  S22  1  0.81698069  0.50000000  0.62799186  1.0
  S  S23  1  0.18301931  0.50000000  0.37200814  1.0
  S  S24  1  0.62799186  0.18301931  0.50000000  1.0
  S  S25  1  0.37200814  0.81698069  0.50000000  1.0
  S  S26  1  0.62799186  0.81698069  0.50000000  1.0
  S  S27  1  0.37200814  0.18301931  0.50000000  1.0
  S  S28  1  0.50000000  0.62799186  0.18301931  1.0
  S  S29  1  0.50000000  0.37200814  0.81698069  1.0
  S  S30  1  0.50000000  0.62799186  0.81698069  1.0
  S  S31  1  0.50000000  0.37200814  0.18301931  1.0
