# generated using pymatgen
data_BaYAgTe3
_symmetry_space_group_name_H-M   'P 1'
_cell_length_a   7.90973135
_cell_length_b   7.90973135
_cell_length_c   11.50931034
_cell_angle_alpha   90.00000000
_cell_angle_beta   90.00000000
_cell_angle_gamma   146.70597022
_symmetry_Int_Tables_number   1
_chemical_formula_structural   BaYAgTe3
_chemical_formula_sum   'Ba2 Y2 Ag2 Te6'
_cell_volume   395.27037106
_cell_formula_units_Z   2
loop_
 _symmetry_equiv_pos_site_id
 _symmetry_equiv_pos_as_xyz
  1  'x, y, z'
loop_
 _atom_site_type_symbol
 _atom_site_label
 _atom_site_symmetry_multiplicity
 _atom_site_fract_x
 _atom_site_fract_y
 _atom_site_fract_z
 _atom_site_occupancy
  Ba  Ba0  1  -0.24338605  0.24338605  0.75000000  1.0
  Ba  Ba1  1  0.24338605  0.75661395  0.25000000  1.0
  Y  Y2  1  0.00000000  0.00000000  0.00000000  1.0
  Y  Y3  1  0.00000000  0.00000000  0.50000000  1.0
  Ag  Ag4  1  0.46902992  0.53097008  0.75000000  1.0
  Ag  Ag5  1  -0.46902992  0.46902992  0.25000000  1.0
  Te  Te6  1  0.36175302  0.63824698  0.94963058  1.0
  Te  Te7  1  0.36175302  0.63824698  0.55036942  1.0
  Te  Te8  1  -0.36175302  0.36175302  0.44963058  1.0
  Te  Te9  1  -0.36175302  0.36175302  0.05036942  1.0
  Te  Te10  1  0.08075373  0.91924627  0.75000000  1.0
  Te  Te11  1  -0.08075373  0.08075373  0.25000000  1.0
