# generated using pymatgen
data_Ca2N
_symmetry_space_group_name_H-M   'P 1'
_cell_length_a   7.32489058
_cell_length_b   7.32489058
_cell_length_c   7.32489058
_cell_angle_alpha   119.99756368
_cell_angle_beta   119.99756368
_cell_angle_gamma   90.00421989
_symmetry_Int_Tables_number   1
_chemical_formula_structural   Ca2N
_chemical_formula_sum   'Ca8 N4'
_cell_volume   277.91015616
_cell_formula_units_Z   4
loop_
 _symmetry_equiv_pos_site_id
 _symmetry_equiv_pos_as_xyz
  1  'x, y, z'
loop_
 _atom_site_type_symbol
 _atom_site_label
 _atom_site_symmetry_multiplicity
 _atom_site_fract_x
 _atom_site_fract_y
 _atom_site_fract_z
 _atom_site_occupancy
  Ca  Ca0  1  1.08064932  0.36022359  0.72042573  1.0
  Ca  Ca1  1  1.11020213  0.88977641  1.22042573  1.0
  Ca  Ca2  1  0.63979787  0.36022359  0.27957427  1.0
  Ca  Ca3  1  0.66935068  0.88977641  0.77957427  1.0
  Ca  Ca4  1  0.63977641  0.36020213  0.72042573  1.0
  Ca  Ca5  1  0.11022359  0.33064932  0.22042573  1.0
  Ca  Ca6  1  0.63977641  0.91935068  1.27957427  1.0
  Ca  Ca7  1  0.11022359  0.88979787  0.77957427  1.0
  N  N8  1  0.87500000  0.12500000  0.75000000  1.0
  N  N9  1  0.37500000  0.12500000  0.25000000  1.0
  N  N10  1  0.87500000  0.62500000  0.75000000  1.0
  N  N11  1  0.87500000  1.12500000  1.25000000  1.0
