# generated using pymatgen
data_In6Se7
_symmetry_space_group_name_H-M   'P 1'
_cell_length_a   9.62086866
_cell_length_b   4.13589121
_cell_length_c   18.08918685
_cell_angle_alpha   90.00000000
_cell_angle_beta   100.78097338
_cell_angle_gamma   90.00000000
_symmetry_Int_Tables_number   1
_chemical_formula_structural   In6Se7
_chemical_formula_sum   'In12 Se14'
_cell_volume   707.07980098
_cell_formula_units_Z   2
loop_
 _symmetry_equiv_pos_site_id
 _symmetry_equiv_pos_as_xyz
  1  'x, y, z'
loop_
 _atom_site_type_symbol
 _atom_site_label
 _atom_site_symmetry_multiplicity
 _atom_site_fract_x
 _atom_site_fract_y
 _atom_site_fract_z
 _atom_site_occupancy
  In  In0  1  0.98288113  0.25000000  0.39679285  1.0
  In  In1  1  0.01711887  0.75000000  0.60320715  1.0
  In  In2  1  0.92606365  0.25000000  0.87214656  1.0
  In  In3  1  0.07393635  0.75000000  0.12785344  1.0
  In  In4  1  0.67150841  0.25000000  0.53314450  1.0
  In  In5  1  0.32849159  0.75000000  0.46685550  1.0
  In  In6  1  0.52245090  0.25000000  0.72612943  1.0
  In  In7  1  0.47754910  0.75000000  0.27387057  1.0
  In  In8  1  0.35251968  0.25000000  0.04727630  1.0
  In  In9  1  0.64748032  0.75000000  0.95272370  1.0
  In  In10  1  0.18112462  0.25000000  0.81449451  1.0
  In  In11  1  0.81887538  0.75000000  0.18550549  1.0
  Se  Se12  1  0.87852708  0.25000000  0.65617907  1.0
  Se  Se13  1  0.12147292  0.75000000  0.34382093  1.0
  Se  Se14  1  0.83504839  0.25000000  0.00352525  1.0
  Se  Se15  1  0.16495161  0.75000000  0.99647475  1.0
  Se  Se16  1  0.76144329  0.25000000  0.27228854  1.0
  Se  Se17  1  0.23855671  0.75000000  0.72771146  1.0
  Se  Se18  1  0.47039836  0.25000000  0.40782465  1.0
  Se  Se19  1  0.52960164  0.75000000  0.59217535  1.0
  Se  Se20  1  0.44291449  0.25000000  0.90865935  1.0
  Se  Se21  1  0.55708551  0.75000000  0.09134065  1.0
  Se  Se22  1  0.25070199  0.25000000  0.18158101  1.0
  Se  Se23  1  0.74929801  0.75000000  0.81841899  1.0
  Se  Se24  1  0.16883612  0.25000000  0.53244292  1.0
  Se  Se25  1  0.83116388  0.75000000  0.46755708  1.0
