# generated using pymatgen
data_LiLuSn2
_symmetry_space_group_name_H-M   'P 1'
_cell_length_a   9.96966877
_cell_length_b   9.96966877
_cell_length_c   4.35733760
_cell_angle_alpha   90.00000000
_cell_angle_beta   90.00000000
_cell_angle_gamma   154.57905739
_symmetry_Int_Tables_number   1
_chemical_formula_structural   LiLuSn2
_chemical_formula_sum   'Li2 Lu2 Sn4'
_cell_volume   185.91243593
_cell_formula_units_Z   2
loop_
 _symmetry_equiv_pos_site_id
 _symmetry_equiv_pos_as_xyz
  1  'x, y, z'
loop_
 _atom_site_type_symbol
 _atom_site_label
 _atom_site_symmetry_multiplicity
 _atom_site_fract_x
 _atom_site_fract_y
 _atom_site_fract_z
 _atom_site_occupancy
  Li  Li0  1  -0.82724567  0.82724567  0.25000000  1.0
  Li  Li1  1  -0.17275433  1.17275433  0.75000000  1.0
  Lu  Lu2  1  -0.61081714  0.61081714  0.25000000  1.0
  Lu  Lu3  1  -0.38918286  1.38918286  0.75000000  1.0
  Sn  Sn4  1  -0.95318986  0.95318986  0.25000000  1.0
  Sn  Sn5  1  -0.04681014  1.04681014  0.75000000  1.0
  Sn  Sn6  1  -0.25033479  1.25033479  0.25000000  1.0
  Sn  Sn7  1  -0.74966521  0.74966521  0.75000000  1.0
