# generated using pymatgen
data_CsCdInTe3
_symmetry_space_group_name_H-M   'P 1'
_cell_length_a   9.06514815
_cell_length_b   9.06514815
_cell_length_c   24.95668955
_cell_angle_alpha   84.78898785
_cell_angle_beta   95.21101215
_cell_angle_gamma   90.00607385
_symmetry_Int_Tables_number   1
_chemical_formula_structural   CsCdInTe3
_chemical_formula_sum   'Cs8 Cd8 In8 Te24'
_cell_volume   2033.87752914
_cell_formula_units_Z   8
loop_
 _symmetry_equiv_pos_site_id
 _symmetry_equiv_pos_as_xyz
  1  'x, y, z'
loop_
 _atom_site_type_symbol
 _atom_site_label
 _atom_site_symmetry_multiplicity
 _atom_site_fract_x
 _atom_site_fract_y
 _atom_site_fract_z
 _atom_site_occupancy
  Cs  Cs0  1  1.23075135  -0.10501648  0.92327829  1.0
  Cs  Cs1  1  1.10501648  -0.23075135  0.42327829  1.0
  Cs  Cs2  1  0.89498352  0.23075135  0.57672171  1.0
  Cs  Cs3  1  0.76924865  0.10501648  0.07672171  1.0
  Cs  Cs4  1  0.39337350  0.23075546  0.57671345  1.0
  Cs  Cs5  1  0.76924454  0.60662650  0.07671345  1.0
  Cs  Cs6  1  1.23075546  -0.60662650  0.92328655  1.0
  Cs  Cs7  1  1.60662650  -0.23075546  0.42328655  1.0
  Cd  Cd8  1  1.43977929  -0.06476040  0.75002154  1.0
  Cd  Cd9  1  1.06476040  -0.43977929  0.25002154  1.0
  Cd  Cd10  1  0.93523960  0.43977929  0.74997846  1.0
  Cd  Cd11  1  0.56022071  0.06476040  0.24997846  1.0
  Cd  Cd12  1  0.93529594  0.93529594  0.75000000  1.0
  Cd  Cd13  1  0.06470406  0.06470406  0.25000000  1.0
  Cd  Cd14  1  0.43969467  0.43969467  0.75000000  1.0
  Cd  Cd15  1  0.56030533  0.56030533  0.25000000  1.0
  In  In16  1  1.65539724  -0.28046586  0.62207538  1.0
  In  In17  1  1.28046586  -0.65539724  0.12207538  1.0
  In  In18  1  0.71953414  0.65539724  0.87792462  1.0
  In  In19  1  0.34460276  0.28046586  0.37792462  1.0
  In  In20  1  0.71941356  0.15573442  0.87757977  1.0
  In  In21  1  0.84426558  0.28058644  0.37757977  1.0
  In  In22  1  1.15573442  -0.28058644  0.62242023  1.0
  In  In23  1  1.28058644  -0.15573442  0.12242023  1.0
  Te  Te24  1  1.73690688  -0.11197793  0.94772173  1.0
  Te  Te25  1  1.11197793  -0.73690688  0.44772173  1.0
  Te  Te26  1  0.88802207  0.73690688  0.55227827  1.0
  Te  Te27  1  0.26309312  0.11197793  0.05227827  1.0
  Te  Te28  1  1.43509490  -0.33016147  0.82043918  1.0
  Te  Te29  1  1.33016147  -0.43509490  0.32043918  1.0
  Te  Te30  1  0.66983853  0.43509490  0.67956082  1.0
  Te  Te31  1  0.56490510  0.33016147  0.17956082  1.0
  Te  Te32  1  1.66991072  -0.02481700  0.67958196  1.0
  Te  Te33  1  1.02481700  -0.66991072  0.17958196  1.0
  Te  Te34  1  0.97518300  0.66991072  0.82041804  1.0
  Te  Te35  1  0.33008928  0.02481700  0.32041804  1.0
  Te  Te36  1  0.61189930  0.26284257  0.44782528  1.0
  Te  Te37  1  0.73715743  0.38810070  0.94782528  1.0
  Te  Te38  1  1.26284257  -0.38810070  0.05217472  1.0
  Te  Te39  1  1.38810070  -0.26284257  0.55217472  1.0
  Te  Te40  1  0.43556739  0.16993261  0.82023164  1.0
  Te  Te41  1  0.83006739  0.56443261  0.32023164  1.0
  Te  Te42  1  1.16993261  -0.56443261  0.67976836  1.0
  Te  Te43  1  1.56443261  -0.16993261  0.17976836  1.0
  Te  Te44  1  1.17000615  -0.02546057  0.67979462  1.0
  Te  Te45  1  1.02546057  -0.17000615  0.17979462  1.0
  Te  Te46  1  0.97453943  0.17000615  0.82020538  1.0
  Te  Te47  1  0.82999385  0.02546057  0.32020538  1.0
