# generated using pymatgen
data_AsF3
_symmetry_space_group_name_H-M   'P 1'
_cell_length_a   7.06120948
_cell_length_b   5.44276101
_cell_length_c   7.70157438
_cell_angle_alpha   90.00000000
_cell_angle_beta   90.00000000
_cell_angle_gamma   90.00000000
_symmetry_Int_Tables_number   1
_chemical_formula_structural   AsF3
_chemical_formula_sum   'As4 F12'
_cell_volume   295.99057028
_cell_formula_units_Z   4
loop_
 _symmetry_equiv_pos_site_id
 _symmetry_equiv_pos_as_xyz
  1  'x, y, z'
loop_
 _atom_site_type_symbol
 _atom_site_label
 _atom_site_symmetry_multiplicity
 _atom_site_fract_x
 _atom_site_fract_y
 _atom_site_fract_z
 _atom_site_occupancy
  As  As0  1  0.21602868  0.97986491  0.09722213  1.0
  As  As1  1  0.71602868  0.52013509  0.09722213  1.0
  As  As2  1  0.78397132  0.02013509  0.59722213  1.0
  As  As3  1  0.28397132  0.47986491  0.59722213  1.0
  F  F4  1  0.42877741  0.13528719  0.16332676  1.0
  F  F5  1  0.92877741  0.36471281  0.16332676  1.0
  F  F6  1  0.57122259  0.86471281  0.66332676  1.0
  F  F7  1  0.07122259  0.63528719  0.66332676  1.0
  F  F8  1  0.34174187  0.72420756  0.00234764  1.0
  F  F9  1  0.84174187  0.77579244  0.00234764  1.0
  F  F10  1  0.65825813  0.27579244  0.50234764  1.0
  F  F11  1  0.15825813  0.22420756  0.50234764  1.0
  F  F12  1  0.30345106  0.64137930  0.39450347  1.0
  F  F13  1  0.80345106  0.85862070  0.39450347  1.0
  F  F14  1  0.69654894  0.35862070  0.89450347  1.0
  F  F15  1  0.19654894  0.14137930  0.89450347  1.0
