# generated using pymatgen
data_SiC
_symmetry_space_group_name_H-M   'P 1'
_cell_length_a   3.09597040
_cell_length_b   3.09597040
_cell_length_c   53.16373342
_cell_angle_alpha   90.00000000
_cell_angle_beta   90.00000000
_cell_angle_gamma   120.00000000
_symmetry_Int_Tables_number   1
_chemical_formula_structural   SiC
_chemical_formula_sum   'Si21 C21'
_cell_volume   441.30586937
_cell_formula_units_Z   21
loop_
 _symmetry_equiv_pos_site_id
 _symmetry_equiv_pos_as_xyz
  1  'x, y, z'
loop_
 _atom_site_type_symbol
 _atom_site_label
 _atom_site_symmetry_multiplicity
 _atom_site_fract_x
 _atom_site_fract_y
 _atom_site_fract_z
 _atom_site_occupancy
  Si  Si0  1  0.00000000  0.00000000  0.72617995  1.0
  Si  Si1  1  0.00000000  0.00000000  0.86903130  1.0
  Si  Si2  1  0.66666667  0.33333333  0.10718055  1.0
  Si  Si3  1  0.66666667  0.33333333  0.24992329  1.0
  Si  Si4  1  0.66666667  0.33333333  0.34523170  1.0
  Si  Si5  1  0.66666667  0.33333333  0.53567603  1.0
  Si  Si6  1  0.66666667  0.33333333  0.63096177  1.0
  Si  Si7  1  0.66666667  0.33333333  0.82138129  1.0
  Si  Si8  1  0.33333333  0.66666667  0.05958951  1.0
  Si  Si9  1  0.33333333  0.66666667  0.20235012  1.0
  Si  Si10  1  0.33333333  0.66666667  0.39280658  1.0
  Si  Si11  1  0.33333333  0.66666667  0.48810484  1.0
  Si  Si12  1  0.33333333  0.66666667  0.67852860  1.0
  Si  Si13  1  0.33333333  0.66666667  0.77381704  1.0
  Si  Si14  1  0.33333333  0.66666667  0.96426079  1.0
  Si  Si15  1  0.66666667  0.33333333  0.91667862  1.0
  Si  Si16  1  0.00000000  0.00000000  0.01192854  1.0
  Si  Si17  1  0.00000000  0.00000000  0.15476871  1.0
  Si  Si18  1  0.00000000  0.00000000  0.29758024  1.0
  Si  Si19  1  0.00000000  0.00000000  0.44046040  1.0
  Si  Si20  1  0.00000000  0.00000000  0.58332589  1.0
  C  C21  1  0.00000000  0.00000000  0.61913710  1.0
  C  C22  1  0.00000000  0.00000000  0.76199345  1.0
  C  C23  1  0.00000000  0.00000000  0.90484349  1.0
  C  C24  1  0.66666667  0.33333333  0.14288384  1.0
  C  C25  1  0.66666667  0.33333333  0.28562617  1.0
  C  C26  1  0.66666667  0.33333333  0.38094499  1.0
  C  C27  1  0.66666667  0.33333333  0.57138486  1.0
  C  C28  1  0.66666667  0.33333333  0.66666811  1.0
  C  C29  1  0.33333333  0.66666667  0.09528172  1.0
  C  C30  1  0.33333333  0.66666667  0.23805848  1.0
  C  C31  1  0.33333333  0.66666667  0.42851371  1.0
  C  C32  1  0.33333333  0.66666667  0.52381567  1.0
  C  C33  1  0.33333333  0.66666667  0.71423725  1.0
  C  C34  1  0.33333333  0.66666667  0.80952402  1.0
  C  C35  1  0.33333333  0.66666667  -0.00003225  1.0
  C  C36  1  0.66666667  0.33333333  0.95239077  1.0
  C  C37  1  0.66666667  0.33333333  0.85708552  1.0
  C  C38  1  0.00000000  0.00000000  0.04773309  1.0
  C  C39  1  0.00000000  0.00000000  0.19047425  1.0
  C  C40  1  0.00000000  0.00000000  0.33339685  1.0
  C  C41  1  0.00000000  0.00000000  0.47627317  1.0
