# generated using pymatgen
data_Na3OsO5
_symmetry_space_group_name_H-M   'P 1'
_cell_length_a   5.62769695
_cell_length_b   5.62769695
_cell_length_c   13.62658622
_cell_angle_alpha   90.00000000
_cell_angle_beta   90.00000000
_cell_angle_gamma   120.00000000
_symmetry_Int_Tables_number   1
_chemical_formula_structural   Na3OsO5
_chemical_formula_sum   'Na9 Os3 O15'
_cell_volume   373.74819634
_cell_formula_units_Z   3
loop_
 _symmetry_equiv_pos_site_id
 _symmetry_equiv_pos_as_xyz
  1  'x, y, z'
loop_
 _atom_site_type_symbol
 _atom_site_label
 _atom_site_symmetry_multiplicity
 _atom_site_fract_x
 _atom_site_fract_y
 _atom_site_fract_z
 _atom_site_occupancy
  Na  Na0  1  0.08928171  0.70604207  0.91468117  1.0
  Na  Na1  1  0.70604207  0.08928171  0.08531883  1.0
  Na  Na2  1  0.61676036  0.91071829  0.58134784  1.0
  Na  Na3  1  0.29395793  0.38323964  0.24801451  1.0
  Na  Na4  1  0.91071829  0.61676036  0.41865216  1.0
  Na  Na5  1  0.38323964  0.29395793  0.75198549  1.0
  Na  Na6  1  0.27727389  0.27727389  0.50000000  1.0
  Na  Na7  1  0.00000000  0.72272611  0.16666667  1.0
  Na  Na8  1  0.72272611  0.00000000  0.83333333  1.0
  Os  Os9  1  0.38193341  0.38193341  0.00000000  1.0
  Os  Os10  1  0.00000000  0.61806659  0.66666667  1.0
  Os  Os11  1  0.61806659  0.00000000  0.33333333  1.0
  O  O12  1  0.33811365  0.82670013  0.73061918  1.0
  O  O13  1  0.82670013  0.33811365  0.26938082  1.0
  O  O14  1  0.48858648  0.66188635  0.39728585  1.0
  O  O15  1  0.17329987  0.51141352  0.06395251  1.0
  O  O16  1  0.66188635  0.48858648  0.60271415  1.0
  O  O17  1  0.51141352  0.17329987  0.93604749  1.0
  O  O18  1  0.84245343  0.68588804  0.77215103  1.0
  O  O19  1  0.68588804  0.84245343  0.22784897  1.0
  O  O20  1  0.84343461  0.15754657  0.43881770  1.0
  O  O21  1  0.31411196  0.15656539  0.10548437  1.0
  O  O22  1  0.15754657  0.84343461  0.56118230  1.0
  O  O23  1  0.15656539  0.31411196  0.89451563  1.0
  O  O24  1  0.69733319  0.69733319  0.00000000  1.0
  O  O25  1  -0.00000000  0.30266681  0.66666667  1.0
  O  O26  1  0.30266681  0.00000000  0.33333333  1.0
