# generated using pymatgen
data_C
_symmetry_space_group_name_H-M   'P 1'
_cell_length_a   10.67212118
_cell_length_b   10.67212118
_cell_length_c   10.67212118
_cell_angle_alpha   13.27325227
_cell_angle_beta   13.27325227
_cell_angle_gamma   13.27325227
_symmetry_Int_Tables_number   1
_chemical_formula_structural   C
_chemical_formula_sum   C4
_cell_volume   55.73744811
_cell_formula_units_Z   4
loop_
 _symmetry_equiv_pos_site_id
 _symmetry_equiv_pos_as_xyz
  1  'x, y, z'
loop_
 _atom_site_type_symbol
 _atom_site_label
 _atom_site_symmetry_multiplicity
 _atom_site_fract_x
 _atom_site_fract_y
 _atom_site_fract_z
 _atom_site_occupancy
  C  C0  1  0.93640240  -0.06359760  -0.06359760  1.0
  C  C1  1  0.06359760  0.06359760  0.06359760  1.0
  C  C2  1  0.73026537  -0.26973463  -0.26973463  1.0
  C  C3  1  0.26973463  0.26973463  0.26973463  1.0
