# generated using pymatgen
data_InNi3As
_symmetry_space_group_name_H-M   'P 1'
_cell_length_a   5.80843581
_cell_length_b   5.80843581
_cell_length_c   6.94782109
_cell_angle_alpha   90.00000000
_cell_angle_beta   90.00000000
_cell_angle_gamma   141.55543324
_symmetry_Int_Tables_number   1
_chemical_formula_structural   InNi3As
_chemical_formula_sum   'In2 Ni6 As2'
_cell_volume   145.74303962
_cell_formula_units_Z   2
loop_
 _symmetry_equiv_pos_site_id
 _symmetry_equiv_pos_as_xyz
  1  'x, y, z'
loop_
 _atom_site_type_symbol
 _atom_site_label
 _atom_site_symmetry_multiplicity
 _atom_site_fract_x
 _atom_site_fract_y
 _atom_site_fract_z
 _atom_site_occupancy
  In  In0  1  0.00000000  0.00000000  0.50000000  1.0
  In  In1  1  0.00000000  0.00000000  0.00000000  1.0
  Ni  Ni2  1  0.32923561  0.67076439  0.43197122  1.0
  Ni  Ni3  1  -0.32923561  0.32923561  0.56802878  1.0
  Ni  Ni4  1  0.32923561  0.67076439  0.06802878  1.0
  Ni  Ni5  1  -0.32923561  0.32923561  0.93197122  1.0
  Ni  Ni6  1  -0.46663327  0.46663327  0.25000000  1.0
  Ni  Ni7  1  0.46663327  0.53336673  0.75000000  1.0
  As  As8  1  -0.25185113  0.25185113  0.25000000  1.0
  As  As9  1  0.25185113  0.74814887  0.75000000  1.0
