# generated using pymatgen
data_DyH3(CO2)3
_symmetry_space_group_name_H-M   'P 1'
_cell_length_a   6.21881413
_cell_length_b   6.21881413
_cell_length_c   6.21881413
_cell_angle_alpha   115.53412013
_cell_angle_beta   115.53412013
_cell_angle_gamma   115.53412013
_symmetry_Int_Tables_number   1
_chemical_formula_structural   DyH3(CO2)3
_chemical_formula_sum   'Dy1 H3 C3 O6'
_cell_volume   127.80972170
_cell_formula_units_Z   1
loop_
 _symmetry_equiv_pos_site_id
 _symmetry_equiv_pos_as_xyz
  1  'x, y, z'
loop_
 _atom_site_type_symbol
 _atom_site_label
 _atom_site_symmetry_multiplicity
 _atom_site_fract_x
 _atom_site_fract_y
 _atom_site_fract_z
 _atom_site_occupancy
  Dy  Dy0  1  0.94200505  0.94200505  0.94200505  1.0
  H  H1  1  0.79126208  0.30635770  0.30635770  1.0
  H  H2  1  0.30635770  0.79126208  -0.69364230  1.0
  H  H3  1  1.30635770  0.30635770  0.79126208  1.0
  C  C4  1  1.09063253  0.55138085  0.55138085  1.0
  C  C5  1  0.55138085  1.09063253  -0.44861915  1.0
  C  C6  1  0.55138085  0.55138085  -0.90936747  1.0
  O  O7  1  1.22307702  0.82709410  0.82709410  1.0
  O  O8  1  0.82709410  0.22307702  -0.17290590  1.0
  O  O9  1  0.82709410  0.82709410  0.22307702  1.0
  O  O10  1  1.27936977  0.53217914  0.53217914  1.0
  O  O11  1  0.53217914  0.27936977  -0.46782086  1.0
  O  O12  1  0.53217914  0.53217914  0.27936977  1.0
