# generated using pymatgen
data_B5TeH5C
_symmetry_space_group_name_H-M   'P 1'
_cell_length_a   10.61837043
_cell_length_b   8.78010682
_cell_length_c   7.56390115
_cell_angle_alpha   81.38077033
_cell_angle_beta   78.58890798
_cell_angle_gamma   83.53261594
_symmetry_Int_Tables_number   1
_chemical_formula_structural   B5TeH5C
_chemical_formula_sum   'B20 Te4 H20 C4'
_cell_volume   680.92929491
_cell_formula_units_Z   4
loop_
 _symmetry_equiv_pos_site_id
 _symmetry_equiv_pos_as_xyz
  1  'x, y, z'
loop_
 _atom_site_type_symbol
 _atom_site_label
 _atom_site_symmetry_multiplicity
 _atom_site_fract_x
 _atom_site_fract_y
 _atom_site_fract_z
 _atom_site_occupancy
  B  B0  1  -0.25401073  -0.13890542  -0.11543608  1.0
  B  B1  1  -0.74598927  -0.86109458  -0.88456392  1.0
  B  B2  1  -0.19348854  -0.33576848  -0.07103660  1.0
  B  B3  1  -0.80651146  -0.66423152  -0.92896340  1.0
  B  B4  1  -0.13034408  -0.40187502  -0.28387359  1.0
  B  B5  1  -0.86965592  -0.59812498  -0.71612641  1.0
  B  B6  1  -0.15199196  -0.24492049  -0.45753289  1.0
  B  B7  1  -0.84800804  -0.75507951  -0.54246711  1.0
  B  B8  1  -0.25850086  -0.39494190  -0.40392456  1.0
  B  B9  1  -0.74149914  -0.60505810  -0.59607544  1.0
  B  B10  1  -0.32129332  -0.20013447  -0.44557834  1.0
  B  B11  1  -0.67870668  -0.79986553  -0.55442166  1.0
  B  B12  1  -0.38463494  -0.13384436  -0.23284600  1.0
  B  B13  1  -0.61536506  -0.86615564  -0.76715400  1.0
  B  B14  1  -0.36142854  -0.28671895  -0.05754694  1.0
  B  B15  1  -0.63857146  -0.71328105  -0.94245306  1.0
  B  B16  1  -0.28493116  -0.45024080  -0.16381736  1.0
  B  B17  1  -0.71506884  -0.54975920  -0.83618264  1.0
  B  B18  1  -0.40265474  -0.32607464  -0.26327060  1.0
  B  B19  1  -0.59734526  -0.67392536  -0.73672940  1.0
  Te  Te20  1  -0.93552181  -0.14550823  -0.21952950  1.0
  Te  Te21  1  -0.06447819  -0.85449177  -0.78047050  1.0
  Te  Te22  1  -0.78622491  -0.14930937  -0.55156700  1.0
  Te  Te23  1  -0.21377509  -0.85069063  -0.44843300  1.0
  H  H24  1  -0.24070374  -0.04045021  -1.03009010  1.0
  H  H25  1  -0.75929626  -0.95954979  0.03009010  1.0
  H  H26  1  -0.13836753  -0.37096171  -0.94650646  1.0
  H  H27  1  -0.86163247  -0.62903829  -0.05349354  1.0
  H  H28  1  -0.03242619  -0.48263054  -0.30451062  1.0
  H  H29  1  -0.96757381  -0.51736946  -0.69548938  1.0
  H  H30  1  -0.07395039  -0.21626461  -0.59090441  1.0
  H  H31  1  -0.92604961  -0.78373539  -0.40909559  1.0
  H  H32  1  -0.25617000  -0.48200654  -0.51179222  1.0
  H  H33  1  -0.74383000  -0.51799346  -0.48820778  1.0
  H  H34  1  -0.35746153  -0.13920324  -0.57993150  1.0
  H  H35  1  -0.64253847  -0.86079676  -0.42006850  1.0
  H  H36  1  -0.46384411  -0.02679466  -0.22171840  1.0
  H  H37  1  -0.53615589  -0.97320534  -0.77828160  1.0
  H  H38  1  -0.43306438  -0.29620474  -0.91455649  1.0
  H  H39  1  -0.56693562  -0.70379526  -0.08544351  1.0
  H  H40  1  -0.30117861  -0.57979098  -0.09594578  1.0
  H  H41  1  -0.69882139  -0.42020902  -0.90405422  1.0
  H  H42  1  -0.50591505  -0.36366853  -0.26914433  1.0
  H  H43  1  -0.49408495  -0.63633147  -0.73085567  1.0
  C  C44  1  -0.12129136  -0.21621590  -0.25264834  1.0
  C  C45  1  -0.87870864  -0.78378410  -0.74735166  1.0
  C  C46  1  -0.23367417  -0.09727307  -0.34776567  1.0
  C  C47  1  -0.76632583  -0.90272693  -0.65223433  1.0
