# generated using pymatgen
data_Zr13Co4
_symmetry_space_group_name_H-M   'P 1'
_cell_length_a   10.86343974
_cell_length_b   10.86343974
_cell_length_c   10.86343974
_cell_angle_alpha   60.00000000
_cell_angle_beta   60.00000000
_cell_angle_gamma   60.00000000
_symmetry_Int_Tables_number   1
_chemical_formula_structural   Zr13Co4
_chemical_formula_sum   'Zr26 Co8'
_cell_volume   906.54022969
_cell_formula_units_Z   2
loop_
 _symmetry_equiv_pos_site_id
 _symmetry_equiv_pos_as_xyz
  1  'x, y, z'
loop_
 _atom_site_type_symbol
 _atom_site_label
 _atom_site_symmetry_multiplicity
 _atom_site_fract_x
 _atom_site_fract_y
 _atom_site_fract_z
 _atom_site_occupancy
  Zr  Zr0  1  0.94535637  -0.57189155  0.68117881  1.0
  Zr  Zr1  1  -0.05464363  0.68117881  0.42810845  1.0
  Zr  Zr2  1  -0.17810845  0.30464363  0.30464363  1.0
  Zr  Zr3  1  0.56882119  0.30464363  0.30464363  1.0
  Zr  Zr4  1  -0.57189155  0.94535637  0.68117881  1.0
  Zr  Zr5  1  0.94535637  -0.05464363  0.68117881  1.0
  Zr  Zr6  1  0.94535637  -0.31882119  0.94535637  1.0
  Zr  Zr7  1  -0.57189155  0.68117881  0.94535637  1.0
  Zr  Zr8  1  0.30464363  -0.17810845  0.30464363  1.0
  Zr  Zr9  1  0.30464363  0.30464363  -0.17810845  1.0
  Zr  Zr10  1  0.56882119  0.30464363  -0.17810845  1.0
  Zr  Zr11  1  0.56882119  -0.17810845  0.30464363  1.0
  Zr  Zr12  1  0.68117881  -0.05464363  0.94535637  1.0
  Zr  Zr13  1  -0.57189155  0.94535637  0.94535637  1.0
  Zr  Zr14  1  0.30464363  0.56882119  -0.17810845  1.0
  Zr  Zr15  1  0.30464363  -0.17810845  0.56882119  1.0
  Zr  Zr16  1  -0.31882119  0.94535637  0.42810845  1.0
  Zr  Zr17  1  0.68117881  -0.57189155  0.94535637  1.0
  Zr  Zr18  1  0.94535637  -0.57189155  0.94535637  1.0
  Zr  Zr19  1  -0.05464363  0.94535637  0.42810845  1.0
  Zr  Zr20  1  0.30464363  0.56882119  0.30464363  1.0
  Zr  Zr21  1  -0.17810845  0.56882119  0.30464363  1.0
  Zr  Zr22  1  -0.17810845  0.30464363  0.56882119  1.0
  Zr  Zr23  1  0.30464363  0.30464363  0.56882119  1.0
  Zr  Zr24  1  0.50000000  0.50000000  -0.50000000  1.0
  Zr  Zr25  1  0.75000000  -0.25000000  0.75000000  1.0
  Co  Co26  1  0.66253083  -0.33746917  1.01240752  1.0
  Co  Co27  1  0.66253083  0.01240752  0.66253083  1.0
  Co  Co28  1  0.58746917  -0.41253083  0.58746917  1.0
  Co  Co29  1  1.23759248  -0.41253083  0.58746917  1.0
  Co  Co30  1  1.01240752  -0.33746917  0.66253083  1.0
  Co  Co31  1  0.66253083  -0.33746917  0.66253083  1.0
  Co  Co32  1  0.58746917  0.23759248  0.58746917  1.0
  Co  Co33  1  0.58746917  -0.41253083  1.23759248  1.0
