# generated using pymatgen
data_Al9Rh2
_symmetry_space_group_name_H-M   'P 1'
_cell_length_a   6.36597163
_cell_length_b   6.45775313
_cell_length_c   8.74220842
_cell_angle_alpha   90.00000000
_cell_angle_beta   95.02826378
_cell_angle_gamma   90.00000000
_symmetry_Int_Tables_number   1
_chemical_formula_structural   Al9Rh2
_chemical_formula_sum   'Al18 Rh4'
_cell_volume   358.00799338
_cell_formula_units_Z   2
loop_
 _symmetry_equiv_pos_site_id
 _symmetry_equiv_pos_as_xyz
  1  'x, y, z'
loop_
 _atom_site_type_symbol
 _atom_site_label
 _atom_site_symmetry_multiplicity
 _atom_site_fract_x
 _atom_site_fract_y
 _atom_site_fract_z
 _atom_site_occupancy
  Al  Al0  1  0.90411746  0.28666768  0.77218241  1.0
  Al  Al1  1  0.90411746  0.21333232  0.27218241  1.0
  Al  Al2  1  0.09588254  0.78666768  0.72781759  1.0
  Al  Al3  1  0.09588254  0.71333232  0.22781759  1.0
  Al  Al4  1  0.78941716  0.60557926  0.96035537  1.0
  Al  Al5  1  0.78941716  0.89442074  0.46035537  1.0
  Al  Al6  1  0.21058284  0.10557926  0.53964463  1.0
  Al  Al7  1  0.21058284  0.39442074  0.03964463  1.0
  Al  Al8  1  0.59945680  0.97830157  0.73031163  1.0
  Al  Al9  1  0.59945680  0.52169843  0.23031163  1.0
  Al  Al10  1  0.40054320  0.47830157  0.76968837  1.0
  Al  Al11  1  0.40054320  0.02169843  0.26968837  1.0
  Al  Al12  1  0.38874323  0.80350541  0.99661737  1.0
  Al  Al13  1  0.38874323  0.69649459  0.49661737  1.0
  Al  Al14  1  0.61125677  0.30350541  0.50338263  1.0
  Al  Al15  1  0.61125677  0.19649459  0.00338263  1.0
  Al  Al16  1  0.00000000  0.00000000  0.00000000  1.0
  Al  Al17  1  0.00000000  0.50000000  0.50000000  1.0
  Rh  Rh18  1  0.73563317  0.62270513  0.66850929  1.0
  Rh  Rh19  1  0.73563317  0.87729487  0.16850929  1.0
  Rh  Rh20  1  0.26436683  0.12270513  0.83149071  1.0
  Rh  Rh21  1  0.26436683  0.37729487  0.33149071  1.0
