# generated using pymatgen
data_Al(HO)3
_symmetry_space_group_name_H-M   'P 1'
_cell_length_a   6.97135040
_cell_length_b   6.34654273
_cell_length_c   5.05616336
_cell_angle_alpha   81.16156030
_cell_angle_beta   80.35740125
_cell_angle_gamma   83.61134268
_symmetry_Int_Tables_number   1
_chemical_formula_structural   Al(HO)3
_chemical_formula_sum   'Al4 H12 O12'
_cell_volume   217.08367647
_cell_formula_units_Z   4
loop_
 _symmetry_equiv_pos_site_id
 _symmetry_equiv_pos_as_xyz
  1  'x, y, z'
loop_
 _atom_site_type_symbol
 _atom_site_label
 _atom_site_symmetry_multiplicity
 _atom_site_fract_x
 _atom_site_fract_y
 _atom_site_fract_z
 _atom_site_occupancy
  Al  Al0  1  -0.33698305  -0.66501947  -1.02333063  1.0
  Al  Al1  1  -0.66301695  -0.33498053  0.02333063  1.0
  Al  Al2  1  -0.16549979  -0.83595471  -0.53493956  1.0
  Al  Al3  1  -0.83450021  -0.16404529  -0.46506044  1.0
  H  H4  1  -0.87596333  -0.53833055  -0.20125963  1.0
  H  H5  1  -0.12403667  -0.46166945  -0.79874037  1.0
  H  H6  1  -0.38047168  -0.02769908  -0.76751184  1.0
  H  H7  1  -0.61952832  -0.97230092  -0.23248816  1.0
  H  H8  1  -0.12818337  -0.07205041  -0.11878424  1.0
  H  H9  1  -0.87181663  -0.92794959  -0.88121576  1.0
  H  H10  1  -0.68330860  -0.72907100  -0.77886495  1.0
  H  H11  1  -0.31669140  -0.27092900  -0.22113505  1.0
  H  H12  1  -0.88651718  -0.47638820  -0.62948233  1.0
  H  H13  1  -0.11348282  -0.52361180  -0.37051767  1.0
  H  H14  1  -0.50137873  -0.69375632  -0.41021650  1.0
  H  H15  1  -0.49862127  -0.30624368  -0.58978350  1.0
  O  O16  1  -0.78648319  -0.42544194  -0.23890904  1.0
  O  O17  1  -0.21351681  -0.57455806  -0.76109096  1.0
  O  O18  1  -0.27030192  -0.93587533  -0.81630902  1.0
  O  O19  1  -0.72969808  -0.06412467  -0.18369098  1.0
  O  O20  1  -0.10503831  -0.09940904  -0.30888304  1.0
  O  O21  1  -0.89496169  -0.90059096  -0.69111696  1.0
  O  O22  1  -0.58827347  -0.62059693  -0.81877740  1.0
  O  O23  1  -0.41172653  -0.37940307  -0.18122260  1.0
  O  O24  1  -0.90690444  -0.33072930  -0.72121118  1.0
  O  O25  1  -0.09309556  -0.66927070  -0.27878882  1.0
  O  O26  1  -0.42023091  -0.79841348  -0.30343935  1.0
  O  O27  1  -0.57976909  -0.20158652  -0.69656065  1.0
