# generated using pymatgen
data_NaTi2(AsO4)3
_symmetry_space_group_name_H-M   'P 1'
_cell_length_a   9.17877560
_cell_length_b   9.17877560
_cell_length_c   9.17877560
_cell_angle_alpha   58.91919350
_cell_angle_beta   58.91919350
_cell_angle_gamma   58.91919350
_symmetry_Int_Tables_number   1
_chemical_formula_structural   NaTi2(AsO4)3
_chemical_formula_sum   'Na2 Ti4 As6 O24'
_cell_volume   533.32621872
_cell_formula_units_Z   2
loop_
 _symmetry_equiv_pos_site_id
 _symmetry_equiv_pos_as_xyz
  1  'x, y, z'
loop_
 _atom_site_type_symbol
 _atom_site_label
 _atom_site_symmetry_multiplicity
 _atom_site_fract_x
 _atom_site_fract_y
 _atom_site_fract_z
 _atom_site_occupancy
  Na  Na0  1  1.00000000  0.00000000  0.00000000  1.0
  Na  Na1  1  0.50000000  0.50000000  0.50000000  1.0
  Ti  Ti2  1  0.85678576  -0.14321424  -0.14321424  1.0
  Ti  Ti3  1  0.35678576  0.35678576  0.35678576  1.0
  Ti  Ti4  1  0.64321424  0.64321424  -0.35678576  1.0
  Ti  Ti5  1  1.14321424  0.14321424  0.14321424  1.0
  As  As6  1  0.46330705  0.75000000  0.03669295  1.0
  As  As7  1  0.96330705  -0.46330705  0.25000000  1.0
  As  As8  1  0.25000000  0.96330705  -0.46330705  1.0
  As  As9  1  0.75000000  1.03669295  -0.53669295  1.0
  As  As10  1  0.53669295  0.25000000  -0.03669295  1.0
  As  As11  1  1.03669295  0.46330705  -0.25000000  1.0
  O  O12  1  0.78916479  1.00283524  -0.35444082  1.0
  O  O13  1  1.28916479  0.14555918  -0.49716476  1.0
  O  O14  1  0.85444082  0.49716476  -0.28916479  1.0
  O  O15  1  0.35444082  0.21083521  -0.00283524  1.0
  O  O16  1  0.99716476  0.35444082  -0.78916479  1.0
  O  O17  1  0.49716476  0.71083521  -0.14555918  1.0
  O  O18  1  0.21083521  0.99716476  -0.64555918  1.0
  O  O19  1  0.71083521  0.85444082  -0.50283524  1.0
  O  O20  1  0.64555918  0.78916479  0.00283524  1.0
  O  O21  1  1.14555918  -0.49716476  0.28916479  1.0
  O  O22  1  0.50283524  0.28916479  0.14555918  1.0
  O  O23  1  1.00283524  0.64555918  -0.21083521  1.0
  O  O24  1  0.73356084  0.06728064  -0.05606896  1.0
  O  O25  1  1.23356084  0.44393104  -0.43271936  1.0
  O  O26  1  0.55606896  0.43271936  -0.23356084  1.0
  O  O27  1  1.05606896  0.26643916  -0.06728064  1.0
  O  O28  1  0.93271936  0.05606896  0.26643916  1.0
  O  O29  1  0.43271936  0.76643916  -0.44393104  1.0
  O  O30  1  1.26643916  -0.06728064  0.05606896  1.0
  O  O31  1  0.76643916  0.55606896  -0.56728064  1.0
  O  O32  1  0.94393104  -0.26643916  0.06728064  1.0
  O  O33  1  0.44393104  0.56728064  0.23356084  1.0
  O  O34  1  0.56728064  1.23356084  -0.55606896  1.0
  O  O35  1  1.06728064  -0.05606896  -0.26643916  1.0
