# generated using pymatgen
data_HfTlCuSe3
_symmetry_space_group_name_H-M   'P 1'
_cell_length_a   7.69782459
_cell_length_b   7.69782459
_cell_length_c   10.14465418
_cell_angle_alpha   90.00000000
_cell_angle_beta   90.00000000
_cell_angle_gamma   151.00395266
_symmetry_Int_Tables_number   1
_chemical_formula_structural   HfTlCuSe3
_chemical_formula_sum   'Hf2 Tl2 Cu2 Se6'
_cell_volume   291.40060027
_cell_formula_units_Z   2
loop_
 _symmetry_equiv_pos_site_id
 _symmetry_equiv_pos_as_xyz
  1  'x, y, z'
loop_
 _atom_site_type_symbol
 _atom_site_label
 _atom_site_symmetry_multiplicity
 _atom_site_fract_x
 _atom_site_fract_y
 _atom_site_fract_z
 _atom_site_occupancy
  Hf  Hf0  1  0.00000000  0.00000000  0.00000000  1.0
  Hf  Hf1  1  0.00000000  0.00000000  0.50000000  1.0
  Tl  Tl2  1  -0.24795773  0.24795773  0.75000000  1.0
  Tl  Tl3  1  0.24795773  0.75204227  0.25000000  1.0
  Cu  Cu4  1  0.46455508  0.53544492  0.75000000  1.0
  Cu  Cu5  1  -0.46455508  0.46455508  0.25000000  1.0
  Se  Se6  1  0.37648998  0.62351002  0.95116658  1.0
  Se  Se7  1  0.37648998  0.62351002  0.54883342  1.0
  Se  Se8  1  -0.37648998  0.37648998  0.45116658  1.0
  Se  Se9  1  -0.37648998  0.37648998  0.04883342  1.0
  Se  Se10  1  0.06667322  0.93332678  0.75000000  1.0
  Se  Se11  1  -0.06667322  0.06667322  0.25000000  1.0
