# generated using pymatgen
data_Ta5Si3
_symmetry_space_group_name_H-M   'P 1'
_cell_length_a   7.51409556
_cell_length_b   7.51409556
_cell_length_c   7.51409556
_cell_angle_alpha   96.65425611
_cell_angle_beta   96.65425611
_cell_angle_gamma   140.19650339
_symmetry_Int_Tables_number   1
_chemical_formula_structural   Ta5Si3
_chemical_formula_sum   'Ta10 Si6'
_cell_volume   255.37155047
_cell_formula_units_Z   2
loop_
 _symmetry_equiv_pos_site_id
 _symmetry_equiv_pos_as_xyz
  1  'x, y, z'
loop_
 _atom_site_type_symbol
 _atom_site_label
 _atom_site_symmetry_multiplicity
 _atom_site_fract_x
 _atom_site_fract_y
 _atom_site_fract_z
 _atom_site_occupancy
  Ta  Ta0  1  0.27986538  0.42484184  0.70470722  1.0
  Ta  Ta1  1  1.22013462  0.92484184  1.14497647  1.0
  Ta  Ta2  1  0.92484184  0.77986538  1.70470722  1.0
  Ta  Ta3  1  0.57515816  1.27986538  0.85502353  1.0
  Ta  Ta4  1  0.77986538  1.07515816  0.85502353  1.0
  Ta  Ta5  1  0.72013462  0.57515816  1.29529278  1.0
  Ta  Ta6  1  1.42484184  0.72013462  1.14497647  1.0
  Ta  Ta7  1  0.07515816  0.22013462  0.29529278  1.0
  Ta  Ta8  1  0.75000000  1.25000000  0.50000000  1.0
  Ta  Ta9  1  0.25000000  0.75000000  0.50000000  1.0
  Si  Si10  1  0.25000000  0.25000000  0.00000000  1.0
  Si  Si11  1  0.75000000  0.75000000  0.00000000  1.0
  Si  Si12  1  0.83458524  0.33458524  1.16917047  1.0
  Si  Si13  1  0.66541476  0.83458524  0.50000000  1.0
  Si  Si14  1  1.33458524  1.16541476  1.50000000  1.0
  Si  Si15  1  0.16541476  0.66541476  0.83082953  1.0
