# generated using pymatgen
data_La(In2Ni)3
_symmetry_space_group_name_H-M   'P 1'
_cell_length_a   4.42013771
_cell_length_b   7.66575401
_cell_length_c   12.24617906
_cell_angle_alpha   90.00000000
_cell_angle_beta   90.00000000
_cell_angle_gamma   90.00000000
_symmetry_Int_Tables_number   1
_chemical_formula_structural   La(In2Ni)3
_chemical_formula_sum   'La2 In12 Ni6'
_cell_volume   414.94571545
_cell_formula_units_Z   2
loop_
 _symmetry_equiv_pos_site_id
 _symmetry_equiv_pos_as_xyz
  1  'x, y, z'
loop_
 _atom_site_type_symbol
 _atom_site_label
 _atom_site_symmetry_multiplicity
 _atom_site_fract_x
 _atom_site_fract_y
 _atom_site_fract_z
 _atom_site_occupancy
  La  La0  1  0.00000000  0.50000000  0.32296275  1.0
  La  La1  1  0.50000000  0.00000000  0.67703725  1.0
  In  In2  1  0.00000000  0.20506779  0.83917791  1.0
  In  In3  1  0.00000000  0.79493221  0.83917791  1.0
  In  In4  1  0.50000000  0.70506779  0.16082209  1.0
  In  In5  1  0.50000000  0.29493221  0.16082209  1.0
  In  In6  1  0.00000000  0.69880933  0.58361801  1.0
  In  In7  1  0.00000000  0.30119067  0.58361801  1.0
  In  In8  1  0.50000000  0.19880933  0.41638199  1.0
  In  In9  1  0.50000000  0.80119067  0.41638199  1.0
  In  In10  1  0.00000000  0.50000000  0.01043958  1.0
  In  In11  1  0.50000000  0.00000000  0.98956042  1.0
  In  In12  1  0.00000000  0.00000000  0.25036404  1.0
  In  In13  1  0.50000000  0.50000000  0.74963596  1.0
  Ni  Ni14  1  0.00000000  0.17418206  0.06548361  1.0
  Ni  Ni15  1  0.00000000  0.82581794  0.06548361  1.0
  Ni  Ni16  1  0.50000000  0.67418206  0.93451639  1.0
  Ni  Ni17  1  0.50000000  0.32581794  0.93451639  1.0
  Ni  Ni18  1  0.00000000  0.00000000  0.46504407  1.0
  Ni  Ni19  1  0.50000000  0.50000000  0.53495593  1.0
