# generated using pymatgen
data_Bi2O3
_symmetry_space_group_name_H-M   'P 1'
_cell_length_a   9.48593418
_cell_length_b   7.40335866
_cell_length_c   10.37435544
_cell_angle_alpha   90.00000000
_cell_angle_beta   103.16570766
_cell_angle_gamma   90.00000000
_symmetry_Int_Tables_number   1
_chemical_formula_structural   Bi2O3
_chemical_formula_sum   'Bi16 O24'
_cell_volume   709.41776341
_cell_formula_units_Z   8
loop_
 _symmetry_equiv_pos_site_id
 _symmetry_equiv_pos_as_xyz
  1  'x, y, z'
loop_
 _atom_site_type_symbol
 _atom_site_label
 _atom_site_symmetry_multiplicity
 _atom_site_fract_x
 _atom_site_fract_y
 _atom_site_fract_z
 _atom_site_occupancy
  Bi  Bi0  1  0.92398722  0.37882920  0.33554381  1.0
  Bi  Bi1  1  0.92398722  0.12117080  0.83554381  1.0
  Bi  Bi2  1  0.07601278  0.87882920  0.16445619  1.0
  Bi  Bi3  1  0.07601278  0.62117080  0.66445619  1.0
  Bi  Bi4  1  0.78285975  0.90384637  0.42600901  1.0
  Bi  Bi5  1  0.78285975  0.59615363  0.92600901  1.0
  Bi  Bi6  1  0.21714025  0.40384637  0.07399099  1.0
  Bi  Bi7  1  0.21714025  0.09615363  0.57399099  1.0
  Bi  Bi8  1  0.71348648  0.11818930  0.06729461  1.0
  Bi  Bi9  1  0.71348648  0.38181070  0.56729461  1.0
  Bi  Bi10  1  0.28651352  0.61818930  0.43270539  1.0
  Bi  Bi11  1  0.28651352  0.88181070  0.93270539  1.0
  Bi  Bi12  1  0.41972506  0.09618591  0.32270767  1.0
  Bi  Bi13  1  0.41972506  0.40381409  0.82270767  1.0
  Bi  Bi14  1  0.58027494  0.59618591  0.17729233  1.0
  Bi  Bi15  1  0.58027494  0.90381409  0.67729233  1.0
  O  O16  1  0.93242686  0.13126526  0.17952359  1.0
  O  O17  1  0.93242686  0.36873474  0.67952359  1.0
  O  O18  1  0.06757314  0.63126526  0.32047641  1.0
  O  O19  1  0.06757314  0.86873474  0.82047641  1.0
  O  O20  1  0.77498294  0.45350093  0.15659029  1.0
  O  O21  1  0.77498294  0.04649907  0.65659029  1.0
  O  O22  1  0.22501706  0.95350093  0.34340971  1.0
  O  O23  1  0.22501706  0.54649907  0.84340971  1.0
  O  O24  1  0.78709053  0.93605684  0.92965274  1.0
  O  O25  1  0.78709053  0.56394316  0.42965274  1.0
  O  O26  1  0.21290947  0.43605684  0.57034726  1.0
  O  O27  1  0.21290947  0.06394316  0.07034726  1.0
  O  O28  1  0.72783369  0.19809330  0.38921848  1.0
  O  O29  1  0.72783369  0.30190670  0.88921848  1.0
  O  O30  1  0.27216631  0.69809330  0.11078152  1.0
  O  O31  1  0.27216631  0.80190670  0.61078152  1.0
  O  O32  1  0.42381015  0.34761889  0.03037972  1.0
  O  O33  1  0.42381015  0.15238111  0.53037972  1.0
  O  O34  1  0.57618985  0.84761889  0.46962028  1.0
  O  O35  1  0.57618985  0.65238111  0.96962028  1.0
  O  O36  1  0.31818556  0.36321523  0.28126466  1.0
  O  O37  1  0.31818556  0.13678477  0.78126466  1.0
  O  O38  1  0.68181444  0.86321523  0.21873534  1.0
  O  O39  1  0.68181444  0.63678477  0.71873534  1.0
