# generated using pymatgen
data_VSnPO5
_symmetry_space_group_name_H-M   'P 1'
_cell_length_a   6.54637342
_cell_length_b   5.32353660
_cell_length_c   6.92949506
_cell_angle_alpha   107.40596933
_cell_angle_beta   112.73187514
_cell_angle_gamma   95.07727796
_symmetry_Int_Tables_number   1
_chemical_formula_structural   VSnPO5
_chemical_formula_sum   'V2 Sn2 P2 O10'
_cell_volume   206.74068519
_cell_formula_units_Z   2
loop_
 _symmetry_equiv_pos_site_id
 _symmetry_equiv_pos_as_xyz
  1  'x, y, z'
loop_
 _atom_site_type_symbol
 _atom_site_label
 _atom_site_symmetry_multiplicity
 _atom_site_fract_x
 _atom_site_fract_y
 _atom_site_fract_z
 _atom_site_occupancy
  V  V0  1  -0.86684695  -0.33966405  -0.74202279  1.0
  V  V1  1  -0.13315305  -0.66033595  -0.25797721  1.0
  Sn  Sn2  1  -0.71794482  -0.90078605  -0.95640761  1.0
  Sn  Sn3  1  -0.28205518  -0.09921395  -0.04359239  1.0
  P  P4  1  -0.69302096  -0.67523800  -0.39866746  1.0
  P  P5  1  -0.30697904  -0.32476200  -0.60133254  1.0
  O  O6  1  -0.73952070  -0.92703664  -0.60977027  1.0
  O  O7  1  -0.26047930  -0.07296336  -0.39022973  1.0
  O  O8  1  -0.83585435  -0.73752025  -0.27612023  1.0
  O  O9  1  -0.16414565  -0.26247975  -0.72387977  1.0
  O  O10  1  -1.00293132  -0.71634227  -0.96352910  1.0
  O  O11  1  0.00293132  -0.28365773  -0.03647090  1.0
  O  O12  1  -0.75163177  -0.42847487  -0.46551681  1.0
  O  O13  1  -0.24836823  -0.57152513  -0.53448319  1.0
  O  O14  1  -0.56638081  -0.39779079  -0.76881280  1.0
  O  O15  1  -0.43361919  -0.60220921  -0.23118720  1.0
