# generated using pymatgen
data_KH18OsN6(ClO2)4
_symmetry_space_group_name_H-M   'P 1'
_cell_length_a   10.17262972
_cell_length_b   10.17262972
_cell_length_c   10.17262972
_cell_angle_alpha   41.79481890
_cell_angle_beta   41.79481890
_cell_angle_gamma   41.79481890
_symmetry_Int_Tables_number   1
_chemical_formula_structural   KH18OsN6(ClO2)4
_chemical_formula_sum   'K1 H18 Os1 N6 Cl4 O8'
_cell_volume   422.78423664
_cell_formula_units_Z   1
loop_
 _symmetry_equiv_pos_site_id
 _symmetry_equiv_pos_as_xyz
  1  'x, y, z'
loop_
 _atom_site_type_symbol
 _atom_site_label
 _atom_site_symmetry_multiplicity
 _atom_site_fract_x
 _atom_site_fract_y
 _atom_site_fract_z
 _atom_site_occupancy
  K  K0  1  0.50000000  0.50000000  -0.50000000  1.0
  H  H1  1  0.43653160  -0.19023520  -0.17037194  1.0
  H  H2  1  0.80976480  -0.17037194  -0.56346840  1.0
  H  H3  1  0.82962806  -0.56346840  -0.19023520  1.0
  H  H4  1  0.56346840  0.19023520  0.17037194  1.0
  H  H5  1  1.19023520  0.17037194  -0.43653160  1.0
  H  H6  1  1.17037194  -0.43653160  0.19023520  1.0
  H  H7  1  0.35067582  -0.04000742  -0.08344947  1.0
  H  H8  1  0.95999258  -0.08344947  -0.64932418  1.0
  H  H9  1  0.91655053  -0.64932418  -0.04000742  1.0
  H  H10  1  0.64932418  0.04000742  0.08344947  1.0
  H  H11  1  1.04000742  0.08344947  -0.35067582  1.0
  H  H12  1  1.08344947  -0.35067582  0.04000742  1.0
  H  H13  1  0.34326137  -0.27901161  0.08917896  1.0
  H  H14  1  0.72098839  0.08917896  -0.65673863  1.0
  H  H15  1  1.08917896  -0.65673863  -0.27901161  1.0
  H  H16  1  0.65673863  0.27901161  -0.08917896  1.0
  H  H17  1  1.27901161  -0.08917896  -0.34326137  1.0
  H  H18  1  0.91082104  -0.34326137  0.27901161  1.0
  Os  Os19  1  0.00000000  0.00000000  0.00000000  1.0
  N  N20  1  0.31694728  -0.13918537  -0.04799008  1.0
  N  N21  1  0.86081463  -0.04799008  -0.68305272  1.0
  N  N22  1  0.95200992  -0.68305272  -0.13918537  1.0
  N  N23  1  0.68305272  0.13918537  0.04799008  1.0
  N  N24  1  1.13918537  0.04799008  -0.31694728  1.0
  N  N25  1  1.04799008  -0.31694728  0.13918537  1.0
  Cl  Cl26  1  0.62593272  0.62593272  -0.37406728  1.0
  Cl  Cl27  1  0.37406728  0.37406728  -0.62593272  1.0
  Cl  Cl28  1  0.81478788  -0.18521212  -0.18521212  1.0
  Cl  Cl29  1  0.18521212  0.18521212  0.18521212  1.0
  O  O30  1  0.86752991  -0.13247009  -0.13247009  1.0
  O  O31  1  0.13247009  0.13247009  0.13247009  1.0
  O  O32  1  1.01421375  -0.27988028  -0.34350648  1.0
  O  O33  1  0.72011972  -0.34350648  0.01421375  1.0
  O  O34  1  0.65649352  0.01421375  -0.27988028  1.0
  O  O35  1  0.98578625  0.27988028  -0.65649352  1.0
  O  O36  1  0.27988028  0.34350648  -0.01421375  1.0
  O  O37  1  0.34350648  0.98578625  -0.72011972  1.0
