# generated using pymatgen
data_Ca2Zr(SiO3)4
_symmetry_space_group_name_H-M   'P 1'
_cell_length_a   5.38509260
_cell_length_b   13.81102983
_cell_length_c   7.49786365
_cell_angle_alpha   90.00000000
_cell_angle_beta   109.03044606
_cell_angle_gamma   90.00000000
_symmetry_Int_Tables_number   1
_chemical_formula_structural   Ca2Zr(SiO3)4
_chemical_formula_sum   'Ca4 Zr2 Si8 O24'
_cell_volume   527.16590135
_cell_formula_units_Z   2
loop_
 _symmetry_equiv_pos_site_id
 _symmetry_equiv_pos_as_xyz
  1  'x, y, z'
loop_
 _atom_site_type_symbol
 _atom_site_label
 _atom_site_symmetry_multiplicity
 _atom_site_fract_x
 _atom_site_fract_y
 _atom_site_fract_z
 _atom_site_occupancy
  Ca  Ca0  1  0.83112081  0.25000000  0.68737968  1.0
  Ca  Ca1  1  0.16887919  0.75000000  0.31262032  1.0
  Ca  Ca2  1  0.00000000  0.50000000  0.00000000  1.0
  Ca  Ca3  1  0.00000000  0.00000000  0.00000000  1.0
  Zr  Zr4  1  0.00000000  0.50000000  0.50000000  1.0
  Zr  Zr5  1  0.00000000  0.00000000  0.50000000  1.0
  Si  Si6  1  0.56692930  0.86279142  0.68097309  1.0
  Si  Si7  1  0.56692930  0.63720858  0.68097309  1.0
  Si  Si8  1  0.43307070  0.36279142  0.31902691  1.0
  Si  Si9  1  0.43307070  0.13720858  0.31902691  1.0
  Si  Si10  1  0.42970112  0.36051888  0.88489414  1.0
  Si  Si11  1  0.42970112  0.13948112  0.88489414  1.0
  Si  Si12  1  0.57029888  0.86051888  0.11510586  1.0
  Si  Si13  1  0.57029888  0.63948112  0.11510586  1.0
  O  O14  1  0.79395088  0.93238125  0.65496077  1.0
  O  O15  1  0.79395088  0.56761875  0.65496077  1.0
  O  O16  1  0.20604912  0.43238125  0.34503923  1.0
  O  O17  1  0.20604912  0.06761875  0.34503923  1.0
  O  O18  1  0.73290840  0.38152238  0.45526045  1.0
  O  O19  1  0.73290840  0.11847762  0.45526045  1.0
  O  O20  1  0.26709160  0.88152238  0.54473955  1.0
  O  O21  1  0.26709160  0.61847762  0.54473955  1.0
  O  O22  1  0.72349426  0.36717967  0.87960551  1.0
  O  O23  1  0.72349426  0.13282033  0.87960551  1.0
  O  O24  1  0.27650574  0.86717967  0.12039449  1.0
  O  O25  1  0.27650574  0.63282033  0.12039449  1.0
  O  O26  1  0.60033461  0.87788576  0.90544953  1.0
  O  O27  1  0.60033461  0.62211424  0.90544953  1.0
  O  O28  1  0.39966539  0.37788576  0.09455047  1.0
  O  O29  1  0.39966539  0.12211424  0.09455047  1.0
  O  O30  1  0.21123454  0.43557244  0.75573769  1.0
  O  O31  1  0.21123454  0.06442756  0.75573769  1.0
  O  O32  1  0.78876546  0.93557244  0.24426231  1.0
  O  O33  1  0.78876546  0.56442756  0.24426231  1.0
  O  O34  1  0.36966168  0.25000000  0.36330366  1.0
  O  O35  1  0.63033832  0.75000000  0.63669634  1.0
  O  O36  1  0.30206612  0.25000000  0.81344022  1.0
  O  O37  1  0.69793388  0.75000000  0.18655978  1.0
