# generated using pymatgen
data_Hf(Te4Cl3)2
_symmetry_space_group_name_H-M   'P 1'
_cell_length_a   9.23321233
_cell_length_b   7.43959360
_cell_length_c   16.98614926
_cell_angle_alpha   76.28369661
_cell_angle_beta   73.30282359
_cell_angle_gamma   87.17184574
_symmetry_Int_Tables_number   1
_chemical_formula_structural   Hf(Te4Cl3)2
_chemical_formula_sum   'Hf2 Te16 Cl12'
_cell_volume   1085.51173574
_cell_formula_units_Z   2
loop_
 _symmetry_equiv_pos_site_id
 _symmetry_equiv_pos_as_xyz
  1  'x, y, z'
loop_
 _atom_site_type_symbol
 _atom_site_label
 _atom_site_symmetry_multiplicity
 _atom_site_fract_x
 _atom_site_fract_y
 _atom_site_fract_z
 _atom_site_occupancy
  Hf  Hf0  1  -0.50000000  -0.00000000  0.50000000  1.0
  Hf  Hf1  1  0.00000000  0.00000000  0.00000000  1.0
  Te  Te2  1  -0.23815900  -0.79267609  0.78771793  1.0
  Te  Te3  1  0.23815900  -0.20732391  0.21228207  1.0
  Te  Te4  1  -0.54387045  -0.71023491  0.83861887  1.0
  Te  Te5  1  0.54387045  -0.28976509  0.16138113  1.0
  Te  Te6  1  0.50686585  -0.66080334  0.24080931  1.0
  Te  Te7  1  -0.50686585  -0.33919666  0.75919069  1.0
  Te  Te8  1  -0.17799766  -0.65359963  0.61116451  1.0
  Te  Te9  1  0.17799766  -0.34640037  0.38883549  1.0
  Te  Te10  1  0.10898672  -0.53829896  0.60092840  1.0
  Te  Te11  1  -0.10898672  -0.46170104  0.39907160  1.0
  Te  Te12  1  -0.11318072  -0.45749467  0.83145522  1.0
  Te  Te13  1  0.11318072  -0.54250533  0.16854478  1.0
  Te  Te14  1  -0.38955079  -0.28589535  0.88462662  1.0
  Te  Te15  1  0.38955079  -0.71410465  0.11537338  1.0
  Te  Te16  1  -0.00074098  -0.23799004  0.67126046  1.0
  Te  Te17  1  0.00074098  -0.76200996  0.32873954  1.0
  Cl  Cl18  1  0.22872821  -0.92182104  0.52384396  1.0
  Cl  Cl19  1  -0.22872821  -0.07817896  0.47615604  1.0
  Cl  Cl20  1  -0.50023403  -0.92155410  0.63290039  1.0
  Cl  Cl21  1  0.50023403  -0.07844590  0.36709961  1.0
  Cl  Cl22  1  -0.24418363  -0.84540620  0.99456580  1.0
  Cl  Cl23  1  0.24418363  -0.15459380  0.00543420  1.0
  Cl  Cl24  1  -0.87556522  -0.69697302  0.97551171  1.0
  Cl  Cl25  1  0.87556522  -0.30302698  0.02448829  1.0
  Cl  Cl26  1  0.56763777  -0.67476669  0.42310891  1.0
  Cl  Cl27  1  -0.56763777  -0.32523331  0.57689109  1.0
  Cl  Cl28  1  0.07295499  0.02859074  0.84702167  1.0
  Cl  Cl29  1  -0.07295499  -1.02859074  0.15297833  1.0
