# generated using pymatgen
data_MgBi2F12
_symmetry_space_group_name_H-M   'P 1'
_cell_length_a   6.27535246
_cell_length_b   6.27535246
_cell_length_c   7.46292871
_cell_angle_alpha   90.00000000
_cell_angle_beta   90.00000000
_cell_angle_gamma   90.00000000
_symmetry_Int_Tables_number   1
_chemical_formula_structural   MgBi2F12
_chemical_formula_sum   'Mg1 Bi2 F12'
_cell_volume   293.89049464
_cell_formula_units_Z   1
loop_
 _symmetry_equiv_pos_site_id
 _symmetry_equiv_pos_as_xyz
  1  'x, y, z'
loop_
 _atom_site_type_symbol
 _atom_site_label
 _atom_site_symmetry_multiplicity
 _atom_site_fract_x
 _atom_site_fract_y
 _atom_site_fract_z
 _atom_site_occupancy
  Mg  Mg0  1  0.00000000  0.00000000  0.00000000  1.0
  Bi  Bi1  1  0.50000000  0.00000000  0.20289520  1.0
  Bi  Bi2  1  -0.00000000  0.50000000  0.79710480  1.0
  F  F3  1  0.20002952  0.76056943  0.81918472  1.0
  F  F4  1  0.76056943  0.79997048  0.18081528  1.0
  F  F5  1  0.79997048  0.23943057  0.81918472  1.0
  F  F6  1  0.23943057  0.20002952  0.18081528  1.0
  F  F7  1  0.23943057  0.79997048  0.18081528  1.0
  F  F8  1  0.79997048  0.76056943  0.81918472  1.0
  F  F9  1  0.76056943  0.20002952  0.18081528  1.0
  F  F10  1  0.20002952  0.23943057  0.81918472  1.0
  F  F11  1  0.50000000  0.00000000  -0.06527737  1.0
  F  F12  1  -0.00000000  0.50000000  1.06527737  1.0
  F  F13  1  0.50000000  0.00000000  0.47007691  1.0
  F  F14  1  -0.00000000  0.50000000  0.52992309  1.0
