# generated using pymatgen
data_Ca(BH4)2
_symmetry_space_group_name_H-M   'P 1'
_cell_length_a   7.75643432
_cell_length_b   7.75643432
_cell_length_c   7.75643432
_cell_angle_alpha   135.17036698
_cell_angle_beta   135.17036698
_cell_angle_gamma   65.26560267
_symmetry_Int_Tables_number   1
_chemical_formula_structural   Ca(BH4)2
_chemical_formula_sum   'Ca2 B4 H16'
_cell_volume   228.55343210
_cell_formula_units_Z   2
loop_
 _symmetry_equiv_pos_site_id
 _symmetry_equiv_pos_as_xyz
  1  'x, y, z'
loop_
 _atom_site_type_symbol
 _atom_site_label
 _atom_site_symmetry_multiplicity
 _atom_site_fract_x
 _atom_site_fract_y
 _atom_site_fract_z
 _atom_site_occupancy
  Ca  Ca0  1  0.75000000  0.25000000  0.50000000  1.0
  Ca  Ca1  1  1.00000000  1.00000000  1.00000000  1.0
  B  B2  1  0.97112300  0.47112300  0.50000000  1.0
  B  B3  1  0.77887700  0.77887700  1.00000000  1.0
  B  B4  1  1.22112300  1.22112300  1.00000000  1.0
  B  B5  1  0.52887700  1.02887700  0.50000000  1.0
  H  H6  1  1.13193592  1.39793294  1.47678617  1.0
  H  H7  1  0.82885322  0.85206706  0.23400297  1.0
  H  H8  1  0.40514975  1.17114678  1.02321383  1.0
  H  H9  1  0.60206706  1.07885322  0.73400297  1.0
  H  H10  1  1.61806408  1.59485025  1.76599703  1.0
  H  H11  1  0.92114678  0.65514975  0.52321383  1.0
  H  H12  1  1.34485025  0.86806408  1.26599703  1.0
  H  H13  1  1.14793294  0.38193592  0.97678617  1.0
  H  H14  1  1.26555467  1.31009617  1.23836147  1.0
  H  H15  1  0.67826530  0.93990383  0.45545850  1.0
  H  H16  1  0.77719320  1.32173470  1.26163853  1.0
  H  H17  1  0.68990383  0.92826530  0.95545850  1.0
  H  H18  1  1.48444533  1.22280680  1.54454150  1.0
  H  H19  1  1.07173470  1.02719320  0.76163853  1.0
  H  H20  1  0.97280680  0.73444533  1.04454150  1.0
  H  H21  1  1.06009617  0.51555467  0.73836147  1.0
