# generated using pymatgen
data_ZrGeO4
_symmetry_space_group_name_H-M   'P 1'
_cell_length_a   6.37460026
_cell_length_b   6.37460026
_cell_length_c   6.37460026
_cell_angle_alpha   134.70313243
_cell_angle_beta   134.70313243
_cell_angle_gamma   65.99181623
_symmetry_Int_Tables_number   1
_chemical_formula_structural   ZrGeO4
_chemical_formula_sum   'Zr2 Ge2 O8'
_cell_volume   128.86126993
_cell_formula_units_Z   2
loop_
 _symmetry_equiv_pos_site_id
 _symmetry_equiv_pos_as_xyz
  1  'x, y, z'
loop_
 _atom_site_type_symbol
 _atom_site_label
 _atom_site_symmetry_multiplicity
 _atom_site_fract_x
 _atom_site_fract_y
 _atom_site_fract_z
 _atom_site_occupancy
  Zr  Zr0  1  0.25000000  0.75000000  0.50000000  1.0
  Zr  Zr1  1  0.50000000  0.50000000  1.00000000  1.0
  Ge  Ge2  1  0.75000000  0.25000000  0.50000000  1.0
  Ge  Ge3  1  0.00000000  0.00000000  0.00000000  1.0
  O  O4  1  0.56379150  0.50581715  0.40653503  1.0
  O  O5  1  1.09928212  1.15725647  1.59346497  1.0
  O  O6  1  0.65071788  1.09274353  0.90653503  1.0
  O  O7  1  1.18620850  0.74418285  1.09346497  1.0
  O  O8  1  0.49418285  0.90071788  1.05797435  1.0
  O  O9  1  0.84274353  0.43620850  0.94202565  1.0
  O  O10  1  0.90725647  0.81379150  1.55797435  1.0
  O  O11  1  0.25581715  0.34928212  0.44202565  1.0
