# generated using pymatgen
data_BaSr2(GeO3)3
_symmetry_space_group_name_H-M   'P 1'
_cell_length_a   10.19348289
_cell_length_b   7.18634121
_cell_length_c   7.18441436
_cell_angle_alpha   76.95823701
_cell_angle_beta   70.03190575
_cell_angle_gamma   83.04291834
_symmetry_Int_Tables_number   1
_chemical_formula_structural   BaSr2(GeO3)3
_chemical_formula_sum   'Ba2 Sr4 Ge6 O18'
_cell_volume   481.32989868
_cell_formula_units_Z   2
loop_
 _symmetry_equiv_pos_site_id
 _symmetry_equiv_pos_as_xyz
  1  'x, y, z'
loop_
 _atom_site_type_symbol
 _atom_site_label
 _atom_site_symmetry_multiplicity
 _atom_site_fract_x
 _atom_site_fract_y
 _atom_site_fract_z
 _atom_site_occupancy
  Ba  Ba0  1  0.64820426  0.06834718  0.69625580  1.0
  Ba  Ba1  1  0.35179574  0.93165282  0.30374420  1.0
  Sr  Sr2  1  0.99685253  0.26643627  0.24413593  1.0
  Sr  Sr3  1  0.00314747  0.73356373  0.75586407  1.0
  Sr  Sr4  1  0.66900384  0.43243820  0.06669789  1.0
  Sr  Sr5  1  0.33099616  0.56756180  0.93330211  1.0
  Ge  Ge6  1  0.69814457  0.55861158  0.51830776  1.0
  Ge  Ge7  1  0.30185543  0.44138842  0.48169224  1.0
  Ge  Ge8  1  0.98412052  0.77080607  0.27710378  1.0
  Ge  Ge9  1  0.01587948  0.22919393  0.72289622  1.0
  Ge  Ge10  1  0.71584330  0.90352612  0.15393550  1.0
  Ge  Ge11  1  0.28415670  0.09647388  0.84606450  1.0
  O  O12  1  0.59172736  0.47499581  0.76393948  1.0
  O  O13  1  0.40827264  0.52500419  0.23606052  1.0
  O  O14  1  0.73881506  0.37933327  0.37492331  1.0
  O  O15  1  0.26118494  0.62066673  0.62507669  1.0
  O  O16  1  0.86020891  0.64746947  0.51442897  1.0
  O  O17  1  0.13979109  0.35253053  0.48557103  1.0
  O  O18  1  0.09217975  0.88277073  0.35411506  1.0
  O  O19  1  0.90782025  0.11722927  0.64588494  1.0
  O  O20  1  0.05607081  0.62428802  0.10125562  1.0
  O  O21  1  0.94392919  0.37571198  0.89874438  1.0
  O  O22  1  0.86883262  0.96758449  0.19521472  1.0
  O  O23  1  0.13116738  0.03241551  0.80478528  1.0
  O  O24  1  0.60689491  0.09924396  0.09935256  1.0
  O  O25  1  0.39310509  0.90075604  0.90064744  1.0
  O  O26  1  0.75289968  0.76431787  0.97062351  1.0
  O  O27  1  0.24710032  0.23568213  0.02937649  1.0
  O  O28  1  0.61515353  0.77389979  0.40450493  1.0
  O  O29  1  0.38484647  0.22610021  0.59549507  1.0
