# generated using pymatgen
data_Na12In4Ag
_symmetry_space_group_name_H-M   'P 1'
_cell_length_a   13.09185440
_cell_length_b   13.09185440
_cell_length_c   13.09185440
_cell_angle_alpha   60.00000000
_cell_angle_beta   60.00000000
_cell_angle_gamma   60.00000000
_symmetry_Int_Tables_number   1
_chemical_formula_structural   Na12In4Ag
_chemical_formula_sum   'Na24 In8 Ag2'
_cell_volume   1586.67691205
_cell_formula_units_Z   2
loop_
 _symmetry_equiv_pos_site_id
 _symmetry_equiv_pos_as_xyz
  1  'x, y, z'
loop_
 _atom_site_type_symbol
 _atom_site_label
 _atom_site_symmetry_multiplicity
 _atom_site_fract_x
 _atom_site_fract_y
 _atom_site_fract_z
 _atom_site_occupancy
  Na  Na0  1  0.95069734  -0.57936716  0.67797249  1.0
  Na  Na1  1  -0.04930266  0.67797249  0.42063284  1.0
  Na  Na2  1  -0.17063284  0.29930266  0.29930266  1.0
  Na  Na3  1  0.57202751  0.29930266  0.29930266  1.0
  Na  Na4  1  -0.57936716  0.95069734  0.67797249  1.0
  Na  Na5  1  0.95069734  -0.04930266  0.67797249  1.0
  Na  Na6  1  0.95069734  -0.32202751  0.95069734  1.0
  Na  Na7  1  -0.57936716  0.67797249  0.95069734  1.0
  Na  Na8  1  0.29930266  -0.17063284  0.29930266  1.0
  Na  Na9  1  0.29930266  0.29930266  -0.17063284  1.0
  Na  Na10  1  0.57202751  0.29930266  -0.17063284  1.0
  Na  Na11  1  0.57202751  -0.17063284  0.29930266  1.0
  Na  Na12  1  0.67797249  -0.04930266  0.95069734  1.0
  Na  Na13  1  -0.57936716  0.95069734  0.95069734  1.0
  Na  Na14  1  0.29930266  0.57202751  -0.17063284  1.0
  Na  Na15  1  0.29930266  -0.17063284  0.57202751  1.0
  Na  Na16  1  -0.32202751  0.95069734  0.42063284  1.0
  Na  Na17  1  0.67797249  -0.57936716  0.95069734  1.0
  Na  Na18  1  0.95069734  -0.57936716  0.95069734  1.0
  Na  Na19  1  -0.04930266  0.95069734  0.42063284  1.0
  Na  Na20  1  0.29930266  0.57202751  0.29930266  1.0
  Na  Na21  1  -0.17063284  0.57202751  0.29930266  1.0
  Na  Na22  1  -0.17063284  0.29930266  0.57202751  1.0
  Na  Na23  1  0.29930266  0.29930266  0.57202751  1.0
  In  In24  1  0.66747901  -0.33252099  0.99756297  1.0
  In  In25  1  0.66747901  -0.00243703  0.66747901  1.0
  In  In26  1  0.58252099  -0.41747901  0.58252099  1.0
  In  In27  1  1.25243703  -0.41747901  0.58252099  1.0
  In  In28  1  0.99756297  -0.33252099  0.66747901  1.0
  In  In29  1  0.66747901  -0.33252099  0.66747901  1.0
  In  In30  1  0.58252099  0.25243703  0.58252099  1.0
  In  In31  1  0.58252099  -0.41747901  1.25243703  1.0
  Ag  Ag32  1  0.50000000  0.50000000  -0.50000000  1.0
  Ag  Ag33  1  0.75000000  -0.25000000  0.75000000  1.0
