# generated using pymatgen
data_SrZrS3
_symmetry_space_group_name_H-M   'P 1'
_cell_length_a   8.64515096
_cell_length_b   3.83648366
_cell_length_c   13.99617380
_cell_angle_alpha   90.00000000
_cell_angle_beta   90.00000000
_cell_angle_gamma   90.00000000
_symmetry_Int_Tables_number   1
_chemical_formula_structural   SrZrS3
_chemical_formula_sum   'Sr4 Zr4 S12'
_cell_volume   464.21082205
_cell_formula_units_Z   4
loop_
 _symmetry_equiv_pos_site_id
 _symmetry_equiv_pos_as_xyz
  1  'x, y, z'
loop_
 _atom_site_type_symbol
 _atom_site_label
 _atom_site_symmetry_multiplicity
 _atom_site_fract_x
 _atom_site_fract_y
 _atom_site_fract_z
 _atom_site_occupancy
  Sr  Sr0  1  0.06244381  0.25000000  0.18055926  1.0
  Sr  Sr1  1  0.56244381  0.25000000  0.31944074  1.0
  Sr  Sr2  1  0.93755619  0.75000000  0.81944074  1.0
  Sr  Sr3  1  0.43755619  0.75000000  0.68055926  1.0
  Zr  Zr4  1  0.32683680  0.25000000  0.94418731  1.0
  Zr  Zr5  1  0.82683680  0.25000000  0.55581269  1.0
  Zr  Zr6  1  0.67316320  0.75000000  0.05581269  1.0
  Zr  Zr7  1  0.17316320  0.75000000  0.44418731  1.0
  S  S8  1  0.48714695  0.25000000  0.10534045  1.0
  S  S9  1  0.98714695  0.25000000  0.39465955  1.0
  S  S10  1  0.51285305  0.75000000  0.89465955  1.0
  S  S11  1  0.01285305  0.75000000  0.60534045  1.0
  S  S12  1  0.33661564  0.25000000  0.51584365  1.0
  S  S13  1  0.83661564  0.25000000  0.98415635  1.0
  S  S14  1  0.66338436  0.75000000  0.48415635  1.0
  S  S15  1  0.16338436  0.75000000  0.01584365  1.0
  S  S16  1  0.20832397  0.25000000  0.78445967  1.0
  S  S17  1  0.70832397  0.25000000  0.71554033  1.0
  S  S18  1  0.79167603  0.75000000  0.21554033  1.0
  S  S19  1  0.29167603  0.75000000  0.28445967  1.0
