# generated using pymatgen
data_Ba3GeO5
_symmetry_space_group_name_H-M   'P 1'
_cell_length_a   7.86677284
_cell_length_b   7.86677284
_cell_length_c   7.86677284
_cell_angle_alpha   123.82402888
_cell_angle_beta   123.82402888
_cell_angle_gamma   83.49510289
_symmetry_Int_Tables_number   1
_chemical_formula_structural   Ba3GeO5
_chemical_formula_sum   'Ba6 Ge2 O10'
_cell_volume   322.07806011
_cell_formula_units_Z   2
loop_
 _symmetry_equiv_pos_site_id
 _symmetry_equiv_pos_as_xyz
  1  'x, y, z'
loop_
 _atom_site_type_symbol
 _atom_site_label
 _atom_site_symmetry_multiplicity
 _atom_site_fract_x
 _atom_site_fract_y
 _atom_site_fract_z
 _atom_site_occupancy
  Ba  Ba0  1  0.81675697  0.31675697  1.13351394  1.0
  Ba  Ba1  1  0.68324303  0.81675697  1.50000000  1.0
  Ba  Ba2  1  0.31675697  0.18324303  0.50000000  1.0
  Ba  Ba3  1  0.18324303  0.68324303  0.86648606  1.0
  Ba  Ba4  1  0.75000000  0.75000000  1.00000000  1.0
  Ba  Ba5  1  0.25000000  0.25000000  0.00000000  1.0
  Ge  Ge6  1  0.25000000  0.75000000  0.50000000  1.0
  Ge  Ge7  1  0.75000000  0.25000000  0.50000000  1.0
  O  O8  1  1.20843731  0.70843731  1.23082037  1.0
  O  O9  1  0.52238305  1.02238305  1.23082037  1.0
  O  O10  1  0.97761695  1.20843731  1.50000000  1.0
  O  O11  1  0.29156269  0.52238305  0.50000000  1.0
  O  O12  1  0.70843731  0.47761695  0.50000000  1.0
  O  O13  1  1.02238305  0.79156269  1.50000000  1.0
  O  O14  1  0.47761695  0.97761695  0.76917963  1.0
  O  O15  1  0.79156269  0.29156269  0.76917963  1.0
  O  O16  1  0.00000000  0.00000000  0.00000000  1.0
  O  O17  1  0.50000000  0.50000000  1.00000000  1.0
