# generated using pymatgen
data_La2MnCoO6
_symmetry_space_group_name_H-M   'P 1'
_cell_length_a   5.46068065
_cell_length_b   5.46068065
_cell_length_c   5.46068065
_cell_angle_alpha   61.07345849
_cell_angle_beta   61.07345849
_cell_angle_gamma   61.07345849
_symmetry_Int_Tables_number   1
_chemical_formula_structural   La2MnCoO6
_chemical_formula_sum   'La2 Mn1 Co1 O6'
_cell_volume   117.92240161
_cell_formula_units_Z   1
loop_
 _symmetry_equiv_pos_site_id
 _symmetry_equiv_pos_as_xyz
  1  'x, y, z'
loop_
 _atom_site_type_symbol
 _atom_site_label
 _atom_site_symmetry_multiplicity
 _atom_site_fract_x
 _atom_site_fract_y
 _atom_site_fract_z
 _atom_site_occupancy
  La  La0  1  0.74999219  0.74999219  -0.25000781  1.0
  La  La1  1  1.25000781  1.25000781  0.25000781  1.0
  Mn  Mn2  1  0.00000000  0.00000000  0.00000000  1.0
  Co  Co3  1  0.50000000  0.50000000  -0.50000000  1.0
  O  O4  1  0.81569623  -0.30352529  0.24161006  1.0
  O  O5  1  0.30352529  0.75838994  -0.81569623  1.0
  O  O6  1  0.75838994  0.18430377  -0.69647471  1.0
  O  O7  1  0.18430377  0.30352529  -0.24161006  1.0
  O  O8  1  0.69647471  0.24161006  -0.18430377  1.0
  O  O9  1  1.24161006  -0.18430377  -0.30352529  1.0
