# generated using pymatgen
data_Zr5CuBi2
_symmetry_space_group_name_H-M   'P 1'
_cell_length_a   8.45105226
_cell_length_b   8.45105226
_cell_length_c   8.45105226
_cell_angle_alpha   96.18690900
_cell_angle_beta   96.18690900
_cell_angle_gamma   141.67035439
_symmetry_Int_Tables_number   1
_chemical_formula_structural   Zr5CuBi2
_chemical_formula_sum   'Zr10 Cu2 Bi4'
_cell_volume   353.58309740
_cell_formula_units_Z   2
loop_
 _symmetry_equiv_pos_site_id
 _symmetry_equiv_pos_as_xyz
  1  'x, y, z'
loop_
 _atom_site_type_symbol
 _atom_site_label
 _atom_site_symmetry_multiplicity
 _atom_site_fract_x
 _atom_site_fract_y
 _atom_site_fract_z
 _atom_site_occupancy
  Zr  Zr0  1  0.29195474  0.42689350  0.71884824  1.0
  Zr  Zr1  1  1.20804526  0.92689350  1.13493876  1.0
  Zr  Zr2  1  0.92689350  0.79195474  1.71884824  1.0
  Zr  Zr3  1  0.57310650  1.29195474  0.86506124  1.0
  Zr  Zr4  1  0.79195474  1.07310650  0.86506124  1.0
  Zr  Zr5  1  0.70804526  0.57310650  1.28115176  1.0
  Zr  Zr6  1  1.42689350  0.70804526  1.13493876  1.0
  Zr  Zr7  1  0.07310650  0.20804526  0.28115176  1.0
  Zr  Zr8  1  0.75000000  1.25000000  0.50000000  1.0
  Zr  Zr9  1  0.25000000  0.75000000  0.50000000  1.0
  Cu  Cu10  1  0.25000000  0.25000000  -0.00000000  1.0
  Cu  Cu11  1  0.75000000  0.75000000  -0.00000000  1.0
  Bi  Bi12  1  0.83476129  0.33476129  1.16952259  1.0
  Bi  Bi13  1  0.66523871  0.83476129  0.50000000  1.0
  Bi  Bi14  1  1.33476129  1.16523871  1.50000000  1.0
  Bi  Bi15  1  0.16523871  0.66523871  0.83047741  1.0
