# generated using pymatgen
data_Ti2Be17
_symmetry_space_group_name_H-M   'P 1'
_cell_length_a   5.54551888
_cell_length_b   5.54551888
_cell_length_c   5.54551888
_cell_angle_alpha   82.81412712
_cell_angle_beta   82.81412712
_cell_angle_gamma   82.81412712
_symmetry_Int_Tables_number   1
_chemical_formula_structural   Ti2Be17
_chemical_formula_sum   'Ti2 Be17'
_cell_volume   166.83087397
_cell_formula_units_Z   1
loop_
 _symmetry_equiv_pos_site_id
 _symmetry_equiv_pos_as_xyz
  1  'x, y, z'
loop_
 _atom_site_type_symbol
 _atom_site_label
 _atom_site_symmetry_multiplicity
 _atom_site_fract_x
 _atom_site_fract_y
 _atom_site_fract_z
 _atom_site_occupancy
  Ti  Ti0  1  0.66395778  0.66395778  -0.33604222  1.0
  Ti  Ti1  1  1.33604222  1.33604222  0.33604222  1.0
  Be  Be2  1  0.34642144  0.34642144  -0.15998555  1.0
  Be  Be3  1  0.34642144  0.84001445  -0.65357856  1.0
  Be  Be4  1  0.15998555  0.65357856  -0.34642144  1.0
  Be  Be5  1  0.65357856  0.15998555  -0.34642144  1.0
  Be  Be6  1  0.65357856  -0.34642144  0.15998555  1.0
  Be  Be7  1  0.84001445  0.34642144  -0.65357856  1.0
  Be  Be8  1  0.70485000  0.00000000  0.29515000  1.0
  Be  Be9  1  0.70485000  -0.70485000  0.00000000  1.0
  Be  Be10  1  0.00000000  0.70485000  -0.70485000  1.0
  Be  Be11  1  0.00000000  0.29515000  -0.29515000  1.0
  Be  Be12  1  1.29515000  0.00000000  -0.29515000  1.0
  Be  Be13  1  0.29515000  -0.29515000  0.00000000  1.0
  Be  Be14  1  1.00000000  1.50000000  0.00000000  1.0
  Be  Be15  1  1.00000000  0.00000000  -0.50000000  1.0
  Be  Be16  1  0.50000000  0.00000000  0.00000000  1.0
  Be  Be17  1  0.90131129  0.90131129  -0.09868871  1.0
  Be  Be18  1  1.09868871  1.09868871  0.09868871  1.0
