# generated using pymatgen
data_Zr3(MnGa3)2
_symmetry_space_group_name_H-M   'P 1'
_cell_length_a   5.42154921
_cell_length_b   8.77687929
_cell_length_c   7.73800251
_cell_angle_alpha   90.00000000
_cell_angle_beta   90.00000000
_cell_angle_gamma   90.00000000
_symmetry_Int_Tables_number   1
_chemical_formula_structural   Zr3(MnGa3)2
_chemical_formula_sum   'Zr6 Mn4 Ga12'
_cell_volume   368.20730076
_cell_formula_units_Z   2
loop_
 _symmetry_equiv_pos_site_id
 _symmetry_equiv_pos_as_xyz
  1  'x, y, z'
loop_
 _atom_site_type_symbol
 _atom_site_label
 _atom_site_symmetry_multiplicity
 _atom_site_fract_x
 _atom_site_fract_y
 _atom_site_fract_z
 _atom_site_occupancy
  Zr  Zr0  1  0.50000000  0.77946700  0.15238003  1.0
  Zr  Zr1  1  0.50000000  0.22053300  0.15238003  1.0
  Zr  Zr2  1  0.00000000  0.72053300  0.84761997  1.0
  Zr  Zr3  1  0.00000000  0.27946700  0.84761997  1.0
  Zr  Zr4  1  0.50000000  0.50000000  0.72170434  1.0
  Zr  Zr5  1  0.00000000  0.00000000  0.27829566  1.0
  Mn  Mn6  1  0.25000000  0.25000000  0.50000000  1.0
  Mn  Mn7  1  0.25000000  0.75000000  0.50000000  1.0
  Mn  Mn8  1  0.75000000  0.25000000  0.50000000  1.0
  Mn  Mn9  1  0.75000000  0.75000000  0.50000000  1.0
  Ga  Ga10  1  0.50000000  0.18678791  0.76340316  1.0
  Ga  Ga11  1  0.50000000  0.81321209  0.76340316  1.0
  Ga  Ga12  1  0.00000000  0.31321209  0.23659684  1.0
  Ga  Ga13  1  0.00000000  0.68678791  0.23659684  1.0
  Ga  Ga14  1  0.50000000  0.50000000  0.36914071  1.0
  Ga  Ga15  1  0.00000000  0.00000000  0.63085929  1.0
  Ga  Ga16  1  0.00000000  0.50000000  0.56506167  1.0
  Ga  Ga17  1  0.50000000  0.00000000  0.43493833  1.0
  Ga  Ga18  1  0.25938845  0.50000000  0.04324199  1.0
  Ga  Ga19  1  0.74061155  0.50000000  0.04324199  1.0
  Ga  Ga20  1  0.24061155  0.00000000  0.95675801  1.0
  Ga  Ga21  1  0.75938845  0.00000000  0.95675801  1.0
