# generated using pymatgen
data_Gd2Zr2O7
_symmetry_space_group_name_H-M   'P 1'
_cell_length_a   7.43186268
_cell_length_b   7.43186268
_cell_length_c   7.43186268
_cell_angle_alpha   60.00000000
_cell_angle_beta   60.00000000
_cell_angle_gamma   60.00000000
_symmetry_Int_Tables_number   1
_chemical_formula_structural   Gd2Zr2O7
_chemical_formula_sum   'Gd4 Zr4 O14'
_cell_volume   290.25387825
_cell_formula_units_Z   2
loop_
 _symmetry_equiv_pos_site_id
 _symmetry_equiv_pos_as_xyz
  1  'x, y, z'
loop_
 _atom_site_type_symbol
 _atom_site_label
 _atom_site_symmetry_multiplicity
 _atom_site_fract_x
 _atom_site_fract_y
 _atom_site_fract_z
 _atom_site_occupancy
  Gd  Gd0  1  0.62500000  1.12500000  0.12500000  1.0
  Gd  Gd1  1  0.12500000  1.62500000  0.12500000  1.0
  Gd  Gd2  1  0.12500000  0.12500000  1.62500000  1.0
  Gd  Gd3  1  0.12500000  0.12500000  0.12500000  1.0
  O  O4  1  0.74741389  0.74741389  -0.74741389  1.0
  O  O5  1  0.25258611  1.25258611  -0.25258611  1.0
  O  O6  1  0.74741389  -0.74741389  0.74741389  1.0
  O  O7  1  0.25258611  -0.25258611  0.25258611  1.0
  O  O8  1  -0.74741389  0.74741389  0.74741389  1.0
  O  O9  1  -0.25258611  0.25258611  0.25258611  1.0
  O  O10  1  -0.49741389  0.50258611  0.99741389  1.0
  O  O11  1  0.99741389  0.99741389  -0.49741389  1.0
  O  O12  1  0.50258611  0.99741389  0.50258611  1.0
  O  O13  1  0.99741389  0.50258611  0.99741389  1.0
  O  O14  1  0.99741389  0.50258611  -0.49741389  1.0
  O  O15  1  0.50258611  0.99741389  -0.00258611  1.0
  O  O16  1  0.50000000  -0.50000000  0.50000000  1.0
  O  O17  1  0.75000000  0.75000000  0.75000000  1.0
  Zr  Zr18  1  1.12500000  0.62500000  0.62500000  1.0
  Zr  Zr19  1  0.62500000  1.12500000  -0.37500000  1.0
  Zr  Zr20  1  -0.37500000  0.62500000  1.12500000  1.0
  Zr  Zr21  1  -0.37500000  0.62500000  0.62500000  1.0
