# generated using pymatgen
data_LiYF4
_symmetry_space_group_name_H-M   'P 1'
_cell_length_a   6.55174440
_cell_length_b   6.55174440
_cell_length_c   5.22697512
_cell_angle_alpha   66.50723559
_cell_angle_beta   113.49276441
_cell_angle_gamma   68.66154083
_symmetry_Int_Tables_number   1
_chemical_formula_structural   LiYF4
_chemical_formula_sum   'Li2 Y2 F8'
_cell_volume   147.83409996
_cell_formula_units_Z   2
loop_
 _symmetry_equiv_pos_site_id
 _symmetry_equiv_pos_as_xyz
  1  'x, y, z'
loop_
 _atom_site_type_symbol
 _atom_site_label
 _atom_site_symmetry_multiplicity
 _atom_site_fract_x
 _atom_site_fract_y
 _atom_site_fract_z
 _atom_site_occupancy
  Li  Li0  1  0.87506417  0.87506417  0.75000000  1.0
  Li  Li1  1  1.12493583  0.12493583  0.25000000  1.0
  Y  Y2  1  1.37499457  0.37499457  0.75000000  1.0
  Y  Y3  1  0.62500543  0.62500543  0.25000000  1.0
  F  F4  1  1.62908357  -0.04010781  0.86713994  1.0
  F  F5  1  1.04010781  0.37091643  0.36713994  1.0
  F  F6  1  0.95989219  0.62908357  0.63286006  1.0
  F  F7  1  1.37091643  0.04010781  0.13286006  1.0
  F  F8  1  1.32705379  -0.23808276  0.69817557  1.0
  F  F9  1  1.23808276  0.67294621  0.19817557  1.0
  F  F10  1  0.76191724  0.32705379  0.80182443  1.0
  F  F11  1  1.67294621  0.23808276  0.30182443  1.0
