# generated using pymatgen
data_Rb2ScSi4O10F
_symmetry_space_group_name_H-M   'P 1'
_cell_length_a   9.10796893
_cell_length_b   9.10796893
_cell_length_c   9.10796893
_cell_angle_alpha   102.41217466
_cell_angle_beta   102.41217466
_cell_angle_gamma   124.75819616
_symmetry_Int_Tables_number   1
_chemical_formula_structural   Rb2ScSi4O10F
_chemical_formula_sum   'Rb4 Sc2 Si8 O20 F2'
_cell_volume   549.99329266
_cell_formula_units_Z   2
loop_
 _symmetry_equiv_pos_site_id
 _symmetry_equiv_pos_as_xyz
  1  'x, y, z'
loop_
 _atom_site_type_symbol
 _atom_site_label
 _atom_site_symmetry_multiplicity
 _atom_site_fract_x
 _atom_site_fract_y
 _atom_site_fract_z
 _atom_site_occupancy
  Rb  Rb0  1  0.81343394  0.80965220  0.62308614  1.0
  Rb  Rb1  1  0.80965220  0.18656606  0.99621826  1.0
  Rb  Rb2  1  1.18656606  1.19034780  1.37691386  1.0
  Rb  Rb3  1  0.19034780  0.81343394  1.00378174  1.0
  Sc  Sc4  1  0.25853383  0.25853383  -0.00000000  1.0
  Sc  Sc5  1  0.74146617  0.74146617  -0.00000000  1.0
  Si  Si6  1  1.31862992  0.99645436  0.69457396  1.0
  Si  Si7  1  0.69811960  0.37594405  0.69457396  1.0
  Si  Si8  1  0.99645436  1.30188040  1.67782444  1.0
  Si  Si9  1  1.37594405  1.68137008  1.67782444  1.0
  Si  Si10  1  1.30188040  1.62405595  1.30542604  1.0
  Si  Si11  1  0.68137008  1.00354564  1.30542604  1.0
  Si  Si12  1  0.62405595  0.31862992  0.32217556  1.0
  Si  Si13  1  1.00354564  0.69811960  0.32217556  1.0
  O  O14  1  0.82169287  0.54035461  0.36204748  1.0
  O  O15  1  0.54035461  0.17830713  0.71866174  1.0
  O  O16  1  1.17830713  1.45964539  1.63795252  1.0
  O  O17  1  0.45964539  0.82169287  1.28133826  1.0
  O  O18  1  0.83360753  1.10200565  1.50095967  1.0
  O  O19  1  1.39895402  1.66735214  1.50095967  1.0
  O  O20  1  1.10200565  1.60104598  1.26839812  1.0
  O  O21  1  0.66735214  1.16639247  1.26839812  1.0
  O  O22  1  0.60104598  0.33264786  0.49904033  1.0
  O  O23  1  1.16639247  0.89799435  0.49904033  1.0
  O  O24  1  1.33264786  0.83360753  0.73160188  1.0
  O  O25  1  0.89799435  0.39895402  0.73160188  1.0
  O  O26  1  1.24358578  1.05986912  0.81691643  1.0
  O  O27  1  0.75704731  0.57333065  0.81691643  1.0
  O  O28  1  1.05986912  1.24295269  1.81628334  1.0
  O  O29  1  1.57333065  1.75641422  1.81628334  1.0
  O  O30  1  1.24295269  1.42666935  1.18308357  1.0
  O  O31  1  0.75641422  0.94013088  1.18308357  1.0
  O  O32  1  0.42666935  0.24358578  0.18371666  1.0
  O  O33  1  0.94013088  0.75704731  0.18371666  1.0
  F  F34  1  0.50000000  0.50000000  0.00000000  1.0
  F  F35  1  0.00000000  0.00000000  0.00000000  1.0
