# generated using pymatgen
data_RbBi(MoO4)2
_symmetry_space_group_name_H-M   'P 1'
_cell_length_a   5.21403612
_cell_length_b   19.46650027
_cell_length_c   8.43503069
_cell_angle_alpha   90.00000000
_cell_angle_beta   90.00000000
_cell_angle_gamma   90.00000000
_symmetry_Int_Tables_number   1
_chemical_formula_structural   RbBi(MoO4)2
_chemical_formula_sum   'Rb4 Bi4 Mo8 O32'
_cell_volume   856.14747983
_cell_formula_units_Z   4
loop_
 _symmetry_equiv_pos_site_id
 _symmetry_equiv_pos_as_xyz
  1  'x, y, z'
loop_
 _atom_site_type_symbol
 _atom_site_label
 _atom_site_symmetry_multiplicity
 _atom_site_fract_x
 _atom_site_fract_y
 _atom_site_fract_z
 _atom_site_occupancy
  Rb  Rb0  1  0.50000000  0.72715028  0.25000000  1.0
  Rb  Rb1  1  0.50000000  0.27284972  0.75000000  1.0
  Rb  Rb2  1  0.00000000  0.22715028  0.25000000  1.0
  Rb  Rb3  1  0.00000000  0.77284972  0.75000000  1.0
  Bi  Bi4  1  0.50000000  0.49562154  0.25000000  1.0
  Bi  Bi5  1  0.50000000  0.50437846  0.75000000  1.0
  Bi  Bi6  1  0.00000000  0.99562154  0.25000000  1.0
  Bi  Bi7  1  0.00000000  0.00437846  0.75000000  1.0
  Mo  Mo8  1  0.47410264  0.09884195  0.01004670  1.0
  Mo  Mo9  1  0.47410264  0.90115805  0.51004670  1.0
  Mo  Mo10  1  0.97410264  0.59884195  0.48995330  1.0
  Mo  Mo11  1  0.97410264  0.40115805  0.98995330  1.0
  Mo  Mo12  1  0.52589736  0.09884195  0.48995330  1.0
  Mo  Mo13  1  0.52589736  0.90115805  0.98995330  1.0
  Mo  Mo14  1  0.02589736  0.59884195  0.01004670  1.0
  Mo  Mo15  1  0.02589736  0.40115805  0.51004670  1.0
  O  O16  1  0.40751391  0.18227010  0.48103750  1.0
  O  O17  1  0.40751391  0.81772990  0.98103750  1.0
  O  O18  1  0.90751391  0.68227010  0.01896250  1.0
  O  O19  1  0.90751391  0.31772990  0.51896250  1.0
  O  O20  1  0.59248609  0.18227010  0.01896250  1.0
  O  O21  1  0.59248609  0.81772990  0.51896250  1.0
  O  O22  1  0.09248609  0.68227010  0.48103750  1.0
  O  O23  1  0.09248609  0.31772990  0.98103750  1.0
  O  O24  1  0.26251960  0.08927890  0.17729705  1.0
  O  O25  1  0.26251960  0.91072110  0.67729705  1.0
  O  O26  1  0.76251960  0.58927890  0.32270295  1.0
  O  O27  1  0.76251960  0.41072110  0.82270295  1.0
  O  O28  1  0.73748040  0.08927890  0.32270295  1.0
  O  O29  1  0.73748040  0.91072110  0.82270295  1.0
  O  O30  1  0.23748040  0.58927890  0.17729705  1.0
  O  O31  1  0.23748040  0.41072110  0.67729705  1.0
  O  O32  1  0.24338597  0.46206496  0.00036683  1.0
  O  O33  1  0.24338597  0.53793504  0.50036683  1.0
  O  O34  1  0.74338597  0.96206496  0.49963317  1.0
  O  O35  1  0.74338597  0.03793504  0.99963317  1.0
  O  O36  1  0.75661403  0.46206496  0.49963317  1.0
  O  O37  1  0.75661403  0.53793504  0.99963317  1.0
  O  O38  1  0.25661403  0.96206496  0.00036683  1.0
  O  O39  1  0.25661403  0.03793504  0.50036683  1.0
  O  O40  1  0.22546925  0.40486779  0.33883080  1.0
  O  O41  1  0.22546925  0.59513221  0.83883080  1.0
  O  O42  1  0.72546925  0.90486779  0.16116920  1.0
  O  O43  1  0.72546925  0.09513221  0.66116920  1.0
  O  O44  1  0.77453075  0.40486779  0.16116920  1.0
  O  O45  1  0.77453075  0.59513221  0.66116920  1.0
  O  O46  1  0.27453075  0.90486779  0.33883080  1.0
  O  O47  1  0.27453075  0.09513221  0.83883080  1.0
