# generated using pymatgen
data_Na2ZnB6O11
_symmetry_space_group_name_H-M   'P 1'
_cell_length_a   6.60352560
_cell_length_b   6.60352560
_cell_length_c   11.57037415
_cell_angle_alpha   72.42760902
_cell_angle_beta   107.57239098
_cell_angle_gamma   110.81927366
_symmetry_Int_Tables_number   1
_chemical_formula_structural   Na2ZnB6O11
_chemical_formula_sum   'Na4 Zn2 B12 O22'
_cell_volume   438.74134498
_cell_formula_units_Z   2
loop_
 _symmetry_equiv_pos_site_id
 _symmetry_equiv_pos_as_xyz
  1  'x, y, z'
loop_
 _atom_site_type_symbol
 _atom_site_label
 _atom_site_symmetry_multiplicity
 _atom_site_fract_x
 _atom_site_fract_y
 _atom_site_fract_z
 _atom_site_occupancy
  Na  Na0  1  1.24648285  -0.06566638  0.21595452  1.0
  Na  Na1  1  1.06566638  -0.24648285  0.71595452  1.0
  Na  Na2  1  1.35476160  0.46437417  0.28936398  1.0
  Na  Na3  1  1.53562583  -0.35476160  0.78936398  1.0
  Zn  Zn4  1  1.67459233  0.07321120  0.00269767  1.0
  Zn  Zn5  1  0.92678880  -0.67459233  0.50269767  1.0
  B  B6  1  1.70660045  -0.13055774  0.48714936  1.0
  B  B7  1  1.13055774  -0.70660045  0.98714936  1.0
  B  B8  1  1.69521415  -0.09377499  0.26454569  1.0
  B  B9  1  1.09377499  -0.69521415  0.76454569  1.0
  B  B10  1  1.50755086  0.09405257  0.74076170  1.0
  B  B11  1  0.90594743  -0.50755086  0.24076170  1.0
  B  B12  1  0.89459690  -0.47062955  0.01814577  1.0
  B  B13  1  1.47062955  0.10540310  0.51814577  1.0
  B  B14  1  1.54519540  0.41596258  0.09852099  1.0
  B  B15  1  0.58403742  0.45480460  0.59852099  1.0
  B  B16  1  1.05598970  -0.01719390  0.40674820  1.0
  B  B17  1  1.01719390  -0.05598970  0.90674820  1.0
  O  O18  1  0.56962079  0.32720035  0.71848493  1.0
  O  O19  1  0.67279965  -0.56962079  0.21848493  1.0
  O  O20  1  0.95550017  0.93935803  0.50262952  1.0
  O  O21  1  0.06064197  0.04449983  0.00262952  1.0
  O  O22  1  1.92836241  -0.03172714  0.28679749  1.0
  O  O23  1  1.03172714  0.07163759  0.78679749  1.0
  O  O24  1  1.59150549  -0.17793995  0.36381940  1.0
  O  O25  1  1.17793995  -0.59150549  0.86381940  1.0
  O  O26  1  1.56639530  -0.07804510  0.14908595  1.0
  O  O27  1  1.07804510  -0.56639530  0.64908595  1.0
  O  O28  1  1.66477678  0.06357460  0.50265947  1.0
  O  O29  1  0.93642540  0.33522322  1.00265947  1.0
  O  O30  1  1.52335108  -0.03472744  0.85622661  1.0
  O  O31  1  1.03472744  0.47664892  0.35622661  1.0
  O  O32  1  1.00968213  0.57670977  0.14149018  1.0
  O  O33  1  1.42329023  -0.00968213  0.64149018  1.0
  O  O34  1  1.27970046  0.04827140  0.41550930  1.0
  O  O35  1  0.95172860  0.72029954  0.91550930  1.0
  O  O36  1  1.54046649  0.35429686  0.50263269  1.0
  O  O37  1  0.64570314  0.45953351  1.00263269  1.0
  O  O38  1  1.32149063  0.35048664  0.08977660  1.0
  O  O39  1  1.64951336  -0.32149063  0.58977660  1.0
