# generated using pymatgen
data_Ba3AlP3
_symmetry_space_group_name_H-M   'P 1'
_cell_length_a   10.31648989
_cell_length_b   10.31648989
_cell_length_c   13.06290480
_cell_angle_alpha   90.00000000
_cell_angle_beta   90.00000000
_cell_angle_gamma   38.42619095
_symmetry_Int_Tables_number   1
_chemical_formula_structural   Ba3AlP3
_chemical_formula_sum   'Ba12 Al4 P12'
_cell_volume   864.07008691
_cell_formula_units_Z   4
loop_
 _symmetry_equiv_pos_site_id
 _symmetry_equiv_pos_as_xyz
  1  'x, y, z'
loop_
 _atom_site_type_symbol
 _atom_site_label
 _atom_site_symmetry_multiplicity
 _atom_site_fract_x
 _atom_site_fract_y
 _atom_site_fract_z
 _atom_site_occupancy
  Ba  Ba0  1  -0.33697049  0.33697049  0.84553198  1.0
  Ba  Ba1  1  -0.66302951  0.66302951  0.15446802  1.0
  Ba  Ba2  1  -0.16302951  0.16302951  0.34553198  1.0
  Ba  Ba3  1  -0.83697049  0.83697049  0.65446802  1.0
  Ba  Ba4  1  -0.36271349  1.01031485  0.63003549  1.0
  Ba  Ba5  1  0.01031485  0.63728651  0.36996451  1.0
  Ba  Ba6  1  -0.48968515  1.13728651  0.13003549  1.0
  Ba  Ba7  1  0.13728651  0.51031485  0.86996451  1.0
  Ba  Ba8  1  -0.63728651  0.98968515  0.36996451  1.0
  Ba  Ba9  1  -0.01031485  0.36271349  0.63003549  1.0
  Ba  Ba10  1  -0.51031485  0.86271349  0.86996451  1.0
  Ba  Ba11  1  -0.13728651  0.48968515  0.13003549  1.0
  Al  Al12  1  0.41820427  0.41820427  0.50000000  1.0
  Al  Al13  1  -0.08179573  0.91820427  0.00000000  1.0
  Al  Al14  1  -0.41820427  0.58179573  0.50000000  1.0
  Al  Al15  1  0.08179573  0.08179573  0.00000000  1.0
  P  P16  1  -0.29864966  0.29864966  0.59311645  1.0
  P  P17  1  -0.70135034  0.70135034  0.40688355  1.0
  P  P18  1  -0.20135034  0.20135034  0.09311645  1.0
  P  P19  1  -0.79864966  0.79864966  0.90688355  1.0
  P  P20  1  -0.53219832  0.84237869  0.61661341  1.0
  P  P21  1  -0.15762131  0.46780168  0.38338659  1.0
  P  P22  1  -0.65762131  0.96780168  0.11661341  1.0
  P  P23  1  -0.03219832  0.34237869  0.88338659  1.0
  P  P24  1  -0.46780168  1.15762131  0.38338659  1.0
  P  P25  1  0.15762131  0.53219832  0.61661341  1.0
  P  P26  1  -0.34237869  1.03219832  0.88338659  1.0
  P  P27  1  0.03219832  0.65762131  0.11661341  1.0
