# generated using pymatgen
data_SnP7Au3
_symmetry_space_group_name_H-M   'P 1'
_cell_length_a   6.37910008
_cell_length_b   11.13008412
_cell_length_c   6.51334867
_cell_angle_alpha   90.00000000
_cell_angle_beta   108.81974751
_cell_angle_gamma   90.00000000
_symmetry_Int_Tables_number   1
_chemical_formula_structural   SnP7Au3
_chemical_formula_sum   'Sn2 P14 Au6'
_cell_volume   437.72394457
_cell_formula_units_Z   2
loop_
 _symmetry_equiv_pos_site_id
 _symmetry_equiv_pos_as_xyz
  1  'x, y, z'
loop_
 _atom_site_type_symbol
 _atom_site_label
 _atom_site_symmetry_multiplicity
 _atom_site_fract_x
 _atom_site_fract_y
 _atom_site_fract_z
 _atom_site_occupancy
  Sn  Sn0  1  0.31089802  0.25000000  0.54051155  1.0
  Sn  Sn1  1  0.68910198  0.75000000  0.45948845  1.0
  P  P2  1  0.83500402  0.42179858  0.66542959  1.0
  P  P3  1  0.83500402  0.07820142  0.66542959  1.0
  P  P4  1  0.16499598  0.92179858  0.33457041  1.0
  P  P5  1  0.16499598  0.57820142  0.33457041  1.0
  P  P6  1  0.71921946  0.40778144  0.30446162  1.0
  P  P7  1  0.71921946  0.09221856  0.30446162  1.0
  P  P8  1  0.28078054  0.90778144  0.69553838  1.0
  P  P9  1  0.28078054  0.59221856  0.69553838  1.0
  P  P10  1  0.20083908  0.41175277  0.79095471  1.0
  P  P11  1  0.20083908  0.08824723  0.79095471  1.0
  P  P12  1  0.79916092  0.91175277  0.20904529  1.0
  P  P13  1  0.79916092  0.58824723  0.20904529  1.0
  P  P14  1  0.73854296  0.25000000  0.78498774  1.0
  P  P15  1  0.26145704  0.75000000  0.21501226  1.0
  Au  Au16  1  0.68504046  0.90186936  0.81294744  1.0
  Au  Au17  1  0.68504046  0.59813064  0.81294744  1.0
  Au  Au18  1  0.31495954  0.40186936  0.18705256  1.0
  Au  Au19  1  0.31495954  0.09813064  0.18705256  1.0
  Au  Au20  1  0.92690487  0.25000000  0.18170139  1.0
  Au  Au21  1  0.07309513  0.75000000  0.81829861  1.0
