# generated using pymatgen
data_SrMoO4
_symmetry_space_group_name_H-M   'P 1'
_cell_length_a   7.21583880
_cell_length_b   7.21583880
_cell_length_c   5.45987784
_cell_angle_alpha   67.77268581
_cell_angle_beta   112.22731419
_cell_angle_gamma   64.68943528
_symmetry_Int_Tables_number   1
_chemical_formula_structural   SrMoO4
_chemical_formula_sum   'Sr2 Mo2 O8'
_cell_volume   181.73743969
_cell_formula_units_Z   2
loop_
 _symmetry_equiv_pos_site_id
 _symmetry_equiv_pos_as_xyz
  1  'x, y, z'
loop_
 _atom_site_type_symbol
 _atom_site_label
 _atom_site_symmetry_multiplicity
 _atom_site_fract_x
 _atom_site_fract_y
 _atom_site_fract_z
 _atom_site_occupancy
  Sr  Sr0  1  1.37500455  0.37500455  0.75000000  1.0
  Sr  Sr1  1  0.62499545  0.62499545  0.25000000  1.0
  Mo  Mo2  1  0.87502295  0.87502295  0.75000000  1.0
  Mo  Mo3  1  1.12497705  0.12497705  0.25000000  1.0
  O  O4  1  1.66047252  -0.07196499  0.85413290  1.0
  O  O5  1  1.07196499  0.33952748  0.35413290  1.0
  O  O6  1  0.92803501  0.66047252  0.64586710  1.0
  O  O7  1  1.33952748  0.07196499  0.14586710  1.0
  O  O8  1  1.28218603  -0.19371015  0.62174939  1.0
  O  O9  1  1.19371015  0.71781397  0.12174939  1.0
  O  O10  1  0.80628985  0.28218603  0.87825061  1.0
  O  O11  1  1.71781397  0.19371015  0.37825061  1.0
