# generated using pymatgen
data_La3MnAlS7
_symmetry_space_group_name_H-M   'P 1'
_cell_length_a   10.22727765
_cell_length_b   10.22727765
_cell_length_c   6.15972928
_cell_angle_alpha   90.00000000
_cell_angle_beta   90.00000000
_cell_angle_gamma   120.00000000
_symmetry_Int_Tables_number   1
_chemical_formula_structural   La3MnAlS7
_chemical_formula_sum   'La6 Mn2 Al2 S14'
_cell_volume   557.97192856
_cell_formula_units_Z   2
loop_
 _symmetry_equiv_pos_site_id
 _symmetry_equiv_pos_as_xyz
  1  'x, y, z'
loop_
 _atom_site_type_symbol
 _atom_site_label
 _atom_site_symmetry_multiplicity
 _atom_site_fract_x
 _atom_site_fract_y
 _atom_site_fract_z
 _atom_site_occupancy
  La  La0  1  0.76543769  0.62450253  0.22105522  1.0
  La  La1  1  0.62450253  0.85906483  0.72105522  1.0
  La  La2  1  0.85906483  0.23456231  0.22105522  1.0
  La  La3  1  0.37549747  0.14093517  0.22105522  1.0
  La  La4  1  0.23456231  0.37549747  0.72105522  1.0
  La  La5  1  0.14093517  0.76543769  0.72105522  1.0
  Mn  Mn6  1  0.00000000  0.00000000  0.00537599  1.0
  Mn  Mn7  1  0.00000000  0.00000000  0.50537599  1.0
  Al  Al8  1  0.33333333  0.66666667  0.14183932  1.0
  Al  Al9  1  0.66666667  0.33333333  0.64183932  1.0
  S  S10  1  0.41776684  0.89848920  -0.00510375  1.0
  S  S11  1  0.89848920  0.48072236  0.49489625  1.0
  S  S12  1  0.48072236  0.58223316  -0.00510375  1.0
  S  S13  1  0.10151080  0.51927764  -0.00510375  1.0
  S  S14  1  0.58223316  0.10151080  0.49489625  1.0
  S  S15  1  0.51927764  0.41776684  0.49489625  1.0
  S  S16  1  0.08991614  0.85609236  0.27689052  1.0
  S  S17  1  0.85609236  0.76617622  0.77689052  1.0
  S  S18  1  0.76617622  0.91008386  0.27689052  1.0
  S  S19  1  0.14390764  0.23382378  0.27689052  1.0
  S  S20  1  0.91008386  0.14390764  0.77689052  1.0
  S  S21  1  0.23382378  0.08991614  0.77689052  1.0
  S  S22  1  0.33333333  0.66666667  0.50525873  1.0
  S  S23  1  0.66666667  0.33333333  0.00525873  1.0
