# generated using pymatgen
data_RuC4(O2F3)2
_symmetry_space_group_name_H-M   'P 1'
_cell_length_a   9.31115191
_cell_length_b   5.38433208
_cell_length_c   9.56025866
_cell_angle_alpha   83.99193602
_cell_angle_beta   84.13167917
_cell_angle_gamma   88.64364731
_symmetry_Int_Tables_number   1
_chemical_formula_structural   RuC4(O2F3)2
_chemical_formula_sum   'Ru2 C8 O8 F12'
_cell_volume   474.12579791
_cell_formula_units_Z   2
loop_
 _symmetry_equiv_pos_site_id
 _symmetry_equiv_pos_as_xyz
  1  'x, y, z'
loop_
 _atom_site_type_symbol
 _atom_site_label
 _atom_site_symmetry_multiplicity
 _atom_site_fract_x
 _atom_site_fract_y
 _atom_site_fract_z
 _atom_site_occupancy
  Ru  Ru0  1  -0.96700794  -0.17505143  -0.55339984  1.0
  Ru  Ru1  1  -0.03299206  -0.82494857  -0.44660016  1.0
  C  C2  1  -0.23956250  -0.96683167  -0.62612240  1.0
  C  C3  1  -0.76043750  -0.03316833  -0.37387760  1.0
  C  C4  1  -0.37607484  -0.94167305  -0.70706559  1.0
  C  C5  1  -0.62392516  -0.05832695  -0.29293441  1.0
  C  C6  1  -0.86717139  -0.72325196  -0.72034298  1.0
  C  C7  1  -0.13282861  -0.27674804  -0.27965702  1.0
  C  C8  1  -0.79143733  -0.56400519  -0.85022870  1.0
  C  C9  1  -0.20856267  -0.43599481  -0.14977130  1.0
  O  O10  1  -0.86526604  -0.95660163  -0.72206490  1.0
  O  O11  1  -0.13473396  -0.04339837  -0.27793510  1.0
  O  O12  1  -0.84439391  -0.85090135  -0.34862102  1.0
  O  O13  1  -0.15560609  -0.14909865  -0.65137898  1.0
  O  O14  1  -0.22124949  -0.80022656  -0.54561682  1.0
  O  O15  1  -0.77875051  -0.19977344  -0.45438318  1.0
  O  O16  1  -0.92740526  -0.60461939  -0.62004875  1.0
  O  O17  1  -0.07259474  -0.39538061  -0.37995125  1.0
  F  F18  1  -0.57199211  -0.83234984  -0.27672078  1.0
  F  F19  1  -0.42800789  -0.16765016  -0.72327922  1.0
  F  F20  1  -0.34140135  -0.81910978  -0.83762753  1.0
  F  F21  1  -0.65859865  -0.18089022  -0.16237247  1.0
  F  F22  1  -0.48213581  -0.80941184  -0.63916720  1.0
  F  F23  1  -0.51786419  -0.19058816  -0.36083280  1.0
  F  F24  1  -0.73245153  -0.70798909  -0.94823543  1.0
  F  F25  1  -0.26754847  -0.29201091  -0.05176457  1.0
  F  F26  1  -0.68627070  -0.42609548  -0.80934762  1.0
  F  F27  1  -0.31372930  -0.57390452  -0.19065238  1.0
  F  F28  1  -0.88936672  -0.40545375  -0.90950681  1.0
  F  F29  1  -0.11063328  -0.59454625  -0.09049319  1.0
