# generated using pymatgen
data_SbPtSe
_symmetry_space_group_name_H-M   'P 1'
_cell_length_a   6.42385210
_cell_length_b   6.42385210
_cell_length_c   6.42385210
_cell_angle_alpha   90.00000000
_cell_angle_beta   90.00000000
_cell_angle_gamma   90.00000000
_symmetry_Int_Tables_number   1
_chemical_formula_structural   SbPtSe
_chemical_formula_sum   'Sb4 Pt4 Se4'
_cell_volume   265.08588280
_cell_formula_units_Z   4
loop_
 _symmetry_equiv_pos_site_id
 _symmetry_equiv_pos_as_xyz
  1  'x, y, z'
loop_
 _atom_site_type_symbol
 _atom_site_label
 _atom_site_symmetry_multiplicity
 _atom_site_fract_x
 _atom_site_fract_y
 _atom_site_fract_z
 _atom_site_occupancy
  Sb  Sb0  1  0.12465081  0.62465081  0.87534919  1.0
  Sb  Sb1  1  0.62465081  0.87534919  0.12465081  1.0
  Sb  Sb2  1  0.87534919  0.12465081  0.62465081  1.0
  Sb  Sb3  1  0.37534919  0.37534919  0.37534919  1.0
  Pt  Pt4  1  0.49779308  0.99779308  0.50220692  1.0
  Pt  Pt5  1  0.99779308  0.50220692  0.49779308  1.0
  Pt  Pt6  1  0.50220692  0.49779308  0.99779308  1.0
  Pt  Pt7  1  0.00220692  0.00220692  0.00220692  1.0
  Se  Se8  1  0.88098983  0.38098983  0.11901017  1.0
  Se  Se9  1  0.38098983  0.11901017  0.88098983  1.0
  Se  Se10  1  0.11901017  0.88098983  0.38098983  1.0
  Se  Se11  1  0.61901017  0.61901017  0.61901017  1.0
