# generated using pymatgen
data_As2Ir
_symmetry_space_group_name_H-M   'P 1'
_cell_length_a   6.13940607
_cell_length_b   6.15380727
_cell_length_c   6.24745330
_cell_angle_alpha   90.00000000
_cell_angle_beta   113.01216059
_cell_angle_gamma   90.00000000
_symmetry_Int_Tables_number   1
_chemical_formula_structural   As2Ir
_chemical_formula_sum   'As8 Ir4'
_cell_volume   217.25021395
_cell_formula_units_Z   4
loop_
 _symmetry_equiv_pos_site_id
 _symmetry_equiv_pos_as_xyz
  1  'x, y, z'
loop_
 _atom_site_type_symbol
 _atom_site_label
 _atom_site_symmetry_multiplicity
 _atom_site_fract_x
 _atom_site_fract_y
 _atom_site_fract_z
 _atom_site_occupancy
  As  As0  1  0.83832607  0.37055886  0.68493971  1.0
  As  As1  1  0.83832607  0.12944114  0.18493971  1.0
  As  As2  1  0.16167393  0.87055886  0.81506029  1.0
  As  As3  1  0.16167393  0.62944114  0.31506029  1.0
  As  As4  1  0.65433479  0.62680744  0.87512738  1.0
  As  As5  1  0.65433479  0.87319256  0.37512738  1.0
  As  As6  1  0.34566521  0.12680744  0.62487262  1.0
  As  As7  1  0.34566521  0.37319256  0.12487262  1.0
  Ir  Ir8  1  0.77241110  1.00000313  0.79242643  1.0
  Ir  Ir9  1  0.77241110  0.49999687  0.29242643  1.0
  Ir  Ir10  1  0.22758890  0.50000313  0.70757357  1.0
  Ir  Ir11  1  0.22758890  -0.00000313  0.20757357  1.0
