# generated using pymatgen
data_K3GaTe2O11
_symmetry_space_group_name_H-M   'P 1'
_cell_length_a   11.53165112
_cell_length_b   7.54838675
_cell_length_c   7.40686330
_cell_angle_alpha   119.78935531
_cell_angle_beta   101.89490756
_cell_angle_gamma   85.82995298
_symmetry_Int_Tables_number   1
_chemical_formula_structural   K3GaTe2O11
_chemical_formula_sum   'K6 Ga2 Te4 O22'
_cell_volume   547.18726909
_cell_formula_units_Z   2
loop_
 _symmetry_equiv_pos_site_id
 _symmetry_equiv_pos_as_xyz
  1  'x, y, z'
loop_
 _atom_site_type_symbol
 _atom_site_label
 _atom_site_symmetry_multiplicity
 _atom_site_fract_x
 _atom_site_fract_y
 _atom_site_fract_z
 _atom_site_occupancy
  Ga  Ga0  1  0.24960383  0.95346555  -0.99612716  1.0
  Ga  Ga1  1  0.75039617  0.04653445  -0.00387284  1.0
  K  K2  1  0.83909073  0.59002432  -0.90840781  1.0
  K  K3  1  0.16090927  0.40997568  -0.09159219  1.0
  K  K4  1  0.61353348  0.60070087  -0.56028997  1.0
  K  K5  1  0.38646652  0.39929913  -0.43971003  1.0
  K  K6  1  0.17792497  0.86063376  -0.57107986  1.0
  K  K7  1  0.82207503  0.13936624  -0.42892013  1.0
  O  O8  1  0.97942812  0.90448795  -0.90101676  1.0
  O  O9  1  0.02057188  0.09551205  -0.09898324  1.0
  O  O10  1  0.85387995  0.27093296  -0.81726044  1.0
  O  O11  1  0.14612005  0.72906704  -0.18273956  1.0
  O  O12  1  0.50439396  0.82693629  -0.17905447  1.0
  O  O13  1  0.49560604  0.17306371  -0.82094553  1.0
  O  O14  1  0.36237179  0.55129188  -0.74341195  1.0
  O  O15  1  0.63762821  0.44870812  -0.25658805  1.0
  O  O16  1  0.58165649  0.97642764  -0.56462264  1.0
  O  O17  1  0.41834351  0.02357236  -0.43537736  1.0
  O  O18  1  0.58312229  0.59605158  -0.95240468  1.0
  O  O19  1  0.41687771  0.40394842  -0.04759532  1.0
  O  O20  1  0.92976326  0.51592742  -0.27786196  1.0
  O  O21  1  0.07023674  0.48407258  -0.72213804  1.0
  O  O22  1  0.96456459  0.74768850  -0.50952704  1.0
  O  O23  1  0.03543541  0.25231150  -0.49047296  1.0
  O  O24  1  0.36841848  0.81891834  -0.90335904  1.0
  O  O25  1  0.63158152  0.18108166  -0.09664096  1.0
  O  O26  1  0.70896036  0.93571460  -0.84852666  1.0
  O  O27  1  0.29103964  0.06428540  -0.15147334  1.0
  O  O28  1  0.80257042  0.85773117  -0.25231034  1.0
  O  O29  1  0.19742958  0.14226883  -0.74768966  1.0
  Te  Te30  1  0.53654934  0.88412272  -0.86863635  1.0
  Te  Te31  1  0.46345066  0.11587728  -0.13136365  1.0
  Te  Te32  1  0.97461744  0.78765039  -0.22349083  1.0
  Te  Te33  1  0.02538256  0.21234961  -0.77650917  1.0
