# generated using pymatgen
data_K3Zn2F7
_symmetry_space_group_name_H-M   'P 1'
_cell_length_a   11.11445308
_cell_length_b   11.11445308
_cell_length_c   11.11445308
_cell_angle_alpha   158.52364203
_cell_angle_beta   158.52364203
_cell_angle_gamma   30.55546484
_symmetry_Int_Tables_number   1
_chemical_formula_structural   K3Zn2F7
_chemical_formula_sum   'K3 Zn2 F7'
_cell_volume   183.91776935
_cell_formula_units_Z   1
loop_
 _symmetry_equiv_pos_site_id
 _symmetry_equiv_pos_as_xyz
  1  'x, y, z'
loop_
 _atom_site_type_symbol
 _atom_site_label
 _atom_site_symmetry_multiplicity
 _atom_site_fract_x
 _atom_site_fract_y
 _atom_site_fract_z
 _atom_site_occupancy
  K  K0  1  0.68453916  0.68453916  1.00000000  1.0
  K  K1  1  0.31546084  0.31546084  -0.00000000  1.0
  K  K2  1  0.50000000  0.50000000  1.00000000  1.0
  Zn  Zn3  1  0.90325928  0.90325928  1.00000000  1.0
  Zn  Zn4  1  0.09674072  0.09674072  -0.00000000  1.0
  F  F5  1  0.40475685  0.90475685  0.50000000  1.0
  F  F6  1  0.59524315  0.09524315  0.50000000  1.0
  F  F7  1  0.90475685  0.40475685  0.50000000  1.0
  F  F8  1  0.09524315  0.59524315  0.50000000  1.0
  F  F9  1  0.80827708  0.80827708  1.00000000  1.0
  F  F10  1  0.19172292  0.19172292  -0.00000000  1.0
  F  F11  1  0.00000000  0.00000000  0.00000000  1.0
