# generated using pymatgen
data_FeCuS2
_symmetry_space_group_name_H-M   'P 1'
_cell_length_a   6.39372815
_cell_length_b   6.39372815
_cell_length_c   6.39372815
_cell_angle_alpha   131.22217817
_cell_angle_beta   131.22217817
_cell_angle_gamma   71.46032147
_symmetry_Int_Tables_number   1
_chemical_formula_structural   FeCuS2
_chemical_formula_sum   'Fe2 Cu2 S4'
_cell_volume   144.71309901
_cell_formula_units_Z   2
loop_
 _symmetry_equiv_pos_site_id
 _symmetry_equiv_pos_as_xyz
  1  'x, y, z'
loop_
 _atom_site_type_symbol
 _atom_site_label
 _atom_site_symmetry_multiplicity
 _atom_site_fract_x
 _atom_site_fract_y
 _atom_site_fract_z
 _atom_site_occupancy
  Fe  Fe0  1  0.75000000  0.25000000  0.50000000  1.0
  Fe  Fe1  1  1.00000000  1.00000000  1.00000000  1.0
  Cu  Cu2  1  0.25000000  0.75000000  0.50000000  1.0
  Cu  Cu3  1  0.50000000  0.50000000  -0.00000000  1.0
  S  S4  1  1.12109034  1.12500000  1.49609034  1.0
  S  S5  1  1.37500000  0.87890966  1.00390966  1.0
  S  S6  1  0.87500000  1.37109034  0.99609034  1.0
  S  S7  1  0.62890966  0.62500000  0.50390966  1.0
