# generated using pymatgen
data_H4NClO4
_symmetry_space_group_name_H-M   'P 1'
_cell_length_a   8.94329993
_cell_length_b   6.32826207
_cell_length_c   7.43237828
_cell_angle_alpha   90.00000000
_cell_angle_beta   90.00000000
_cell_angle_gamma   90.00000000
_symmetry_Int_Tables_number   1
_chemical_formula_structural   H4NClO4
_chemical_formula_sum   'H16 N4 Cl4 O16'
_cell_volume   420.63950454
_cell_formula_units_Z   4
loop_
 _symmetry_equiv_pos_site_id
 _symmetry_equiv_pos_as_xyz
  1  'x, y, z'
loop_
 _atom_site_type_symbol
 _atom_site_label
 _atom_site_symmetry_multiplicity
 _atom_site_fract_x
 _atom_site_fract_y
 _atom_site_fract_z
 _atom_site_occupancy
  H  H0  1  0.39162443  0.88266915  0.16265819  1.0
  H  H1  1  0.39162443  0.61733085  0.16265819  1.0
  H  H2  1  0.89162443  0.88266915  0.33734181  1.0
  H  H3  1  0.89162443  0.61733085  0.33734181  1.0
  H  H4  1  0.60837557  0.38266915  0.83734181  1.0
  H  H5  1  0.60837557  0.11733085  0.83734181  1.0
  H  H6  1  0.10837557  0.38266915  0.66265819  1.0
  H  H7  1  0.10837557  0.11733085  0.66265819  1.0
  H  H8  1  0.30088342  0.75000000  0.32524545  1.0
  H  H9  1  0.80088342  0.75000000  0.17475455  1.0
  H  H10  1  0.69911658  0.25000000  0.67475455  1.0
  H  H11  1  0.19911658  0.25000000  0.82524545  1.0
  H  H12  1  0.23273333  0.75000000  0.11241720  1.0
  H  H13  1  0.73273333  0.75000000  0.38758280  1.0
  H  H14  1  0.76726667  0.25000000  0.88758280  1.0
  H  H15  1  0.26726667  0.25000000  0.61241720  1.0
  N  N16  1  0.32799274  0.75000000  0.18963691  1.0
  N  N17  1  0.82799274  0.75000000  0.31036309  1.0
  N  N18  1  0.67200726  0.25000000  0.81036309  1.0
  N  N19  1  0.17200726  0.25000000  0.68963691  1.0
  Cl  Cl20  1  0.42993984  0.75000000  0.68941170  1.0
  Cl  Cl21  1  0.92993984  0.75000000  0.81058830  1.0
  Cl  Cl22  1  0.57006016  0.25000000  0.31058830  1.0
  Cl  Cl23  1  0.07006016  0.25000000  0.18941170  1.0
  O  O24  1  0.43013504  0.93910270  0.80476181  1.0
  O  O25  1  0.43013504  0.56089730  0.80476181  1.0
  O  O26  1  0.93013504  0.93910270  0.69523819  1.0
  O  O27  1  0.93013504  0.56089730  0.69523819  1.0
  O  O28  1  0.56986496  0.43910270  0.19523819  1.0
  O  O29  1  0.56986496  0.06089730  0.19523819  1.0
  O  O30  1  0.06986496  0.43910270  0.30476181  1.0
  O  O31  1  0.06986496  0.06089730  0.30476181  1.0
  O  O32  1  0.29291452  0.75000000  0.57974868  1.0
  O  O33  1  0.79291452  0.75000000  0.92025132  1.0
  O  O34  1  0.70708548  0.25000000  0.42025132  1.0
  O  O35  1  0.20708548  0.25000000  0.07974868  1.0
  O  O36  1  0.06155388  0.75000000  0.92679829  1.0
  O  O37  1  0.56155388  0.75000000  0.57320171  1.0
  O  O38  1  0.93844612  0.25000000  0.07320171  1.0
  O  O39  1  0.43844612  0.25000000  0.42679829  1.0
