# generated using pymatgen
data_RePt(N2Cl3)2
_symmetry_space_group_name_H-M   'P 1'
_cell_length_a   8.10454937
_cell_length_b   8.10454937
_cell_length_c   9.37676431
_cell_angle_alpha   90.00000000
_cell_angle_beta   90.00000000
_cell_angle_gamma   86.51512847
_symmetry_Int_Tables_number   1
_chemical_formula_structural   RePt(N2Cl3)2
_chemical_formula_sum   'Re2 Pt2 N8 Cl12'
_cell_volume   614.76189388
_cell_formula_units_Z   2
loop_
 _symmetry_equiv_pos_site_id
 _symmetry_equiv_pos_as_xyz
  1  'x, y, z'
loop_
 _atom_site_type_symbol
 _atom_site_label
 _atom_site_symmetry_multiplicity
 _atom_site_fract_x
 _atom_site_fract_y
 _atom_site_fract_z
 _atom_site_occupancy
  Re  Re0  1  -0.00000000  1.00000000  0.50000000  1.0
  Re  Re1  1  -0.50000000  0.50000000  0.00000000  1.0
  Pt  Pt2  1  -0.50000000  0.50000000  0.50000000  1.0
  Pt  Pt3  1  -0.00000000  1.00000000  0.00000000  1.0
  N  N4  1  0.43223128  1.35500395  0.35151851  1.0
  N  N5  1  -0.06776872  0.85500395  0.14848149  1.0
  N  N6  1  0.35500395  1.43223128  0.64848149  1.0
  N  N7  1  -0.14499605  0.93223128  0.85151851  1.0
  N  N8  1  -0.35500395  0.56776872  0.35151851  1.0
  N  N9  1  0.14499605  1.06776872  0.14848149  1.0
  N  N10  1  -0.43223128  0.64499605  0.64848149  1.0
  N  N11  1  0.06776872  1.14499605  0.85151851  1.0
  Cl  Cl12  1  -0.27407656  0.99877300  0.43030880  1.0
  Cl  Cl13  1  0.22592344  1.49877300  0.06969120  1.0
  Cl  Cl14  1  -0.00122700  0.72592344  0.56969120  1.0
  Cl  Cl15  1  0.49877300  1.22592344  0.93030880  1.0
  Cl  Cl16  1  0.00122700  1.27407656  0.43030880  1.0
  Cl  Cl17  1  -0.49877300  0.77407656  0.06969120  1.0
  Cl  Cl18  1  0.27407656  1.00122700  0.56969120  1.0
  Cl  Cl19  1  -0.22592344  0.50122700  0.93030880  1.0
  Cl  Cl20  1  -0.41547916  1.41547916  0.22888868  1.0
  Cl  Cl21  1  0.08452084  0.91547916  0.27111132  1.0
  Cl  Cl22  1  0.41547916  0.58452084  0.77111132  1.0
  Cl  Cl23  1  -0.08452084  1.08452084  0.72888868  1.0
