# generated using pymatgen
data_Pr3Sb5O12
_symmetry_space_group_name_H-M   'P 1'
_cell_length_a   9.67070469
_cell_length_b   9.67070469
_cell_length_c   9.67070469
_cell_angle_alpha   109.47122063
_cell_angle_beta   109.47122063
_cell_angle_gamma   109.47122063
_symmetry_Int_Tables_number   1
_chemical_formula_structural   Pr3Sb5O12
_chemical_formula_sum   'Pr6 Sb10 O24'
_cell_volume   696.22958478
_cell_formula_units_Z   2
loop_
 _symmetry_equiv_pos_site_id
 _symmetry_equiv_pos_as_xyz
  1  'x, y, z'
loop_
 _atom_site_type_symbol
 _atom_site_label
 _atom_site_symmetry_multiplicity
 _atom_site_fract_x
 _atom_site_fract_y
 _atom_site_fract_z
 _atom_site_occupancy
  Pr  Pr0  1  0.25000000  0.75000000  0.50000000  1.0
  Pr  Pr1  1  0.75000000  0.25000000  0.50000000  1.0
  Pr  Pr2  1  0.25000000  0.50000000  0.75000000  1.0
  Pr  Pr3  1  0.50000000  0.25000000  0.75000000  1.0
  Pr  Pr4  1  0.75000000  0.50000000  0.25000000  1.0
  Pr  Pr5  1  0.50000000  0.75000000  0.25000000  1.0
  Sb  Sb6  1  0.71909903  0.71909903  0.00000000  1.0
  Sb  Sb7  1  0.71909903  -0.00000000  0.71909903  1.0
  Sb  Sb8  1  0.00000000  0.71909903  0.71909903  1.0
  Sb  Sb9  1  0.28090097  0.00000000  0.28090097  1.0
  Sb  Sb10  1  0.00000000  0.28090097  0.28090097  1.0
  Sb  Sb11  1  0.28090097  0.28090097  0.00000000  1.0
  Sb  Sb12  1  0.50497503  0.50497503  0.50497503  1.0
  Sb  Sb13  1  1.00000000  1.00000000  0.49502497  1.0
  Sb  Sb14  1  1.00000000  0.49502497  1.00000000  1.0
  Sb  Sb15  1  0.49502497  1.00000000  1.00000000  1.0
  O  O16  1  0.80137998  0.50974693  0.50974693  1.0
  O  O17  1  0.50974693  0.80137998  0.50974693  1.0
  O  O18  1  1.00000000  1.29163305  0.49025307  1.0
  O  O19  1  1.29163305  1.00000000  0.49025307  1.0
  O  O20  1  0.50974693  0.50974693  0.80137998  1.0
  O  O21  1  0.70836695  0.70836695  0.19862002  1.0
  O  O22  1  1.00000000  0.49025307  1.29163305  1.0
  O  O23  1  0.70836695  0.19862002  0.70836695  1.0
  O  O24  1  0.19862002  0.70836695  0.70836695  1.0
  O  O25  1  0.49025307  1.00000000  1.29163305  1.0
  O  O26  1  1.29163305  0.49025307  1.00000000  1.0
  O  O27  1  0.49025307  1.29163305  1.00000000  1.0
  O  O28  1  0.27422524  0.47198677  0.47198677  1.0
  O  O29  1  0.47198677  0.27422524  0.47198677  1.0
  O  O30  1  1.00000000  0.80223846  1.52801323  1.0
  O  O31  1  0.80223846  1.00000000  1.52801323  1.0
  O  O32  1  0.47198677  0.47198677  0.27422524  1.0
  O  O33  1  1.19776154  1.19776154  0.72577476  1.0
  O  O34  1  1.00000000  1.52801323  0.80223846  1.0
  O  O35  1  1.19776154  0.72577476  1.19776154  1.0
  O  O36  1  0.72577476  1.19776154  1.19776154  1.0
  O  O37  1  1.52801323  1.00000000  0.80223846  1.0
  O  O38  1  0.80223846  1.52801323  1.00000000  1.0
  O  O39  1  1.52801323  0.80223846  1.00000000  1.0
