# generated using pymatgen
data_Rb2V3O8
_symmetry_space_group_name_H-M   'P 1'
_cell_length_a   8.94420781
_cell_length_b   8.94420781
_cell_length_c   5.81474635
_cell_angle_alpha   90.00000000
_cell_angle_beta   90.00000000
_cell_angle_gamma   90.00000000
_symmetry_Int_Tables_number   1
_chemical_formula_structural   Rb2V3O8
_chemical_formula_sum   'Rb4 V6 O16'
_cell_volume   465.17304056
_cell_formula_units_Z   2
loop_
 _symmetry_equiv_pos_site_id
 _symmetry_equiv_pos_as_xyz
  1  'x, y, z'
loop_
 _atom_site_type_symbol
 _atom_site_label
 _atom_site_symmetry_multiplicity
 _atom_site_fract_x
 _atom_site_fract_y
 _atom_site_fract_z
 _atom_site_occupancy
  O  O0  1  0.00000000  0.50000000  0.38796126  1.0
  O  O1  1  0.50000000  0.00000000  0.38796126  1.0
  O  O2  1  0.36790274  0.13209726  0.99442973  1.0
  O  O3  1  0.86790274  0.36790274  0.99442973  1.0
  O  O4  1  0.63209726  0.86790274  0.99442973  1.0
  O  O5  1  0.13209726  0.63209726  0.99442973  1.0
  O  O6  1  0.30795508  0.58398638  0.38447747  1.0
  O  O7  1  0.80795508  0.91601362  0.38447747  1.0
  O  O8  1  0.41601362  0.30795508  0.38447747  1.0
  O  O9  1  0.91601362  0.19204492  0.38447747  1.0
  O  O10  1  0.69204492  0.41601362  0.38447747  1.0
  O  O11  1  0.19204492  0.08398638  0.38447747  1.0
  O  O12  1  0.58398638  0.69204492  0.38447747  1.0
  O  O13  1  0.08398638  0.80795508  0.38447747  1.0
  O  O14  1  0.50000000  0.50000000  0.01348529  1.0
  O  O15  1  0.00000000  0.00000000  0.01348529  1.0
  Rb  Rb16  1  0.83093507  0.66906493  0.75044412  1.0
  Rb  Rb17  1  0.33093507  0.83093507  0.75044412  1.0
  Rb  Rb18  1  0.16906493  0.33093507  0.75044412  1.0
  Rb  Rb19  1  0.66906493  0.16906493  0.75044412  1.0
  V  V20  1  0.36574658  0.13425342  0.27735857  1.0
  V  V21  1  0.86574658  0.36574658  0.27735857  1.0
  V  V22  1  0.63425342  0.86574658  0.27735857  1.0
  V  V23  1  0.13425342  0.63425342  0.27735857  1.0
  V  V24  1  0.50000000  0.50000000  0.28987876  1.0
  V  V25  1  0.00000000  0.00000000  0.28987876  1.0
