# generated using pymatgen
data_KNO2
_symmetry_space_group_name_H-M   'P 1'
_cell_length_a   4.78795948
_cell_length_b   4.78795948
_cell_length_c   4.15838563
_cell_angle_alpha   64.49098497
_cell_angle_beta   115.50901503
_cell_angle_gamma   104.55361875
_symmetry_Int_Tables_number   1
_chemical_formula_structural   KNO2
_chemical_formula_sum   'K1 N1 O2'
_cell_volume   77.39524345
_cell_formula_units_Z   1
loop_
 _symmetry_equiv_pos_site_id
 _symmetry_equiv_pos_as_xyz
  1  'x, y, z'
loop_
 _atom_site_type_symbol
 _atom_site_label
 _atom_site_symmetry_multiplicity
 _atom_site_fract_x
 _atom_site_fract_y
 _atom_site_fract_z
 _atom_site_occupancy
  K  K0  1  0.01781095  -0.01781095  0.00139981  1.0
  N  N1  1  0.48286932  0.51713068  0.46470330  1.0
  O  O2  1  0.77240925  0.59308951  0.57294845  1.0
  O  O3  1  0.40691049  0.22759075  0.57294845  1.0
