# generated using pymatgen
data_HoZn5
_symmetry_space_group_name_H-M   'P 1'
_cell_length_a   8.93549426
_cell_length_b   8.93549426
_cell_length_c   9.10520317
_cell_angle_alpha   90.00000000
_cell_angle_beta   90.00000000
_cell_angle_gamma   120.00000000
_symmetry_Int_Tables_number   1
_chemical_formula_structural   HoZn5
_chemical_formula_sum   'Ho6 Zn30'
_cell_volume   629.58943712
_cell_formula_units_Z   6
loop_
 _symmetry_equiv_pos_site_id
 _symmetry_equiv_pos_as_xyz
  1  'x, y, z'
loop_
 _atom_site_type_symbol
 _atom_site_label
 _atom_site_symmetry_multiplicity
 _atom_site_fract_x
 _atom_site_fract_y
 _atom_site_fract_z
 _atom_site_occupancy
  Ho  Ho0  1  0.18702318  0.81297682  0.25000000  1.0
  Ho  Ho1  1  0.18702318  0.37404636  0.25000000  1.0
  Ho  Ho2  1  0.81297682  0.18702318  0.75000000  1.0
  Ho  Ho3  1  0.81297682  0.62595364  0.75000000  1.0
  Ho  Ho4  1  0.62595364  0.81297682  0.25000000  1.0
  Ho  Ho5  1  0.37404636  0.18702318  0.75000000  1.0
  Zn  Zn6  1  0.16073399  0.83926601  0.90780296  1.0
  Zn  Zn7  1  0.16073399  0.83926601  0.59219704  1.0
  Zn  Zn8  1  0.16073399  0.32146797  0.90780296  1.0
  Zn  Zn9  1  0.16073399  0.32146797  0.59219704  1.0
  Zn  Zn10  1  0.83926601  0.16073399  0.40780296  1.0
  Zn  Zn11  1  0.83926601  0.16073399  0.09219704  1.0
  Zn  Zn12  1  0.83926601  0.67853203  0.40780296  1.0
  Zn  Zn13  1  0.83926601  0.67853203  0.09219704  1.0
  Zn  Zn14  1  0.67853203  0.83926601  0.90780296  1.0
  Zn  Zn15  1  0.67853203  0.83926601  0.59219704  1.0
  Zn  Zn16  1  0.32146797  0.16073399  0.40780296  1.0
  Zn  Zn17  1  0.32146797  0.16073399  0.09219704  1.0
  Zn  Zn18  1  0.56817409  0.43182591  0.25000000  1.0
  Zn  Zn19  1  0.56817409  0.13634819  0.25000000  1.0
  Zn  Zn20  1  0.43182591  0.56817409  0.75000000  1.0
  Zn  Zn21  1  0.43182591  0.86365181  0.75000000  1.0
  Zn  Zn22  1  0.86365181  0.43182591  0.25000000  1.0
  Zn  Zn23  1  0.13634819  0.56817409  0.75000000  1.0
  Zn  Zn24  1  0.50000000  0.50000000  0.50000000  1.0
  Zn  Zn25  1  0.50000000  0.50000000  -0.00000000  1.0
  Zn  Zn26  1  0.50000000  -0.00000000  0.50000000  1.0
  Zn  Zn27  1  0.50000000  -0.00000000  0.00000000  1.0
  Zn  Zn28  1  0.00000000  0.50000000  0.50000000  1.0
  Zn  Zn29  1  0.00000000  0.50000000  0.00000000  1.0
  Zn  Zn30  1  0.33333333  0.66666667  0.48711986  1.0
  Zn  Zn31  1  0.33333333  0.66666667  0.01288014  1.0
  Zn  Zn32  1  0.66666667  0.33333333  0.98711986  1.0
  Zn  Zn33  1  0.66666667  0.33333333  0.51288014  1.0
  Zn  Zn34  1  0.00000000  0.00000000  0.50000000  1.0
  Zn  Zn35  1  0.00000000  0.00000000  0.00000000  1.0
