# generated using pymatgen
data_SbPO4
_symmetry_space_group_name_H-M   'P 1'
_cell_length_a   4.88348015
_cell_length_b   6.91560221
_cell_length_c   5.31980587
_cell_angle_alpha   90.00000000
_cell_angle_beta   96.94292612
_cell_angle_gamma   90.00000000
_symmetry_Int_Tables_number   1
_chemical_formula_structural   SbPO4
_chemical_formula_sum   'Sb2 P2 O8'
_cell_volume   178.34413225
_cell_formula_units_Z   2
loop_
 _symmetry_equiv_pos_site_id
 _symmetry_equiv_pos_as_xyz
  1  'x, y, z'
loop_
 _atom_site_type_symbol
 _atom_site_label
 _atom_site_symmetry_multiplicity
 _atom_site_fract_x
 _atom_site_fract_y
 _atom_site_fract_z
 _atom_site_occupancy
  Sb  Sb0  1  0.18936316  0.25000000  0.19463059  1.0
  Sb  Sb1  1  0.81063684  0.75000000  0.80536941  1.0
  P  P2  1  0.72539049  0.25000000  0.61233216  1.0
  P  P3  1  0.27460951  0.75000000  0.38766784  1.0
  O  O4  1  0.82760157  0.42881052  0.76932564  1.0
  O  O5  1  0.82760157  0.07118948  0.76932564  1.0
  O  O6  1  0.17239843  0.92881052  0.23067436  1.0
  O  O7  1  0.17239843  0.57118948  0.23067436  1.0
  O  O8  1  0.82270341  0.25000000  0.33942506  1.0
  O  O9  1  0.17729659  0.75000000  0.66057494  1.0
  O  O10  1  0.40163975  0.25000000  0.55686159  1.0
  O  O11  1  0.59836025  0.75000000  0.44313841  1.0
