# generated using pymatgen
data_S2XeNO4F3
_symmetry_space_group_name_H-M   'P 1'
_cell_length_a   10.18875965
_cell_length_b   7.12974233
_cell_length_c   12.50506850
_cell_angle_alpha   90.00000000
_cell_angle_beta   111.16981259
_cell_angle_gamma   90.00000000
_symmetry_Int_Tables_number   1
_chemical_formula_structural   S2XeNO4F3
_chemical_formula_sum   'S8 Xe4 N4 O16 F12'
_cell_volume   847.10389975
_cell_formula_units_Z   4
loop_
 _symmetry_equiv_pos_site_id
 _symmetry_equiv_pos_as_xyz
  1  'x, y, z'
loop_
 _atom_site_type_symbol
 _atom_site_label
 _atom_site_symmetry_multiplicity
 _atom_site_fract_x
 _atom_site_fract_y
 _atom_site_fract_z
 _atom_site_occupancy
  S  S0  1  0.75127734  0.44923313  0.43881908  1.0
  S  S1  1  0.75127734  0.05076687  0.93881908  1.0
  S  S2  1  0.24872266  0.94923313  0.06118092  1.0
  S  S3  1  0.24872266  0.55076687  0.56118092  1.0
  S  S4  1  0.62868332  0.48555673  0.19184265  1.0
  S  S5  1  0.62868332  0.01444327  0.69184265  1.0
  S  S6  1  0.37131668  0.98555673  0.30815735  1.0
  S  S7  1  0.37131668  0.51444327  0.80815735  1.0
  Xe  Xe8  1  0.86541051  0.82039406  0.32733320  1.0
  Xe  Xe9  1  0.86541051  0.67960594  0.82733320  1.0
  Xe  Xe10  1  0.13458949  0.32039406  0.17266680  1.0
  Xe  Xe11  1  0.13458949  0.17960594  0.67266680  1.0
  N  N12  1  0.26458947  0.06119621  0.18113976  1.0
  N  N13  1  0.26458947  0.43880379  0.68113976  1.0
  N  N14  1  0.73541053  0.56119621  0.31886024  1.0
  N  N15  1  0.73541053  0.93880379  0.81886024  1.0
  O  O16  1  0.86065258  0.95907284  0.03020957  1.0
  O  O17  1  0.86065258  0.54092716  0.53020957  1.0
  O  O18  1  0.13934742  0.45907284  0.46979043  1.0
  O  O19  1  0.13934742  0.04092716  0.96979043  1.0
  O  O20  1  0.74605458  0.25031928  0.42201055  1.0
  O  O21  1  0.74605458  0.24968072  0.92201055  1.0
  O  O22  1  0.25394542  0.75031928  0.07798945  1.0
  O  O23  1  0.25394542  0.74968072  0.57798945  1.0
  O  O24  1  0.50757135  0.39658483  0.20156281  1.0
  O  O25  1  0.50757135  0.10341517  0.70156281  1.0
  O  O26  1  0.49242865  0.89658483  0.29843719  1.0
  O  O27  1  0.49242865  0.60341517  0.79843719  1.0
  O  O28  1  0.37722141  0.12889012  0.38969827  1.0
  O  O29  1  0.37722141  0.37110988  0.88969827  1.0
  O  O30  1  0.62277859  0.62889012  0.11030173  1.0
  O  O31  1  0.62277859  0.87110988  0.61030173  1.0
  F  F32  1  0.98633132  0.05218207  0.33582474  1.0
  F  F33  1  0.98633132  0.44781793  0.83582474  1.0
  F  F34  1  0.01366868  0.55218207  0.16417526  1.0
  F  F35  1  0.01366868  0.94781793  0.66417526  1.0
  F  F36  1  0.72145979  0.31939885  0.16931017  1.0
  F  F37  1  0.72145979  0.18060115  0.66931017  1.0
  F  F38  1  0.27854021  0.81939885  0.33068983  1.0
  F  F39  1  0.27854021  0.68060115  0.83068983  1.0
  F  F40  1  0.60757239  0.50501437  0.45362451  1.0
  F  F41  1  0.60757239  -0.00501437  0.95362451  1.0
  F  F42  1  0.39242761  1.00501437  0.04637549  1.0
  F  F43  1  0.39242761  0.49498563  0.54637549  1.0
