# generated using pymatgen
data_Mg5Pd2
_symmetry_space_group_name_H-M   'P 1'
_cell_length_a   8.70204144
_cell_length_b   8.70204144
_cell_length_c   8.20885114
_cell_angle_alpha   90.00000000
_cell_angle_beta   90.00000000
_cell_angle_gamma   120.00000000
_symmetry_Int_Tables_number   1
_chemical_formula_structural   Mg5Pd2
_chemical_formula_sum   'Mg20 Pd8'
_cell_volume   538.33833463
_cell_formula_units_Z   4
loop_
 _symmetry_equiv_pos_site_id
 _symmetry_equiv_pos_as_xyz
  1  'x, y, z'
loop_
 _atom_site_type_symbol
 _atom_site_label
 _atom_site_symmetry_multiplicity
 _atom_site_fract_x
 _atom_site_fract_y
 _atom_site_fract_z
 _atom_site_occupancy
  Mg  Mg0  1  0.19313715  0.80686285  0.43778727  1.0
  Mg  Mg1  1  0.19313715  0.80686285  0.06221273  1.0
  Mg  Mg2  1  0.19313715  0.38627431  0.43778727  1.0
  Mg  Mg3  1  0.19313715  0.38627431  0.06221273  1.0
  Mg  Mg4  1  0.80686285  0.19313715  0.93778727  1.0
  Mg  Mg5  1  0.80686285  0.19313715  0.56221273  1.0
  Mg  Mg6  1  0.80686285  0.61372569  0.93778727  1.0
  Mg  Mg7  1  0.80686285  0.61372569  0.56221273  1.0
  Mg  Mg8  1  0.61372569  0.80686285  0.43778727  1.0
  Mg  Mg9  1  0.61372569  0.80686285  0.06221273  1.0
  Mg  Mg10  1  0.38627431  0.19313715  0.93778727  1.0
  Mg  Mg11  1  0.38627431  0.19313715  0.56221273  1.0
  Mg  Mg12  1  0.54004775  0.45995225  0.25000000  1.0
  Mg  Mg13  1  0.54004775  0.08009551  0.25000000  1.0
  Mg  Mg14  1  0.45995225  0.54004775  0.75000000  1.0
  Mg  Mg15  1  0.45995225  0.91990449  0.75000000  1.0
  Mg  Mg16  1  0.91990449  0.45995225  0.25000000  1.0
  Mg  Mg17  1  0.08009551  0.54004775  0.75000000  1.0
  Mg  Mg18  1  0.00000000  0.00000000  0.50000000  1.0
  Mg  Mg19  1  0.00000000  0.00000000  -0.00000000  1.0
  Pd  Pd20  1  0.33333333  0.66666667  0.25000000  1.0
  Pd  Pd21  1  0.66666667  0.33333333  0.75000000  1.0
  Pd  Pd22  1  0.87652745  0.12347255  0.25000000  1.0
  Pd  Pd23  1  0.87652745  0.75305489  0.25000000  1.0
  Pd  Pd24  1  0.12347255  0.87652745  0.75000000  1.0
  Pd  Pd25  1  0.12347255  0.24694511  0.75000000  1.0
  Pd  Pd26  1  0.24694511  0.12347255  0.25000000  1.0
  Pd  Pd27  1  0.75305489  0.87652745  0.75000000  1.0
