# generated using pymatgen
data_Sb(MoS)2
_symmetry_space_group_name_H-M   'P 1'
_cell_length_a   6.60017016
_cell_length_b   3.20233801
_cell_length_c   9.53546793
_cell_angle_alpha   90.00000000
_cell_angle_beta   106.13084732
_cell_angle_gamma   90.00000000
_symmetry_Int_Tables_number   1
_chemical_formula_structural   Sb(MoS)2
_chemical_formula_sum   'Sb2 Mo4 S4'
_cell_volume   193.60667572
_cell_formula_units_Z   2
loop_
 _symmetry_equiv_pos_site_id
 _symmetry_equiv_pos_as_xyz
  1  'x, y, z'
loop_
 _atom_site_type_symbol
 _atom_site_label
 _atom_site_symmetry_multiplicity
 _atom_site_fract_x
 _atom_site_fract_y
 _atom_site_fract_z
 _atom_site_occupancy
  Sb  Sb0  1  0.99592461  0.25000000  0.33845749  1.0
  Sb  Sb1  1  0.00407539  0.75000000  0.66154251  1.0
  Mo  Mo2  1  0.89553623  0.25000000  0.88608391  1.0
  Mo  Mo3  1  0.10446377  0.75000000  0.11391609  1.0
  Mo  Mo4  1  0.66063900  0.25000000  0.47891627  1.0
  Mo  Mo5  1  0.33936100  0.75000000  0.52108373  1.0
  S  S6  1  0.53064491  0.25000000  0.68842481  1.0
  S  S7  1  0.46935509  0.75000000  0.31157519  1.0
  S  S8  1  0.26337896  0.25000000  0.99430846  1.0
  S  S9  1  0.73662104  0.75000000  0.00569154  1.0
