# generated using pymatgen
data_Sm2Sc3Si4
_symmetry_space_group_name_H-M   'P 1'
_cell_length_a   7.17109703
_cell_length_b   14.27265856
_cell_length_c   7.48906909
_cell_angle_alpha   90.00000000
_cell_angle_beta   90.00000000
_cell_angle_gamma   90.00000000
_symmetry_Int_Tables_number   1
_chemical_formula_structural   Sm2Sc3Si4
_chemical_formula_sum   'Sm8 Sc12 Si16'
_cell_volume   766.51086097
_cell_formula_units_Z   4
loop_
 _symmetry_equiv_pos_site_id
 _symmetry_equiv_pos_as_xyz
  1  'x, y, z'
loop_
 _atom_site_type_symbol
 _atom_site_label
 _atom_site_symmetry_multiplicity
 _atom_site_fract_x
 _atom_site_fract_y
 _atom_site_fract_z
 _atom_site_occupancy
  Sm  Sm0  1  0.48617961  0.90444201  0.67196656  1.0
  Sm  Sm1  1  0.48617961  0.59555799  0.67196656  1.0
  Sm  Sm2  1  0.98617961  0.90444201  0.82803344  1.0
  Sm  Sm3  1  0.98617961  0.59555799  0.82803344  1.0
  Sm  Sm4  1  0.51382039  0.40444201  0.32803344  1.0
  Sm  Sm5  1  0.51382039  0.09555799  0.32803344  1.0
  Sm  Sm6  1  0.01382039  0.40444201  0.17196656  1.0
  Sm  Sm7  1  0.01382039  0.09555799  0.17196656  1.0
  Si  Si8  1  0.35219567  0.45969847  0.96508685  1.0
  Si  Si9  1  0.35219567  0.04030153  0.96508685  1.0
  Si  Si10  1  0.85219567  0.45969847  0.53491315  1.0
  Si  Si11  1  0.85219567  0.04030153  0.53491315  1.0
  Si  Si12  1  0.64780433  0.95969847  0.03491315  1.0
  Si  Si13  1  0.64780433  0.54030153  0.03491315  1.0
  Si  Si14  1  0.14780433  0.95969847  0.46508685  1.0
  Si  Si15  1  0.14780433  0.54030153  0.46508685  1.0
  Si  Si16  1  0.46901060  0.25000000  0.62080056  1.0
  Si  Si17  1  0.96901060  0.25000000  0.87919944  1.0
  Si  Si18  1  0.53098940  0.75000000  0.37919944  1.0
  Si  Si19  1  0.03098940  0.75000000  0.12080056  1.0
  Si  Si20  1  0.22266593  0.25000000  0.38682482  1.0
  Si  Si21  1  0.72266593  0.25000000  0.11317518  1.0
  Si  Si22  1  0.77733407  0.75000000  0.61317518  1.0
  Si  Si23  1  0.27733407  0.75000000  0.88682482  1.0
  Sc  Sc24  1  0.17536646  0.37700174  0.67685194  1.0
  Sc  Sc25  1  0.17536646  0.12299826  0.67685194  1.0
  Sc  Sc26  1  0.67536646  0.37700174  0.82314806  1.0
  Sc  Sc27  1  0.67536646  0.12299826  0.82314806  1.0
  Sc  Sc28  1  0.82463354  0.87700174  0.32314806  1.0
  Sc  Sc29  1  0.82463354  0.62299826  0.32314806  1.0
  Sc  Sc30  1  0.32463354  0.87700174  0.17685194  1.0
  Sc  Sc31  1  0.32463354  0.62299826  0.17685194  1.0
  Sc  Sc32  1  0.34462128  0.25000000  0.00810077  1.0
  Sc  Sc33  1  0.84462128  0.25000000  0.49189923  1.0
  Sc  Sc34  1  0.65537872  0.75000000  0.99189923  1.0
  Sc  Sc35  1  0.15537872  0.75000000  0.50810077  1.0
