# generated using pymatgen
data_CdIO4
_symmetry_space_group_name_H-M   'P 1'
_cell_length_a   11.33825120
_cell_length_b   6.79363799
_cell_length_c   4.85589592
_cell_angle_alpha   90.00000000
_cell_angle_beta   90.00000000
_cell_angle_gamma   90.00000000
_symmetry_Int_Tables_number   1
_chemical_formula_structural   CdIO4
_chemical_formula_sum   'Cd4 I4 O16'
_cell_volume   374.03982504
_cell_formula_units_Z   4
loop_
 _symmetry_equiv_pos_site_id
 _symmetry_equiv_pos_as_xyz
  1  'x, y, z'
loop_
 _atom_site_type_symbol
 _atom_site_label
 _atom_site_symmetry_multiplicity
 _atom_site_fract_x
 _atom_site_fract_y
 _atom_site_fract_z
 _atom_site_occupancy
  O  O0  1  0.67031374  0.03427167  0.22881104  1.0
  O  O1  1  0.67031374  0.46572833  0.22881104  1.0
  O  O2  1  0.17031374  0.03427167  0.27118896  1.0
  O  O3  1  0.17031374  0.46572833  0.27118896  1.0
  O  O4  1  0.32968626  0.53427167  0.77118896  1.0
  O  O5  1  0.32968626  0.96572833  0.77118896  1.0
  O  O6  1  0.82968626  0.53427167  0.72881104  1.0
  O  O7  1  0.82968626  0.96572833  0.72881104  1.0
  O  O8  1  0.88508157  0.25000000  0.15489011  1.0
  O  O9  1  0.38508157  0.25000000  0.34510989  1.0
  O  O10  1  0.11491843  0.75000000  0.84510989  1.0
  O  O11  1  0.61491843  0.75000000  0.65489011  1.0
  O  O12  1  0.57332100  0.25000000  0.78032580  1.0
  O  O13  1  0.07332100  0.25000000  0.71967420  1.0
  O  O14  1  0.42667900  0.75000000  0.21967420  1.0
  O  O15  1  0.92667900  0.75000000  0.28032580  1.0
  Cd  Cd16  1  0.00000000  0.50000000  0.00000000  1.0
  Cd  Cd17  1  0.00000000  0.00000000  0.00000000  1.0
  Cd  Cd18  1  0.50000000  0.50000000  0.50000000  1.0
  Cd  Cd19  1  0.50000000  0.00000000  0.50000000  1.0
  I  I20  1  0.71863155  0.25000000  1.00455599  1.0
  I  I21  1  0.21863155  0.25000000  0.49544401  1.0
  I  I22  1  0.28136845  0.75000000  -0.00455599  1.0
  I  I23  1  0.78136845  0.75000000  0.50455599  1.0
