# generated using pymatgen
data_TiMnAs
_symmetry_space_group_name_H-M   'P 1'
_cell_length_a   6.77797115
_cell_length_b   6.77797115
_cell_length_c   3.56495964
_cell_angle_alpha   90.00000000
_cell_angle_beta   90.00000000
_cell_angle_gamma   120.00000000
_symmetry_Int_Tables_number   1
_chemical_formula_structural   TiMnAs
_chemical_formula_sum   'Ti3 Mn3 As3'
_cell_volume   141.83541410
_cell_formula_units_Z   3
loop_
 _symmetry_equiv_pos_site_id
 _symmetry_equiv_pos_as_xyz
  1  'x, y, z'
loop_
 _atom_site_type_symbol
 _atom_site_label
 _atom_site_symmetry_multiplicity
 _atom_site_fract_x
 _atom_site_fract_y
 _atom_site_fract_z
 _atom_site_occupancy
  Ti  Ti0  1  0.73822610  0.73822610  -0.00000000  1.0
  Ti  Ti1  1  0.26177390  0.00000000  -0.00000000  1.0
  Ti  Ti2  1  0.00000000  0.26177390  -0.00000000  1.0
  Mn  Mn3  1  0.39130306  0.39130306  0.50000000  1.0
  Mn  Mn4  1  0.60869694  0.00000000  0.50000000  1.0
  Mn  Mn5  1  0.00000000  0.60869694  0.50000000  1.0
  As  As6  1  0.66666667  0.33333333  0.00000000  1.0
  As  As7  1  0.33333333  0.66666667  0.00000000  1.0
  As  As8  1  0.00000000  0.00000000  0.50000000  1.0
