# generated using pymatgen
data_Ti2Co(PO5)2
_symmetry_space_group_name_H-M   'P 1'
_cell_length_a   7.34718814
_cell_length_b   7.14607566
_cell_length_c   7.55766842
_cell_angle_alpha   90.00000000
_cell_angle_beta   118.22201751
_cell_angle_gamma   90.00000000
_symmetry_Int_Tables_number   1
_chemical_formula_structural   Ti2Co(PO5)2
_chemical_formula_sum   'Ti4 Co2 P4 O20'
_cell_volume   349.63310672
_cell_formula_units_Z   2
loop_
 _symmetry_equiv_pos_site_id
 _symmetry_equiv_pos_as_xyz
  1  'x, y, z'
loop_
 _atom_site_type_symbol
 _atom_site_label
 _atom_site_symmetry_multiplicity
 _atom_site_fract_x
 _atom_site_fract_y
 _atom_site_fract_z
 _atom_site_occupancy
  Ti  Ti0  1  0.74580351  0.72393298  0.70988550  1.0
  Ti  Ti1  1  0.74580351  0.77606702  0.20988550  1.0
  Ti  Ti2  1  0.25419649  0.22393298  0.79011450  1.0
  Ti  Ti3  1  0.25419649  0.27606702  0.29011450  1.0
  Co  Co4  1  0.00000000  0.00000000  0.00000000  1.0
  Co  Co5  1  0.00000000  0.50000000  0.50000000  1.0
  P  P6  1  0.74760504  0.36807416  0.00039580  1.0
  P  P7  1  0.74760504  0.13192584  0.50039580  1.0
  P  P8  1  0.25239496  0.86807416  0.49960420  1.0
  P  P9  1  0.25239496  0.63192584  0.99960420  1.0
  O  O10  1  0.93735416  0.26759632  0.59466709  1.0
  O  O11  1  0.93735416  0.23240368  0.09466709  1.0
  O  O12  1  0.06264584  0.76759632  0.90533291  1.0
  O  O13  1  0.06264584  0.73240368  0.40533291  1.0
  O  O14  1  0.76609637  1.00333345  0.67391855  1.0
  O  O15  1  0.76609637  0.49666655  0.17391855  1.0
  O  O16  1  0.23390363  0.50333345  0.82608145  1.0
  O  O17  1  0.23390363  -0.00333345  0.32608145  1.0
  O  O18  1  0.79079944  0.85202127  1.01285302  1.0
  O  O19  1  0.79079944  0.64797873  0.51285302  1.0
  O  O20  1  0.20920056  0.35202127  0.48714698  1.0
  O  O21  1  0.20920056  0.14797873  -0.01285302  1.0
  O  O22  1  0.75339474  0.48627125  0.83183291  1.0
  O  O23  1  0.75339474  0.01372875  0.33183291  1.0
  O  O24  1  0.24660526  0.98627125  0.66816709  1.0
  O  O25  1  0.24660526  0.51372875  0.16816709  1.0
  O  O26  1  0.45078926  0.74954967  0.58513181  1.0
  O  O27  1  0.45078926  0.75045033  0.08513181  1.0
  O  O28  1  0.54921074  0.24954967  0.91486819  1.0
  O  O29  1  0.54921074  0.25045033  0.41486819  1.0
