# generated using pymatgen
data_RbAlSiO4
_symmetry_space_group_name_H-M   'P 1'
_cell_length_a   8.92867219
_cell_length_b   9.34654030
_cell_length_c   5.38077092
_cell_angle_alpha   90.00000000
_cell_angle_beta   90.00000000
_cell_angle_gamma   90.00000000
_symmetry_Int_Tables_number   1
_chemical_formula_structural   RbAlSiO4
_chemical_formula_sum   'Rb4 Al4 Si4 O16'
_cell_volume   449.03714092
_cell_formula_units_Z   4
loop_
 _symmetry_equiv_pos_site_id
 _symmetry_equiv_pos_as_xyz
  1  'x, y, z'
loop_
 _atom_site_type_symbol
 _atom_site_label
 _atom_site_symmetry_multiplicity
 _atom_site_fract_x
 _atom_site_fract_y
 _atom_site_fract_z
 _atom_site_occupancy
  Rb  Rb0  1  0.49872401  0.80124332  0.01929082  1.0
  Rb  Rb1  1  0.99872401  0.69875668  0.01929082  1.0
  Rb  Rb2  1  0.50127599  0.19875668  0.51929082  1.0
  Rb  Rb3  1  0.00127599  0.30124332  0.51929082  1.0
  Al  Al4  1  0.18497043  0.91598619  0.49613146  1.0
  Al  Al5  1  0.68497043  0.58401381  0.49613146  1.0
  Al  Al6  1  0.81502957  0.08401381  0.99613146  1.0
  Al  Al7  1  0.31502957  0.41598619  0.99613146  1.0
  Si  Si8  1  0.30801029  0.58491600  0.49563019  1.0
  Si  Si9  1  0.80801029  0.91508400  0.49563019  1.0
  Si  Si10  1  0.69198971  0.41508400  0.99563019  1.0
  Si  Si11  1  0.19198971  0.08491600  0.99563019  1.0
  O  O12  1  0.48981612  0.58949651  0.49570089  1.0
  O  O13  1  0.98981612  0.91050349  0.49570089  1.0
  O  O14  1  0.51018388  0.41050349  -0.00429911  1.0
  O  O15  1  0.01018388  0.08949651  -0.00429911  1.0
  O  O16  1  0.25351606  0.24334943  0.91719244  1.0
  O  O17  1  0.75351606  0.25665057  0.91719244  1.0
  O  O18  1  0.74648394  0.75665057  0.41719244  1.0
  O  O19  1  0.24648394  0.74334943  0.41719244  1.0
  O  O20  1  0.25459927  0.96830841  0.79024736  1.0
  O  O21  1  0.75459927  0.53169159  0.79024736  1.0
  O  O22  1  0.74540073  0.03169159  0.29024736  1.0
  O  O23  1  0.24540073  0.46830841  0.29024736  1.0
  O  O24  1  0.24477512  0.53825196  0.77140684  1.0
  O  O25  1  0.74477512  0.96174804  0.77140684  1.0
  O  O26  1  0.75522488  0.46174804  0.27140684  1.0
  O  O27  1  0.25522488  0.03825196  0.27140684  1.0
