# generated using pymatgen
data_La4V5(Si2O11)2
_symmetry_space_group_name_H-M   'P 1'
_cell_length_a   7.33904867
_cell_length_b   7.33904867
_cell_length_c   11.23644233
_cell_angle_alpha   80.31459171
_cell_angle_beta   99.68540829
_cell_angle_gamma   134.72851352
_symmetry_Int_Tables_number   1
_chemical_formula_structural   La4V5(Si2O11)2
_chemical_formula_sum   'La4 V5 Si4 O22'
_cell_volume   422.76986069
_cell_formula_units_Z   1
loop_
 _symmetry_equiv_pos_site_id
 _symmetry_equiv_pos_as_xyz
  1  'x, y, z'
loop_
 _atom_site_type_symbol
 _atom_site_label
 _atom_site_symmetry_multiplicity
 _atom_site_fract_x
 _atom_site_fract_y
 _atom_site_fract_z
 _atom_site_occupancy
  La  La0  1  0.85865469  0.14134531  0.73991478  1.0
  La  La1  1  0.14134531  -0.14134531  0.26008522  1.0
  La  La2  1  0.57150087  0.42849913  0.74808873  1.0
  La  La3  1  0.42849913  -0.42849913  0.25191127  1.0
  V  V4  1  0.50000000  -0.00000000  0.00000000  1.0
  V  V5  1  1.00000000  0.50000000  0.00000000  1.0
  V  V6  1  0.00000000  -0.00000000  0.50000000  1.0
  V  V7  1  0.50000000  0.50000000  0.00000000  1.0
  V  V8  1  0.00000000  0.00000000  0.00000000  1.0
  Si  Si9  1  0.79617563  0.20382437  0.26843330  1.0
  Si  Si10  1  0.20382437  -0.20382437  0.73156670  1.0
  Si  Si11  1  0.63853050  0.36146950  0.45714375  1.0
  Si  Si12  1  0.36146950  -0.36146950  0.54285625  1.0
  O  O13  1  0.72777475  -0.23032735  0.87107419  1.0
  O  O14  1  1.23032735  0.27222525  0.87107419  1.0
  O  O15  1  0.76967265  0.72777475  0.12892581  1.0
  O  O16  1  0.27222525  0.23032735  0.12892581  1.0
  O  O17  1  0.66690000  -0.19445946  0.58615139  1.0
  O  O18  1  1.19445946  0.33310000  0.58615139  1.0
  O  O19  1  0.80554054  0.66690000  0.41384861  1.0
  O  O20  1  0.33310000  0.19445946  0.41384861  1.0
  O  O21  1  0.46557821  0.01340293  0.81485839  1.0
  O  O22  1  0.98659707  0.53442179  0.81485839  1.0
  O  O23  1  1.01340293  0.46557821  0.18514161  1.0
  O  O24  1  0.53442179  -0.01340293  0.18514161  1.0
  O  O25  1  0.91123177  0.08876823  0.33803819  1.0
  O  O26  1  0.08876823  -0.08876823  0.66196181  1.0
  O  O27  1  0.84939094  0.15060906  0.99017931  1.0
  O  O28  1  0.15060906  -0.15060906  0.00982069  1.0
  O  O29  1  0.71686459  0.28313541  0.36122559  1.0
  O  O30  1  0.28313541  -0.28313541  0.63877441  1.0
  O  O31  1  0.68935910  0.31064090  0.59769664  1.0
  O  O32  1  0.31064090  -0.31064090  0.40230336  1.0
  O  O33  1  0.64632573  0.35367427  0.98323293  1.0
  O  O34  1  0.35367427  -0.35367427  0.01676707  1.0
