# generated using pymatgen
data_CaIn2O4
_symmetry_space_group_name_H-M   'P 1'
_cell_length_a   6.63545303
_cell_length_b   6.63545303
_cell_length_c   6.63545303
_cell_angle_alpha   119.99495109
_cell_angle_beta   119.99495109
_cell_angle_gamma   90.00874519
_symmetry_Int_Tables_number   1
_chemical_formula_structural   CaIn2O4
_chemical_formula_sum   'Ca2 In4 O8'
_cell_volume   206.59979017
_cell_formula_units_Z   2
loop_
 _symmetry_equiv_pos_site_id
 _symmetry_equiv_pos_as_xyz
  1  'x, y, z'
loop_
 _atom_site_type_symbol
 _atom_site_label
 _atom_site_symmetry_multiplicity
 _atom_site_fract_x
 _atom_site_fract_y
 _atom_site_fract_z
 _atom_site_occupancy
  Ca  Ca0  1  0.75000000  0.25000000  0.50000000  1.0
  Ca  Ca1  1  0.00000000  0.00000000  0.00000000  1.0
  In  In2  1  0.37500000  0.62500000  0.25000000  1.0
  In  In3  1  0.37500000  1.12500000  0.75000000  1.0
  In  In4  1  0.37500000  0.62500000  0.75000000  1.0
  In  In5  1  0.87500000  0.62500000  1.25000000  1.0
  O  O6  1  0.13837943  0.86160906  0.72322963  1.0
  O  O7  1  0.13837943  0.41514980  0.27677037  1.0
  O  O8  1  0.61162057  0.83485020  1.22322963  1.0
  O  O9  1  0.61162057  0.38839094  0.77677037  1.0
  O  O10  1  1.13839094  0.86162057  1.27677037  1.0
  O  O11  1  0.58485020  0.86162057  0.72322963  1.0
  O  O12  1  1.16514980  0.38837943  0.77677037  1.0
  O  O13  1  0.61160906  0.38837943  0.22322963  1.0
