# generated using pymatgen
data_Te2Ir
_symmetry_space_group_name_H-M   'P 1'
_cell_length_a   13.61502693
_cell_length_b   4.06785331
_cell_length_c   5.43433827
_cell_angle_alpha   90.00000000
_cell_angle_beta   90.00000000
_cell_angle_gamma   90.00000000
_symmetry_Int_Tables_number   1
_chemical_formula_structural   Te2Ir
_chemical_formula_sum   'Te8 Ir4'
_cell_volume   300.97502347
_cell_formula_units_Z   4
loop_
 _symmetry_equiv_pos_site_id
 _symmetry_equiv_pos_as_xyz
  1  'x, y, z'
loop_
 _atom_site_type_symbol
 _atom_site_label
 _atom_site_symmetry_multiplicity
 _atom_site_fract_x
 _atom_site_fract_y
 _atom_site_fract_z
 _atom_site_occupancy
  Te  Te0  1  0.80743617  0.25000000  0.29694983  1.0
  Te  Te1  1  0.30743617  0.25000000  0.20305017  1.0
  Te  Te2  1  0.19256383  0.75000000  0.70305017  1.0
  Te  Te3  1  0.69256383  0.75000000  0.79694983  1.0
  Te  Te4  1  0.45010721  0.25000000  0.73568972  1.0
  Te  Te5  1  0.95010721  0.25000000  0.76431028  1.0
  Te  Te6  1  0.54989279  0.75000000  0.26431028  1.0
  Te  Te7  1  0.04989279  0.75000000  0.23568972  1.0
  Ir  Ir8  1  0.63396702  0.25000000  0.51713952  1.0
  Ir  Ir9  1  0.13396702  0.25000000  0.98286048  1.0
  Ir  Ir10  1  0.36603298  0.75000000  0.48286048  1.0
  Ir  Ir11  1  0.86603298  0.75000000  0.01713952  1.0
