# generated using pymatgen
data_NaHCO3
_symmetry_space_group_name_H-M   'P 1'
_cell_length_a   3.64089062
_cell_length_b   8.23135063
_cell_length_c   9.14816002
_cell_angle_alpha   90.00000000
_cell_angle_beta   97.36749430
_cell_angle_gamma   90.00000000
_symmetry_Int_Tables_number   1
_chemical_formula_structural   NaHCO3
_chemical_formula_sum   'Na4 H4 C4 O12'
_cell_volume   271.90181075
_cell_formula_units_Z   4
loop_
 _symmetry_equiv_pos_site_id
 _symmetry_equiv_pos_as_xyz
  1  'x, y, z'
loop_
 _atom_site_type_symbol
 _atom_site_label
 _atom_site_symmetry_multiplicity
 _atom_site_fract_x
 _atom_site_fract_y
 _atom_site_fract_z
 _atom_site_occupancy
  Na  Na0  1  0.49892909  0.61806165  0.78065996  1.0
  Na  Na1  1  0.49892909  0.88193835  0.28065996  1.0
  Na  Na2  1  0.50107091  0.11806165  0.71934004  1.0
  Na  Na3  1  0.50107091  0.38193835  0.21934004  1.0
  H  H4  1  0.95746230  0.86710824  0.58531713  1.0
  H  H5  1  0.95746230  0.63289176  0.08531713  1.0
  H  H6  1  0.04253770  0.36710824  0.91468287  1.0
  H  H7  1  0.04253770  0.13289176  0.41468287  1.0
  C  C8  1  0.90784925  0.91349514  0.99250524  1.0
  C  C9  1  0.90784925  0.58650486  0.49250524  1.0
  C  C10  1  0.09215075  0.41349514  0.50749476  1.0
  C  C11  1  0.09215075  0.08650486  0.00749476  1.0
  O  O12  1  0.98007134  0.67936556  0.60449376  1.0
  O  O13  1  0.98007134  0.82063444  0.10449376  1.0
  O  O14  1  0.01992866  0.17936556  0.89550624  1.0
  O  O15  1  0.01992866  0.32063444  0.39550624  1.0
  O  O16  1  0.97019283  0.99130822  0.57779548  1.0
  O  O17  1  0.97019283  0.50869178  0.07779548  1.0
  O  O18  1  0.02980717  0.49130822  0.92220452  1.0
  O  O19  1  0.02980717  0.00869178  0.42220452  1.0
  O  O20  1  0.70422949  0.87956599  0.87524927  1.0
  O  O21  1  0.70422949  0.62043401  0.37524927  1.0
  O  O22  1  0.29577051  0.37956599  0.62475073  1.0
  O  O23  1  0.29577051  0.12043401  0.12475073  1.0
