# generated using pymatgen
data_K2RuNCl5O
_symmetry_space_group_name_H-M   'P 1'
_cell_length_a   13.78494268
_cell_length_b   10.45572373
_cell_length_c   7.18281457
_cell_angle_alpha   90.00000000
_cell_angle_beta   90.00000000
_cell_angle_gamma   90.00000000
_symmetry_Int_Tables_number   1
_chemical_formula_structural   K2RuNCl5O
_chemical_formula_sum   'K8 Ru4 N4 Cl20 O4'
_cell_volume   1035.27021354
_cell_formula_units_Z   4
loop_
 _symmetry_equiv_pos_site_id
 _symmetry_equiv_pos_as_xyz
  1  'x, y, z'
loop_
 _atom_site_type_symbol
 _atom_site_label
 _atom_site_symmetry_multiplicity
 _atom_site_fract_x
 _atom_site_fract_y
 _atom_site_fract_z
 _atom_site_occupancy
  K  K0  1  0.64996058  0.49991084  0.13576187  1.0
  K  K1  1  0.64996058  0.00008916  0.13576187  1.0
  K  K2  1  0.14996058  0.49991084  0.36423813  1.0
  K  K3  1  0.14996058  0.00008916  0.36423813  1.0
  K  K4  1  0.35003942  0.99991084  0.86423813  1.0
  K  K5  1  0.35003942  0.50008916  0.86423813  1.0
  K  K6  1  0.85003942  0.99991084  0.63576187  1.0
  K  K7  1  0.85003942  0.50008916  0.63576187  1.0
  Ru  Ru8  1  0.88913881  0.25000000  0.17941897  1.0
  Ru  Ru9  1  0.38913881  0.25000000  0.32058103  1.0
  Ru  Ru10  1  0.11086119  0.75000000  0.82058103  1.0
  Ru  Ru11  1  0.61086119  0.75000000  0.67941897  1.0
  N  N12  1  0.98444025  0.25000000  0.02327958  1.0
  N  N13  1  0.48444025  0.25000000  0.47672042  1.0
  N  N14  1  0.01555975  0.75000000  0.97672042  1.0
  N  N15  1  0.51555975  0.75000000  0.52327958  1.0
  Cl  Cl16  1  0.88377414  0.47908545  0.19027782  1.0
  Cl  Cl17  1  0.88377414  0.02091455  0.19027782  1.0
  Cl  Cl18  1  0.38377414  0.47908545  0.30972218  1.0
  Cl  Cl19  1  0.38377414  0.02091455  0.30972218  1.0
  Cl  Cl20  1  0.11622586  0.97908545  0.80972218  1.0
  Cl  Cl21  1  0.11622586  0.52091455  0.80972218  1.0
  Cl  Cl22  1  0.61622586  0.97908545  0.69027782  1.0
  Cl  Cl23  1  0.61622586  0.52091455  0.69027782  1.0
  Cl  Cl24  1  0.99008667  0.25000000  0.45287508  1.0
  Cl  Cl25  1  0.49008667  0.25000000  0.04712492  1.0
  Cl  Cl26  1  0.00991333  0.75000000  0.54712492  1.0
  Cl  Cl27  1  0.50991333  0.75000000  0.95287508  1.0
  Cl  Cl28  1  0.77766146  0.25000000  0.92061294  1.0
  Cl  Cl29  1  0.27766146  0.25000000  0.57938706  1.0
  Cl  Cl30  1  0.22233854  0.75000000  0.07938706  1.0
  Cl  Cl31  1  0.72233854  0.75000000  0.42061294  1.0
  Cl  Cl32  1  0.75072913  0.25000000  0.37903339  1.0
  Cl  Cl33  1  0.25072913  0.25000000  0.12096661  1.0
  Cl  Cl34  1  0.24927087  0.75000000  0.62096661  1.0
  Cl  Cl35  1  0.74927087  0.75000000  0.87903339  1.0
  O  O36  1  0.54317974  0.25000000  0.59136466  1.0
  O  O37  1  0.04317974  0.25000000  0.90863534  1.0
  O  O38  1  0.45682026  0.75000000  0.40863534  1.0
  O  O39  1  0.95682026  0.75000000  0.09136466  1.0
