# generated using pymatgen
data_Nb5(Si3Ni)2
_symmetry_space_group_name_H-M   'P 1'
_cell_length_a   9.11649415
_cell_length_b   9.11649415
_cell_length_c   9.11649415
_cell_angle_alpha   32.12983072
_cell_angle_beta   32.12983072
_cell_angle_gamma   32.12983072
_symmetry_Int_Tables_number   1
_chemical_formula_structural   Nb5(Si3Ni)2
_chemical_formula_sum   'Nb5 Si6 Ni2'
_cell_volume   190.45316438
_cell_formula_units_Z   1
loop_
 _symmetry_equiv_pos_site_id
 _symmetry_equiv_pos_as_xyz
  1  'x, y, z'
loop_
 _atom_site_type_symbol
 _atom_site_label
 _atom_site_symmetry_multiplicity
 _atom_site_fract_x
 _atom_site_fract_y
 _atom_site_fract_z
 _atom_site_occupancy
  Nb  Nb0  1  0.00000000  0.00000000  -0.00000000  1.0
  Nb  Nb1  1  0.65225428  0.65225428  -0.34774572  1.0
  Nb  Nb2  1  0.34774572  0.34774572  -0.65225428  1.0
  Nb  Nb3  1  0.83245809  -0.16754191  -0.16754191  1.0
  Nb  Nb4  1  0.16754191  0.16754191  0.16754191  1.0
  Si  Si5  1  0.41831002  -0.08749302  -0.08749302  1.0
  Si  Si6  1  0.91250698  -0.08749302  -0.58168998  1.0
  Si  Si7  1  0.91250698  -0.58168998  -0.08749302  1.0
  Si  Si8  1  0.58168998  0.08749302  0.08749302  1.0
  Si  Si9  1  1.08749302  0.08749302  -0.41831002  1.0
  Si  Si10  1  1.08749302  -0.41831002  0.08749302  1.0
  Ni  Ni11  1  0.54973582  0.54973582  -0.45026418  1.0
  Ni  Ni12  1  0.45026418  0.45026418  -0.54973582  1.0
