# generated using pymatgen
data_NaLa(CO3)2
_symmetry_space_group_name_H-M   'P 1'
_cell_length_a   5.22758371
_cell_length_b   6.52687960
_cell_length_c   7.28391029
_cell_angle_alpha   90.00000000
_cell_angle_beta   90.00000000
_cell_angle_gamma   90.00000000
_symmetry_Int_Tables_number   1
_chemical_formula_structural   NaLa(CO3)2
_chemical_formula_sum   'Na2 La2 C4 O12'
_cell_volume   248.52563101
_cell_formula_units_Z   2
loop_
 _symmetry_equiv_pos_site_id
 _symmetry_equiv_pos_as_xyz
  1  'x, y, z'
loop_
 _atom_site_type_symbol
 _atom_site_label
 _atom_site_symmetry_multiplicity
 _atom_site_fract_x
 _atom_site_fract_y
 _atom_site_fract_z
 _atom_site_occupancy
  Na  Na0  1  0.00000000  0.52453268  0.52664567  1.0
  Na  Na1  1  0.00000000  0.47546732  0.02664567  1.0
  La  La2  1  0.50000000  0.86490934  0.82844942  1.0
  La  La3  1  0.50000000  0.13509066  0.32844942  1.0
  C  C4  1  0.50000000  0.41666429  0.74208616  1.0
  C  C5  1  0.50000000  0.58333571  0.24208616  1.0
  C  C6  1  0.00000000  0.97107078  0.49928955  1.0
  C  C7  1  0.00000000  0.02892922  -0.00071045  1.0
  O  O8  1  0.78278754  0.88380366  0.53608449  1.0
  O  O9  1  0.78278754  0.11619634  0.03608449  1.0
  O  O10  1  0.21721246  0.88380366  0.53608449  1.0
  O  O11  1  0.21721246  0.11619634  0.03608449  1.0
  O  O12  1  0.71112310  0.51133337  0.77860610  1.0
  O  O13  1  0.71112310  0.48866663  0.27860610  1.0
  O  O14  1  0.28887690  0.51133337  0.77860610  1.0
  O  O15  1  0.28887690  0.48866663  0.27860610  1.0
  O  O16  1  0.50000000  0.76360944  0.16567203  1.0
  O  O17  1  0.50000000  0.23639056  0.66567203  1.0
  O  O18  1  0.00000000  0.85501097  0.91447600  1.0
  O  O19  1  0.00000000  0.14498903  0.41447600  1.0
