# generated using pymatgen
data_LiYGeO4
_symmetry_space_group_name_H-M   'P 1'
_cell_length_a   11.23474007
_cell_length_b   6.37007631
_cell_length_c   5.11407295
_cell_angle_alpha   90.00000000
_cell_angle_beta   90.00000000
_cell_angle_gamma   90.00000000
_symmetry_Int_Tables_number   1
_chemical_formula_structural   LiYGeO4
_chemical_formula_sum   'Li4 Y4 Ge4 O16'
_cell_volume   365.99451988
_cell_formula_units_Z   4
loop_
 _symmetry_equiv_pos_site_id
 _symmetry_equiv_pos_as_xyz
  1  'x, y, z'
loop_
 _atom_site_type_symbol
 _atom_site_label
 _atom_site_symmetry_multiplicity
 _atom_site_fract_x
 _atom_site_fract_y
 _atom_site_fract_z
 _atom_site_occupancy
  Li  Li0  1  0.00000000  0.50000000  0.00000000  1.0
  Li  Li1  1  0.00000000  0.00000000  0.00000000  1.0
  Li  Li2  1  0.50000000  0.50000000  0.50000000  1.0
  Li  Li3  1  0.50000000  0.00000000  0.50000000  1.0
  Y  Y4  1  0.77407660  0.25000000  0.50896897  1.0
  Y  Y5  1  0.27407660  0.25000000  0.99103103  1.0
  Y  Y6  1  0.22592340  0.75000000  0.49103103  1.0
  Y  Y7  1  0.72592340  0.75000000  0.00896897  1.0
  Ge  Ge8  1  0.58474724  0.25000000  0.06862168  1.0
  Ge  Ge9  1  0.08474724  0.25000000  0.43137832  1.0
  Ge  Ge10  1  0.41525276  0.75000000  0.93137832  1.0
  Ge  Ge11  1  0.91525276  0.75000000  0.56862168  1.0
  O  O12  1  0.66451715  0.46292955  0.22363255  1.0
  O  O13  1  0.66451715  0.03707045  0.22363255  1.0
  O  O14  1  0.16451715  0.46292955  0.27636745  1.0
  O  O15  1  0.16451715  0.03707045  0.27636745  1.0
  O  O16  1  0.33548285  0.96292955  0.77636745  1.0
  O  O17  1  0.33548285  0.53707045  0.77636745  1.0
  O  O18  1  0.83548285  0.96292955  0.72363255  1.0
  O  O19  1  0.83548285  0.53707045  0.72363255  1.0
  O  O20  1  0.94379471  0.25000000  0.27997027  1.0
  O  O21  1  0.44379471  0.25000000  0.22002973  1.0
  O  O22  1  0.05620529  0.75000000  0.72002973  1.0
  O  O23  1  0.55620529  0.75000000  0.77997027  1.0
  O  O24  1  0.59358101  0.25000000  0.72725175  1.0
  O  O25  1  0.09358101  0.25000000  0.77274825  1.0
  O  O26  1  0.40641899  0.75000000  0.27274825  1.0
  O  O27  1  0.90641899  0.75000000  0.22725175  1.0
