# generated using pymatgen
data_Ba14Na11Li5N6
_symmetry_space_group_name_H-M   'P 1'
_cell_length_a   12.54789652
_cell_length_b   12.54789652
_cell_length_c   12.54789652
_cell_angle_alpha   60.00000000
_cell_angle_beta   60.00000000
_cell_angle_gamma   60.00000000
_symmetry_Int_Tables_number   1
_chemical_formula_structural   Ba14Na11Li5N6
_chemical_formula_sum   'Ba14 Na11 Li5 N6'
_cell_volume   1397.00444331
_cell_formula_units_Z   1
loop_
 _symmetry_equiv_pos_site_id
 _symmetry_equiv_pos_as_xyz
  1  'x, y, z'
loop_
 _atom_site_type_symbol
 _atom_site_label
 _atom_site_symmetry_multiplicity
 _atom_site_fract_x
 _atom_site_fract_y
 _atom_site_fract_z
 _atom_site_occupancy
  Ba  Ba0  1  -0.71306704  0.71306704  0.71306704  1.0
  Ba  Ba1  1  -0.28693296  0.71306704  0.28693296  1.0
  Ba  Ba2  1  -0.28693296  0.28693296  0.71306704  1.0
  Ba  Ba3  1  0.28693296  1.28693296  -0.28693296  1.0
  Ba  Ba4  1  0.28693296  -0.28693296  0.28693296  1.0
  Ba  Ba5  1  -0.28693296  0.28693296  0.28693296  1.0
  Ba  Ba6  1  0.89627746  0.89627746  -0.10372254  1.0
  Ba  Ba7  1  0.31116761  0.89627746  -0.10372254  1.0
  Ba  Ba8  1  0.89627746  0.89627746  -0.68883239  1.0
  Ba  Ba9  1  0.89627746  0.31116761  -0.10372254  1.0
  Ba  Ba10  1  0.10313153  0.10313153  0.10313153  1.0
  Ba  Ba11  1  0.69060542  0.10313153  0.10313153  1.0
  Ba  Ba12  1  0.10313153  0.10313153  0.69060542  1.0
  Ba  Ba13  1  0.10313153  0.69060542  0.10313153  1.0
  Na  Na14  1  0.50942003  0.99057997  -0.00942003  1.0
  Na  Na15  1  0.99057997  0.99057997  -0.49057997  1.0
  Na  Na16  1  0.99057997  0.50942003  -0.00942003  1.0
  Na  Na17  1  0.50942003  0.50942003  -0.00942003  1.0
  Na  Na18  1  0.50942003  0.99057997  -0.49057997  1.0
  Na  Na19  1  0.99057997  0.50942003  -0.49057997  1.0
  Na  Na20  1  0.32848109  0.32848109  0.32848109  1.0
  Na  Na21  1  0.01455672  0.32848109  0.32848109  1.0
  Na  Na22  1  0.32848109  0.32848109  0.01455672  1.0
  Na  Na23  1  0.32848109  0.01455672  0.32848109  1.0
  Na  Na24  1  -0.50000000  0.50000000  0.50000000  1.0
  Li  Li25  1  -0.31661550  0.68338450  0.68338450  1.0
  Li  Li26  1  0.94984651  0.68338450  -0.31661550  1.0
  Li  Li27  1  -0.31661550  0.68338450  0.94984651  1.0
  Li  Li28  1  0.68338450  0.94984651  -0.31661550  1.0
  Li  Li29  1  0.00000000  0.00000000  0.00000000  1.0
  N  N30  1  -0.85281778  0.85281778  0.85281778  1.0
  N  N31  1  -0.14718222  0.85281778  0.14718222  1.0
  N  N32  1  -0.14718222  0.14718222  0.85281778  1.0
  N  N33  1  0.14718222  1.14718222  -0.14718222  1.0
  N  N34  1  0.14718222  -0.14718222  0.14718222  1.0
  N  N35  1  -0.14718222  0.14718222  0.14718222  1.0
