# generated using pymatgen
data_NaH2C2N5O2
_symmetry_space_group_name_H-M   'P 1'
_cell_length_a   3.75919967
_cell_length_b   16.27160797
_cell_length_c   10.05492453
_cell_angle_alpha   90.00000000
_cell_angle_beta   96.19466295
_cell_angle_gamma   90.00000000
_symmetry_Int_Tables_number   1
_chemical_formula_structural   NaH2C2N5O2
_chemical_formula_sum   'Na4 H8 C8 N20 O8'
_cell_volume   611.45065095
_cell_formula_units_Z   4
loop_
 _symmetry_equiv_pos_site_id
 _symmetry_equiv_pos_as_xyz
  1  'x, y, z'
loop_
 _atom_site_type_symbol
 _atom_site_label
 _atom_site_symmetry_multiplicity
 _atom_site_fract_x
 _atom_site_fract_y
 _atom_site_fract_z
 _atom_site_occupancy
  Na  Na0  1  0.69213569  0.08177495  0.39956843  1.0
  Na  Na1  1  0.69213569  0.41822505  0.89956843  1.0
  Na  Na2  1  0.30786431  0.58177495  0.10043157  1.0
  Na  Na3  1  0.30786431  0.91822505  0.60043157  1.0
  H  H4  1  0.81795468  0.82671007  0.44037242  1.0
  H  H5  1  0.81795468  0.67328993  0.94037242  1.0
  H  H6  1  0.18204532  0.32671007  0.05962758  1.0
  H  H7  1  0.18204532  0.17328993  0.55962758  1.0
  H  H8  1  0.16657222  0.22203919  0.42328931  1.0
  H  H9  1  0.16657222  0.27796081  0.92328931  1.0
  H  H10  1  0.83342778  0.72203919  0.07671069  1.0
  H  H11  1  0.83342778  0.77796081  0.57671069  1.0
  C  C12  1  0.84780804  0.38239309  0.42367701  1.0
  C  C13  1  0.84780804  0.11760691  0.92367701  1.0
  C  C14  1  0.15219196  0.88239309  0.07632299  1.0
  C  C15  1  0.15219196  0.61760691  0.57632299  1.0
  C  C16  1  0.78713810  0.12636508  0.05947594  1.0
  C  C17  1  0.78713810  0.37363492  0.55947594  1.0
  C  C18  1  0.21286190  0.62636508  0.44052406  1.0
  C  C19  1  0.21286190  0.87363492  0.94052406  1.0
  N  N20  1  0.98685465  0.85587729  0.26803675  1.0
  N  N21  1  0.98685465  0.64412271  0.76803675  1.0
  N  N22  1  0.01314535  0.35587729  0.23196325  1.0
  N  N23  1  0.01314535  0.14412271  0.73196325  1.0
  N  N24  1  0.98824097  0.82559482  0.14604185  1.0
  N  N25  1  0.98824097  0.67440518  0.64604185  1.0
  N  N26  1  0.01175903  0.32559482  0.35395815  1.0
  N  N27  1  0.01175903  0.17440518  0.85395815  1.0
  N  N28  1  0.84917227  0.43005079  0.23250902  1.0
  N  N29  1  0.84917227  0.06994921  0.73250902  1.0
  N  N30  1  0.15082773  0.93005079  0.26749098  1.0
  N  N31  1  0.15082773  0.56994921  0.76749098  1.0
  N  N32  1  0.74121934  0.44909349  0.35017388  1.0
  N  N33  1  0.74121934  0.05090651  0.85017388  1.0
  N  N34  1  0.25878066  0.94909349  0.14982612  1.0
  N  N35  1  0.25878066  0.55090651  0.64982612  1.0
  N  N36  1  0.73256449  0.13251539  0.17066600  1.0
  N  N37  1  0.73256449  0.36748461  0.67066600  1.0
  N  N38  1  0.26743551  0.63251539  0.32933400  1.0
  N  N39  1  0.26743551  0.86748461  0.82933400  1.0
  O  O40  1  0.80459218  0.47663993  0.12947980  1.0
  O  O41  1  0.80459218  0.02336007  0.62947980  1.0
  O  O42  1  0.19540782  0.97663993  0.37052020  1.0
  O  O43  1  0.19540782  0.52336007  0.87052020  1.0
  O  O44  1  0.22034970  0.16765702  0.46477016  1.0
  O  O45  1  0.22034970  0.33234298  0.96477016  1.0
  O  O46  1  0.77965030  0.66765702  0.03522984  1.0
  O  O47  1  0.77965030  0.83234298  0.53522984  1.0
