# generated using pymatgen
data_CoPH3CO4
_symmetry_space_group_name_H-M   'P 1'
_cell_length_a   16.65670537
_cell_length_b   4.77913122
_cell_length_c   5.76403089
_cell_angle_alpha   90.00000000
_cell_angle_beta   90.00000000
_cell_angle_gamma   90.00000000
_symmetry_Int_Tables_number   1
_chemical_formula_structural   CoPH3CO4
_chemical_formula_sum   'Co4 P4 H12 C4 O16'
_cell_volume   458.84326188
_cell_formula_units_Z   4
loop_
 _symmetry_equiv_pos_site_id
 _symmetry_equiv_pos_as_xyz
  1  'x, y, z'
loop_
 _atom_site_type_symbol
 _atom_site_label
 _atom_site_symmetry_multiplicity
 _atom_site_fract_x
 _atom_site_fract_y
 _atom_site_fract_z
 _atom_site_occupancy
  C  C0  1  0.44741213  0.30159561  0.69388407  1.0
  C  C1  1  0.55258787  0.69840439  0.19388407  1.0
  C  C2  1  0.05258787  0.80159561  0.19388407  1.0
  C  C3  1  0.94741213  0.19840439  0.69388407  1.0
  P  P4  1  0.34123064  0.23999845  0.69331893  1.0
  P  P5  1  0.65876936  0.76000155  0.19331893  1.0
  P  P6  1  0.15876936  0.73999845  0.19331893  1.0
  P  P7  1  0.84123064  0.26000155  0.69331893  1.0
  O  O8  1  0.34638323  1.00229128  0.19313332  1.0
  O  O9  1  0.65361677  -0.00229128  0.69313332  1.0
  O  O10  1  0.15361677  0.50229128  0.69313332  1.0
  O  O11  1  0.84638323  0.49770872  0.19313332  1.0
  O  O12  1  0.30209460  0.40145137  0.48216443  1.0
  O  O13  1  0.69790540  0.59854863  0.98216443  1.0
  O  O14  1  0.19790540  0.90145137  0.98216443  1.0
  O  O15  1  0.80209460  0.09854863  0.48216443  1.0
  O  O16  1  0.30194116  0.40145308  0.90427817  1.0
  O  O17  1  0.69805884  0.59854692  0.40427817  1.0
  O  O18  1  0.19805884  0.90145308  0.40427817  1.0
  O  O19  1  0.80194116  0.09854692  0.90427817  1.0
  O  O20  1  0.32883593  0.92204603  0.69332843  1.0
  O  O21  1  0.67116407  0.07795397  0.19332843  1.0
  O  O22  1  0.17116407  0.42204603  0.19332843  1.0
  O  O23  1  0.82883593  0.57795397  0.69332843  1.0
  Co  Co24  1  0.26486657  0.18615396  0.19323851  1.0
  Co  Co25  1  0.73513343  0.81384604  0.69323851  1.0
  Co  Co26  1  0.23513343  0.68615396  0.69323851  1.0
  Co  Co27  1  0.76486657  0.31384604  0.19323851  1.0
  H  H28  1  0.47418929  0.20887716  0.84952099  1.0
  H  H29  1  0.52581071  0.79112284  0.34952099  1.0
  H  H30  1  0.02581071  0.70887716  0.34952099  1.0
  H  H31  1  0.97418929  0.29112284  0.84952099  1.0
  H  H32  1  0.45750654  0.52808234  0.69359852  1.0
  H  H33  1  0.54249346  0.47191766  0.19359852  1.0
  H  H34  1  0.04249346  1.02808234  0.19359852  1.0
  H  H35  1  0.95750654  -0.02808234  0.69359852  1.0
  H  H36  1  0.47448974  0.20804030  0.53903462  1.0
  H  H37  1  0.52551026  0.79195970  0.03903462  1.0
  H  H38  1  0.02551026  0.70804030  0.03903462  1.0
  H  H39  1  0.97448974  0.29195970  0.53903462  1.0
