# generated using pymatgen
data_Ca(BRh)2
_symmetry_space_group_name_H-M   'P 1'
_cell_length_a   7.02642251
_cell_length_b   6.06276075
_cell_length_c   5.50262442
_cell_angle_alpha   74.64734063
_cell_angle_beta   56.31097804
_cell_angle_gamma   49.04168133
_symmetry_Int_Tables_number   1
_chemical_formula_structural   Ca(BRh)2
_chemical_formula_sum   'Ca2 B4 Rh4'
_cell_volume   145.45983981
_cell_formula_units_Z   2
loop_
 _symmetry_equiv_pos_site_id
 _symmetry_equiv_pos_as_xyz
  1  'x, y, z'
loop_
 _atom_site_type_symbol
 _atom_site_label
 _atom_site_symmetry_multiplicity
 _atom_site_fract_x
 _atom_site_fract_y
 _atom_site_fract_z
 _atom_site_occupancy
  Ca  Ca0  1  0.50000000  -0.50000000  0.50000000  1.0
  Ca  Ca1  1  0.75000000  0.75000000  0.75000000  1.0
  B  B2  1  0.82373412  -0.82373412  0.82373412  1.0
  B  B3  1  1.42626588  0.07373412  0.42626588  1.0
  B  B4  1  0.17626588  -0.17626588  0.17626588  1.0
  B  B5  1  1.07373412  0.42626588  0.07373412  1.0
  Rh  Rh6  1  0.86962809  0.86962809  -0.86962809  1.0
  Rh  Rh7  1  0.13037191  0.13037191  -0.13037191  1.0
  Rh  Rh8  1  1.38037191  0.38037191  0.11962809  1.0
  Rh  Rh9  1  0.11962809  0.11962809  1.38037191  1.0
