# generated using pymatgen
data_Cs2TeS2
_symmetry_space_group_name_H-M   'P 1'
_cell_length_a   7.00976625
_cell_length_b   7.00976625
_cell_length_c   8.28713563
_cell_angle_alpha   90.00000000
_cell_angle_beta   90.00000000
_cell_angle_gamma   110.73717020
_symmetry_Int_Tables_number   1
_chemical_formula_structural   Cs2TeS2
_chemical_formula_sum   'Cs4 Te2 S4'
_cell_volume   380.82264055
_cell_formula_units_Z   2
loop_
 _symmetry_equiv_pos_site_id
 _symmetry_equiv_pos_as_xyz
  1  'x, y, z'
loop_
 _atom_site_type_symbol
 _atom_site_label
 _atom_site_symmetry_multiplicity
 _atom_site_fract_x
 _atom_site_fract_y
 _atom_site_fract_z
 _atom_site_occupancy
  Cs  Cs0  1  0.10294261  0.89705739  0.53891948  1.0
  Cs  Cs1  1  -0.10294261  1.10294261  0.03891948  1.0
  Cs  Cs2  1  0.42963875  0.57036125  0.34542163  1.0
  Cs  Cs3  1  -0.42963875  1.42963875  0.84542163  1.0
  Te  Te4  1  0.21914770  0.78085230  -0.00030980  1.0
  Te  Te5  1  -0.21914770  1.21914770  0.49969020  1.0
  S  S6  1  -0.07128841  1.59685064  0.17263435  1.0
  S  S7  1  0.59685064  0.92871159  0.67263435  1.0
  S  S8  1  -0.59685064  1.07128841  0.17263435  1.0
  S  S9  1  0.07128841  0.40314936  0.67263435  1.0
