# generated using pymatgen
data_Sr3TiSi4O15
_symmetry_space_group_name_H-M   'P 1'
_cell_length_a   7.81146026
_cell_length_b   7.69245618
_cell_length_c   11.26423658
_cell_angle_alpha   90.00000000
_cell_angle_beta   103.66343969
_cell_angle_gamma   90.00000000
_symmetry_Int_Tables_number   1
_chemical_formula_structural   Sr3TiSi4O15
_chemical_formula_sum   'Sr6 Ti2 Si8 O30'
_cell_volume   657.70515517
_cell_formula_units_Z   2
loop_
 _symmetry_equiv_pos_site_id
 _symmetry_equiv_pos_as_xyz
  1  'x, y, z'
loop_
 _atom_site_type_symbol
 _atom_site_label
 _atom_site_symmetry_multiplicity
 _atom_site_fract_x
 _atom_site_fract_y
 _atom_site_fract_z
 _atom_site_occupancy
  Ti  Ti0  1  0.00000000  0.00000000  0.00000000  1.0
  Ti  Ti1  1  0.00000000  0.50000000  0.00000000  1.0
  Si  Si2  1  0.13001913  0.54531251  0.30147831  1.0
  Si  Si3  1  0.13001913  0.95468749  0.30147831  1.0
  Si  Si4  1  0.86998087  0.04531251  0.69852169  1.0
  Si  Si5  1  0.86998087  0.45468749  0.69852169  1.0
  Si  Si6  1  0.74799850  0.46221815  0.20031388  1.0
  Si  Si7  1  0.74799850  0.03778185  0.20031388  1.0
  Si  Si8  1  0.25200150  0.96221815  0.79968612  1.0
  Si  Si9  1  0.25200150  0.53778185  0.79968612  1.0
  O  O10  1  0.19497319  0.75000000  0.30871023  1.0
  O  O11  1  0.80502681  0.25000000  0.69128977  1.0
  O  O12  1  0.15089732  0.47420980  0.16822919  1.0
  O  O13  1  0.15089732  0.02579020  0.16822919  1.0
  O  O14  1  0.84910268  0.97420980  0.83177081  1.0
  O  O15  1  0.84910268  0.52579020  0.83177081  1.0
  O  O16  1  0.25699936  0.43753379  0.40865175  1.0
  O  O17  1  0.25699936  0.06246621  0.40865175  1.0
  O  O18  1  0.74300064  0.93753379  0.59134825  1.0
  O  O19  1  0.74300064  0.56246621  0.59134825  1.0
  O  O20  1  0.91801995  0.95698873  0.30500141  1.0
  O  O21  1  0.91801995  0.54301127  0.30500141  1.0
  O  O22  1  0.08198005  0.45698873  0.69499859  1.0
  O  O23  1  0.08198005  0.04301127  0.69499859  1.0
  O  O24  1  0.57292416  0.54073511  0.23195750  1.0
  O  O25  1  0.57292416  0.95926489  0.23195750  1.0
  O  O26  1  0.42707584  0.04073511  0.76804250  1.0
  O  O27  1  0.42707584  0.45926489  0.76804250  1.0
  O  O28  1  0.77486176  0.49618675  0.06163598  1.0
  O  O29  1  0.77486176  0.00381325  0.06163598  1.0
  O  O30  1  0.22513824  0.99618675  0.93836402  1.0
  O  O31  1  0.22513824  0.50381325  0.93836402  1.0
  O  O32  1  0.74287481  0.25000000  0.22190763  1.0
  O  O33  1  0.25712519  0.75000000  0.77809237  1.0
  O  O34  1  0.02344294  0.75000000  0.01650964  1.0
  O  O35  1  0.97655706  0.25000000  0.98349036  1.0
  O  O36  1  0.42029636  0.75000000  0.49548896  1.0
  O  O37  1  0.57970364  0.25000000  0.50451104  1.0
  O  O38  1  0.39952237  0.25000000  0.02145311  1.0
  O  O39  1  0.60047763  0.75000000  0.97854689  1.0
  Sr  Sr40  1  0.35987111  0.75000000  0.10561602  1.0
  Sr  Sr41  1  0.64012889  0.25000000  0.89438398  1.0
  Sr  Sr42  1  0.70654725  0.75000000  0.41445653  1.0
  Sr  Sr43  1  0.29345275  0.25000000  0.58554347  1.0
  Sr  Sr44  1  0.40102348  0.25000000  0.25928272  1.0
  Sr  Sr45  1  0.59897652  0.75000000  0.74071728  1.0
