# generated using pymatgen
data_Ag2SeO4
_symmetry_space_group_name_H-M   'P 1'
_cell_length_a   8.59310256
_cell_length_b   7.02347364
_cell_length_c   6.50647140
_cell_angle_alpha   78.75546271
_cell_angle_beta   53.28783873
_cell_angle_gamma   47.95669856
_symmetry_Int_Tables_number   1
_chemical_formula_structural   Ag2SeO4
_chemical_formula_sum   'Ag4 Se2 O8'
_cell_volume   219.43457179
_cell_formula_units_Z   2
loop_
 _symmetry_equiv_pos_site_id
 _symmetry_equiv_pos_as_xyz
  1  'x, y, z'
loop_
 _atom_site_type_symbol
 _atom_site_label
 _atom_site_symmetry_multiplicity
 _atom_site_fract_x
 _atom_site_fract_y
 _atom_site_fract_z
 _atom_site_occupancy
  Ag  Ag0  1  0.79890791  0.20109209  0.79890791  1.0
  Ag  Ag1  1  0.20109209  0.79890791  0.20109209  1.0
  Ag  Ag2  1  0.45109209  0.04890791  0.45109209  1.0
  Ag  Ag3  1  0.04890791  0.45109209  0.04890791  1.0
  Se  Se4  1  0.50000000  0.50000000  0.50000000  1.0
  Se  Se5  1  0.75000000  -0.25000000  0.75000000  1.0
  O  O6  1  0.33029564  0.82102679  0.49527250  1.0
  O  O7  1  0.35340506  0.49527250  -0.17897321  1.0
  O  O8  1  0.49527250  0.35340506  0.33029564  1.0
  O  O9  1  -0.17897321  1.33029564  0.35340506  1.0
  O  O10  1  0.91970436  -0.57102679  0.75472750  1.0
  O  O11  1  -0.10340506  0.75472750  0.42897321  1.0
  O  O12  1  0.75472750  -0.10340506  0.91970436  1.0
  O  O13  1  -0.57102679  0.91970436  0.89659494  1.0
