# generated using pymatgen
data_C6F5
_symmetry_space_group_name_H-M   'P 1'
_cell_length_a   14.42959690
_cell_length_b   7.77697879
_cell_length_c   15.68750444
_cell_angle_alpha   66.22572457
_cell_angle_beta   29.55273784
_cell_angle_gamma   84.22153759
_symmetry_Int_Tables_number   1
_chemical_formula_structural   C6F5
_chemical_formula_sum   'C24 F20'
_cell_volume   661.58508702
_cell_formula_units_Z   4
loop_
 _symmetry_equiv_pos_site_id
 _symmetry_equiv_pos_as_xyz
  1  'x, y, z'
loop_
 _atom_site_type_symbol
 _atom_site_label
 _atom_site_symmetry_multiplicity
 _atom_site_fract_x
 _atom_site_fract_y
 _atom_site_fract_z
 _atom_site_occupancy
  C  C0  1  0.03400568  -0.01637312  0.93341090  1.0
  C  C1  1  0.31658910  0.20104346  0.21599432  1.0
  C  C2  1  -0.01637312  0.03400568  0.04895654  1.0
  C  C3  1  0.20104346  0.31658910  0.26637312  1.0
  C  C4  1  -0.13261660  0.33284253  0.53947154  1.0
  C  C5  1  0.71052846  0.98969747  -0.61738340  1.0
  C  C6  1  0.33284253  -0.13261660  0.26030253  1.0
  C  C7  1  0.98969747  0.71052846  -0.08284253  1.0
  C  C8  1  0.17113601  0.15510858  0.73096902  1.0
  C  C9  1  0.51903098  0.30721361  0.07886399  1.0
  C  C10  1  0.15510858  0.17113601  -0.05721361  1.0
  C  C11  1  0.30721361  0.51903098  0.09489142  1.0
  C  C12  1  -0.02041476  0.22762640  0.48859650  1.0
  C  C13  1  0.76140350  0.94580814  -0.72958524  1.0
  C  C14  1  0.22762640  -0.02041476  0.30419186  1.0
  C  C15  1  0.94580814  0.76140350  0.02237360  1.0
  C  C16  1  0.21854376  0.10834389  0.62191591  1.0
  C  C17  1  0.62808409  0.19880356  0.03145624  1.0
  C  C18  1  0.10834389  0.21854376  0.05119644  1.0
  C  C19  1  0.19880356  0.62808409  0.14165611  1.0
  C  C20  1  0.12703699  -0.11494428  0.71571236  1.0
  C  C21  1  0.53428764  -0.02219493  0.12296301  1.0
  C  C22  1  -0.11494428  0.12703699  0.27219493  1.0
  C  C23  1  -0.02219493  0.53428764  0.36494428  1.0
  F  F24  1  0.24259455  0.65452845  0.34747352  1.0
  F  F25  1  0.90252648  0.49459652  0.00740545  1.0
  F  F26  1  0.65452845  0.24259455  -0.24459652  1.0
  F  F27  1  0.49459652  0.90252648  -0.40452845  1.0
  F  F28  1  0.34976188  0.27695870  0.42817589  1.0
  F  F29  1  0.82182411  0.30489648  -0.09976188  1.0
  F  F30  1  0.27695870  0.34976188  -0.05489648  1.0
  F  F31  1  0.30489648  0.82182411  -0.02695870  1.0
  F  F32  1  0.61160495  0.51880668  -0.00800809  1.0
  F  F33  1  1.25800809  0.37240354  -0.36160495  1.0
  F  F34  1  0.51880668  0.61160495  -0.12240354  1.0
  F  F35  1  0.37240354  1.25800809  -0.26880668  1.0
  F  F36  1  0.17106119  -0.16159309  0.61219114  1.0
  F  F37  1  0.63780886  0.87165923  0.07893881  1.0
  F  F38  1  -0.16159309  0.17106119  0.37834077  1.0
  F  F39  1  0.87165923  0.63780886  -0.58840691  1.0
  F  F40  1  0.58862859  -0.18244698  0.38010227  1.0
  F  F41  1  0.86989773  1.03628388  -0.33862859  1.0
  F  F42  1  -0.18244698  0.58862859  0.21371612  1.0
  F  F43  1  1.03628388  0.86989773  -0.56755302  1.0
