# generated using pymatgen
data_CdPbO3
_symmetry_space_group_name_H-M   'P 1'
_cell_length_a   5.83818467
_cell_length_b   8.37772726
_cell_length_c   5.74058568
_cell_angle_alpha   90.00000000
_cell_angle_beta   90.00000000
_cell_angle_gamma   90.00000000
_symmetry_Int_Tables_number   1
_chemical_formula_structural   CdPbO3
_chemical_formula_sum   'Cd4 Pb4 O12'
_cell_volume   280.77617197
_cell_formula_units_Z   4
loop_
 _symmetry_equiv_pos_site_id
 _symmetry_equiv_pos_as_xyz
  1  'x, y, z'
loop_
 _atom_site_type_symbol
 _atom_site_label
 _atom_site_symmetry_multiplicity
 _atom_site_fract_x
 _atom_site_fract_y
 _atom_site_fract_z
 _atom_site_occupancy
  Cd  Cd0  1  0.04637842  0.75000000  0.50823741  1.0
  Cd  Cd1  1  0.54637842  0.75000000  0.99176259  1.0
  Cd  Cd2  1  0.95362158  0.25000000  0.49176259  1.0
  Cd  Cd3  1  0.45362158  0.25000000  0.00823741  1.0
  Pb  Pb4  1  0.50000000  0.00000000  0.50000000  1.0
  Pb  Pb5  1  0.50000000  0.50000000  0.50000000  1.0
  Pb  Pb6  1  0.00000000  0.00000000  0.00000000  1.0
  Pb  Pb7  1  0.00000000  0.50000000  0.00000000  1.0
  O  O8  1  0.31208802  0.92817031  0.81635218  1.0
  O  O9  1  0.31208802  0.57182969  0.81635218  1.0
  O  O10  1  0.81208802  0.92817031  0.68364782  1.0
  O  O11  1  0.81208802  0.57182969  0.68364782  1.0
  O  O12  1  0.68791198  0.42817031  0.18364782  1.0
  O  O13  1  0.68791198  0.07182969  0.18364782  1.0
  O  O14  1  0.18791198  0.42817031  0.31635218  1.0
  O  O15  1  0.18791198  0.07182969  0.31635218  1.0
  O  O16  1  0.91908415  0.75000000  0.12891298  1.0
  O  O17  1  0.41908415  0.75000000  0.37108702  1.0
  O  O18  1  0.08091585  0.25000000  0.87108702  1.0
  O  O19  1  0.58091585  0.25000000  0.62891298  1.0
