# generated using pymatgen
data_Sr5As3ClO12
_symmetry_space_group_name_H-M   'P 1'
_cell_length_a   10.47941340
_cell_length_b   10.47941340
_cell_length_c   7.29684149
_cell_angle_alpha   90.00000000
_cell_angle_beta   90.00000000
_cell_angle_gamma   120.00000000
_symmetry_Int_Tables_number   1
_chemical_formula_structural   Sr5As3ClO12
_chemical_formula_sum   'Sr10 As6 Cl2 O24'
_cell_volume   693.96807115
_cell_formula_units_Z   2
loop_
 _symmetry_equiv_pos_site_id
 _symmetry_equiv_pos_as_xyz
  1  'x, y, z'
loop_
 _atom_site_type_symbol
 _atom_site_label
 _atom_site_symmetry_multiplicity
 _atom_site_fract_x
 _atom_site_fract_y
 _atom_site_fract_z
 _atom_site_occupancy
  Sr  Sr0  1  1.01095824  0.75300615  0.25000000  1.0
  Sr  Sr1  1  0.75300615  0.74204792  0.75000000  1.0
  Sr  Sr2  1  0.74204792  -0.01095824  0.25000000  1.0
  Sr  Sr3  1  0.24699385  0.25795208  0.25000000  1.0
  Sr  Sr4  1  -0.01095824  0.24699385  0.75000000  1.0
  Sr  Sr5  1  0.25795208  1.01095824  0.75000000  1.0
  Sr  Sr6  1  0.33333333  0.66666667  0.50254597  1.0
  Sr  Sr7  1  0.33333333  0.66666667  0.99745403  1.0
  Sr  Sr8  1  0.66666667  0.33333333  0.00254597  1.0
  Sr  Sr9  1  0.66666667  0.33333333  0.49745403  1.0
  As  As10  1  0.37719833  0.96821500  0.25000000  1.0
  As  As11  1  0.96821500  0.59101668  0.75000000  1.0
  As  As12  1  0.59101668  0.62280167  0.25000000  1.0
  As  As13  1  0.03178500  0.40898332  0.25000000  1.0
  As  As14  1  0.62280167  0.03178500  0.75000000  1.0
  As  As15  1  0.40898332  0.37719833  0.75000000  1.0
  Cl  Cl16  1  0.00000000  0.00000000  0.50000000  1.0
  Cl  Cl17  1  0.00000000  0.00000000  0.00000000  1.0
  O  O18  1  0.26129120  0.90740056  0.43955498  1.0
  O  O19  1  0.26129120  0.90740056  0.06044502  1.0
  O  O20  1  0.90740056  0.64610937  0.93955498  1.0
  O  O21  1  0.90740056  0.64610937  0.56044502  1.0
  O  O22  1  0.64610937  0.73870880  0.43955498  1.0
  O  O23  1  0.64610937  0.73870880  0.06044502  1.0
  O  O24  1  0.09259944  0.35389063  0.43955498  1.0
  O  O25  1  0.09259944  0.35389063  0.06044502  1.0
  O  O26  1  0.73870880  0.09259944  0.93955498  1.0
  O  O27  1  0.73870880  0.09259944  0.56044502  1.0
  O  O28  1  0.35389063  0.26129120  0.93955498  1.0
  O  O29  1  0.35389063  0.26129120  0.56044502  1.0
  O  O30  1  0.46989514  0.86826996  0.25000000  1.0
  O  O31  1  0.86826996  0.39837482  0.75000000  1.0
  O  O32  1  0.39837482  0.53010486  0.25000000  1.0
  O  O33  1  0.13173004  0.60162518  0.25000000  1.0
  O  O34  1  0.53010486  0.13173004  0.75000000  1.0
  O  O35  1  0.60162518  0.46989514  0.75000000  1.0
  O  O36  1  0.65939883  0.50309193  0.25000000  1.0
  O  O37  1  0.50309193  0.84369309  0.75000000  1.0
  O  O38  1  0.84369309  0.34060117  0.25000000  1.0
  O  O39  1  0.49690807  0.15630691  0.25000000  1.0
  O  O40  1  0.34060117  0.49690807  0.75000000  1.0
  O  O41  1  0.15630691  0.65939883  0.75000000  1.0
