# generated using pymatgen
data_AlVO4
_symmetry_space_group_name_H-M   'P 1'
_cell_length_a   9.23785245
_cell_length_b   7.83043769
_cell_length_c   6.59482570
_cell_angle_alpha   101.55662582
_cell_angle_beta   107.20126469
_cell_angle_gamma   96.23281137
_symmetry_Int_Tables_number   1
_chemical_formula_structural   AlVO4
_chemical_formula_sum   'Al6 V6 O24'
_cell_volume   439.23441703
_cell_formula_units_Z   6
loop_
 _symmetry_equiv_pos_site_id
 _symmetry_equiv_pos_as_xyz
  1  'x, y, z'
loop_
 _atom_site_type_symbol
 _atom_site_label
 _atom_site_symmetry_multiplicity
 _atom_site_fract_x
 _atom_site_fract_y
 _atom_site_fract_z
 _atom_site_occupancy
  Al  Al0  1  -0.70953179  -0.88267697  -0.96086454  1.0
  Al  Al1  1  -0.29046821  -0.11732303  -0.03913546  1.0
  Al  Al2  1  -0.49239969  -0.69351974  -0.53665404  1.0
  Al  Al3  1  -0.50760031  -0.30648026  -0.46334596  1.0
  Al  Al4  1  -0.90737745  -0.69865383  -0.24882803  1.0
  Al  Al5  1  -0.09262255  -0.30134617  -0.75117197  1.0
  V  V6  1  -0.37522283  -0.70084015  -0.98332827  1.0
  V  V7  1  -0.62477717  -0.29915985  -0.01667173  1.0
  V  V8  1  -0.84278397  -0.60014011  -0.69564290  1.0
  V  V9  1  -0.15721603  -0.39985989  -0.30435710  1.0
  V  V10  1  -0.75522805  -0.99639436  -0.50324455  1.0
  V  V11  1  -0.24477195  -0.00360564  -0.49675545  1.0
  O  O12  1  -0.28612962  -0.88212576  -0.97801439  1.0
  O  O13  1  -0.71387038  -0.11787424  -0.02198561  1.0
  O  O14  1  -0.85996846  -0.74167854  -0.95623946  1.0
  O  O15  1  -0.14003154  -0.25832146  -0.04376054  1.0
  O  O16  1  -0.52285286  -0.72840311  -0.85391121  1.0
  O  O17  1  -0.47714714  -0.27159689  -0.14608879  1.0
  O  O18  1  -0.24642008  -0.51120976  -0.85898359  1.0
  O  O19  1  -0.75357992  -0.48879024  -0.14101641  1.0
  O  O20  1  -0.53340462  -0.29628762  -0.75368207  1.0
  O  O21  1  -0.46659538  -0.70371238  -0.24631793  1.0
  O  O22  1  -0.93573724  -0.43756174  -0.75556726  1.0
  O  O23  1  -0.06426276  -0.56243826  -0.24443274  1.0
  O  O24  1  -0.93057007  -0.10060029  -0.65824412  1.0
  O  O25  1  -0.06942993  -0.89939971  -0.34175588  1.0
  O  O26  1  -0.67468545  -0.86851278  -0.65520576  1.0
  O  O27  1  -0.32531455  -0.13148723  -0.34479424  1.0
  O  O28  1  -0.92197851  -0.70043791  -0.54130823  1.0
  O  O29  1  -0.07802149  -0.29956209  -0.45869177  1.0
  O  O30  1  -0.64246308  -0.52243777  -0.55052615  1.0
  O  O31  1  -0.35753692  -0.47756223  -0.44947385  1.0
  O  O32  1  -0.35326221  -0.85138821  -0.54836087  1.0
  O  O33  1  -0.64673779  -0.14861179  -0.45163913  1.0
  O  O34  1  -0.76426562  -0.86572345  -0.25191525  1.0
  O  O35  1  -0.23573438  -0.13427655  -0.74808475  1.0
