# generated using pymatgen
data_Ca3ZnCoO6
_symmetry_space_group_name_H-M   'P 1'
_cell_length_a   6.34707668
_cell_length_b   6.34707668
_cell_length_c   6.34707668
_cell_angle_alpha   91.52351538
_cell_angle_beta   91.52351538
_cell_angle_gamma   91.52351538
_symmetry_Int_Tables_number   1
_chemical_formula_structural   Ca3ZnCoO6
_chemical_formula_sum   'Ca6 Zn2 Co2 O12'
_cell_volume   255.41833816
_cell_formula_units_Z   2
loop_
 _symmetry_equiv_pos_site_id
 _symmetry_equiv_pos_as_xyz
  1  'x, y, z'
loop_
 _atom_site_type_symbol
 _atom_site_label
 _atom_site_symmetry_multiplicity
 _atom_site_fract_x
 _atom_site_fract_y
 _atom_site_fract_z
 _atom_site_occupancy
  Ca  Ca0  1  0.88499421  1.25000000  -0.38499421  1.0
  Ca  Ca1  1  1.38499421  0.11500579  -0.25000000  1.0
  Ca  Ca2  1  0.75000000  0.38499421  0.11500579  1.0
  Ca  Ca3  1  1.25000000  0.61500579  -0.11500579  1.0
  Ca  Ca4  1  1.11500579  -0.25000000  0.38499421  1.0
  Ca  Ca5  1  0.61500579  0.88499421  0.25000000  1.0
  Zn  Zn6  1  0.25000000  0.25000000  0.25000000  1.0
  Zn  Zn7  1  0.75000000  0.75000000  0.75000000  1.0
  Co  Co8  1  0.50000000  0.50000000  0.50000000  1.0
  Co  Co9  1  0.00000000  0.00000000  0.00000000  1.0
  O  O10  1  1.21504769  0.41794452  -0.45299131  1.0
  O  O11  1  0.71504769  1.04700869  -0.08205548  1.0
  O  O12  1  0.95299131  0.08205548  0.28495231  1.0
  O  O13  1  1.45299131  -0.21504769  0.58205548  1.0
  O  O14  1  1.58205548  0.45299131  -0.21504769  1.0
  O  O15  1  1.08205548  0.28495231  -0.04700869  1.0
  O  O16  1  0.78495231  0.58205548  0.45299131  1.0
  O  O17  1  1.28495231  -0.04700869  0.08205548  1.0
  O  O18  1  0.54700869  1.21504769  -0.58205548  1.0
  O  O19  1  1.04700869  0.91794452  -0.28495231  1.0
  O  O20  1  0.91794452  0.71504769  0.04700869  1.0
  O  O21  1  0.41794452  0.54700869  0.21504769  1.0
