# generated using pymatgen
data_KAl9O14
_symmetry_space_group_name_H-M   'P 1'
_cell_length_a   8.28302398
_cell_length_b   7.76363578
_cell_length_c   9.79838658
_cell_angle_alpha   90.00000000
_cell_angle_beta   121.73588135
_cell_angle_gamma   90.00000000
_symmetry_Int_Tables_number   1
_chemical_formula_structural   KAl9O14
_chemical_formula_sum   'K2 Al18 O28'
_cell_volume   535.88759077
_cell_formula_units_Z   2
loop_
 _symmetry_equiv_pos_site_id
 _symmetry_equiv_pos_as_xyz
  1  'x, y, z'
loop_
 _atom_site_type_symbol
 _atom_site_label
 _atom_site_symmetry_multiplicity
 _atom_site_fract_x
 _atom_site_fract_y
 _atom_site_fract_z
 _atom_site_occupancy
  K  K0  1  0.50000000  0.50000000  0.50000000  1.0
  K  K1  1  0.50000000  0.00000000  -0.00000000  1.0
  Al  Al2  1  -0.00000000  0.50000000  0.50000000  1.0
  Al  Al3  1  0.00000000  0.00000000  0.00000000  1.0
  Al  Al4  1  0.93426862  0.17704498  0.27856843  1.0
  Al  Al5  1  0.93426862  0.32295502  0.77856843  1.0
  Al  Al6  1  0.06573138  0.67704498  0.22143157  1.0
  Al  Al7  1  0.06573138  0.82295502  0.72143157  1.0
  Al  Al8  1  0.72918370  0.83495468  0.37824151  1.0
  Al  Al9  1  0.72918370  0.66504532  0.87824151  1.0
  Al  Al10  1  0.27081630  0.33495468  0.12175849  1.0
  Al  Al11  1  0.27081630  0.16504532  0.62175849  1.0
  Al  Al12  1  0.67600394  0.18876053  0.40727524  1.0
  Al  Al13  1  0.67600394  0.31123947  0.90727524  1.0
  Al  Al14  1  0.32399606  0.68876053  0.09272476  1.0
  Al  Al15  1  0.32399606  0.81123947  0.59272476  1.0
  Al  Al16  1  0.67428262  0.49761256  0.17170051  1.0
  Al  Al17  1  0.67428262  0.00238744  0.67170051  1.0
  Al  Al18  1  0.32571738  0.99761256  0.32829949  1.0
  Al  Al19  1  0.32571738  0.50238744  0.82829949  1.0
  O  O20  1  0.92786049  0.91727036  0.78888937  1.0
  O  O21  1  0.92786049  0.58272964  0.28888937  1.0
  O  O22  1  0.07213951  0.41727036  0.71111063  1.0
  O  O23  1  0.07213951  0.08272964  0.21111063  1.0
  O  O24  1  0.90650757  0.78634175  0.03824729  1.0
  O  O25  1  0.90650757  0.71365825  0.53824729  1.0
  O  O26  1  0.09349243  0.28634175  0.46175271  1.0
  O  O27  1  0.09349243  0.21365825  0.96175271  1.0
  O  O28  1  0.79322533  0.04189648  0.33161128  1.0
  O  O29  1  0.79322533  0.45810352  0.83161128  1.0
  O  O30  1  0.20677467  0.54189648  0.16838872  1.0
  O  O31  1  0.20677467  0.95810352  0.66838872  1.0
  O  O32  1  0.75390782  0.29400672  0.11450541  1.0
  O  O33  1  0.75390782  0.20599328  0.61450541  1.0
  O  O34  1  0.24609218  0.79400672  0.38549459  1.0
  O  O35  1  0.24609218  0.70599328  0.88549459  1.0
  O  O36  1  0.74594783  0.39745776  0.37424656  1.0
  O  O37  1  0.74594783  0.10254224  0.87424656  1.0
  O  O38  1  0.25405217  0.89745776  0.12575344  1.0
  O  O39  1  0.25405217  0.60254224  0.62575344  1.0
  O  O40  1  0.59575398  0.93818867  0.44891859  1.0
  O  O41  1  0.59575398  0.56181133  0.94891859  1.0
  O  O42  1  0.40424602  0.43818867  0.05108141  1.0
  O  O43  1  0.40424602  0.06181133  0.55108141  1.0
  O  O44  1  0.42029627  0.20768531  0.29007932  1.0
  O  O45  1  0.42029627  0.29231469  0.79007932  1.0
  O  O46  1  0.57970373  0.70768531  0.20992068  1.0
  O  O47  1  0.57970373  0.79231469  0.70992068  1.0
