# generated using pymatgen
data_V2NiO6
_symmetry_space_group_name_H-M   'P 1'
_cell_length_a   4.81766629
_cell_length_b   8.83870601
_cell_length_c   7.17554023
_cell_angle_alpha   102.10809897
_cell_angle_beta   94.74671113
_cell_angle_gamma   90.03381633
_symmetry_Int_Tables_number   1
_chemical_formula_structural   V2NiO6
_chemical_formula_sum   'V6 Ni3 O18'
_cell_volume   297.67589279
_cell_formula_units_Z   3
loop_
 _symmetry_equiv_pos_site_id
 _symmetry_equiv_pos_as_xyz
  1  'x, y, z'
loop_
 _atom_site_type_symbol
 _atom_site_label
 _atom_site_symmetry_multiplicity
 _atom_site_fract_x
 _atom_site_fract_y
 _atom_site_fract_z
 _atom_site_occupancy
  O  O0  1  -0.89352609  -0.19872157  -0.67427521  1.0
  O  O1  1  -0.10647391  -0.80127843  -0.32572479  1.0
  O  O2  1  -0.82597753  -0.85886838  -0.64509059  1.0
  O  O3  1  -0.17402247  -0.14113162  -0.35490941  1.0
  O  O4  1  -0.79140106  -0.74529603  -0.96886660  1.0
  O  O5  1  -0.20859894  -0.25470397  -0.03113340  1.0
  O  O6  1  -0.70495387  -0.07802984  -0.97167042  1.0
  O  O7  1  -0.29504613  -0.92197016  -0.02832958  1.0
  O  O8  1  -0.70519095  -0.41339740  -0.97528579  1.0
  O  O9  1  -0.29480905  -0.58660260  -0.02471421  1.0
  O  O10  1  -0.65961306  -0.60750844  -0.33446821  1.0
  O  O11  1  -0.34038694  -0.39249156  -0.66553179  1.0
  O  O12  1  -0.36123134  -0.69942359  -0.70615488  1.0
  O  O13  1  -0.63876866  -0.30057641  -0.29384512  1.0
  O  O14  1  -0.33705380  -0.98929738  -0.66250733  1.0
  O  O15  1  -0.66294620  -0.01070262  -0.33749267  1.0
  O  O16  1  -0.83129502  -0.51782635  -0.64963793  1.0
  O  O17  1  -0.16870498  -0.48217365  -0.35036207  1.0
  Ni  Ni18  1  -0.99862567  -0.33381154  -0.48889020  1.0
  Ni  Ni19  1  -0.00137433  -0.66618846  -0.51110980  1.0
  Ni  Ni20  1  -0.00000000  0.00000000  -0.50000000  1.0
  V  V21  1  -0.88358620  -0.23635355  -0.91663210  1.0
  V  V22  1  -0.11641380  -0.76364645  -0.08336790  1.0
  V  V23  1  -0.54518789  -0.89156318  -0.78300234  1.0
  V  V24  1  -0.45481211  -0.10843682  -0.21699766  1.0
  V  V25  1  -0.54613205  -0.53230240  -0.78473708  1.0
  V  V26  1  -0.45386795  -0.46769760  -0.21526292  1.0
