# generated using pymatgen
data_La2CdRh2
_symmetry_space_group_name_H-M   'P 1'
_cell_length_a   7.76661679
_cell_length_b   7.76661679
_cell_length_c   3.92388694
_cell_angle_alpha   90.00000000
_cell_angle_beta   90.00000000
_cell_angle_gamma   90.00000000
_symmetry_Int_Tables_number   1
_chemical_formula_structural   La2CdRh2
_chemical_formula_sum   'La4 Cd2 Rh4'
_cell_volume   236.69018004
_cell_formula_units_Z   2
loop_
 _symmetry_equiv_pos_site_id
 _symmetry_equiv_pos_as_xyz
  1  'x, y, z'
loop_
 _atom_site_type_symbol
 _atom_site_label
 _atom_site_symmetry_multiplicity
 _atom_site_fract_x
 _atom_site_fract_y
 _atom_site_fract_z
 _atom_site_occupancy
  La  La0  1  0.33337041  0.16662959  0.50000000  1.0
  La  La1  1  0.83337041  0.33337041  0.50000000  1.0
  La  La2  1  0.66662959  0.83337041  0.50000000  1.0
  La  La3  1  0.16662959  0.66662959  0.50000000  1.0
  Cd  Cd4  1  0.50000000  0.50000000  0.00000000  1.0
  Cd  Cd5  1  0.00000000  0.00000000  0.00000000  1.0
  Rh  Rh6  1  0.86212124  0.63787876  0.00000000  1.0
  Rh  Rh7  1  0.36212124  0.86212124  0.00000000  1.0
  Rh  Rh8  1  0.13787876  0.36212124  0.00000000  1.0
  Rh  Rh9  1  0.63787876  0.13787876  0.00000000  1.0
