# generated using pymatgen
data_Gd2(Zn2Ge)3
_symmetry_space_group_name_H-M   'P 1'
_cell_length_a   7.63162058
_cell_length_b   7.63162058
_cell_length_c   4.04308044
_cell_angle_alpha   90.00000000
_cell_angle_beta   90.00000000
_cell_angle_gamma   120.00000000
_symmetry_Int_Tables_number   1
_chemical_formula_structural   Gd2(Zn2Ge)3
_chemical_formula_sum   'Gd2 Zn6 Ge3'
_cell_volume   203.92785620
_cell_formula_units_Z   1
loop_
 _symmetry_equiv_pos_site_id
 _symmetry_equiv_pos_as_xyz
  1  'x, y, z'
loop_
 _atom_site_type_symbol
 _atom_site_label
 _atom_site_symmetry_multiplicity
 _atom_site_fract_x
 _atom_site_fract_y
 _atom_site_fract_z
 _atom_site_occupancy
  Gd  Gd0  1  0.33333333  0.66666667  0.00000000  1.0
  Gd  Gd1  1  0.66666667  0.33333333  0.00000000  1.0
  Zn  Zn2  1  0.28419712  0.28419712  0.50000000  1.0
  Zn  Zn3  1  -0.00000000  0.71580288  0.50000000  1.0
  Zn  Zn4  1  0.71580288  0.00000000  0.50000000  1.0
  Zn  Zn5  1  0.80934443  0.80934443  0.00000000  1.0
  Zn  Zn6  1  -0.00000000  0.19065557  0.00000000  1.0
  Zn  Zn7  1  0.19065557  0.00000000  0.00000000  1.0
  Ge  Ge8  1  0.61178844  0.61178844  0.50000000  1.0
  Ge  Ge9  1  -0.00000000  0.38821156  0.50000000  1.0
  Ge  Ge10  1  0.38821156  0.00000000  0.50000000  1.0
