# generated using pymatgen
data_Ta2Mn3O8
_symmetry_space_group_name_H-M   'P 1'
_cell_length_a   9.41723580
_cell_length_b   9.41723580
_cell_length_c   9.41723580
_cell_angle_alpha   105.99792786
_cell_angle_beta   105.99792786
_cell_angle_gamma   116.66638698
_symmetry_Int_Tables_number   1
_chemical_formula_structural   Ta2Mn3O8
_chemical_formula_sum   'Ta8 Mn12 O32'
_cell_volume   635.21225368
_cell_formula_units_Z   4
loop_
 _symmetry_equiv_pos_site_id
 _symmetry_equiv_pos_as_xyz
  1  'x, y, z'
loop_
 _atom_site_type_symbol
 _atom_site_label
 _atom_site_symmetry_multiplicity
 _atom_site_fract_x
 _atom_site_fract_y
 _atom_site_fract_z
 _atom_site_occupancy
  Ta  Ta0  1  0.43004024  0.80875796  1.22843308  1.0
  Ta  Ta1  1  0.58032489  1.20160716  0.77156692  1.0
  Ta  Ta2  1  0.55875796  0.83032489  0.87871773  1.0
  Ta  Ta3  1  0.95160716  0.68004024  1.12128227  1.0
  Ta  Ta4  1  1.31995976  1.44124204  1.27156692  1.0
  Ta  Ta5  1  1.16967511  1.04839284  1.72843308  1.0
  Ta  Ta6  1  1.19124204  1.41967511  1.62128227  1.0
  Ta  Ta7  1  0.79839284  0.56995976  0.37871773  1.0
  Mn  Mn8  1  0.85959549  1.26341683  1.18428808  1.0
  Mn  Mn9  1  1.07912875  1.67530741  0.81571192  1.0
  Mn  Mn10  1  1.01341683  0.32912875  0.90382134  1.0
  Mn  Mn11  1  0.42530741  1.10959549  1.09617866  1.0
  Mn  Mn12  1  0.89040451  0.98658317  1.31571192  1.0
  Mn  Mn13  1  1.67087125  1.57469259  1.68428808  1.0
  Mn  Mn14  1  0.73658317  0.92087125  0.59617866  1.0
  Mn  Mn15  1  1.32469259  1.14040451  1.40382134  1.0
  Mn  Mn16  1  1.00000000  1.00000000  1.00000000  1.0
  Mn  Mn17  1  0.75000000  0.25000000  0.50000000  1.0
  Mn  Mn18  1  0.50000000  0.50000000  0.00000000  1.0
  Mn  Mn19  1  0.25000000  0.75000000  0.50000000  1.0
  O  O20  1  0.46912962  1.04522243  1.32196391  1.0
  O  O21  1  0.72325852  1.14716571  0.67803609  1.0
  O  O22  1  1.79522243  0.97325852  1.07609281  1.0
  O  O23  1  0.89716571  0.71912962  0.92390719  1.0
  O  O24  1  1.28087038  1.20477757  1.17803609  1.0
  O  O25  1  1.02674148  1.10283429  1.82196391  1.0
  O  O26  1  0.95477757  1.27674148  0.42390719  1.0
  O  O27  1  0.85283429  0.53087038  0.57609281  1.0
  O  O28  1  1.35973577  0.54282571  1.10919485  1.0
  O  O29  1  0.43363086  1.25054092  0.89080515  1.0
  O  O30  1  0.29282571  0.68363086  0.68308993  1.0
  O  O31  1  1.00054092  0.60973577  1.31691007  1.0
  O  O32  1  0.39026423  0.70717429  0.39080515  1.0
  O  O33  1  1.31636914  0.99945908  1.60919485  1.0
  O  O34  1  1.45717429  1.56636914  1.81691007  1.0
  O  O35  1  0.74945908  0.64026423  0.18308993  1.0
  O  O36  1  1.06629946  0.93626724  1.26573446  1.0
  O  O37  1  1.67053278  1.80056500  1.73426554  1.0
  O  O38  1  0.68626724  0.92053278  0.36996778  1.0
  O  O39  1  1.55056500  1.31629946  1.63003222  1.0
  O  O40  1  0.68370054  1.31373276  1.23426554  1.0
  O  O41  1  1.07946722  1.44943500  0.76573446  1.0
  O  O42  1  1.06373276  0.32946722  1.13003222  1.0
  O  O43  1  0.19943500  0.93370054  0.86996778  1.0
  O  O44  1  0.45330632  0.83395979  1.03742473  1.0
  O  O45  1  0.79653506  1.41588159  0.96257527  1.0
  O  O46  1  0.58395979  1.04653506  0.88065347  1.0
  O  O47  1  1.16588159  0.70330632  1.11934653  1.0
  O  O48  1  1.29669368  1.41604021  1.46257527  1.0
  O  O49  1  0.95346494  0.83411841  1.53742473  1.0
  O  O50  1  1.16604021  1.20346494  1.61934653  1.0
  O  O51  1  0.58411841  0.54669368  0.38065347  1.0
