# generated using pymatgen
data_Y4MgPd
_symmetry_space_group_name_H-M   'P 1'
_cell_length_a   9.80460898
_cell_length_b   9.80460898
_cell_length_c   9.80460898
_cell_angle_alpha   60.00000000
_cell_angle_beta   60.00000000
_cell_angle_gamma   60.00000000
_symmetry_Int_Tables_number   1
_chemical_formula_structural   Y4MgPd
_chemical_formula_sum   'Y16 Mg4 Pd4'
_cell_volume   666.46268237
_cell_formula_units_Z   4
loop_
 _symmetry_equiv_pos_site_id
 _symmetry_equiv_pos_as_xyz
  1  'x, y, z'
loop_
 _atom_site_type_symbol
 _atom_site_label
 _atom_site_symmetry_multiplicity
 _atom_site_fract_x
 _atom_site_fract_y
 _atom_site_fract_z
 _atom_site_occupancy
  Y  Y0  1  -0.35032132  0.64967868  0.64967868  1.0
  Y  Y1  1  1.05096396  0.64967868  -0.35032132  1.0
  Y  Y2  1  -0.35032132  0.64967868  1.05096396  1.0
  Y  Y3  1  0.64967868  1.05096396  -0.35032132  1.0
  Y  Y4  1  0.06651829  0.43348171  0.43348171  1.0
  Y  Y5  1  0.43348171  0.43348171  0.06651829  1.0
  Y  Y6  1  0.43348171  0.06651829  0.43348171  1.0
  Y  Y7  1  0.06651829  0.06651829  0.43348171  1.0
  Y  Y8  1  0.06651829  0.43348171  0.06651829  1.0
  Y  Y9  1  0.43348171  0.06651829  0.06651829  1.0
  Y  Y10  1  -0.81071191  0.81071191  0.81071191  1.0
  Y  Y11  1  -0.18928809  0.81071191  0.18928809  1.0
  Y  Y12  1  -0.18928809  0.18928809  0.81071191  1.0
  Y  Y13  1  0.18928809  1.18928809  -0.18928809  1.0
  Y  Y14  1  0.18928809  -0.18928809  0.18928809  1.0
  Y  Y15  1  -0.18928809  0.18928809  0.18928809  1.0
  Mg  Mg16  1  0.42005154  1.42005154  0.42005154  1.0
  Mg  Mg17  1  -0.26015463  0.42005154  0.42005154  1.0
  Mg  Mg18  1  0.42005154  1.42005154  -0.26015463  1.0
  Mg  Mg19  1  0.42005154  -0.26015463  0.42005154  1.0
  Pd  Pd20  1  0.85672779  0.85672779  -0.14327221  1.0
  Pd  Pd21  1  0.42981663  0.85672779  -0.14327221  1.0
  Pd  Pd22  1  0.85672779  0.85672779  -0.57018337  1.0
  Pd  Pd23  1  0.85672779  0.42981663  -0.14327221  1.0
