# generated using pymatgen
data_ZnGeN2
_symmetry_space_group_name_H-M   'P 1'
_cell_length_a   5.50645758
_cell_length_b   6.48936157
_cell_length_c   5.24516384
_cell_angle_alpha   90.00000000
_cell_angle_beta   90.00000000
_cell_angle_gamma   90.00000000
_symmetry_Int_Tables_number   1
_chemical_formula_structural   ZnGeN2
_chemical_formula_sum   'Zn4 Ge4 N8'
_cell_volume   187.42750705
_cell_formula_units_Z   4
loop_
 _symmetry_equiv_pos_site_id
 _symmetry_equiv_pos_as_xyz
  1  'x, y, z'
loop_
 _atom_site_type_symbol
 _atom_site_label
 _atom_site_symmetry_multiplicity
 _atom_site_fract_x
 _atom_site_fract_y
 _atom_site_fract_z
 _atom_site_occupancy
  Zn  Zn0  1  0.41574262  0.12463598  0.61432875  1.0
  Zn  Zn1  1  0.91574262  0.37536402  0.61432875  1.0
  Zn  Zn2  1  0.58425738  0.87536402  0.11432875  1.0
  Zn  Zn3  1  0.08425738  0.62463598  0.11432875  1.0
  Ge  Ge4  1  0.42352459  0.62546445  0.61496522  1.0
  Ge  Ge5  1  0.92352459  0.87453555  0.61496522  1.0
  Ge  Ge6  1  0.57647541  0.37453555  0.11496522  1.0
  Ge  Ge7  1  0.07647541  0.12546445  0.11496522  1.0
  N  N8  1  0.43392965  0.61032290  0.97380256  1.0
  N  N9  1  0.93392965  0.88967710  0.97380256  1.0
  N  N10  1  0.56607035  0.38967710  0.47380256  1.0
  N  N11  1  0.06607035  0.11032290  0.47380256  1.0
  N  N12  1  0.09796152  0.64002277  0.50690348  1.0
  N  N13  1  0.59796152  0.85997723  0.50690348  1.0
  N  N14  1  0.90203848  0.35997723  0.00690348  1.0
  N  N15  1  0.40203848  0.14002277  0.00690348  1.0
