# generated using pymatgen
data_Na2Mn3O7
_symmetry_space_group_name_H-M   'P 1'
_cell_length_a   6.81505826
_cell_length_b   6.80913916
_cell_length_c   8.33763588
_cell_angle_alpha   59.24206032
_cell_angle_beta   59.30166371
_cell_angle_gamma   68.09688774
_symmetry_Int_Tables_number   1
_chemical_formula_structural   Na2Mn3O7
_chemical_formula_sum   'Na4 Mn6 O14'
_cell_volume   282.58950112
_cell_formula_units_Z   2
loop_
 _symmetry_equiv_pos_site_id
 _symmetry_equiv_pos_as_xyz
  1  'x, y, z'
loop_
 _atom_site_type_symbol
 _atom_site_label
 _atom_site_symmetry_multiplicity
 _atom_site_fract_x
 _atom_site_fract_y
 _atom_site_fract_z
 _atom_site_occupancy
  Na  Na0  1  -0.31385988  0.21141726  0.52615676  1.0
  Na  Na1  1  -0.68614012  -0.21141726  0.47384324  1.0
  Na  Na2  1  -0.17481284  -0.27304919  0.94008870  1.0
  Na  Na3  1  -0.82518716  0.27304919  0.05991130  1.0
  Mn  Mn4  1  -0.92051661  0.14388699  0.77831689  1.0
  Mn  Mn5  1  -0.07948339  -0.14388699  0.22168311  1.0
  Mn  Mn6  1  -0.78041942  0.42058006  0.35792478  1.0
  Mn  Mn7  1  -0.21958058  -0.42058006  0.64207522  1.0
  Mn  Mn8  1  -0.64106891  -0.27737933  0.91993130  1.0
  Mn  Mn9  1  -0.35893109  0.27737933  0.08006870  1.0
  O  O10  1  -0.79319211  -0.01230098  0.98221204  1.0
  O  O11  1  -0.20680789  0.01230098  0.01778796  1.0
  O  O12  1  -0.05580867  0.29355426  0.58392373  1.0
  O  O13  1  -0.94419133  -0.29355426  0.41607627  1.0
  O  O14  1  -0.68298308  0.30322234  0.56464651  1.0
  O  O15  1  -0.31701692  -0.30322234  0.43535349  1.0
  O  O16  1  -0.91435756  0.58612758  0.15234111  1.0
  O  O17  1  -0.08564244  -0.58612758  0.84765889  1.0
  O  O18  1  -0.80100999  -0.13897705  0.75337674  1.0
  O  O19  1  -0.19899001  0.13897705  0.24662326  1.0
  O  O20  1  -0.35752668  -0.17762183  0.72349206  1.0
  O  O21  1  -0.64247332  0.17762183  0.27650794  1.0
  O  O22  1  -0.48847738  -0.55375789  0.86482589  1.0
  O  O23  1  -0.51152262  0.55375789  0.13517411  1.0
