# generated using pymatgen
data_Fe(SbS2)2
_symmetry_space_group_name_H-M   'P 1'
_cell_length_a   11.27861645
_cell_length_b   3.63783260
_cell_length_c   13.81750422
_cell_angle_alpha   90.00000000
_cell_angle_beta   90.00000000
_cell_angle_gamma   90.00000000
_symmetry_Int_Tables_number   1
_chemical_formula_structural   Fe(SbS2)2
_chemical_formula_sum   'Fe4 Sb8 S16'
_cell_volume   566.92831032
_cell_formula_units_Z   4
loop_
 _symmetry_equiv_pos_site_id
 _symmetry_equiv_pos_as_xyz
  1  'x, y, z'
loop_
 _atom_site_type_symbol
 _atom_site_label
 _atom_site_symmetry_multiplicity
 _atom_site_fract_x
 _atom_site_fract_y
 _atom_site_fract_z
 _atom_site_occupancy
  Fe  Fe0  1  0.66966237  0.75000000  0.15847268  1.0
  Fe  Fe1  1  0.16966237  0.75000000  0.34152732  1.0
  Fe  Fe2  1  0.33033763  0.25000000  0.84152732  1.0
  Fe  Fe3  1  0.83033763  0.25000000  0.65847268  1.0
  Sb  Sb4  1  0.85058653  0.75000000  0.42272406  1.0
  Sb  Sb5  1  0.35058653  0.75000000  0.07727594  1.0
  Sb  Sb6  1  0.14941347  0.25000000  0.57727594  1.0
  Sb  Sb7  1  0.64941347  0.25000000  0.92272406  1.0
  Sb  Sb8  1  0.53078685  0.75000000  0.61317044  1.0
  Sb  Sb9  1  0.03078685  0.75000000  0.88682956  1.0
  Sb  Sb10  1  0.46921315  0.25000000  0.38682956  1.0
  Sb  Sb11  1  0.96921315  0.25000000  0.11317044  1.0
  S  S12  1  0.59672521  0.75000000  0.30734304  1.0
  S  S13  1  0.09672521  0.75000000  0.19265696  1.0
  S  S14  1  0.40327479  0.25000000  0.69265696  1.0
  S  S15  1  0.90327479  0.25000000  0.80734304  1.0
  S  S16  1  0.71595877  0.75000000  0.71529794  1.0
  S  S17  1  0.21595877  0.75000000  0.78470206  1.0
  S  S18  1  0.28404123  0.25000000  0.28470206  1.0
  S  S19  1  0.78404123  0.25000000  0.21529794  1.0
  S  S20  1  0.93810168  0.75000000  0.59794802  1.0
  S  S21  1  0.43810168  0.75000000  0.90205198  1.0
  S  S22  1  0.06189832  0.25000000  0.40205198  1.0
  S  S23  1  0.56189832  0.25000000  0.09794802  1.0
  S  S24  1  0.76798335  0.75000000  0.01442070  1.0
  S  S25  1  0.26798335  0.75000000  0.48557930  1.0
  S  S26  1  0.23201665  0.25000000  0.98557930  1.0
  S  S27  1  0.73201665  0.25000000  0.51442070  1.0
