# generated using pymatgen
data_LaCN2F
_symmetry_space_group_name_H-M   'P 1'
_cell_length_a   4.82459071
_cell_length_b   4.82459071
_cell_length_c   7.88426308
_cell_angle_alpha   90.00000000
_cell_angle_beta   90.00000000
_cell_angle_gamma   132.55365620
_symmetry_Int_Tables_number   1
_chemical_formula_structural   LaCN2F
_chemical_formula_sum   'La2 C2 N4 F2'
_cell_volume   135.18855172
_cell_formula_units_Z   2
loop_
 _symmetry_equiv_pos_site_id
 _symmetry_equiv_pos_as_xyz
  1  'x, y, z'
loop_
 _atom_site_type_symbol
 _atom_site_label
 _atom_site_symmetry_multiplicity
 _atom_site_fract_x
 _atom_site_fract_y
 _atom_site_fract_z
 _atom_site_occupancy
  La  La0  1  -0.22291289  0.22291289  0.25000000  1.0
  La  La1  1  0.22291289  0.77708711  0.75000000  1.0
  C  C2  1  0.50000000  0.50000000  0.00000000  1.0
  C  C3  1  0.50000000  0.50000000  0.50000000  1.0
  N  N4  1  0.36898009  0.63101991  0.05273976  1.0
  N  N5  1  -0.36898009  0.36898009  0.94726024  1.0
  N  N6  1  0.36898009  0.63101991  0.44726024  1.0
  N  N7  1  -0.36898009  0.36898009  0.55273976  1.0
  F  F8  1  0.08583400  0.91416600  0.25000000  1.0
  F  F9  1  -0.08583400  0.08583400  0.75000000  1.0
