# generated using pymatgen
data_Pd13Pb9
_symmetry_space_group_name_H-M   'P 1'
_cell_length_a   9.25213024
_cell_length_b   9.25213024
_cell_length_c   14.18710288
_cell_angle_alpha   60.91064895
_cell_angle_beta   119.08935105
_cell_angle_gamma   119.92375681
_symmetry_Int_Tables_number   1
_chemical_formula_structural   Pd13Pb9
_chemical_formula_sum   'Pd26 Pb18'
_cell_volume   870.88563246
_cell_formula_units_Z   2
loop_
 _symmetry_equiv_pos_site_id
 _symmetry_equiv_pos_as_xyz
  1  'x, y, z'
loop_
 _atom_site_type_symbol
 _atom_site_label
 _atom_site_symmetry_multiplicity
 _atom_site_fract_x
 _atom_site_fract_y
 _atom_site_fract_z
 _atom_site_occupancy
  Pd  Pd0  1  1.84439904  -0.10323989  0.36022582  1.0
  Pd  Pd1  1  1.10323989  0.15560096  0.86022582  1.0
  Pd  Pd2  1  0.89676011  0.84439904  0.13977418  1.0
  Pd  Pd3  1  1.15560096  0.10323989  0.63977418  1.0
  Pd  Pd4  1  0.59839022  -0.36651520  0.87382700  1.0
  Pd  Pd5  1  1.36651520  0.40160978  0.37382700  1.0
  Pd  Pd6  1  0.63348480  0.59839022  0.62617300  1.0
  Pd  Pd7  1  0.40160978  0.36651520  0.12617300  1.0
  Pd  Pd8  1  0.76426389  -0.00031243  0.49969740  1.0
  Pd  Pd9  1  1.00031243  -0.76426389  0.99969740  1.0
  Pd  Pd10  1  0.99968757  -0.23573611  0.00030260  1.0
  Pd  Pd11  1  0.23573611  0.00031243  0.50030260  1.0
  Pd  Pd12  1  0.37853642  -0.12251089  0.75029392  1.0
  Pd  Pd13  1  1.12251089  0.62146358  0.25029392  1.0
  Pd  Pd14  1  0.87748911  0.37853642  0.74970608  1.0
  Pd  Pd15  1  0.62146358  0.12251089  0.24970608  1.0
  Pd  Pd16  1  1.59840124  0.15744650  0.86927537  1.0
  Pd  Pd17  1  0.84255350  0.40159876  0.36927537  1.0
  Pd  Pd18  1  1.15744650  0.59840124  0.63072463  1.0
  Pd  Pd19  1  1.40159876  -0.15744650  0.13072463  1.0
  Pd  Pd20  1  1.47992616  0.24357460  0.99441569  1.0
  Pd  Pd21  1  0.75642540  0.52007384  0.49441569  1.0
  Pd  Pd22  1  1.24357460  0.47992616  0.50558431  1.0
  Pd  Pd23  1  1.52007384  -0.24357460  0.00558431  1.0
  Pd  Pd24  1  0.87522320  0.87522320  0.75000000  1.0
  Pd  Pd25  1  1.12477680  0.12477680  0.25000000  1.0
  Pb  Pb26  1  1.37563774  0.37563774  0.75000000  1.0
  Pb  Pb27  1  0.62436226  0.62436226  0.25000000  1.0
  Pb  Pb28  1  0.77135829  -0.02716949  0.88320430  1.0
  Pb  Pb29  1  1.02716949  0.22864171  0.38320430  1.0
  Pb  Pb30  1  0.97283051  0.77135829  0.61679570  1.0
  Pb  Pb31  1  0.22864171  0.02716949  0.11679570  1.0
  Pb  Pb32  1  0.50784365  -0.17169684  0.62408564  1.0
  Pb  Pb33  1  1.17169684  -0.50784365  0.12408564  1.0
  Pb  Pb34  1  0.82830316  -0.49215635  0.87591436  1.0
  Pb  Pb35  1  0.49215635  0.17169684  0.37591436  1.0
  Pb  Pb36  1  0.25433979  -0.07959937  0.88659738  1.0
  Pb  Pb37  1  1.07959937  0.74566021  0.38659738  1.0
  Pb  Pb38  1  0.92040063  0.25433979  0.61340262  1.0
  Pb  Pb39  1  0.74566021  0.07959937  0.11340262  1.0
  Pb  Pb40  1  1.50756299  0.25051929  0.61786578  1.0
  Pb  Pb41  1  0.74948071  0.49243701  0.11786578  1.0
  Pb  Pb42  1  1.25051929  0.50756299  0.88213422  1.0
  Pb  Pb43  1  1.49243701  -0.25051929  0.38213422  1.0
