# generated using pymatgen
data_Pb3O4
_symmetry_space_group_name_H-M   'P 1'
_cell_length_a   7.00027134
_cell_length_b   10.17368532
_cell_length_c   3.51166390
_cell_angle_alpha   90.00000000
_cell_angle_beta   90.00000000
_cell_angle_gamma   90.00000000
_symmetry_Int_Tables_number   1
_chemical_formula_structural   Pb3O4
_chemical_formula_sum   'Pb6 O8'
_cell_volume   250.09563835
_cell_formula_units_Z   2
loop_
 _symmetry_equiv_pos_site_id
 _symmetry_equiv_pos_as_xyz
  1  'x, y, z'
loop_
 _atom_site_type_symbol
 _atom_site_label
 _atom_site_symmetry_multiplicity
 _atom_site_fract_x
 _atom_site_fract_y
 _atom_site_fract_z
 _atom_site_occupancy
  Pb  Pb0  1  0.50218411  0.80617806  0.50000000  1.0
  Pb  Pb1  1  1.00218411  0.69382194  0.50000000  1.0
  Pb  Pb2  1  0.49781589  0.19382194  0.50000000  1.0
  Pb  Pb3  1  -0.00218411  0.30617806  0.50000000  1.0
  Pb  Pb4  1  0.50000000  0.50000000  0.00000000  1.0
  Pb  Pb5  1  0.00000000  0.00000000  0.00000000  1.0
  O  O6  1  0.34143199  0.59113867  0.50000000  1.0
  O  O7  1  0.84143199  0.90886133  0.50000000  1.0
  O  O8  1  0.65856801  0.40886133  0.50000000  1.0
  O  O9  1  0.15856801  0.09113867  0.50000000  1.0
  O  O10  1  0.15132181  0.81048881  0.00000000  1.0
  O  O11  1  0.65132181  0.68951119  0.00000000  1.0
  O  O12  1  0.84867819  0.18951119  0.00000000  1.0
  O  O13  1  0.34867819  0.31048881  0.00000000  1.0
