# generated using pymatgen
data_MnNiP
_symmetry_space_group_name_H-M   'P 1'
_cell_length_a   5.87469160
_cell_length_b   3.44279495
_cell_length_c   6.76566264
_cell_angle_alpha   90.00000000
_cell_angle_beta   90.00000000
_cell_angle_gamma   90.00000000
_symmetry_Int_Tables_number   1
_chemical_formula_structural   MnNiP
_chemical_formula_sum   'Mn4 Ni4 P4'
_cell_volume   136.83795277
_cell_formula_units_Z   4
loop_
 _symmetry_equiv_pos_site_id
 _symmetry_equiv_pos_as_xyz
  1  'x, y, z'
loop_
 _atom_site_type_symbol
 _atom_site_label
 _atom_site_symmetry_multiplicity
 _atom_site_fract_x
 _atom_site_fract_y
 _atom_site_fract_z
 _atom_site_occupancy
  Mn  Mn0  1  0.96771833  0.75000000  0.65886559  1.0
  Mn  Mn1  1  0.46771833  0.75000000  0.84113441  1.0
  Mn  Mn2  1  0.03228167  0.25000000  0.34113441  1.0
  Mn  Mn3  1  0.53228167  0.25000000  0.15886559  1.0
  Ni  Ni4  1  0.86140599  0.75000000  0.06573352  1.0
  Ni  Ni5  1  0.36140599  0.75000000  0.43426648  1.0
  Ni  Ni6  1  0.13859401  0.25000000  0.93426648  1.0
  Ni  Ni7  1  0.63859401  0.25000000  0.56573352  1.0
  P  P8  1  0.74082879  0.75000000  0.37087549  1.0
  P  P9  1  0.24082879  0.75000000  0.12912451  1.0
  P  P10  1  0.25917121  0.25000000  0.62912451  1.0
  P  P11  1  0.75917121  0.25000000  0.87087549  1.0
