# generated using pymatgen
data_B9C
_symmetry_space_group_name_H-M   'P 1'
_cell_length_a   5.33447317
_cell_length_b   5.33447317
_cell_length_c   5.33447317
_cell_angle_alpha   112.33047030
_cell_angle_beta   112.33047030
_cell_angle_gamma   103.89266222
_symmetry_Int_Tables_number   1
_chemical_formula_structural   B9C
_chemical_formula_sum   'B9 C1'
_cell_volume   116.03654212
_cell_formula_units_Z   1
loop_
 _symmetry_equiv_pos_site_id
 _symmetry_equiv_pos_as_xyz
  1  'x, y, z'
loop_
 _atom_site_type_symbol
 _atom_site_label
 _atom_site_symmetry_multiplicity
 _atom_site_fract_x
 _atom_site_fract_y
 _atom_site_fract_z
 _atom_site_occupancy
  B  B0  1  0.73942575  1.00000000  0.73942575  1.0
  B  B1  1  1.26057425  1.00000000  1.26057425  1.0
  B  B2  1  0.00000000  0.26057425  0.26057425  1.0
  B  B3  1  0.00000000  0.73942575  0.73942575  1.0
  B  B4  1  0.12583627  0.62583627  0.50000000  1.0
  B  B5  1  0.87416373  1.37416373  0.50000000  1.0
  B  B6  1  0.37416373  0.87416373  0.50000000  1.0
  B  B7  1  0.62583627  1.12583627  0.50000000  1.0
  B  B8  1  -0.00000000  -0.00000000  -0.00000000  1.0
  C  C9  1  0.50000000  0.50000000  0.00000000  1.0
