# generated using pymatgen
data_CdH6C(BrN)3
_symmetry_space_group_name_H-M   'P 1'
_cell_length_a   9.22817389
_cell_length_b   9.22817389
_cell_length_c   7.53197762
_cell_angle_alpha   82.07444029
_cell_angle_beta   97.92555971
_cell_angle_gamma   51.76196650
_symmetry_Int_Tables_number   1
_chemical_formula_structural   CdH6C(BrN)3
_chemical_formula_sum   'Cd2 H12 C2 Br6 N6'
_cell_volume   478.00229416
_cell_formula_units_Z   2
loop_
 _symmetry_equiv_pos_site_id
 _symmetry_equiv_pos_as_xyz
  1  'x, y, z'
loop_
 _atom_site_type_symbol
 _atom_site_label
 _atom_site_symmetry_multiplicity
 _atom_site_fract_x
 _atom_site_fract_y
 _atom_site_fract_z
 _atom_site_occupancy
  Cd  Cd0  1  0.45359791  0.45359791  0.75000000  1.0
  Cd  Cd1  1  0.54640209  -0.45359791  0.25000000  1.0
  H  H2  1  0.93870798  -0.12121258  0.91416272  1.0
  H  H3  1  1.12121258  -0.93870798  0.41416272  1.0
  H  H4  1  0.87878742  -0.06129202  0.58583728  1.0
  H  H5  1  0.06129202  0.12121258  0.08583728  1.0
  H  H6  1  0.80559779  -0.16990411  0.47530963  1.0
  H  H7  1  1.16990411  -0.80559779  0.97530963  1.0
  H  H8  1  0.83009589  -0.19440221  0.02469037  1.0
  H  H9  1  0.19440221  0.16990411  0.52469037  1.0
  H  H10  1  0.69060652  -0.29723960  0.63192645  1.0
  H  H11  1  1.29723960  -0.69060652  0.13192645  1.0
  H  H12  1  0.70276040  -0.30939348  0.86807355  1.0
  H  H13  1  0.30939348  0.29723960  0.36807355  1.0
  C  C14  1  0.80818632  -0.19181368  0.75000000  1.0
  C  C15  1  0.19181368  0.19181368  0.25000000  1.0
  Br  Br16  1  0.30446795  -0.23295758  0.86447261  1.0
  Br  Br17  1  1.23295758  -0.30446795  0.36447261  1.0
  Br  Br18  1  0.76704242  -0.69553205  0.63552739  1.0
  Br  Br19  1  0.69553205  0.23295758  0.13552739  1.0
  Br  Br20  1  0.29515567  0.29515567  0.75000000  1.0
  Br  Br21  1  0.70484433  -0.29515567  0.25000000  1.0
  N  N22  1  0.83695215  -0.14038051  0.59295375  1.0
  N  N23  1  1.14038051  -0.83695215  0.09295375  1.0
  N  N24  1  0.85961949  -0.16304785  0.90704625  1.0
  N  N25  1  0.16304785  0.14038051  0.40704625  1.0
  N  N26  1  0.72765668  -0.27234332  0.75000000  1.0
  N  N27  1  0.27234332  0.27234332  0.25000000  1.0
