# generated using pymatgen
data_Ba5Cr3O12F
_symmetry_space_group_name_H-M   'P 1'
_cell_length_a   10.51438070
_cell_length_b   10.51438070
_cell_length_c   7.92063454
_cell_angle_alpha   90.00000000
_cell_angle_beta   90.00000000
_cell_angle_gamma   120.00000000
_symmetry_Int_Tables_number   1
_chemical_formula_structural   Ba5Cr3O12F
_chemical_formula_sum   'Ba10 Cr6 O24 F2'
_cell_volume   758.32959062
_cell_formula_units_Z   2
loop_
 _symmetry_equiv_pos_site_id
 _symmetry_equiv_pos_as_xyz
  1  'x, y, z'
loop_
 _atom_site_type_symbol
 _atom_site_label
 _atom_site_symmetry_multiplicity
 _atom_site_fract_x
 _atom_site_fract_y
 _atom_site_fract_z
 _atom_site_occupancy
  Ba  Ba0  1  0.33333333  0.66666667  0.50073289  1.0
  Ba  Ba1  1  0.33333333  0.66666667  -0.00073289  1.0
  Ba  Ba2  1  0.66666667  0.33333333  1.00073289  1.0
  Ba  Ba3  1  0.66666667  0.33333333  0.49926711  1.0
  Ba  Ba4  1  0.01268564  0.75829819  0.25000000  1.0
  Ba  Ba5  1  0.75829819  0.74561255  0.75000000  1.0
  Ba  Ba6  1  0.74561255  0.98731436  0.25000000  1.0
  Ba  Ba7  1  0.24170181  0.25438745  0.25000000  1.0
  Ba  Ba8  1  0.98731436  0.24170181  0.75000000  1.0
  Ba  Ba9  1  0.25438745  0.01268564  0.75000000  1.0
  Cr  Cr10  1  0.63215180  0.59922820  0.25000000  1.0
  Cr  Cr11  1  0.59922820  0.96707640  0.75000000  1.0
  Cr  Cr12  1  0.96707640  0.36784820  0.25000000  1.0
  Cr  Cr13  1  0.40077180  0.03292360  0.25000000  1.0
  Cr  Cr14  1  0.36784820  0.40077180  0.75000000  1.0
  Cr  Cr15  1  0.03292359  0.63215180  0.75000000  1.0
  O  O16  1  0.32417822  0.84561560  0.25000000  1.0
  O  O17  1  0.84561560  0.52143738  0.75000000  1.0
  O  O18  1  0.52143738  0.67582178  0.25000000  1.0
  O  O19  1  0.15438440  0.47856262  0.25000000  1.0
  O  O20  1  0.67582178  0.15438440  0.75000000  1.0
  O  O21  1  0.47856262  0.32417822  0.75000000  1.0
  O  O22  1  0.53498602  0.41085174  0.25000000  1.0
  O  O23  1  0.41085174  0.87586572  0.75000000  1.0
  O  O24  1  0.87586572  0.46501398  0.25000000  1.0
  O  O25  1  0.58914826  0.12413428  0.25000000  1.0
  O  O26  1  0.46501398  0.58914826  0.75000000  1.0
  O  O27  1  0.12413428  0.53498602  0.75000000  1.0
  O  O28  1  0.74360194  0.65278173  0.42326779  1.0
  O  O29  1  0.74360194  0.65278173  0.07673221  1.0
  O  O30  1  0.65278173  0.90917979  0.92326779  1.0
  O  O31  1  0.65278173  0.90917979  0.57673221  1.0
  O  O32  1  0.90917979  0.25639806  0.42326779  1.0
  O  O33  1  0.90917979  0.25639806  0.07673221  1.0
  O  O34  1  0.34721827  0.09082021  0.42326779  1.0
  O  O35  1  0.34721827  0.09082021  0.07673221  1.0
  O  O36  1  0.25639806  0.34721827  0.92326779  1.0
  O  O37  1  0.25639806  0.34721827  0.57673221  1.0
  O  O38  1  0.09082021  0.74360194  0.92326779  1.0
  O  O39  1  0.09082021  0.74360194  0.57673221  1.0
  F  F40  1  -0.00000000  -0.00000000  0.25000000  1.0
  F  F41  1  0.00000000  0.00000000  0.75000000  1.0
