# generated using pymatgen
data_H4CN5O
_symmetry_space_group_name_H-M   'P 1'
_cell_length_a   3.93167316
_cell_length_b   14.52146608
_cell_length_c   7.27380079
_cell_angle_alpha   90.00000000
_cell_angle_beta   100.88848790
_cell_angle_gamma   90.00000000
_symmetry_Int_Tables_number   1
_chemical_formula_structural   H4CN5O
_chemical_formula_sum   'H16 C4 N20 O4'
_cell_volume   407.81133942
_cell_formula_units_Z   4
loop_
 _symmetry_equiv_pos_site_id
 _symmetry_equiv_pos_as_xyz
  1  'x, y, z'
loop_
 _atom_site_type_symbol
 _atom_site_label
 _atom_site_symmetry_multiplicity
 _atom_site_fract_x
 _atom_site_fract_y
 _atom_site_fract_z
 _atom_site_occupancy
  H  H0  1  0.67566036  0.18460868  0.23092680  1.0
  H  H1  1  0.67566036  0.31539132  0.73092680  1.0
  H  H2  1  0.32433964  0.68460868  0.26907320  1.0
  H  H3  1  0.32433964  0.81539132  0.76907320  1.0
  H  H4  1  0.57789917  0.12805548  0.02319045  1.0
  H  H5  1  0.57789917  0.37194452  0.52319045  1.0
  H  H6  1  0.42210083  0.62805548  0.47680955  1.0
  H  H7  1  0.42210083  0.87194452  0.97680955  1.0
  H  H8  1  0.31932976  0.21552377  0.07206087  1.0
  H  H9  1  0.31932976  0.28447623  0.57206087  1.0
  H  H10  1  0.68067024  0.71552377  0.42793913  1.0
  H  H11  1  0.68067024  0.78447623  0.92793913  1.0
  H  H12  1  0.33322049  0.11141716  0.18868649  1.0
  H  H13  1  0.33322049  0.38858284  0.68868649  1.0
  H  H14  1  0.66677951  0.61141716  0.31131351  1.0
  H  H15  1  0.66677951  0.88858284  0.81131351  1.0
  C  C16  1  0.95122764  0.47150688  0.07118659  1.0
  C  C17  1  0.95122764  0.02849312  0.57118659  1.0
  C  C18  1  0.04877236  0.97150688  0.42881341  1.0
  C  C19  1  0.04877236  0.52849312  0.92881341  1.0
  N  N20  1  1.03182706  0.87740209  0.42691244  1.0
  N  N21  1  1.03182706  0.62259791  0.92691244  1.0
  N  N22  1  -0.03182706  0.37740209  0.07308756  1.0
  N  N23  1  -0.03182706  0.12259791  0.57308756  1.0
  N  N24  1  0.85450256  0.34767343  0.22608989  1.0
  N  N25  1  0.85450256  0.15232657  0.72608989  1.0
  N  N26  1  0.14549744  0.84767343  0.27391011  1.0
  N  N27  1  0.14549744  0.65232657  0.77391011  1.0
  N  N28  1  0.82866137  0.49843298  0.22339726  1.0
  N  N29  1  0.82866137  0.00156702  0.72339726  1.0
  N  N30  1  0.17133863  0.99843298  0.27660274  1.0
  N  N31  1  0.17133863  0.50156702  0.77660274  1.0
  N  N32  1  0.77345419  0.42113651  0.31393653  1.0
  N  N33  1  0.77345419  0.07886349  0.81393653  1.0
  N  N34  1  0.22654581  0.92113651  0.18606347  1.0
  N  N35  1  0.22654581  0.57886349  0.68606347  1.0
  N  N36  1  0.47483885  0.16037159  0.12846446  1.0
  N  N37  1  0.47483885  0.33962841  0.62846446  1.0
  N  N38  1  0.52516115  0.66037159  0.37153554  1.0
  N  N39  1  0.52516115  0.83962841  0.87153554  1.0
  O  O40  1  0.06650368  0.17866342  0.45494845  1.0
  O  O41  1  0.06650368  0.32133658  0.95494845  1.0
  O  O42  1  0.93349632  0.67866342  0.04505155  1.0
  O  O43  1  0.93349632  0.82133658  0.54505155  1.0
