# generated using pymatgen
data_Cs(TeMo)3
_symmetry_space_group_name_H-M   'P 1'
_cell_length_a   10.41746129
_cell_length_b   10.41746129
_cell_length_c   4.62050215
_cell_angle_alpha   90.00000000
_cell_angle_beta   90.00000000
_cell_angle_gamma   120.00000000
_symmetry_Int_Tables_number   1
_chemical_formula_structural   Cs(TeMo)3
_chemical_formula_sum   'Cs2 Te6 Mo6'
_cell_volume   434.25377190
_cell_formula_units_Z   2
loop_
 _symmetry_equiv_pos_site_id
 _symmetry_equiv_pos_as_xyz
  1  'x, y, z'
loop_
 _atom_site_type_symbol
 _atom_site_label
 _atom_site_symmetry_multiplicity
 _atom_site_fract_x
 _atom_site_fract_y
 _atom_site_fract_z
 _atom_site_occupancy
  Cs  Cs0  1  0.33333333  0.66666667  0.25000000  1.0
  Cs  Cs1  1  0.66666667  0.33333333  0.75000000  1.0
  Te  Te2  1  0.71068123  0.66398669  0.25000000  1.0
  Te  Te3  1  0.66398669  0.95330546  0.75000000  1.0
  Te  Te4  1  0.95330546  0.28931877  0.25000000  1.0
  Te  Te5  1  0.33601331  0.04669454  0.25000000  1.0
  Te  Te6  1  0.28931877  0.33601331  0.75000000  1.0
  Te  Te7  1  0.04669454  0.71068123  0.75000000  1.0
  Mo  Mo8  1  0.02178298  0.86507019  0.25000000  1.0
  Mo  Mo9  1  0.86507019  0.84328721  0.75000000  1.0
  Mo  Mo10  1  0.84328721  0.97821702  0.25000000  1.0
  Mo  Mo11  1  0.13492981  0.15671279  0.25000000  1.0
  Mo  Mo12  1  0.97821702  0.13492981  0.75000000  1.0
  Mo  Mo13  1  0.15671279  0.02178298  0.75000000  1.0
