# generated using pymatgen
data_Na5TaO5
_symmetry_space_group_name_H-M   'P 1'
_cell_length_a   6.08220755
_cell_length_b   6.08220755
_cell_length_c   10.13453245
_cell_angle_alpha   81.41278673
_cell_angle_beta   98.58721327
_cell_angle_gamma   63.03364211
_symmetry_Int_Tables_number   1
_chemical_formula_structural   Na5TaO5
_chemical_formula_sum   'Na10 Ta2 O10'
_cell_volume   320.22557712
_cell_formula_units_Z   2
loop_
 _symmetry_equiv_pos_site_id
 _symmetry_equiv_pos_as_xyz
  1  'x, y, z'
loop_
 _atom_site_type_symbol
 _atom_site_label
 _atom_site_symmetry_multiplicity
 _atom_site_fract_x
 _atom_site_fract_y
 _atom_site_fract_z
 _atom_site_occupancy
  Na  Na0  1  0.49463422  -0.17767101  0.42219292  1.0
  Na  Na1  1  1.17767101  0.50536578  0.92219292  1.0
  Na  Na2  1  0.82232899  -0.50536578  0.07780708  1.0
  Na  Na3  1  1.50536578  0.17767101  0.57780708  1.0
  Na  Na4  1  1.71543726  0.05610922  0.94952450  1.0
  Na  Na5  1  0.94389078  -0.71543726  0.44952450  1.0
  Na  Na6  1  1.05610922  0.71543726  0.55047550  1.0
  Na  Na7  1  0.28456274  -0.05610922  0.05047550  1.0
  Na  Na8  1  0.83162510  -0.16837490  0.25000000  1.0
  Na  Na9  1  1.16837490  0.16837490  0.75000000  1.0
  Ta  Ta10  1  1.40696847  0.40696847  0.25000000  1.0
  Ta  Ta11  1  0.59303153  -0.40696847  0.75000000  1.0
  O  O12  1  1.68770786  0.09871583  0.39450163  1.0
  O  O13  1  0.90128417  -0.68770786  0.89450163  1.0
  O  O14  1  1.09871583  0.68770786  0.10549837  1.0
  O  O15  1  0.31229214  -0.09871583  0.60549837  1.0
  O  O16  1  1.45957521  0.19638055  0.11952448  1.0
  O  O17  1  0.80361945  -0.45957521  0.61952448  1.0
  O  O18  1  1.19638055  0.45957521  0.38047552  1.0
  O  O19  1  0.54042479  -0.19638055  0.88047552  1.0
  O  O20  1  0.59111032  -0.40888968  0.25000000  1.0
  O  O21  1  1.40888968  0.40888968  0.75000000  1.0
