# generated using pymatgen
data_InI2
_symmetry_space_group_name_H-M   'P 1'
_cell_length_a   8.61144801
_cell_length_b   11.36969986
_cell_length_c   11.52696420
_cell_angle_alpha   90.00000000
_cell_angle_beta   90.00000000
_cell_angle_gamma   90.00000000
_symmetry_Int_Tables_number   1
_chemical_formula_structural   InI2
_chemical_formula_sum   'In8 I16'
_cell_volume   1128.60021540
_cell_formula_units_Z   8
loop_
 _symmetry_equiv_pos_site_id
 _symmetry_equiv_pos_as_xyz
  1  'x, y, z'
loop_
 _atom_site_type_symbol
 _atom_site_label
 _atom_site_symmetry_multiplicity
 _atom_site_fract_x
 _atom_site_fract_y
 _atom_site_fract_z
 _atom_site_occupancy
  In  In0  1  0.86587921  0.75000000  0.25000000  1.0
  In  In1  1  0.36587921  0.75000000  0.75000000  1.0
  In  In2  1  0.13412079  0.25000000  0.75000000  1.0
  In  In3  1  0.63412079  0.25000000  0.25000000  1.0
  In  In4  1  0.25000000  0.00000000  0.17876885  1.0
  In  In5  1  0.25000000  0.50000000  0.32123115  1.0
  In  In6  1  0.75000000  0.00000000  0.82123115  1.0
  In  In7  1  0.75000000  0.50000000  0.67876885  1.0
  I  I8  1  0.51006308  0.95871567  0.31450843  1.0
  I  I9  1  0.51006308  0.54128433  0.18549157  1.0
  I  I10  1  0.01006308  0.95871567  0.68549157  1.0
  I  I11  1  0.01006308  0.54128433  0.81450843  1.0
  I  I12  1  0.48993692  0.45871567  0.81450843  1.0
  I  I13  1  0.48993692  0.04128433  0.68549157  1.0
  I  I14  1  0.98993692  0.45871567  0.18549157  1.0
  I  I15  1  0.98993692  0.04128433  0.31450843  1.0
  I  I16  1  0.16151280  0.80716463  0.04768224  1.0
  I  I17  1  0.16151280  0.69283537  0.45231776  1.0
  I  I18  1  0.66151280  0.80716463  0.95231776  1.0
  I  I19  1  0.66151280  0.69283537  0.54768224  1.0
  I  I20  1  0.83848720  0.30716463  0.54768224  1.0
  I  I21  1  0.83848720  0.19283537  0.95231776  1.0
  I  I22  1  0.33848720  0.30716463  0.45231776  1.0
  I  I23  1  0.33848720  0.19283537  0.04768224  1.0
