# generated using pymatgen
data_BaGePbO4
_symmetry_space_group_name_H-M   'P 1'
_cell_length_a   6.30573306
_cell_length_b   7.81060338
_cell_length_c   10.33042632
_cell_angle_alpha   90.00000000
_cell_angle_beta   90.00000000
_cell_angle_gamma   90.00000000
_symmetry_Int_Tables_number   1
_chemical_formula_structural   BaGePbO4
_chemical_formula_sum   'Ba4 Ge4 Pb4 O16'
_cell_volume   508.78981809
_cell_formula_units_Z   4
loop_
 _symmetry_equiv_pos_site_id
 _symmetry_equiv_pos_as_xyz
  1  'x, y, z'
loop_
 _atom_site_type_symbol
 _atom_site_label
 _atom_site_symmetry_multiplicity
 _atom_site_fract_x
 _atom_site_fract_y
 _atom_site_fract_z
 _atom_site_occupancy
  Ba  Ba0  1  0.01917143  0.74834771  0.71251224  1.0
  Ba  Ba1  1  0.51917143  0.75165229  0.28748776  1.0
  Ba  Ba2  1  0.98082857  0.24834771  0.78748776  1.0
  Ba  Ba3  1  0.48082857  0.25165229  0.21251224  1.0
  Ge  Ge4  1  0.47879839  0.95855028  0.59078311  1.0
  Ge  Ge5  1  0.97879839  0.54144972  0.40921689  1.0
  Ge  Ge6  1  0.52120161  0.45855028  0.90921689  1.0
  Ge  Ge7  1  0.02120161  0.04144972  0.09078311  1.0
  Pb  Pb8  1  0.43035204  0.45399936  0.59011840  1.0
  Pb  Pb9  1  0.93035204  0.04600064  0.40988160  1.0
  Pb  Pb10  1  0.56964796  0.95399936  0.90988160  1.0
  Pb  Pb11  1  0.06964796  0.54600064  0.09011840  1.0
  O  O12  1  0.40846418  0.74097821  0.55296851  1.0
  O  O13  1  0.90846418  0.75902179  0.44703149  1.0
  O  O14  1  0.59153582  0.24097821  0.94703149  1.0
  O  O15  1  0.09153582  0.25902179  0.05296851  1.0
  O  O16  1  0.29927165  0.48212257  0.80124087  1.0
  O  O17  1  0.79927165  0.01787743  0.19875913  1.0
  O  O18  1  0.70072835  0.98212257  0.69875913  1.0
  O  O19  1  0.20072835  0.51787743  0.30124087  1.0
  O  O20  1  0.24521762  0.95481479  0.16864752  1.0
  O  O21  1  0.74521762  0.54518521  0.83135248  1.0
  O  O22  1  0.75478238  0.45481479  0.33135248  1.0
  O  O23  1  0.25478238  0.04518521  0.66864752  1.0
  O  O24  1  0.93974250  0.94846001  0.94017733  1.0
  O  O25  1  0.43974250  0.55153999  0.05982267  1.0
  O  O26  1  0.06025750  0.44846001  0.55982267  1.0
  O  O27  1  0.56025750  0.05153999  0.44017733  1.0
