# generated using pymatgen
data_BaTa2Bi2O9
_symmetry_space_group_name_H-M   'P 1'
_cell_length_a   12.91122833
_cell_length_b   12.91122833
_cell_length_c   12.91122833
_cell_angle_alpha   162.33627867
_cell_angle_beta   162.33627867
_cell_angle_gamma   25.08124625
_symmetry_Int_Tables_number   1
_chemical_formula_structural   BaTa2Bi2O9
_chemical_formula_sum   'Ba1 Ta2 Bi2 O9'
_cell_volume   198.10367052
_cell_formula_units_Z   1
loop_
 _symmetry_equiv_pos_site_id
 _symmetry_equiv_pos_as_xyz
  1  'x, y, z'
loop_
 _atom_site_type_symbol
 _atom_site_label
 _atom_site_symmetry_multiplicity
 _atom_site_fract_x
 _atom_site_fract_y
 _atom_site_fract_z
 _atom_site_occupancy
  Ba  Ba0  1  0.50000000  0.50000000  1.00000000  1.0
  Ta  Ta1  1  0.91196518  0.91196518  1.00000000  1.0
  Ta  Ta2  1  0.08803482  0.08803482  -0.00000000  1.0
  Bi  Bi3  1  0.70123693  0.70123693  1.00000000  1.0
  Bi  Bi4  1  0.29876307  0.29876307  -0.00000000  1.0
  O  O5  1  0.41914914  0.91914914  0.50000000  1.0
  O  O6  1  0.58085086  0.08085086  0.50000000  1.0
  O  O7  1  0.91914914  0.41914914  0.50000000  1.0
  O  O8  1  0.08085086  0.58085086  0.50000000  1.0
  O  O9  1  0.83715392  0.83715392  1.00000000  1.0
  O  O10  1  0.16284608  0.16284608  -0.00000000  1.0
  O  O11  1  0.25000000  0.75000000  0.50000000  1.0
  O  O12  1  0.75000000  0.25000000  0.50000000  1.0
  O  O13  1  0.00000000  0.00000000  0.00000000  1.0
