# generated using pymatgen
data_La2B5H7(C2O7)2
_symmetry_space_group_name_H-M   'P 1'
_cell_length_a   11.73391202
_cell_length_b   11.73391202
_cell_length_c   6.50278527
_cell_angle_alpha   89.55871604
_cell_angle_beta   90.44128396
_cell_angle_gamma   56.29230623
_symmetry_Int_Tables_number   1
_chemical_formula_structural   La2B5H7(C2O7)2
_chemical_formula_sum   'La4 B10 H14 C8 O28'
_cell_volume   744.71080436
_cell_formula_units_Z   2
loop_
 _symmetry_equiv_pos_site_id
 _symmetry_equiv_pos_as_xyz
  1  'x, y, z'
loop_
 _atom_site_type_symbol
 _atom_site_label
 _atom_site_symmetry_multiplicity
 _atom_site_fract_x
 _atom_site_fract_y
 _atom_site_fract_z
 _atom_site_occupancy
  La  La0  1  0.87891615  -0.38978250  0.67604927  1.0
  La  La1  1  0.38978250  0.12108385  0.17604927  1.0
  La  La2  1  0.91662892  -0.78271355  0.84081189  1.0
  La  La3  1  0.78271355  0.08337108  0.34081189  1.0
  B  B4  1  1.00766480  -0.59086901  0.18673992  1.0
  B  B5  1  0.59086901  -0.00766480  0.68673992  1.0
  B  B6  1  0.96998654  -0.77590825  0.29213972  1.0
  B  B7  1  0.77590825  0.03001346  0.79213972  1.0
  B  B8  1  1.07911658  -0.69847615  0.53367567  1.0
  B  B9  1  0.69847615  -0.07911658  0.03367567  1.0
  B  B10  1  0.82101513  -0.32961915  0.13816505  1.0
  B  B11  1  0.32961915  0.17898487  0.63816505  1.0
  B  B12  1  1.15389567  -0.64850517  0.87426008  1.0
  B  B13  1  0.64850517  -0.15389567  0.37426008  1.0
  H  H14  1  0.54002385  -0.33942928  0.45409128  1.0
  H  H15  1  1.33942928  -0.54002385  0.95409128  1.0
  H  H16  1  0.62450994  -0.46423815  0.25810494  1.0
  H  H17  1  0.46423815  0.37549006  0.75810494  1.0
  H  H18  1  0.49534992  -0.46075105  0.40187484  1.0
  H  H19  1  1.46075105  -0.49534992  0.90187484  1.0
  H  H20  1  0.33118714  -0.23593128  0.74015525  1.0
  H  H21  1  1.23593128  -0.33118714  0.24015525  1.0
  H  H22  1  0.45793004  -0.19920918  0.79347063  1.0
  H  H23  1  1.19920918  -0.45793004  0.29347063  1.0
  H  H24  1  0.40157049  -0.25990845  -0.00589629  1.0
  H  H25  1  1.25990845  -0.40157049  0.49410371  1.0
  H  H26  1  1.17725246  -0.51367173  0.69895592  1.0
  H  H27  1  0.51367173  -0.17725246  0.19895592  1.0
  C  C28  1  0.68814761  -0.54805357  0.55874897  1.0
  C  C29  1  0.54805357  0.31185239  0.05874897  1.0
  C  C30  1  0.25767342  -0.04960509  0.90716826  1.0
  C  C31  1  1.04960509  -0.25767342  0.40716826  1.0
  C  C32  1  0.57887763  -0.44483584  0.41153833  1.0
  C  C33  1  0.44483584  0.42112237  0.91153833  1.0
  C  C34  1  0.36879691  -0.19564417  0.85386945  1.0
  C  C35  1  1.19564417  -0.36879691  0.35386945  1.0
  O  O36  1  0.91401040  -0.45944416  0.07434834  1.0
  O  O37  1  0.45944416  0.08598960  0.57434834  1.0
  O  O38  1  0.95238586  -0.67720565  0.15065309  1.0
  O  O39  1  0.67720565  0.04761414  0.65065309  1.0
  O  O40  1  1.01351372  -0.57237604  0.40820412  1.0
  O  O41  1  0.57237604  -0.01351372  0.90820412  1.0
  O  O42  1  0.93546053  -0.86119075  0.22373976  1.0
  O  O43  1  0.86119075  0.06453947  0.72373976  1.0
  O  O44  1  1.01940764  -0.77916804  0.48816608  1.0
  O  O45  1  0.77916804  -0.01940764  0.98816608  1.0
  O  O46  1  0.78581090  -0.22988141  0.99104541  1.0
  O  O47  1  0.22988141  0.21418910  0.49104541  1.0
  O  O48  1  1.05546308  -0.66543219  0.75339715  1.0
  O  O49  1  0.66543219  -0.05546308  0.25339715  1.0
  O  O50  1  0.29924488  0.24095934  0.82564752  1.0
  O  O51  1  0.75904066  -0.29924488  0.32564752  1.0
  O  O52  1  1.12578811  -0.51112543  0.81679366  1.0
  O  O53  1  0.51112543  -0.12578811  0.31679366  1.0
  O  O54  1  1.14392638  -0.65837496  0.09338735  1.0
  O  O55  1  0.65837496  -0.14392638  0.59338735  1.0
  O  O56  1  0.71933233  -0.67054253  0.55846312  1.0
  O  O57  1  0.67054253  0.28066767  0.05846312  1.0
  O  O58  1  0.74952190  -0.51275856  0.68169264  1.0
  O  O59  1  0.51275856  0.25047810  0.18169264  1.0
  O  O60  1  0.14054394  0.00427643  0.82745850  1.0
  O  O61  1  0.99572357  -0.14054394  0.32745850  1.0
  O  O62  1  0.28954091  0.01224930  0.03257004  1.0
  O  O63  1  0.98775070  -0.28954091  0.53257004  1.0
