# generated using pymatgen
data_RbLa(MoO4)2
_symmetry_space_group_name_H-M   'P 1'
_cell_length_a   6.49797822
_cell_length_b   6.49797822
_cell_length_c   9.77144596
_cell_angle_alpha   90.00000000
_cell_angle_beta   90.00000000
_cell_angle_gamma   90.00000000
_symmetry_Int_Tables_number   1
_chemical_formula_structural   RbLa(MoO4)2
_chemical_formula_sum   'Rb2 La2 Mo4 O16'
_cell_volume   412.58680704
_cell_formula_units_Z   2
loop_
 _symmetry_equiv_pos_site_id
 _symmetry_equiv_pos_as_xyz
  1  'x, y, z'
loop_
 _atom_site_type_symbol
 _atom_site_label
 _atom_site_symmetry_multiplicity
 _atom_site_fract_x
 _atom_site_fract_y
 _atom_site_fract_z
 _atom_site_occupancy
  Rb  Rb0  1  0.50000000  0.50000000  0.00000000  1.0
  Rb  Rb1  1  0.00000000  0.00000000  0.50000000  1.0
  La  La2  1  0.50000000  0.50000000  0.50000000  1.0
  La  La3  1  0.00000000  0.00000000  0.00000000  1.0
  Mo  Mo4  1  0.00000000  0.50000000  0.75000000  1.0
  Mo  Mo5  1  0.50000000  0.00000000  0.75000000  1.0
  Mo  Mo6  1  0.00000000  0.50000000  0.25000000  1.0
  Mo  Mo7  1  0.50000000  0.00000000  0.25000000  1.0
  O  O8  1  0.80744489  0.60750297  0.64163941  1.0
  O  O9  1  0.19255511  0.39249703  0.64163941  1.0
  O  O10  1  0.30744489  0.10750297  0.85836059  1.0
  O  O11  1  0.69255511  0.89249703  0.85836059  1.0
  O  O12  1  0.80744489  0.39249703  0.35836059  1.0
  O  O13  1  0.19255511  0.60750297  0.35836059  1.0
  O  O14  1  0.30744489  0.89249703  0.14163941  1.0
  O  O15  1  0.69255511  0.10750297  0.14163941  1.0
  O  O16  1  0.60750297  0.19255511  0.64163941  1.0
  O  O17  1  0.39249703  0.80744489  0.64163941  1.0
  O  O18  1  0.10750297  0.69255511  0.85836059  1.0
  O  O19  1  0.89249703  0.30744489  0.85836059  1.0
  O  O20  1  0.39249703  0.19255511  0.35836059  1.0
  O  O21  1  0.60750297  0.80744489  0.35836059  1.0
  O  O22  1  0.89249703  0.69255511  0.14163941  1.0
  O  O23  1  0.10750297  0.30744489  0.14163941  1.0
