# generated using pymatgen
data_IF7
_symmetry_space_group_name_H-M   'P 1'
_cell_length_a   9.49672554
_cell_length_b   6.54731225
_cell_length_c   9.56456477
_cell_angle_alpha   90.00000000
_cell_angle_beta   90.00000000
_cell_angle_gamma   90.00000000
_symmetry_Int_Tables_number   1
_chemical_formula_structural   IF7
_chemical_formula_sum   'I4 F28'
_cell_volume   594.70577139
_cell_formula_units_Z   4
loop_
 _symmetry_equiv_pos_site_id
 _symmetry_equiv_pos_as_xyz
  1  'x, y, z'
loop_
 _atom_site_type_symbol
 _atom_site_label
 _atom_site_symmetry_multiplicity
 _atom_site_fract_x
 _atom_site_fract_y
 _atom_site_fract_z
 _atom_site_occupancy
  I  I0  1  0.00000000  0.75664913  0.25000000  1.0
  I  I1  1  0.00000000  0.24335087  0.75000000  1.0
  I  I2  1  0.50000000  0.75664913  0.75000000  1.0
  I  I3  1  0.50000000  0.24335087  0.25000000  1.0
  F  F4  1  0.88477788  0.66430288  0.09197504  1.0
  F  F5  1  0.88477788  0.33569712  0.59197504  1.0
  F  F6  1  0.38477788  0.66430288  0.90802496  1.0
  F  F7  1  0.38477788  0.33569712  0.40802496  1.0
  F  F8  1  0.11522212  0.66430288  0.40802496  1.0
  F  F9  1  0.11522212  0.33569712  0.90802496  1.0
  F  F10  1  0.61522212  0.66430288  0.59197504  1.0
  F  F11  1  0.61522212  0.33569712  0.09197504  1.0
  F  F12  1  0.83920124  0.75645040  0.36877368  1.0
  F  F13  1  0.83920124  0.24354960  0.86877368  1.0
  F  F14  1  0.33920124  0.75645040  0.63122632  1.0
  F  F15  1  0.33920124  0.24354960  0.13122632  1.0
  F  F16  1  0.16079876  0.75645040  0.13122632  1.0
  F  F17  1  0.16079876  0.24354960  0.63122632  1.0
  F  F18  1  0.66079876  0.75645040  0.86877368  1.0
  F  F19  1  0.66079876  0.24354960  0.36877368  1.0
  F  F20  1  0.57636589  1.00093892  0.15637238  1.0
  F  F21  1  0.57636589  -0.00093892  0.65637238  1.0
  F  F22  1  0.07636589  1.00093892  0.84362762  1.0
  F  F23  1  0.07636589  -0.00093892  0.34362762  1.0
  F  F24  1  0.42363411  1.00093892  0.34362762  1.0
  F  F25  1  0.42363411  -0.00093892  0.84362762  1.0
  F  F26  1  0.92363411  1.00093892  0.65637238  1.0
  F  F27  1  0.92363411  -0.00093892  0.15637238  1.0
  F  F28  1  0.00000000  0.45725750  0.25000000  1.0
  F  F29  1  0.00000000  0.54274250  0.75000000  1.0
  F  F30  1  0.50000000  0.45725750  0.75000000  1.0
  F  F31  1  0.50000000  0.54274250  0.25000000  1.0
