# generated using pymatgen
data_Sb4NF13
_symmetry_space_group_name_H-M   'P 1'
_cell_length_a   7.99012718
_cell_length_b   7.99012718
_cell_length_c   7.99012718
_cell_angle_alpha   96.74498718
_cell_angle_beta   96.74498718
_cell_angle_gamma   139.91579794
_symmetry_Int_Tables_number   1
_chemical_formula_structural   Sb4NF13
_chemical_formula_sum   'Sb4 N1 F13'
_cell_volume   308.57276915
_cell_formula_units_Z   1
loop_
 _symmetry_equiv_pos_site_id
 _symmetry_equiv_pos_as_xyz
  1  'x, y, z'
loop_
 _atom_site_type_symbol
 _atom_site_label
 _atom_site_symmetry_multiplicity
 _atom_site_fract_x
 _atom_site_fract_y
 _atom_site_fract_z
 _atom_site_occupancy
  Sb  Sb0  1  0.73564780  1.00524352  1.74089132  1.0
  Sb  Sb1  1  1.00524352  1.26435220  1.26959572  1.0
  Sb  Sb2  1  0.26435220  -0.00524352  0.25910868  1.0
  Sb  Sb3  1  0.99475648  0.73564780  0.73040428  1.0
  N  N4  1  0.50000000  0.50000000  0.00000000  1.0
  F  F5  1  1.12997846  1.05058752  0.68391445  1.0
  F  F6  1  0.63332693  0.55393600  0.68391445  1.0
  F  F7  1  1.05058752  0.36667307  0.92060906  1.0
  F  F8  1  1.55393600  0.87002154  0.92060906  1.0
  F  F9  1  1.36667307  1.44606400  1.31608555  1.0
  F  F10  1  0.87002154  0.94941248  1.31608555  1.0
  F  F11  1  0.44606400  1.12997846  1.07939094  1.0
  F  F12  1  0.94941248  1.63332693  1.07939094  1.0
  F  F13  1  0.89080850  0.57890714  0.46971565  1.0
  F  F14  1  0.57890714  0.10919150  0.68809864  1.0
  F  F15  1  1.10919150  1.42109286  1.53028435  1.0
  F  F16  1  0.42109286  0.89080850  1.31190136  1.0
  F  F17  1  -0.00000000  -0.00000000  -0.00000000  1.0
