# generated using pymatgen
data_Pb3Se2(ClO3)2
_symmetry_space_group_name_H-M   'P 1'
_cell_length_a   7.38427883
_cell_length_b   7.38427883
_cell_length_c   13.73989769
_cell_angle_alpha   83.06862452
_cell_angle_beta   96.93137548
_cell_angle_gamma   134.24734410
_symmetry_Int_Tables_number   1
_chemical_formula_structural   Pb3Se2(ClO3)2
_chemical_formula_sum   'Pb6 Se4 Cl4 O12'
_cell_volume   532.05631359
_cell_formula_units_Z   2
loop_
 _symmetry_equiv_pos_site_id
 _symmetry_equiv_pos_as_xyz
  1  'x, y, z'
loop_
 _atom_site_type_symbol
 _atom_site_label
 _atom_site_symmetry_multiplicity
 _atom_site_fract_x
 _atom_site_fract_y
 _atom_site_fract_z
 _atom_site_occupancy
  Pb  Pb0  1  0.23510879  -0.18472048  0.85575208  1.0
  Pb  Pb1  1  1.18472048  0.76489121  0.35575208  1.0
  Pb  Pb2  1  0.81527952  0.23510879  0.64424792  1.0
  Pb  Pb3  1  0.76489121  0.18472048  0.14424792  1.0
  Pb  Pb4  1  0.56139994  0.56139994  0.75000000  1.0
  Pb  Pb5  1  0.43860006  0.43860006  0.25000000  1.0
  Se  Se6  1  0.90118292  0.09668112  0.88010260  1.0
  Se  Se7  1  0.90331888  0.09881708  0.38010260  1.0
  Se  Se8  1  1.09668112  0.90118292  0.61989740  1.0
  Se  Se9  1  0.09881708  -0.09668112  0.11989740  1.0
  Cl  Cl10  1  0.63420509  0.31968127  0.93090539  1.0
  Cl  Cl11  1  0.68031873  0.36579491  0.43090539  1.0
  Cl  Cl12  1  1.31968127  0.63420509  0.56909461  1.0
  Cl  Cl13  1  0.36579491  -0.31968127  0.06909461  1.0
  O  O14  1  0.91364243  -0.04248205  0.63360352  1.0
  O  O15  1  1.04248205  0.08635757  0.13360352  1.0
  O  O16  1  0.95751795  0.91364243  0.86639648  1.0
  O  O17  1  0.08635757  0.04248205  0.36639648  1.0
  O  O18  1  0.62058695  -0.06900143  0.80465311  1.0
  O  O19  1  1.06900143  0.37941305  0.30465311  1.0
  O  O20  1  0.93099857  0.62058695  0.69534689  1.0
  O  O21  1  0.37941305  0.06900143  0.19534689  1.0
  O  O22  1  0.36314871  0.09954975  0.69816166  1.0
  O  O23  1  0.90045025  0.63685129  0.19816166  1.0
  O  O24  1  1.09954975  0.36314871  0.80183834  1.0
  O  O25  1  0.63685129  -0.09954975  0.30183834  1.0
