# generated using pymatgen
data_KVH4O7
_symmetry_space_group_name_H-M   'P 1'
_cell_length_a   6.56244979
_cell_length_b   7.51833737
_cell_length_c   7.95488587
_cell_angle_alpha   112.51205662
_cell_angle_beta   114.08017845
_cell_angle_gamma   82.14160783
_symmetry_Int_Tables_number   1
_chemical_formula_structural   KVH4O7
_chemical_formula_sum   'K2 V2 H8 O14'
_cell_volume   330.93466550
_cell_formula_units_Z   2
loop_
 _symmetry_equiv_pos_site_id
 _symmetry_equiv_pos_as_xyz
  1  'x, y, z'
loop_
 _atom_site_type_symbol
 _atom_site_label
 _atom_site_symmetry_multiplicity
 _atom_site_fract_x
 _atom_site_fract_y
 _atom_site_fract_z
 _atom_site_occupancy
  K  K0  1  -0.00730185  -0.59723820  0.14233975  1.0
  K  K1  1  -0.81816762  -0.15340121  0.71551004  1.0
  V  V2  1  -0.32658853  -0.56121999  0.57300049  1.0
  V  V3  1  -0.48450192  -0.35112142  0.26609788  1.0
  H  H4  1  -0.15591521  -0.01525431  0.98935062  1.0
  H  H5  1  -0.35801436  -0.09026209  0.11150018  1.0
  H  H6  1  -0.38128061  -0.94073595  0.47660571  1.0
  H  H7  1  -0.43052061  -0.88445900  0.10832360  1.0
  H  H8  1  -0.56856484  -0.81885060  0.56476179  1.0
  H  H9  1  -0.65286944  -0.71263314  0.80983699  1.0
  H  H10  1  -0.87051323  -0.76029516  0.60723651  1.0
  H  H11  1  -0.90747036  -1.07006716  0.07770336  1.0
  O  O12  1  -0.00520642  0.00288863  -0.00352536  1.0
  O  O13  1  -0.12149040  -0.50521599  0.48962884  1.0
  O  O14  1  -0.12619568  -0.70806152  0.45824026  1.0
  O  O15  1  -0.20669260  -0.50306003  0.80762874  1.0
  O  O16  1  -0.25592784  -0.23893003  0.24891258  1.0
  O  O17  1  -0.26306279  -0.15057199  0.44419326  1.0
  O  O18  1  -0.41279211  -0.01485901  0.02306851  1.0
  O  O19  1  -0.47415470  -0.57770256  0.05599415  1.0
  O  O20  1  -0.46700974  -0.81736189  0.49592595  1.0
  O  O21  1  -0.48516405  -0.33264509  0.52960235  1.0
  O  O22  1  -0.56042298  -0.61359637  0.18302959  1.0
  O  O23  1  -0.62609731  -0.47661297  0.51289642  1.0
  O  O24  1  -0.71405374  -0.24581321  0.18264132  1.0
  O  O25  1  -0.72382106  -0.81081975  0.67569647  1.0
