# generated using pymatgen
data_Sr
_symmetry_space_group_name_H-M   'P 1'
_cell_length_a   6.77991261
_cell_length_b   6.77991261
_cell_length_c   6.77991261
_cell_angle_alpha   106.07938447
_cell_angle_beta   106.07938447
_cell_angle_gamma   116.49131312
_symmetry_Int_Tables_number   1
_chemical_formula_structural   Sr
_chemical_formula_sum   Sr4
_cell_volume   237.17820167
_cell_formula_units_Z   4
loop_
 _symmetry_equiv_pos_site_id
 _symmetry_equiv_pos_as_xyz
  1  'x, y, z'
loop_
 _atom_site_type_symbol
 _atom_site_label
 _atom_site_symmetry_multiplicity
 _atom_site_fract_x
 _atom_site_fract_y
 _atom_site_fract_z
 _atom_site_occupancy
  Sr  Sr0  1  0.16972415  0.66972415  0.83944830  1.0
  Sr  Sr1  1  0.83027585  0.33027585  1.16055170  1.0
  Sr  Sr2  1  0.66972415  0.83027585  0.50000000  1.0
  Sr  Sr3  1  1.33027585  1.16972415  1.50000000  1.0
