# generated using pymatgen
data_CsRb14Tl27
_symmetry_space_group_name_H-M   'P 1'
_cell_length_a   10.65677003
_cell_length_b   10.65677003
_cell_length_c   18.15673299
_cell_angle_alpha   90.00000000
_cell_angle_beta   90.00000000
_cell_angle_gamma   120.00000000
_symmetry_Int_Tables_number   1
_chemical_formula_structural   CsRb14Tl27
_chemical_formula_sum   'Cs1 Rb14 Tl27'
_cell_volume   1785.74534579
_cell_formula_units_Z   1
loop_
 _symmetry_equiv_pos_site_id
 _symmetry_equiv_pos_as_xyz
  1  'x, y, z'
loop_
 _atom_site_type_symbol
 _atom_site_label
 _atom_site_symmetry_multiplicity
 _atom_site_fract_x
 _atom_site_fract_y
 _atom_site_fract_z
 _atom_site_occupancy
  Cs  Cs0  1  0.00000000  0.00000000  0.50000000  1.0
  Rb  Rb1  1  0.38693671  0.38693671  0.81607088  1.0
  Rb  Rb2  1  0.61306329  0.00000000  0.81607088  1.0
  Rb  Rb3  1  -0.00000000  0.61306329  0.81607088  1.0
  Rb  Rb4  1  0.38693671  0.38693671  0.18392912  1.0
  Rb  Rb5  1  0.61306329  0.00000000  0.18392912  1.0
  Rb  Rb6  1  -0.00000000  0.61306329  0.18392912  1.0
  Rb  Rb7  1  0.33333333  0.66666667  0.00000000  1.0
  Rb  Rb8  1  0.66666667  0.33333333  0.00000000  1.0
  Rb  Rb9  1  0.72630783  0.72630783  0.68524472  1.0
  Rb  Rb10  1  0.27369217  0.00000000  0.68524472  1.0
  Rb  Rb11  1  0.00000000  0.27369217  0.68524472  1.0
  Rb  Rb12  1  0.72630783  0.72630783  0.31475528  1.0
  Rb  Rb13  1  0.27369217  0.00000000  0.31475528  1.0
  Rb  Rb14  1  0.00000000  0.27369217  0.31475528  1.0
  Tl  Tl15  1  0.82596075  0.29001086  0.50000000  1.0
  Tl  Tl16  1  0.70998914  0.53594989  0.50000000  1.0
  Tl  Tl17  1  0.46405011  0.17403925  0.50000000  1.0
  Tl  Tl18  1  0.29001086  0.82596075  0.50000000  1.0
  Tl  Tl19  1  0.53594989  0.70998914  0.50000000  1.0
  Tl  Tl20  1  0.17403925  0.46405011  0.50000000  1.0
  Tl  Tl21  1  0.38200050  0.38200050  0.60012017  1.0
  Tl  Tl22  1  0.61799950  0.00000000  0.60012017  1.0
  Tl  Tl23  1  -0.00000000  0.61799950  0.60012017  1.0
  Tl  Tl24  1  0.38200050  0.38200050  0.39987983  1.0
  Tl  Tl25  1  0.61799950  0.00000000  0.39987983  1.0
  Tl  Tl26  1  -0.00000000  0.61799950  0.39987983  1.0
  Tl  Tl27  1  0.66666667  0.33333333  0.65580627  1.0
  Tl  Tl28  1  0.66666667  0.33333333  0.34419373  1.0
  Tl  Tl29  1  0.33333333  0.66666667  0.65580627  1.0
  Tl  Tl30  1  0.33333333  0.66666667  0.34419373  1.0
  Tl  Tl31  1  0.00000000  0.00000000  0.85108471  1.0
  Tl  Tl32  1  0.00000000  0.00000000  0.14891529  1.0
  Tl  Tl33  1  0.21286947  0.21286947  0.00000000  1.0
  Tl  Tl34  1  0.78713053  0.00000000  0.00000000  1.0
  Tl  Tl35  1  0.00000000  0.78713053  0.00000000  1.0
  Tl  Tl36  1  0.71661752  0.71661752  0.90882812  1.0
  Tl  Tl37  1  0.28338248  0.00000000  0.90882812  1.0
  Tl  Tl38  1  0.00000000  0.28338248  0.90882812  1.0
  Tl  Tl39  1  0.71661752  0.71661752  0.09117188  1.0
  Tl  Tl40  1  0.28338248  0.00000000  0.09117188  1.0
  Tl  Tl41  1  0.00000000  0.28338248  0.09117188  1.0
