# generated using pymatgen
data_Ca2Mn2Si4H8O17
_symmetry_space_group_name_H-M   'P 1'
_cell_length_a   5.57302222
_cell_length_b   5.57302222
_cell_length_c   12.05695532
_cell_angle_alpha   89.66384710
_cell_angle_beta   90.33615290
_cell_angle_gamma   111.77115706
_symmetry_Int_Tables_number   1
_chemical_formula_structural   Ca2Mn2Si4H8O17
_chemical_formula_sum   'Ca2 Mn2 Si4 H8 O17'
_cell_volume   347.75305551
_cell_formula_units_Z   1
loop_
 _symmetry_equiv_pos_site_id
 _symmetry_equiv_pos_as_xyz
  1  'x, y, z'
loop_
 _atom_site_type_symbol
 _atom_site_label
 _atom_site_symmetry_multiplicity
 _atom_site_fract_x
 _atom_site_fract_y
 _atom_site_fract_z
 _atom_site_occupancy
  Si  Si0  1  1.03115097  0.96166356  0.15189479  1.0
  Si  Si1  1  1.96166356  0.03115097  0.84810521  1.0
  Si  Si2  1  0.12074556  -0.09076912  0.39559526  1.0
  Si  Si3  1  0.90923088  -0.87925444  0.60440474  1.0
  Ca  Ca4  1  1.68622392  0.29146846  0.25298122  1.0
  Ca  Ca5  1  1.29146846  0.68622392  0.74701878  1.0
  O  O6  1  1.00074090  0.01547049  0.28817910  1.0
  O  O7  1  1.01547049  0.00074090  0.71182090  1.0
  O  O8  1  0.91197788  -0.35246058  0.13392359  1.0
  O  O9  1  0.64753942  -0.08802212  0.86607641  1.0
  O  O10  1  1.08639237  0.34270312  0.87240617  1.0
  O  O11  1  1.34270312  0.08639237  0.12759383  1.0
  O  O12  1  1.06260269  0.06260269  0.50000000  1.0
  O  O13  1  0.42764341  -0.02571027  0.38405284  1.0
  O  O14  1  0.97428973  -0.57235659  0.61594716  1.0
  O  O15  1  0.95297821  -0.40833481  0.40592967  1.0
  O  O16  1  0.59166519  -0.04702179  0.59407033  1.0
  O  O17  1  1.35637202  0.64028073  0.04516294  1.0
  O  O18  1  1.64028073  0.35637202  0.95483706  1.0
  O  O19  1  1.42315874  0.54644433  0.28280020  1.0
  O  O20  1  1.54644433  0.42315874  0.71719980  1.0
  O  O21  1  1.86435356  0.11929011  0.09740748  1.0
  O  O22  1  1.11929011  0.86435356  0.90259252  1.0
  Mn  Mn23  1  0.99747173  -0.50417948  0.00166746  1.0
  Mn  Mn24  1  0.49582052  -0.00252827  0.99833254  1.0
  H  H25  1  0.95727290  -0.47422647  0.48438963  1.0
  H  H26  1  0.52577353  -0.04272710  0.51561037  1.0
  H  H27  1  0.38006652  -0.38216424  0.12513325  1.0
  H  H28  1  0.61783576  -0.61993348  0.87486675  1.0
  H  H29  1  0.44812832  -0.28915206  0.32480326  1.0
  H  H30  1  0.71084794  -0.55187168  0.67519674  1.0
  H  H31  1  1.25653219  0.42606437  0.30905079  1.0
  H  H32  1  1.42606437  0.25653219  0.69094921  1.0
