# generated using pymatgen
data_PbWSeO6
_symmetry_space_group_name_H-M   'P 1'
_cell_length_a   7.31375292
_cell_length_b   7.03450259
_cell_length_c   11.19913350
_cell_angle_alpha   100.70192795
_cell_angle_beta   99.32884878
_cell_angle_gamma   89.84279676
_symmetry_Int_Tables_number   1
_chemical_formula_structural   PbWSeO6
_chemical_formula_sum   'Pb4 W4 Se4 O24'
_cell_volume   558.44782497
_cell_formula_units_Z   4
loop_
 _symmetry_equiv_pos_site_id
 _symmetry_equiv_pos_as_xyz
  1  'x, y, z'
loop_
 _atom_site_type_symbol
 _atom_site_label
 _atom_site_symmetry_multiplicity
 _atom_site_fract_x
 _atom_site_fract_y
 _atom_site_fract_z
 _atom_site_occupancy
  Pb  Pb0  1  -0.14075714  -0.24705309  -0.48503860  1.0
  Pb  Pb1  1  -0.85924286  -0.75294691  -0.51496140  1.0
  Pb  Pb2  1  -0.29206442  -0.31793097  -0.15110977  1.0
  Pb  Pb3  1  -0.70793558  -0.68206903  -0.84889023  1.0
  W  W4  1  -0.95591615  -0.17419428  -0.79881137  1.0
  W  W5  1  -0.04408385  -0.82580572  -0.20118863  1.0
  W  W6  1  -0.45363560  -0.17731943  -0.79717077  1.0
  W  W7  1  -0.54636440  -0.82268057  -0.20282923  1.0
  Se  Se8  1  -0.64359256  -0.29404114  -0.53597840  1.0
  Se  Se9  1  -0.35640744  -0.70595886  -0.46402160  1.0
  Se  Se10  1  -0.19017937  -0.61587363  -0.77831079  1.0
  Se  Se11  1  -0.80982063  -0.38412637  -0.22168921  1.0
  O  O12  1  -0.50270417  -0.07338297  -0.23735581  1.0
  O  O13  1  -0.49729583  -0.92661703  -0.76264419  1.0
  O  O14  1  -0.10832582  -0.07926489  -0.24642737  1.0
  O  O15  1  -0.89167418  -0.92073511  -0.75357263  1.0
  O  O16  1  -0.18785687  -0.15086636  -0.73258953  1.0
  O  O17  1  -0.81214313  -0.84913364  -0.26741047  1.0
  O  O18  1  -0.84524271  -0.18900845  -0.59966358  1.0
  O  O19  1  -0.15475729  -0.81099155  -0.40033642  1.0
  O  O20  1  -0.46972957  -0.20907983  -0.60608205  1.0
  O  O21  1  -0.53027043  -0.79092017  -0.39391795  1.0
  O  O22  1  -0.04647414  -0.18593965  -0.95449403  1.0
  O  O23  1  -0.95352586  -0.81406035  -0.04550597  1.0
  O  O24  1  -0.43971622  -0.21085809  -0.95468065  1.0
  O  O25  1  -0.56028378  -0.78914191  -0.04531935  1.0
  O  O26  1  -0.71162490  -0.27064865  -0.82052860  1.0
  O  O27  1  -0.28837510  -0.72935135  -0.17947140  1.0
  O  O28  1  -0.32506940  -0.46731513  -0.39188925  1.0
  O  O29  1  -0.67493060  -0.53268487  -0.60811075  1.0
  O  O30  1  -0.01849638  -0.47988773  -0.81744883  1.0
  O  O31  1  -0.98150362  -0.52011227  -0.18255117  1.0
  O  O32  1  -0.39082201  -0.48788816  -0.80361254  1.0
  O  O33  1  -0.60917799  -0.51211184  -0.19638746  1.0
  O  O34  1  -0.13333390  -0.57045489  -0.61936986  1.0
  O  O35  1  -0.86666610  -0.42954511  -0.38063014  1.0
