# generated using pymatgen
data_KSr2Br5
_symmetry_space_group_name_H-M   'P 1'
_cell_length_a   9.41146220
_cell_length_b   8.41037638
_cell_length_c   13.56861860
_cell_angle_alpha   90.00000000
_cell_angle_beta   90.05592996
_cell_angle_gamma   90.00000000
_symmetry_Int_Tables_number   1
_chemical_formula_structural   KSr2Br5
_chemical_formula_sum   'K4 Sr8 Br20'
_cell_volume   1074.00910225
_cell_formula_units_Z   4
loop_
 _symmetry_equiv_pos_site_id
 _symmetry_equiv_pos_as_xyz
  1  'x, y, z'
loop_
 _atom_site_type_symbol
 _atom_site_label
 _atom_site_symmetry_multiplicity
 _atom_site_fract_x
 _atom_site_fract_y
 _atom_site_fract_z
 _atom_site_occupancy
  K  K0  1  0.49175406  0.46202395  0.17172414  1.0
  K  K1  1  0.49175406  0.03797605  0.67172414  1.0
  K  K2  1  0.50824594  0.96202395  0.32827586  1.0
  K  K3  1  0.50824594  0.53797605  0.82827586  1.0
  Sr  Sr4  1  0.99766149  0.48023761  0.17827790  1.0
  Sr  Sr5  1  0.99766149  0.01976239  0.67827790  1.0
  Sr  Sr6  1  0.00233851  0.98023761  0.32172210  1.0
  Sr  Sr7  1  0.00233851  0.51976239  0.82172210  1.0
  Sr  Sr8  1  0.74991553  0.43258916  0.49459633  1.0
  Sr  Sr9  1  0.74991553  0.06741084  0.99459633  1.0
  Sr  Sr10  1  0.25008447  0.93258916  0.00540367  1.0
  Sr  Sr11  1  0.25008447  0.56741084  0.50540367  1.0
  Br  Br12  1  0.96204825  0.84143618  0.10182521  1.0
  Br  Br13  1  0.96204825  0.65856382  0.60182521  1.0
  Br  Br14  1  0.03795175  0.34143618  0.39817479  1.0
  Br  Br15  1  0.03795175  0.15856382  0.89817479  1.0
  Br  Br16  1  0.78251127  0.04670554  0.49722056  1.0
  Br  Br17  1  0.78251127  0.45329446  0.99722056  1.0
  Br  Br18  1  0.21748873  0.54670554  0.00277944  1.0
  Br  Br19  1  0.21748873  0.95329446  0.50277944  1.0
  Br  Br20  1  0.78243824  0.67146551  0.31802185  1.0
  Br  Br21  1  0.78243824  0.82853449  0.81802185  1.0
  Br  Br22  1  0.21756176  0.17146551  0.18197815  1.0
  Br  Br23  1  0.21756176  0.32853449  0.68197815  1.0
  Br  Br24  1  0.76950855  0.19451382  0.21475083  1.0
  Br  Br25  1  0.76950855  0.30548618  0.71475083  1.0
  Br  Br26  1  0.23049145  0.69451382  0.28524917  1.0
  Br  Br27  1  0.23049145  0.80548618  0.78524917  1.0
  Br  Br28  1  0.46561040  0.33282732  0.40859098  1.0
  Br  Br29  1  0.46561040  0.16717268  0.90859098  1.0
  Br  Br30  1  0.53438960  0.83282732  0.09140902  1.0
  Br  Br31  1  0.53438960  0.66717268  0.59140902  1.0
