# generated using pymatgen
data_GdSi3Ni
_symmetry_space_group_name_H-M   'P 1'
_cell_length_a   10.74546017
_cell_length_b   10.74546017
_cell_length_c   3.98565775
_cell_angle_alpha   90.00000000
_cell_angle_beta   90.00000000
_cell_angle_gamma   158.76875442
_symmetry_Int_Tables_number   1
_chemical_formula_structural   GdSi3Ni
_chemical_formula_sum   'Gd2 Si6 Ni2'
_cell_volume   166.65489761
_cell_formula_units_Z   2
loop_
 _symmetry_equiv_pos_site_id
 _symmetry_equiv_pos_as_xyz
  1  'x, y, z'
loop_
 _atom_site_type_symbol
 _atom_site_label
 _atom_site_symmetry_multiplicity
 _atom_site_fract_x
 _atom_site_fract_y
 _atom_site_fract_z
 _atom_site_occupancy
  Gd  Gd0  1  -0.54990332  0.54990332  0.50000000  1.0
  Gd  Gd1  1  -0.88743343  0.88743343  0.50000000  1.0
  Si  Si2  1  -0.16281136  1.16281136  0.50000000  1.0
  Si  Si3  1  -0.27453079  1.27453079  0.50000000  1.0
  Si  Si4  1  -0.00086110  0.00086110  0.00000000  1.0
  Si  Si5  1  -0.43647117  1.43647117  0.00000000  1.0
  Si  Si6  1  -0.66281459  0.66281459  0.00000000  1.0
  Si  Si7  1  -0.77453357  0.77453357  0.00000000  1.0
  Ni  Ni8  1  -0.10906416  1.10906416  0.00000000  1.0
  Ni  Ni9  1  -0.32827650  1.32827650  0.00000000  1.0
