# generated using pymatgen
data_B2O3
_symmetry_space_group_name_H-M   'P 1'
_cell_length_a   4.57547312
_cell_length_b   4.57547312
_cell_length_c   4.16839058
_cell_angle_alpha   90.00000000
_cell_angle_beta   90.00000000
_cell_angle_gamma   61.35866215
_symmetry_Int_Tables_number   1
_chemical_formula_structural   B2O3
_chemical_formula_sum   'B4 O6'
_cell_volume   76.58708386
_cell_formula_units_Z   2
loop_
 _symmetry_equiv_pos_site_id
 _symmetry_equiv_pos_as_xyz
  1  'x, y, z'
loop_
 _atom_site_type_symbol
 _atom_site_label
 _atom_site_symmetry_multiplicity
 _atom_site_fract_x
 _atom_site_fract_y
 _atom_site_fract_z
 _atom_site_occupancy
  B  B0  1  -0.00730856  1.67662943  0.06760254  1.0
  B  B1  1  0.67662943  0.99269144  0.56760254  1.0
  B  B2  1  -0.67662943  1.00730856  0.06760254  1.0
  B  B3  1  0.00730856  0.32337057  0.56760254  1.0
  O  O4  1  -0.08183421  1.65982977  0.41695755  1.0
  O  O5  1  0.65982977  0.91816579  0.91695755  1.0
  O  O6  1  -0.65982977  1.08183421  0.41695755  1.0
  O  O7  1  0.08183421  0.34017023  0.91695755  1.0
  O  O8  1  0.24085513  0.75914487  0.00347982  1.0
  O  O9  1  -0.24085513  1.24085513  0.50347982  1.0
