# generated using pymatgen
data_RbEu(SeO4)2
_symmetry_space_group_name_H-M   'P 1'
_cell_length_a   9.35780917
_cell_length_b   7.49420391
_cell_length_c   11.21188742
_cell_angle_alpha   90.00000000
_cell_angle_beta   91.19707308
_cell_angle_gamma   90.00000000
_symmetry_Int_Tables_number   1
_chemical_formula_structural   RbEu(SeO4)2
_chemical_formula_sum   'Rb4 Eu4 Se8 O32'
_cell_volume   786.11054975
_cell_formula_units_Z   4
loop_
 _symmetry_equiv_pos_site_id
 _symmetry_equiv_pos_as_xyz
  1  'x, y, z'
loop_
 _atom_site_type_symbol
 _atom_site_label
 _atom_site_symmetry_multiplicity
 _atom_site_fract_x
 _atom_site_fract_y
 _atom_site_fract_z
 _atom_site_occupancy
  Rb  Rb0  1  0.43594814  0.35013094  0.15717036  1.0
  Rb  Rb1  1  0.43594814  0.14986906  0.65717036  1.0
  Rb  Rb2  1  0.56405186  0.85013094  0.34282964  1.0
  Rb  Rb3  1  0.56405186  0.64986906  0.84282964  1.0
  Eu  Eu4  1  0.94779369  0.16781661  0.15190971  1.0
  Eu  Eu5  1  0.94779369  0.33218339  0.65190971  1.0
  Eu  Eu6  1  0.05220631  0.66781661  0.34809029  1.0
  Eu  Eu7  1  0.05220631  0.83218339  0.84809029  1.0
  Se  Se8  1  0.73672862  0.33729567  0.41252608  1.0
  Se  Se9  1  0.73672862  0.16270433  0.91252608  1.0
  Se  Se10  1  0.26327138  0.83729567  0.08747392  1.0
  Se  Se11  1  0.26327138  0.66270433  0.58747392  1.0
  Se  Se12  1  0.17525848  0.16685581  0.39005362  1.0
  Se  Se13  1  0.17525848  0.33314419  0.89005362  1.0
  Se  Se14  1  0.82474152  0.66685581  0.10994638  1.0
  Se  Se15  1  0.82474152  0.83314419  0.60994638  1.0
  O  O16  1  0.90314766  0.50146294  0.19147368  1.0
  O  O17  1  0.90314766  -0.00146294  0.69147368  1.0
  O  O18  1  0.09685234  1.00146294  0.30852632  1.0
  O  O19  1  0.09685234  0.49853706  0.80852632  1.0
  O  O20  1  0.88482567  0.45789674  0.44875678  1.0
  O  O21  1  0.88482567  0.04210326  0.94875678  1.0
  O  O22  1  0.11517433  0.95789674  0.05124322  1.0
  O  O23  1  0.11517433  0.54210326  0.55124322  1.0
  O  O24  1  0.89098953  0.83350016  0.47364527  1.0
  O  O25  1  0.89098953  0.66649984  0.97364527  1.0
  O  O26  1  0.10901047  0.33350016  0.02635473  1.0
  O  O27  1  0.10901047  0.16649984  0.52635473  1.0
  O  O28  1  0.87827380  0.84207353  0.19584241  1.0
  O  O29  1  0.87827380  0.65792647  0.69584241  1.0
  O  O30  1  0.12172620  0.34207353  0.30415759  1.0
  O  O31  1  0.12172620  0.15792647  0.80415759  1.0
  O  O32  1  0.77166603  0.18132805  0.31040526  1.0
  O  O33  1  0.77166603  0.31867195  0.81040526  1.0
  O  O34  1  0.22833397  0.68132805  0.18959474  1.0
  O  O35  1  0.22833397  0.81867195  0.68959474  1.0
  O  O36  1  0.71683766  0.26098078  0.04595121  1.0
  O  O37  1  0.71683766  0.23901922  0.54595121  1.0
  O  O38  1  0.28316234  0.76098078  0.45404879  1.0
  O  O39  1  0.28316234  0.73901922  0.95404879  1.0
  O  O40  1  0.60247675  0.46312865  0.36962438  1.0
  O  O41  1  0.60247675  0.03687135  0.86962438  1.0
  O  O42  1  0.39752325  0.96312865  0.13037562  1.0
  O  O43  1  0.39752325  0.53687135  0.63037562  1.0
  O  O44  1  0.35028337  0.15660439  0.39545805  1.0
  O  O45  1  0.35028337  0.34339561  0.89545805  1.0
  O  O46  1  0.64971663  0.65660439  0.10454195  1.0
  O  O47  1  0.64971663  0.84339561  0.60454195  1.0
