# generated using pymatgen
data_LiY(WO4)2
_symmetry_space_group_name_H-M   'P 1'
_cell_length_a   5.01314213
_cell_length_b   6.02678808
_cell_length_c   11.01019764
_cell_angle_alpha   90.00000000
_cell_angle_beta   114.65350803
_cell_angle_gamma   90.00000000
_symmetry_Int_Tables_number   1
_chemical_formula_structural   LiY(WO4)2
_chemical_formula_sum   'Li2 Y2 W4 O16'
_cell_volume   302.33039262
_cell_formula_units_Z   2
loop_
 _symmetry_equiv_pos_site_id
 _symmetry_equiv_pos_as_xyz
  1  'x, y, z'
loop_
 _atom_site_type_symbol
 _atom_site_label
 _atom_site_symmetry_multiplicity
 _atom_site_fract_x
 _atom_site_fract_y
 _atom_site_fract_z
 _atom_site_occupancy
  Li  Li0  1  -0.00000000  0.75206578  0.25000000  1.0
  Li  Li1  1  0.00000000  0.24793422  0.75000000  1.0
  Y  Y2  1  0.50000000  0.32145715  0.25000000  1.0
  Y  Y3  1  0.50000000  0.67854285  0.75000000  1.0
  W  W4  1  0.73417650  0.82444214  0.48285028  1.0
  W  W5  1  0.73417650  0.17555786  0.98285028  1.0
  W  W6  1  0.26582350  0.82444214  0.01714972  1.0
  W  W7  1  0.26582350  0.17555786  0.51714972  1.0
  O  O8  1  0.84418627  0.89322691  0.90320731  1.0
  O  O9  1  0.84418627  0.10677309  0.40320731  1.0
  O  O10  1  0.15581373  0.89322691  0.59679269  1.0
  O  O11  1  0.15581373  0.10677309  0.09679269  1.0
  O  O12  1  0.77185895  0.63425098  0.36499970  1.0
  O  O13  1  0.77185895  0.36574902  0.86499970  1.0
  O  O14  1  0.22814105  0.63425098  0.13500030  1.0
  O  O15  1  0.22814105  0.36574902  0.63500030  1.0
  O  O16  1  0.71771139  0.35814413  0.10962683  1.0
  O  O17  1  0.71771139  0.64185587  0.60962683  1.0
  O  O18  1  0.28228861  0.35814413  0.39037317  1.0
  O  O19  1  0.28228861  0.64185587  0.89037317  1.0
  O  O20  1  0.65437012  0.90852390  0.11111911  1.0
  O  O21  1  0.65437012  0.09147610  0.61111911  1.0
  O  O22  1  0.34562988  0.90852390  0.38888089  1.0
  O  O23  1  0.34562988  0.09147610  0.88888089  1.0
