# generated using pymatgen
data_P3Pb5O12F
_symmetry_space_group_name_H-M   'P 1'
_cell_length_a   10.04610801
_cell_length_b   10.04610801
_cell_length_c   7.48807804
_cell_angle_alpha   90.00000000
_cell_angle_beta   90.00000000
_cell_angle_gamma   120.00000000
_symmetry_Int_Tables_number   1
_chemical_formula_structural   P3Pb5O12F
_chemical_formula_sum   'P6 Pb10 O24 F2'
_cell_volume   654.48045261
_cell_formula_units_Z   2
loop_
 _symmetry_equiv_pos_site_id
 _symmetry_equiv_pos_as_xyz
  1  'x, y, z'
loop_
 _atom_site_type_symbol
 _atom_site_label
 _atom_site_symmetry_multiplicity
 _atom_site_fract_x
 _atom_site_fract_y
 _atom_site_fract_z
 _atom_site_occupancy
  P  P0  1  0.62959578  0.59797762  0.25000000  1.0
  P  P1  1  0.59797762  0.96838184  0.75000000  1.0
  P  P2  1  0.96838184  0.37040422  0.25000000  1.0
  P  P3  1  0.40202238  0.03161816  0.25000000  1.0
  P  P4  1  0.37040422  0.40202238  0.75000000  1.0
  P  P5  1  0.03161816  0.62959578  0.75000000  1.0
  Pb  Pb6  1  0.33333333  0.66666667  0.49742024  1.0
  Pb  Pb7  1  0.33333333  0.66666667  0.00257976  1.0
  Pb  Pb8  1  0.66666667  0.33333333  0.99742024  1.0
  Pb  Pb9  1  0.66666667  0.33333333  0.50257976  1.0
  Pb  Pb10  1  -0.00462686  0.74922910  0.25000000  1.0
  Pb  Pb11  1  0.74922910  0.75385595  0.75000000  1.0
  Pb  Pb12  1  0.75385595  1.00462686  0.25000000  1.0
  Pb  Pb13  1  0.25077090  0.24614405  0.25000000  1.0
  Pb  Pb14  1  1.00462686  0.25077090  0.75000000  1.0
  Pb  Pb15  1  0.24614405  -0.00462686  0.75000000  1.0
  O  O16  1  0.73713864  0.65176594  0.41803375  1.0
  O  O17  1  0.73713864  0.65176594  0.08196625  1.0
  O  O18  1  0.65176594  0.91462729  0.91803375  1.0
  O  O19  1  0.65176594  0.91462729  0.58196625  1.0
  O  O20  1  0.91462729  0.26286136  0.41803375  1.0
  O  O21  1  0.91462729  0.26286136  0.08196625  1.0
  O  O22  1  0.34823406  0.08537271  0.41803375  1.0
  O  O23  1  0.34823406  0.08537271  0.08196625  1.0
  O  O24  1  0.26286136  0.34823406  0.91803375  1.0
  O  O25  1  0.26286136  0.34823406  0.58196625  1.0
  O  O26  1  0.08537271  0.73713864  0.91803375  1.0
  O  O27  1  0.08537271  0.73713864  0.58196625  1.0
  O  O28  1  0.33828923  0.85519765  0.25000000  1.0
  O  O29  1  0.85519765  0.51690842  0.75000000  1.0
  O  O30  1  0.51690842  0.66171077  0.25000000  1.0
  O  O31  1  0.14480235  0.48309158  0.25000000  1.0
  O  O32  1  0.66171077  0.14480235  0.75000000  1.0
  O  O33  1  0.48309158  0.33828923  0.75000000  1.0
  O  O34  1  0.53696208  0.41646631  0.25000000  1.0
  O  O35  1  0.41646631  0.87950423  0.75000000  1.0
  O  O36  1  0.87950423  0.46303792  0.25000000  1.0
  O  O37  1  0.58353369  0.12049577  0.25000000  1.0
  O  O38  1  0.46303792  0.58353369  0.75000000  1.0
  O  O39  1  0.12049577  0.53696208  0.75000000  1.0
  F  F40  1  0.00000000  0.00000000  0.25000000  1.0
  F  F41  1  0.00000000  0.00000000  0.75000000  1.0
