# generated using pymatgen
data_B2O3
_symmetry_space_group_name_H-M   'P 1'
_cell_length_a   4.40238260
_cell_length_b   4.40238260
_cell_length_c   8.88844264
_cell_angle_alpha   90.00000000
_cell_angle_beta   90.00000000
_cell_angle_gamma   120.00000000
_symmetry_Int_Tables_number   1
_chemical_formula_structural   B2O3
_chemical_formula_sum   'B6 O9'
_cell_volume   149.18730647
_cell_formula_units_Z   3
loop_
 _symmetry_equiv_pos_site_id
 _symmetry_equiv_pos_as_xyz
  1  'x, y, z'
loop_
 _atom_site_type_symbol
 _atom_site_label
 _atom_site_symmetry_multiplicity
 _atom_site_fract_x
 _atom_site_fract_y
 _atom_site_fract_z
 _atom_site_occupancy
  B  B0  1  0.45055250  0.92853098  0.66472055  1.0
  B  B1  1  0.47797848  0.54944750  0.33138722  1.0
  B  B2  1  0.07146902  0.52202152  -0.00194611  1.0
  B  B3  1  0.85537646  0.73816900  0.77925594  1.0
  B  B4  1  0.88279253  0.14462354  0.44592261  1.0
  B  B5  1  0.26183100  0.11720747  0.11258928  1.0
  O  O6  1  0.13611739  0.92241898  0.68454091  1.0
  O  O7  1  0.78630160  0.86388261  0.35120758  1.0
  O  O8  1  0.07758102  0.21369840  0.01787425  1.0
  O  O9  1  0.25569003  0.80275776  0.09277734  1.0
  O  O10  1  0.54706772  0.74430997  0.75944401  1.0
  O  O11  1  0.19724224  0.45293228  0.42611067  1.0
  O  O12  1  0.84974249  0.51638125  0.88863858  1.0
  O  O13  1  0.66663876  0.15025751  0.55530525  1.0
  O  O14  1  0.48361875  0.33336124  0.22197192  1.0
