# generated using pymatgen
data_Na4CuP6(H4O11)2
_symmetry_space_group_name_H-M   'P 1'
_cell_length_a   8.47993881
_cell_length_b   8.00214382
_cell_length_c   7.16691225
_cell_angle_alpha   81.98891757
_cell_angle_beta   78.92305147
_cell_angle_gamma   86.43332034
_symmetry_Int_Tables_number   1
_chemical_formula_structural   Na4CuP6(H4O11)2
_chemical_formula_sum   'Na4 Cu1 P6 H8 O22'
_cell_volume   472.29790246
_cell_formula_units_Z   1
loop_
 _symmetry_equiv_pos_site_id
 _symmetry_equiv_pos_as_xyz
  1  'x, y, z'
loop_
 _atom_site_type_symbol
 _atom_site_label
 _atom_site_symmetry_multiplicity
 _atom_site_fract_x
 _atom_site_fract_y
 _atom_site_fract_z
 _atom_site_occupancy
  Na  Na0  1  -0.58483151  -0.82716533  -0.10942317  1.0
  Na  Na1  1  -0.41516849  -0.17283467  -0.89057683  1.0
  Na  Na2  1  -0.79909654  -0.07802422  -0.65517721  1.0
  Na  Na3  1  -0.20090346  -0.92197578  -0.34482279  1.0
  Cu  Cu4  1  -0.00000000  -0.50000000  0.00000000  1.0
  P  P5  1  -0.51373644  -0.78386301  -0.66071019  1.0
  P  P6  1  -0.48626356  -0.21613699  -0.33928981  1.0
  P  P7  1  -0.70687600  -0.48352096  -0.78379402  1.0
  P  P8  1  -0.29312400  -0.51647904  -0.21620598  1.0
  P  P9  1  -0.83615172  -0.71272521  -0.44464921  1.0
  P  P10  1  -0.16384828  -0.28727479  -0.55535079  1.0
  H  H11  1  -0.15771634  -0.91216717  -0.95375107  1.0
  H  H12  1  -0.84228366  -0.08783283  -0.04624893  1.0
  H  H13  1  -0.19228736  -0.71272856  -0.75613050  1.0
  H  H14  1  -0.80771264  -0.28727144  -0.24386950  1.0
  H  H15  1  -0.01021341  -0.74644143  -0.73671597  1.0
  H  H16  1  -0.98978659  -0.25355857  -0.26328403  1.0
  H  H17  1  -0.88436364  -0.89483116  -0.06069909  1.0
  H  H18  1  -0.11563636  -0.10516884  -0.93930091  1.0
  O  O19  1  -0.82447428  -0.98569912  -0.99354039  1.0
  O  O20  1  -0.17552572  -0.01430088  -0.00645961  1.0
  O  O21  1  -0.78519621  -0.55899044  -0.92554282  1.0
  O  O22  1  -0.21480379  -0.44100956  -0.07445718  1.0
  O  O23  1  -0.08017845  -0.71015385  -0.83385956  1.0
  O  O24  1  -0.91982155  -0.28984615  -0.16614044  1.0
  O  O25  1  -0.66965107  -0.30066796  -0.81633800  1.0
  O  O26  1  -0.33034893  -0.69933204  -0.18366200  1.0
  O  O27  1  -0.55773701  -0.91047239  -0.77751987  1.0
  O  O28  1  -0.44226299  -0.08952761  -0.22248013  1.0
  O  O29  1  -0.54052642  -0.59205012  -0.76708165  1.0
  O  O30  1  -0.45947358  -0.40794988  -0.23291835  1.0
  O  O31  1  -0.92609686  -0.82213670  -0.54209956  1.0
  O  O32  1  -0.07390314  -0.17786330  -0.45790044  1.0
  O  O33  1  -0.64768810  -0.78226997  -0.46103104  1.0
  O  O34  1  -0.35231190  -0.21773003  -0.53896896  1.0
  O  O35  1  -0.89702547  -0.69458523  -0.23770931  1.0
  O  O36  1  -0.10297453  -0.30541477  -0.76229069  1.0
  O  O37  1  -0.35117636  -0.79280836  -0.60576538  1.0
  O  O38  1  -0.64882364  -0.20719164  -0.39423462  1.0
  O  O39  1  -0.81316297  -0.52567138  -0.56775142  1.0
  O  O40  1  -0.18683703  -0.47432862  -0.43224858  1.0
