# generated using pymatgen
data_Mg2AsO5
_symmetry_space_group_name_H-M   'P 1'
_cell_length_a   8.51211273
_cell_length_b   8.36911223
_cell_length_c   6.18623002
_cell_angle_alpha   90.00000000
_cell_angle_beta   90.00000000
_cell_angle_gamma   90.00000000
_symmetry_Int_Tables_number   1
_chemical_formula_structural   Mg2AsO5
_chemical_formula_sum   'Mg8 As4 O20'
_cell_volume   440.69976877
_cell_formula_units_Z   4
loop_
 _symmetry_equiv_pos_site_id
 _symmetry_equiv_pos_as_xyz
  1  'x, y, z'
loop_
 _atom_site_type_symbol
 _atom_site_label
 _atom_site_symmetry_multiplicity
 _atom_site_fract_x
 _atom_site_fract_y
 _atom_site_fract_z
 _atom_site_occupancy
  O  O0  1  0.22413852  0.87619370  0.27340162  1.0
  O  O1  1  0.22413852  0.87619370  0.72659838  1.0
  O  O2  1  0.72413852  0.62380630  0.77340162  1.0
  O  O3  1  0.72413852  0.62380630  0.22659838  1.0
  O  O4  1  0.77586148  0.12380630  0.27340162  1.0
  O  O5  1  0.77586148  0.12380630  0.72659838  1.0
  O  O6  1  0.27586148  0.37619370  0.77340162  1.0
  O  O7  1  0.27586148  0.37619370  0.22659838  1.0
  O  O8  1  0.41711940  0.64351709  0.50000000  1.0
  O  O9  1  0.91711940  0.85648291  0.00000000  1.0
  O  O10  1  0.58288060  0.35648291  0.50000000  1.0
  O  O11  1  0.08288060  0.14351709  0.00000000  1.0
  O  O12  1  0.09597069  0.61330983  0.50000000  1.0
  O  O13  1  0.59597069  0.88669017  0.00000000  1.0
  O  O14  1  0.90402931  0.38669017  0.50000000  1.0
  O  O15  1  0.40402931  0.11330983  0.00000000  1.0
  O  O16  1  0.91947492  0.85615620  0.50000000  1.0
  O  O17  1  0.41947492  0.64384380  0.00000000  1.0
  O  O18  1  0.08052508  0.14384380  0.50000000  1.0
  O  O19  1  0.58052508  0.35615620  0.00000000  1.0
  As  As20  1  0.24482981  0.75497845  0.50000000  1.0
  As  As21  1  0.74482981  0.74502155  0.00000000  1.0
  As  As22  1  0.75517019  0.24502155  0.50000000  1.0
  As  As23  1  0.25517019  0.25497845  0.00000000  1.0
  Mg  Mg24  1  0.85567130  0.62758008  0.50000000  1.0
  Mg  Mg25  1  0.35567130  0.87241992  0.00000000  1.0
  Mg  Mg26  1  0.14432870  0.37241992  0.50000000  1.0
  Mg  Mg27  1  0.64432870  0.12758008  0.00000000  1.0
  Mg  Mg28  1  0.50000000  0.50000000  0.24645258  1.0
  Mg  Mg29  1  0.50000000  0.50000000  0.75354742  1.0
  Mg  Mg30  1  0.00000000  0.00000000  0.74645258  1.0
  Mg  Mg31  1  0.00000000  0.00000000  0.25354742  1.0
