# generated using pymatgen
data_La3Si2ClO8
_symmetry_space_group_name_H-M   'P 1'
_cell_length_a   8.02912145
_cell_length_b   8.02912145
_cell_length_c   8.91101971
_cell_angle_alpha   82.53623063
_cell_angle_beta   97.46376937
_cell_angle_gamma   131.71390808
_symmetry_Int_Tables_number   1
_chemical_formula_structural   La3Si2ClO8
_chemical_formula_sum   'La6 Si4 Cl2 O16'
_cell_volume   424.45756156
_cell_formula_units_Z   2
loop_
 _symmetry_equiv_pos_site_id
 _symmetry_equiv_pos_as_xyz
  1  'x, y, z'
loop_
 _atom_site_type_symbol
 _atom_site_label
 _atom_site_symmetry_multiplicity
 _atom_site_fract_x
 _atom_site_fract_y
 _atom_site_fract_z
 _atom_site_occupancy
  La  La0  1  0.58065528  0.21199027  0.67084294  1.0
  La  La1  1  0.78800973  0.41934472  0.17084294  1.0
  La  La2  1  1.21199027  0.58065528  0.82915706  1.0
  La  La3  1  0.41934472  -0.21199027  0.32915706  1.0
  La  La4  1  0.93094282  0.93094282  0.75000000  1.0
  La  La5  1  0.06905718  0.06905718  0.25000000  1.0
  Si  Si6  1  0.78599563  0.10206285  0.97372696  1.0
  Si  Si7  1  0.89793715  0.21400437  0.47372696  1.0
  Si  Si8  1  1.10206285  0.78599563  0.52627304  1.0
  Si  Si9  1  0.21400437  -0.10206285  0.02627304  1.0
  Cl  Cl10  1  0.47664593  0.47664593  0.75000000  1.0
  Cl  Cl11  1  0.52335407  0.52335407  0.25000000  1.0
  O  O12  1  0.79933681  -0.04330267  0.46696645  1.0
  O  O13  1  1.04330267  0.20066319  0.96696645  1.0
  O  O14  1  0.95669733  0.79933681  0.03303355  1.0
  O  O15  1  0.20066319  0.04330267  0.53303355  1.0
  O  O16  1  0.61850514  -0.09296663  0.85369116  1.0
  O  O17  1  1.09296663  0.38149486  0.35369116  1.0
  O  O18  1  0.90703337  0.61850514  0.64630884  1.0
  O  O19  1  0.38149486  0.09296663  0.14630884  1.0
  O  O20  1  0.68523836  0.20344833  0.41925916  1.0
  O  O21  1  0.79655167  0.31476164  0.91925916  1.0
  O  O22  1  1.20344833  0.68523836  0.08074084  1.0
  O  O23  1  0.31476164  -0.20344833  0.58074084  1.0
  O  O24  1  0.27101025  -0.03660701  0.84744658  1.0
  O  O25  1  1.03660701  0.72898975  0.34744658  1.0
  O  O26  1  0.96339299  0.27101025  0.65255342  1.0
  O  O27  1  0.72898975  0.03660701  0.15255342  1.0
