# generated using pymatgen
data_NaYCO3F2
_symmetry_space_group_name_H-M   'P 1'
_cell_length_a   6.35588965
_cell_length_b   7.06129503
_cell_length_c   9.31348942
_cell_angle_alpha   90.00000000
_cell_angle_beta   90.00000000
_cell_angle_gamma   90.00000000
_symmetry_Int_Tables_number   1
_chemical_formula_structural   NaYCO3F2
_chemical_formula_sum   'Na4 Y4 C4 O12 F8'
_cell_volume   417.99696754
_cell_formula_units_Z   4
loop_
 _symmetry_equiv_pos_site_id
 _symmetry_equiv_pos_as_xyz
  1  'x, y, z'
loop_
 _atom_site_type_symbol
 _atom_site_label
 _atom_site_symmetry_multiplicity
 _atom_site_fract_x
 _atom_site_fract_y
 _atom_site_fract_z
 _atom_site_occupancy
  Na  Na0  1  0.17139368  0.75000000  0.21798275  1.0
  Na  Na1  1  0.67139368  0.75000000  0.28201725  1.0
  Na  Na2  1  0.82860632  0.25000000  0.78201725  1.0
  Na  Na3  1  0.32860632  0.25000000  0.71798275  1.0
  Y  Y4  1  0.01180904  0.75000000  0.57779240  1.0
  Y  Y5  1  0.51180904  0.75000000  0.92220760  1.0
  Y  Y6  1  0.98819096  0.25000000  0.42220760  1.0
  Y  Y7  1  0.48819096  0.25000000  0.07779240  1.0
  C  C8  1  0.45956514  0.75000000  0.56069615  1.0
  C  C9  1  0.95956514  0.75000000  0.93930385  1.0
  C  C10  1  0.54043486  0.25000000  0.43930385  1.0
  C  C11  1  0.04043486  0.25000000  0.06069615  1.0
  O  O12  1  0.36989069  0.75000000  0.68722730  1.0
  O  O13  1  0.86989069  0.75000000  0.81277270  1.0
  O  O14  1  0.63010931  0.25000000  0.31277270  1.0
  O  O15  1  0.13010931  0.25000000  0.18722730  1.0
  O  O16  1  0.15868095  0.75000000  0.95592499  1.0
  O  O17  1  0.65868095  0.75000000  0.54407501  1.0
  O  O18  1  0.84131905  0.25000000  0.04407501  1.0
  O  O19  1  0.34131905  0.25000000  0.45592499  1.0
  O  O20  1  0.83453546  0.75000000  0.04906474  1.0
  O  O21  1  0.33453546  0.75000000  0.45093526  1.0
  O  O22  1  0.16546454  0.25000000  0.95093526  1.0
  O  O23  1  0.66546454  0.25000000  0.54906474  1.0
  F  F24  1  0.45808358  0.94096497  0.12929962  1.0
  F  F25  1  0.45808358  0.55903503  0.12929962  1.0
  F  F26  1  0.95808358  0.94096497  0.37070038  1.0
  F  F27  1  0.95808358  0.55903503  0.37070038  1.0
  F  F28  1  0.54191642  0.44096497  0.87070038  1.0
  F  F29  1  0.54191642  0.05903503  0.87070038  1.0
  F  F30  1  0.04191642  0.44096497  0.62929962  1.0
  F  F31  1  0.04191642  0.05903503  0.62929962  1.0
