# generated using pymatgen
data_CsHS2(O3F)2
_symmetry_space_group_name_H-M   'P 1'
_cell_length_a   8.00797083
_cell_length_b   8.00797083
_cell_length_c   9.77162597
_cell_angle_alpha   57.06732408
_cell_angle_beta   122.93267592
_cell_angle_gamma   120.40037924
_symmetry_Int_Tables_number   1
_chemical_formula_structural   CsHS2(O3F)2
_chemical_formula_sum   'Cs2 H2 S4 O12 F4'
_cell_volume   421.25971334
_cell_formula_units_Z   2
loop_
 _symmetry_equiv_pos_site_id
 _symmetry_equiv_pos_as_xyz
  1  'x, y, z'
loop_
 _atom_site_type_symbol
 _atom_site_label
 _atom_site_symmetry_multiplicity
 _atom_site_fract_x
 _atom_site_fract_y
 _atom_site_fract_z
 _atom_site_occupancy
  Cs  Cs0  1  0.88212094  0.88212094  0.75000000  1.0
  Cs  Cs1  1  1.11787906  0.11787906  0.25000000  1.0
  H  H2  1  1.50000000  -0.00000000  0.00000000  1.0
  H  H3  1  1.00000000  0.50000000  0.50000000  1.0
  S  S4  1  1.51049683  0.16336541  0.72138114  1.0
  S  S5  1  0.83663459  0.48950317  0.22138114  1.0
  S  S6  1  1.16336541  0.51049683  0.77861886  1.0
  S  S7  1  1.48950317  -0.16336541  0.27861886  1.0
  O  O8  1  1.60132278  0.05591444  0.91745337  1.0
  O  O9  1  0.94408556  0.39867722  0.41745337  1.0
  O  O10  1  1.05591444  0.60132278  0.58254663  1.0
  O  O11  1  1.39867722  -0.05591444  0.08254663  1.0
  O  O12  1  1.59845570  0.15116557  0.63275289  1.0
  O  O13  1  0.84883443  0.40154430  0.13275289  1.0
  O  O14  1  1.15116557  0.59845570  0.86724711  1.0
  O  O15  1  1.40154430  -0.15116557  0.36724711  1.0
  O  O16  1  1.28753586  0.12451078  0.65031777  1.0
  O  O17  1  0.87548922  0.71246414  0.15031777  1.0
  O  O18  1  1.12451078  0.28753586  0.84968223  1.0
  O  O19  1  1.71246414  -0.12451078  0.34968223  1.0
  F  F20  1  0.40510176  -0.39160506  0.79760494  1.0
  F  F21  1  1.39160506  -0.40510176  0.29760494  1.0
  F  F22  1  0.60839494  -0.59489824  0.70239506  1.0
  F  F23  1  0.59489824  0.39160506  0.20239506  1.0
