# generated using pymatgen
data_Rb2Mo(IO3)6
_symmetry_space_group_name_H-M   'P 1'
_cell_length_a   7.80594341
_cell_length_b   7.80594341
_cell_length_c   7.80594341
_cell_angle_alpha   97.31602090
_cell_angle_beta   97.31602090
_cell_angle_gamma   97.31602090
_symmetry_Int_Tables_number   1
_chemical_formula_structural   Rb2Mo(IO3)6
_chemical_formula_sum   'Rb2 Mo1 I6 O18'
_cell_volume   462.91591629
_cell_formula_units_Z   1
loop_
 _symmetry_equiv_pos_site_id
 _symmetry_equiv_pos_as_xyz
  1  'x, y, z'
loop_
 _atom_site_type_symbol
 _atom_site_label
 _atom_site_symmetry_multiplicity
 _atom_site_fract_x
 _atom_site_fract_y
 _atom_site_fract_z
 _atom_site_occupancy
  Rb  Rb0  1  0.67154467  0.67154467  0.67154467  1.0
  Rb  Rb1  1  0.32845533  0.32845533  0.32845533  1.0
  Mo  Mo2  1  0.00000000  0.00000000  0.00000000  1.0
  I  I3  1  0.83433718  0.63029716  0.20552769  1.0
  I  I4  1  1.36970284  -0.20552769  0.16566282  1.0
  I  I5  1  0.79447231  0.16566282  0.36970284  1.0
  I  I6  1  1.16566282  0.36970284  -0.20552769  1.0
  I  I7  1  0.63029716  1.20552769  -0.16566282  1.0
  I  I8  1  1.20552769  0.83433718  -0.36970284  1.0
  O  O9  1  0.82073415  0.81927067  0.05621034  1.0
  O  O10  1  1.18072933  -0.05621034  0.17926585  1.0
  O  O11  1  0.94378966  0.17926585  0.18072933  1.0
  O  O12  1  1.17926585  0.18072933  -0.05621034  1.0
  O  O13  1  0.81927067  1.05621034  -0.17926585  1.0
  O  O14  1  1.05621034  0.82073415  -0.18072933  1.0
  O  O15  1  0.58950568  0.58925077  0.18904528  1.0
  O  O16  1  1.41074923  -0.18904528  0.41049432  1.0
  O  O17  1  0.81095472  0.41049432  0.41074923  1.0
  O  O18  1  1.41049432  0.41074923  -0.18904528  1.0
  O  O19  1  0.58925077  1.18904528  -0.41049432  1.0
  O  O20  1  1.18904528  0.58950568  -0.41074923  1.0
  O  O21  1  1.41361248  0.89743638  -0.21017297  1.0
  O  O22  1  1.10256362  0.21017297  -0.41361248  1.0
  O  O23  1  1.21017297  -0.41361248  0.10256362  1.0
  O  O24  1  0.58638752  0.10256362  0.21017297  1.0
  O  O25  1  0.89743638  0.78982703  0.41361248  1.0
  O  O26  1  0.78982703  1.41361248  -0.10256362  1.0
