# generated using pymatgen
data_La5(Sn5Ir2)2
_symmetry_space_group_name_H-M   'P 1'
_cell_length_a   14.26841234
_cell_length_b   14.26841234
_cell_length_c   4.73495661
_cell_angle_alpha   90.00000000
_cell_angle_beta   90.00000000
_cell_angle_gamma   90.00000000
_symmetry_Int_Tables_number   1
_chemical_formula_structural   La5(Sn5Ir2)2
_chemical_formula_sum   'La10 Sn20 Ir8'
_cell_volume   963.97840871
_cell_formula_units_Z   2
loop_
 _symmetry_equiv_pos_site_id
 _symmetry_equiv_pos_as_xyz
  1  'x, y, z'
loop_
 _atom_site_type_symbol
 _atom_site_label
 _atom_site_symmetry_multiplicity
 _atom_site_fract_x
 _atom_site_fract_y
 _atom_site_fract_z
 _atom_site_occupancy
  La  La0  1  0.32312935  0.17687065  0.50000000  1.0
  La  La1  1  0.82312935  0.32312935  0.50000000  1.0
  La  La2  1  0.67687065  0.82312935  0.50000000  1.0
  La  La3  1  0.17687065  0.67687065  0.50000000  1.0
  La  La4  1  0.88877455  0.61122545  0.50000000  1.0
  La  La5  1  0.38877455  0.88877455  0.50000000  1.0
  La  La6  1  0.11122545  0.38877455  0.50000000  1.0
  La  La7  1  0.61122545  0.11122545  0.50000000  1.0
  La  La8  1  0.50000000  0.50000000  0.00000000  1.0
  La  La9  1  0.00000000  0.00000000  0.00000000  1.0
  Sn  Sn10  1  0.33676373  0.50216776  0.50000000  1.0
  Sn  Sn11  1  0.83676373  0.99783224  0.50000000  1.0
  Sn  Sn12  1  0.49783224  0.33676373  0.50000000  1.0
  Sn  Sn13  1  0.99783224  0.16323627  0.50000000  1.0
  Sn  Sn14  1  0.66323627  0.49783224  0.50000000  1.0
  Sn  Sn15  1  0.16323627  0.00216776  0.50000000  1.0
  Sn  Sn16  1  0.50216776  0.66323627  0.50000000  1.0
  Sn  Sn17  1  0.00216776  0.83676373  0.50000000  1.0
  Sn  Sn18  1  0.34501406  0.69802401  0.00000000  1.0
  Sn  Sn19  1  0.84501406  0.80197599  0.00000000  1.0
  Sn  Sn20  1  0.30197599  0.34501406  0.00000000  1.0
  Sn  Sn21  1  0.80197599  0.15498594  0.00000000  1.0
  Sn  Sn22  1  0.65498594  0.30197599  0.00000000  1.0
  Sn  Sn23  1  0.15498594  0.19802401  0.00000000  1.0
  Sn  Sn24  1  0.69802401  0.65498594  0.00000000  1.0
  Sn  Sn25  1  0.19802401  0.84501406  0.00000000  1.0
  Sn  Sn26  1  0.42970301  0.07029699  0.00000000  1.0
  Sn  Sn27  1  0.92970301  0.42970301  0.00000000  1.0
  Sn  Sn28  1  0.57029699  0.92970301  0.00000000  1.0
  Sn  Sn29  1  0.07029699  0.57029699  0.00000000  1.0
  Ir  Ir30  1  0.25387307  0.52690234  0.00000000  1.0
  Ir  Ir31  1  0.75387307  0.97309766  0.00000000  1.0
  Ir  Ir32  1  0.47309766  0.25387307  0.00000000  1.0
  Ir  Ir33  1  0.97309766  0.24612693  0.00000000  1.0
  Ir  Ir34  1  0.74612693  0.47309766  0.00000000  1.0
  Ir  Ir35  1  0.24612693  0.02690234  0.00000000  1.0
  Ir  Ir36  1  0.52690234  0.74612693  0.00000000  1.0
  Ir  Ir37  1  0.02690234  0.75387307  0.00000000  1.0
