# generated using pymatgen
data_Sc5(Si5Ir2)2
_symmetry_space_group_name_H-M   'P 1'
_cell_length_a   12.39926517
_cell_length_b   12.39926517
_cell_length_c   4.09215358
_cell_angle_alpha   90.00000000
_cell_angle_beta   90.00000000
_cell_angle_gamma   90.00000000
_symmetry_Int_Tables_number   1
_chemical_formula_structural   Sc5(Si5Ir2)2
_chemical_formula_sum   'Sc10 Si20 Ir8'
_cell_volume   629.13496258
_cell_formula_units_Z   2
loop_
 _symmetry_equiv_pos_site_id
 _symmetry_equiv_pos_as_xyz
  1  'x, y, z'
loop_
 _atom_site_type_symbol
 _atom_site_label
 _atom_site_symmetry_multiplicity
 _atom_site_fract_x
 _atom_site_fract_y
 _atom_site_fract_z
 _atom_site_occupancy
  Sc  Sc0  1  0.32635427  0.17364573  0.50000000  1.0
  Sc  Sc1  1  0.82635427  0.32635427  0.50000000  1.0
  Sc  Sc2  1  0.67364573  0.82635427  0.50000000  1.0
  Sc  Sc3  1  0.17364573  0.67364573  0.50000000  1.0
  Sc  Sc4  1  0.88337460  0.61662540  0.50000000  1.0
  Sc  Sc5  1  0.38337460  0.88337460  0.50000000  1.0
  Sc  Sc6  1  0.11662540  0.38337460  0.50000000  1.0
  Sc  Sc7  1  0.61662540  0.11662540  0.50000000  1.0
  Sc  Sc8  1  0.50000000  0.50000000  0.00000000  1.0
  Sc  Sc9  1  0.00000000  0.00000000  0.00000000  1.0
  Si  Si10  1  0.43405216  0.06594784  0.00000000  1.0
  Si  Si11  1  0.93405216  0.43405216  0.00000000  1.0
  Si  Si12  1  0.56594784  0.93405216  0.00000000  1.0
  Si  Si13  1  0.06594784  0.56594784  0.00000000  1.0
  Si  Si14  1  0.34832463  0.50559721  0.50000000  1.0
  Si  Si15  1  0.84832463  0.99440279  0.50000000  1.0
  Si  Si16  1  0.49440279  0.34832463  0.50000000  1.0
  Si  Si17  1  0.99440279  0.15167537  0.50000000  1.0
  Si  Si18  1  0.65167537  0.49440279  0.50000000  1.0
  Si  Si19  1  0.15167537  0.00559721  0.50000000  1.0
  Si  Si20  1  0.50559721  0.65167537  0.50000000  1.0
  Si  Si21  1  0.00559721  0.84832463  0.50000000  1.0
  Si  Si22  1  0.33417741  0.69993951  0.00000000  1.0
  Si  Si23  1  0.83417741  0.80006049  0.00000000  1.0
  Si  Si24  1  0.30006049  0.33417741  0.00000000  1.0
  Si  Si25  1  0.80006049  0.16582259  0.00000000  1.0
  Si  Si26  1  0.66582259  0.30006049  0.00000000  1.0
  Si  Si27  1  0.16582259  0.19993951  0.00000000  1.0
  Si  Si28  1  0.69993951  0.66582259  0.00000000  1.0
  Si  Si29  1  0.19993951  0.83417741  0.00000000  1.0
  Ir  Ir30  1  0.25343388  0.51907792  0.00000000  1.0
  Ir  Ir31  1  0.75343388  0.98092208  0.00000000  1.0
  Ir  Ir32  1  0.48092208  0.25343388  0.00000000  1.0
  Ir  Ir33  1  0.98092208  0.24656612  0.00000000  1.0
  Ir  Ir34  1  0.74656612  0.48092208  0.00000000  1.0
  Ir  Ir35  1  0.24656612  0.01907792  0.00000000  1.0
  Ir  Ir36  1  0.51907792  0.74656612  0.00000000  1.0
  Ir  Ir37  1  0.01907792  0.75343388  0.00000000  1.0
