# generated using pymatgen
data_Y15Ni32
_symmetry_space_group_name_H-M   'P 1'
_cell_length_a   10.13367162
_cell_length_b   10.13367162
_cell_length_c   10.13367162
_cell_angle_alpha   60.00000000
_cell_angle_beta   60.00000000
_cell_angle_gamma   60.00000000
_symmetry_Int_Tables_number   1
_chemical_formula_structural   Y15Ni32
_chemical_formula_sum   'Y15 Ni32'
_cell_volume   735.84354258
_cell_formula_units_Z   1
loop_
 _symmetry_equiv_pos_site_id
 _symmetry_equiv_pos_as_xyz
  1  'x, y, z'
loop_
 _atom_site_type_symbol
 _atom_site_label
 _atom_site_symmetry_multiplicity
 _atom_site_fract_x
 _atom_site_fract_y
 _atom_site_fract_z
 _atom_site_occupancy
  Y  Y0  1  0.98603421  0.51396579  -0.48603421  1.0
  Y  Y1  1  0.98603421  0.98603421  -0.48603421  1.0
  Y  Y2  1  0.51396579  0.98603421  -0.01396579  1.0
  Y  Y3  1  0.51396579  0.51396579  -0.01396579  1.0
  Y  Y4  1  0.98603421  0.51396579  -0.01396579  1.0
  Y  Y5  1  0.51396579  0.98603421  -0.48603421  1.0
  Y  Y6  1  0.90220431  0.29338708  -0.09779569  1.0
  Y  Y7  1  0.90220431  0.90220431  -0.70661292  1.0
  Y  Y8  1  0.90220431  0.90220431  -0.09779569  1.0
  Y  Y9  1  0.29338708  0.90220431  -0.09779569  1.0
  Y  Y10  1  -0.50000000  0.50000000  0.50000000  1.0
  Y  Y11  1  0.37289859  -0.11869578  0.37289859  1.0
  Y  Y12  1  0.37289859  1.37289859  -0.11869578  1.0
  Y  Y13  1  0.37289859  1.37289859  0.37289859  1.0
  Y  Y14  1  -0.11869578  0.37289859  0.37289859  1.0
  Ni  Ni15  1  0.68839835  0.93480496  -0.31160165  1.0
  Ni  Ni16  1  0.68839835  0.68839835  -0.06519504  1.0
  Ni  Ni17  1  0.68839835  0.68839835  -0.31160165  1.0
  Ni  Ni18  1  0.93480496  0.68839835  -0.31160165  1.0
  Ni  Ni19  1  0.19298784  -0.05918081  0.19298784  1.0
  Ni  Ni20  1  0.67320513  1.19298784  -0.05918081  1.0
  Ni  Ni21  1  0.19298784  1.67320513  0.19298784  1.0
  Ni  Ni22  1  -0.05918081  0.19298784  0.67320513  1.0
  Ni  Ni23  1  0.19298784  -0.05918081  0.67320513  1.0
  Ni  Ni24  1  0.19298784  1.19298784  -0.05918081  1.0
  Ni  Ni25  1  0.67320513  1.19298784  0.19298784  1.0
  Ni  Ni26  1  -0.05918081  0.67320513  0.19298784  1.0
  Ni  Ni27  1  0.19298784  1.67320513  -0.05918081  1.0
  Ni  Ni28  1  0.19298784  1.19298784  0.67320513  1.0
  Ni  Ni29  1  -0.05918081  0.19298784  0.19298784  1.0
  Ni  Ni30  1  0.67320513  -0.05918081  0.19298784  1.0
  Ni  Ni31  1  0.18836422  0.43490735  0.18836422  1.0
  Ni  Ni32  1  0.18836422  0.18836422  0.43490735  1.0
  Ni  Ni33  1  0.18836422  0.18836422  0.18836422  1.0
  Ni  Ni34  1  0.43490735  0.18836422  0.18836422  1.0
  Ni  Ni35  1  -0.31252763  0.43706910  0.68747237  1.0
  Ni  Ni36  1  1.18798617  0.68747237  -0.56293090  1.0
  Ni  Ni37  1  0.68747237  1.18798617  -0.31252763  1.0
  Ni  Ni38  1  -0.56293090  0.68747237  1.18798617  1.0
  Ni  Ni39  1  -0.31252763  0.43706910  1.18798617  1.0
  Ni  Ni40  1  -0.31252763  0.68747237  0.43706910  1.0
  Ni  Ni41  1  1.18798617  0.68747237  -0.31252763  1.0
  Ni  Ni42  1  0.43706910  1.18798617  -0.31252763  1.0
  Ni  Ni43  1  0.68747237  1.18798617  -0.56293090  1.0
  Ni  Ni44  1  -0.31252763  0.68747237  1.18798617  1.0
  Ni  Ni45  1  -0.56293090  0.68747237  0.68747237  1.0
  Ni  Ni46  1  1.18798617  0.43706910  -0.31252763  1.0
