# generated using pymatgen
data_BaTbMn2O6
_symmetry_space_group_name_H-M   'P 1'
_cell_length_a   5.52613390
_cell_length_b   5.52613390
_cell_length_c   7.71387176
_cell_angle_alpha   90.00000000
_cell_angle_beta   90.00000000
_cell_angle_gamma   89.00146355
_symmetry_Int_Tables_number   1
_chemical_formula_structural   BaTbMn2O6
_chemical_formula_sum   'Ba2 Tb2 Mn4 O12'
_cell_volume   235.53164516
_cell_formula_units_Z   2
loop_
 _symmetry_equiv_pos_site_id
 _symmetry_equiv_pos_as_xyz
  1  'x, y, z'
loop_
 _atom_site_type_symbol
 _atom_site_label
 _atom_site_symmetry_multiplicity
 _atom_site_fract_x
 _atom_site_fract_y
 _atom_site_fract_z
 _atom_site_occupancy
  Ba  Ba0  1  0.75292033  0.75292033  0.50000000  1.0
  Ba  Ba1  1  0.24707967  0.24707967  0.50000000  1.0
  Tb  Tb2  1  0.76218132  0.76218132  0.00000000  1.0
  Tb  Tb3  1  0.23781868  0.23781868  0.00000000  1.0
  Mn  Mn4  1  0.25020450  0.74979550  0.75785376  1.0
  Mn  Mn5  1  0.25020450  0.74979550  0.24214624  1.0
  Mn  Mn6  1  -0.25020450  1.25020450  0.75785376  1.0
  Mn  Mn7  1  -0.25020450  1.25020450  0.24214624  1.0
  O  O8  1  0.00000000  1.50000000  0.78276645  1.0
  O  O9  1  0.00000000  1.50000000  0.21723355  1.0
  O  O10  1  0.50000000  1.00000000  0.78276645  1.0
  O  O11  1  0.50000000  1.00000000  0.21723355  1.0
  O  O12  1  0.50000000  0.50000000  0.80866337  1.0
  O  O13  1  0.50000000  0.50000000  0.19133663  1.0
  O  O14  1  0.00000000  0.00000000  0.73874881  1.0
  O  O15  1  0.00000000  0.00000000  0.26125119  1.0
  O  O16  1  0.27045640  0.72954360  0.50000000  1.0
  O  O17  1  -0.27045640  1.27045640  0.50000000  1.0
  O  O18  1  0.19533440  0.80466560  0.00000000  1.0
  O  O19  1  -0.19533440  1.19533440  0.00000000  1.0
