# generated using pymatgen
data_K2SO3
_symmetry_space_group_name_H-M   'P 1'
_cell_length_a   6.03220497
_cell_length_b   6.03220497
_cell_length_c   7.10814757
_cell_angle_alpha   90.00000000
_cell_angle_beta   90.00000000
_cell_angle_gamma   120.00000000
_symmetry_Int_Tables_number   1
_chemical_formula_structural   K2SO3
_chemical_formula_sum   'K4 S2 O6'
_cell_volume   223.99547634
_cell_formula_units_Z   2
loop_
 _symmetry_equiv_pos_site_id
 _symmetry_equiv_pos_as_xyz
  1  'x, y, z'
loop_
 _atom_site_type_symbol
 _atom_site_label
 _atom_site_symmetry_multiplicity
 _atom_site_fract_x
 _atom_site_fract_y
 _atom_site_fract_z
 _atom_site_occupancy
  K  K0  1  0.33333333  0.66666667  0.17812136  1.0
  K  K1  1  0.66666667  0.33333333  0.82187864  1.0
  K  K2  1  0.00000000  0.00000000  0.50000000  1.0
  K  K3  1  0.00000000  0.00000000  0.00000000  1.0
  S  S4  1  0.33333333  0.66666667  0.68102964  1.0
  S  S5  1  0.66666667  0.33333333  0.31897036  1.0
  O  O6  1  0.39480045  0.19740022  0.23216588  1.0
  O  O7  1  0.19740022  0.39480045  0.76783412  1.0
  O  O8  1  0.19740022  0.80259978  0.76783412  1.0
  O  O9  1  0.80259978  0.19740022  0.23216588  1.0
  O  O10  1  0.80259978  0.60519955  0.23216588  1.0
  O  O11  1  0.60519955  0.80259978  0.76783412  1.0
