# generated using pymatgen
data_Nb4Fe2N
_symmetry_space_group_name_H-M   'P 1'
_cell_length_a   8.25706563
_cell_length_b   8.25706563
_cell_length_c   8.25706563
_cell_angle_alpha   60.00000000
_cell_angle_beta   60.00000000
_cell_angle_gamma   60.00000000
_symmetry_Int_Tables_number   1
_chemical_formula_structural   Nb4Fe2N
_chemical_formula_sum   'Nb16 Fe8 N4'
_cell_volume   398.07253259
_cell_formula_units_Z   4
loop_
 _symmetry_equiv_pos_site_id
 _symmetry_equiv_pos_as_xyz
  1  'x, y, z'
loop_
 _atom_site_type_symbol
 _atom_site_label
 _atom_site_symmetry_multiplicity
 _atom_site_fract_x
 _atom_site_fract_y
 _atom_site_fract_z
 _atom_site_occupancy
  Nb  Nb0  1  1.12500000  0.62500000  0.62500000  1.0
  Nb  Nb1  1  0.62500000  1.12500000  -0.37500000  1.0
  Nb  Nb2  1  -0.37500000  0.62500000  1.12500000  1.0
  Nb  Nb3  1  -0.37500000  0.62500000  0.62500000  1.0
  Nb  Nb4  1  0.81493435  0.81493435  -0.81493435  1.0
  Nb  Nb5  1  0.18506565  1.18506565  -0.18506565  1.0
  Nb  Nb6  1  0.81493435  -0.81493435  0.81493435  1.0
  Nb  Nb7  1  0.18506565  -0.18506565  0.18506565  1.0
  Nb  Nb8  1  -0.81493435  0.81493435  0.81493435  1.0
  Nb  Nb9  1  -0.18506565  0.18506565  0.18506565  1.0
  Nb  Nb10  1  0.43506565  1.43506565  0.06493435  1.0
  Nb  Nb11  1  0.06493435  0.06493435  0.43506565  1.0
  Nb  Nb12  1  0.43506565  1.06493435  0.43506565  1.0
  Nb  Nb13  1  0.06493435  1.43506565  0.06493435  1.0
  Nb  Nb14  1  0.06493435  1.43506565  0.43506565  1.0
  Nb  Nb15  1  0.43506565  1.06493435  0.06493435  1.0
  Fe  Fe16  1  -0.25714488  0.41904829  0.41904829  1.0
  Fe  Fe17  1  0.41904829  -0.25714488  0.41904829  1.0
  Fe  Fe18  1  0.41904829  1.41904829  -0.25714488  1.0
  Fe  Fe19  1  0.41904829  1.41904829  0.41904829  1.0
  Fe  Fe20  1  0.50714488  0.83095171  -0.16904829  1.0
  Fe  Fe21  1  0.83095171  0.50714488  0.83095171  1.0
  Fe  Fe22  1  0.83095171  0.83095171  -0.49285512  1.0
  Fe  Fe23  1  0.83095171  0.83095171  0.83095171  1.0
  N  N24  1  0.62500000  1.12500000  0.12500000  1.0
  N  N25  1  0.12500000  1.62500000  0.12500000  1.0
  N  N26  1  0.12500000  0.12500000  1.62500000  1.0
  N  N27  1  0.12500000  0.12500000  0.12500000  1.0
