# generated using pymatgen
data_NaTiP2O7
_symmetry_space_group_name_H-M   'P 1'
_cell_length_a   7.49347333
_cell_length_b   8.06156308
_cell_length_c   9.85107143
_cell_angle_alpha   90.00000000
_cell_angle_beta   111.56071715
_cell_angle_gamma   90.00000000
_symmetry_Int_Tables_number   1
_chemical_formula_structural   NaTiP2O7
_chemical_formula_sum   'Na4 Ti4 P8 O28'
_cell_volume   553.45488117
_cell_formula_units_Z   4
loop_
 _symmetry_equiv_pos_site_id
 _symmetry_equiv_pos_as_xyz
  1  'x, y, z'
loop_
 _atom_site_type_symbol
 _atom_site_label
 _atom_site_symmetry_multiplicity
 _atom_site_fract_x
 _atom_site_fract_y
 _atom_site_fract_z
 _atom_site_occupancy
  Na  Na0  1  0.71502735  0.52592245  0.70998843  1.0
  Na  Na1  1  0.71502735  0.97407755  0.20998843  1.0
  Na  Na2  1  0.28497265  0.02592245  0.79001157  1.0
  Na  Na3  1  0.28497265  0.47407755  0.29001157  1.0
  Ti  Ti4  1  0.73899646  0.99063382  0.75061819  1.0
  Ti  Ti5  1  0.73899646  0.50936618  0.25061819  1.0
  Ti  Ti6  1  0.26100354  0.49063382  0.74938181  1.0
  Ti  Ti7  1  0.26100354  0.00936618  0.24938181  1.0
  P  P8  1  0.92937894  0.74337493  0.54607394  1.0
  P  P9  1  0.92937894  0.75662507  0.04607394  1.0
  P  P10  1  0.07062106  0.24337493  0.95392606  1.0
  P  P11  1  0.07062106  0.25662507  0.45392606  1.0
  P  P12  1  0.67252144  0.28816373  0.95284630  1.0
  P  P13  1  0.67252144  0.21183627  0.45284630  1.0
  P  P14  1  0.32747856  0.78816373  0.54715370  1.0
  P  P15  1  0.32747856  0.71183627  0.04715370  1.0
  O  O16  1  0.98936450  0.58263503  0.63674231  1.0
  O  O17  1  0.98936450  0.91736497  0.13674231  1.0
  O  O18  1  0.01063550  0.08263503  0.86325769  1.0
  O  O19  1  0.01063550  0.41736497  0.36325769  1.0
  O  O20  1  0.87438699  0.34419185  0.93715151  1.0
  O  O21  1  0.87438699  0.15580815  0.43715151  1.0
  O  O22  1  0.12561301  0.84419185  0.56284849  1.0
  O  O23  1  0.12561301  0.65580815  0.06284849  1.0
  O  O24  1  0.82080081  0.86118473  0.60800243  1.0
  O  O25  1  0.82080081  0.63881527  0.10800243  1.0
  O  O26  1  0.17919919  0.36118473  0.89199757  1.0
  O  O27  1  0.17919919  0.13881527  0.39199757  1.0
  O  O28  1  0.81934990  0.78723702  0.88241018  1.0
  O  O29  1  0.81934990  0.71276298  0.38241018  1.0
  O  O30  1  0.18065010  0.28723702  0.61758982  1.0
  O  O31  1  0.18065010  0.21276298  0.11758982  1.0
  O  O32  1  0.46615822  0.91347880  0.65078945  1.0
  O  O33  1  0.46615822  0.58652120  0.15078945  1.0
  O  O34  1  0.53384178  0.41347880  0.84921055  1.0
  O  O35  1  0.53384178  0.08652120  0.34921055  1.0
  O  O36  1  0.36802420  0.60761056  0.60229162  1.0
  O  O37  1  0.36802420  0.89238944  0.10229162  1.0
  O  O38  1  0.63197580  0.10761056  0.89770838  1.0
  O  O39  1  0.63197580  0.39238944  0.39770838  1.0
  O  O40  1  0.30794897  0.69777657  0.88712777  1.0
  O  O41  1  0.30794897  0.80222343  0.38712777  1.0
  O  O42  1  0.69205103  0.19777657  0.61287223  1.0
  O  O43  1  0.69205103  0.30222343  0.11287223  1.0
