# generated using pymatgen
data_C10Se(NF3)2
_symmetry_space_group_name_H-M   'P 1'
_cell_length_a   5.11000212
_cell_length_b   7.81250487
_cell_length_c   14.72705220
_cell_angle_alpha   90.00000000
_cell_angle_beta   87.60617294
_cell_angle_gamma   90.00000000
_symmetry_Int_Tables_number   1
_chemical_formula_structural   C10Se(NF3)2
_chemical_formula_sum   'C20 Se2 N4 F12'
_cell_volume   587.41908005
_cell_formula_units_Z   2
loop_
 _symmetry_equiv_pos_site_id
 _symmetry_equiv_pos_as_xyz
  1  'x, y, z'
loop_
 _atom_site_type_symbol
 _atom_site_label
 _atom_site_symmetry_multiplicity
 _atom_site_fract_x
 _atom_site_fract_y
 _atom_site_fract_z
 _atom_site_occupancy
  C  C0  1  0.99031153  0.10086963  0.69383729  1.0
  C  C1  1  0.00968847  0.60086963  0.30616271  1.0
  C  C2  1  0.95129594  0.84962385  0.79447634  1.0
  C  C3  1  0.04870406  0.34962385  0.20552366  1.0
  C  C4  1  0.91971527  0.60647414  0.89837806  1.0
  C  C5  1  0.08028473  0.10647414  0.10162194  1.0
  C  C6  1  0.88172574  0.02116503  0.76872774  1.0
  C  C7  1  0.11827426  0.52116503  0.23127226  1.0
  C  C8  1  0.84390103  0.77005291  0.87338976  1.0
  C  C9  1  0.15609897  0.27005291  0.12661024  1.0
  C  C10  1  0.82425596  0.51400814  0.36491402  1.0
  C  C11  1  0.17574404  0.01400814  0.63508598  1.0
  C  C12  1  0.24614502  0.83814965  0.65609212  1.0
  C  C13  1  0.75385498  0.33814965  0.34390788  1.0
  C  C14  1  0.21198916  0.59220713  0.76589658  1.0
  C  C15  1  0.78801084  0.09220713  0.23410342  1.0
  C  C16  1  0.13883189  0.75686006  0.73826287  1.0
  C  C17  1  0.86116811  0.25686006  0.26173713  1.0
  C  C18  1  0.10561062  0.51732706  0.84464345  1.0
  C  C19  1  0.89438938  0.01732706  0.15535655  1.0
  Se  Se20  1  0.49051011  0.91801458  0.50767260  1.0
  Se  Se21  1  0.50948989  0.41801458  0.49232740  1.0
  N  N22  1  0.71421066  0.58240813  0.43959575  1.0
  N  N23  1  0.28578934  0.08240813  0.56040425  1.0
  N  N24  1  0.41034509  0.76386528  0.59583994  1.0
  N  N25  1  0.58965491  0.26386528  0.40416006  1.0
  F  F26  1  0.91993591  0.26266130  0.67399373  1.0
  F  F27  1  0.08006409  0.76266130  0.32600627  1.0
  F  F28  1  0.81494217  0.53340677  0.97405249  1.0
  F  F29  1  0.18505783  0.03340677  0.02594751  1.0
  F  F30  1  0.82030377  0.85952307  0.13080808  1.0
  F  F31  1  0.17969623  0.35952307  0.86919192  1.0
  F  F32  1  0.70382732  0.10848272  0.82086237  1.0
  F  F33  1  0.29617268  0.60848272  0.17913763  1.0
  F  F34  1  0.66297490  0.84885995  0.92810453  1.0
  F  F35  1  0.33702510  0.34885995  0.07189547  1.0
  F  F36  1  0.39138661  0.50004061  0.71729841  1.0
  F  F37  1  0.60861339  0.00004061  0.28270159  1.0
