# generated using pymatgen
data_CsGaBr4
_symmetry_space_group_name_H-M   'P 1'
_cell_length_a   12.66784593
_cell_length_b   7.65938227
_cell_length_c   10.38545220
_cell_angle_alpha   90.00000000
_cell_angle_beta   90.00000000
_cell_angle_gamma   90.00000000
_symmetry_Int_Tables_number   1
_chemical_formula_structural   CsGaBr4
_chemical_formula_sum   'Cs4 Ga4 Br16'
_cell_volume   1007.67835321
_cell_formula_units_Z   4
loop_
 _symmetry_equiv_pos_site_id
 _symmetry_equiv_pos_as_xyz
  1  'x, y, z'
loop_
 _atom_site_type_symbol
 _atom_site_label
 _atom_site_symmetry_multiplicity
 _atom_site_fract_x
 _atom_site_fract_y
 _atom_site_fract_z
 _atom_site_occupancy
  Cs  Cs0  1  0.32042220  0.75000000  0.15991607  1.0
  Cs  Cs1  1  0.82042220  0.75000000  0.34008393  1.0
  Cs  Cs2  1  0.67957780  0.25000000  0.84008393  1.0
  Cs  Cs3  1  0.17957780  0.25000000  0.65991607  1.0
  Ga  Ga4  1  0.43424617  0.75000000  0.70145828  1.0
  Ga  Ga5  1  0.93424617  0.75000000  0.79854172  1.0
  Ga  Ga6  1  0.56575383  0.25000000  0.29854172  1.0
  Ga  Ga7  1  0.06575383  0.25000000  0.20145828  1.0
  Br  Br8  1  0.40923337  0.99997143  0.83418686  1.0
  Br  Br9  1  0.40923337  0.50002857  0.83418686  1.0
  Br  Br10  1  0.90923337  0.99997143  0.66581314  1.0
  Br  Br11  1  0.90923337  0.50002857  0.66581314  1.0
  Br  Br12  1  0.59076663  0.49997143  0.16581314  1.0
  Br  Br13  1  0.59076663  0.00002857  0.16581314  1.0
  Br  Br14  1  0.09076663  0.49997143  0.33418686  1.0
  Br  Br15  1  0.09076663  0.00002857  0.33418686  1.0
  Br  Br16  1  0.30405689  0.75000000  0.53929396  1.0
  Br  Br17  1  0.80405689  0.75000000  0.96070604  1.0
  Br  Br18  1  0.69594311  0.25000000  0.46070604  1.0
  Br  Br19  1  0.19594311  0.25000000  0.03929396  1.0
  Br  Br20  1  0.10823420  0.75000000  0.87684656  1.0
  Br  Br21  1  0.60823420  0.75000000  0.62315344  1.0
  Br  Br22  1  0.89176580  0.25000000  0.12315344  1.0
  Br  Br23  1  0.39176580  0.25000000  0.37684656  1.0
