# generated using pymatgen
data_BS4N4F3
_symmetry_space_group_name_H-M   'P 1'
_cell_length_a   7.64127049
_cell_length_b   11.00463382
_cell_length_c   12.98041577
_cell_angle_alpha   90.00000000
_cell_angle_beta   121.58289946
_cell_angle_gamma   90.00000000
_symmetry_Int_Tables_number   1
_chemical_formula_structural   BS4N4F3
_chemical_formula_sum   'B4 S16 N16 F12'
_cell_volume   929.84352204
_cell_formula_units_Z   4
loop_
 _symmetry_equiv_pos_site_id
 _symmetry_equiv_pos_as_xyz
  1  'x, y, z'
loop_
 _atom_site_type_symbol
 _atom_site_label
 _atom_site_symmetry_multiplicity
 _atom_site_fract_x
 _atom_site_fract_y
 _atom_site_fract_z
 _atom_site_occupancy
  B  B0  1  0.78928485  0.09383037  0.30023936  1.0
  B  B1  1  0.78928485  0.40616963  0.80023936  1.0
  B  B2  1  0.21071515  0.59383037  0.19976064  1.0
  B  B3  1  0.21071515  0.90616963  0.69976064  1.0
  S  S4  1  0.80915044  0.83231691  0.27890864  1.0
  S  S5  1  0.80915044  0.66768309  0.77890864  1.0
  S  S6  1  0.19084956  0.33231691  0.22109136  1.0
  S  S7  1  0.19084956  0.16768309  0.72109136  1.0
  S  S8  1  0.76812382  0.45113394  0.30930186  1.0
  S  S9  1  0.76812382  0.04886606  0.80930186  1.0
  S  S10  1  0.23187618  0.95113394  0.19069814  1.0
  S  S11  1  0.23187618  0.54886606  0.69069814  1.0
  S  S12  1  0.65036585  0.92486917  0.41072588  1.0
  S  S13  1  0.65036585  0.57513083  0.91072588  1.0
  S  S14  1  0.34963415  0.42486917  0.08927412  1.0
  S  S15  1  0.34963415  0.07513083  0.58927412  1.0
  S  S16  1  0.59860297  0.34448103  0.45101208  1.0
  S  S17  1  0.59860297  0.15551897  0.95101208  1.0
  S  S18  1  0.40139703  0.84448103  0.04898792  1.0
  S  S19  1  0.40139703  0.65551897  0.54898792  1.0
  N  N20  1  0.75875099  0.95772174  0.33089655  1.0
  N  N21  1  0.75875099  0.54227826  0.83089655  1.0
  N  N22  1  0.24124901  0.45772174  0.16910345  1.0
  N  N23  1  0.24124901  0.04227826  0.66910345  1.0
  N  N24  1  0.71571241  0.43744373  0.41293066  1.0
  N  N25  1  0.71571241  0.06255627  0.91293066  1.0
  N  N26  1  0.28428759  0.93744373  0.08706934  1.0
  N  N27  1  0.28428759  0.56255627  0.58706934  1.0
  N  N28  1  0.59530531  0.43621441  0.17282802  1.0
  N  N29  1  0.59530531  0.06378559  0.67282802  1.0
  N  N30  1  0.40469469  0.93621441  0.32717198  1.0
  N  N31  1  0.40469469  0.56378559  0.82717198  1.0
  N  N32  1  0.37495620  0.30122734  0.35579369  1.0
  N  N33  1  0.37495620  0.19877266  0.85579369  1.0
  N  N34  1  0.62504380  0.80122734  0.14420631  1.0
  N  N35  1  0.62504380  0.69877266  0.64420631  1.0
  F  F36  1  0.89573808  0.15755373  0.41040311  1.0
  F  F37  1  0.89573808  0.34244627  0.91040311  1.0
  F  F38  1  0.10426192  0.65755373  0.08959689  1.0
  F  F39  1  0.10426192  0.84244627  0.58959689  1.0
  F  F40  1  0.90264584  0.08588445  0.24377303  1.0
  F  F41  1  0.90264584  0.41411555  0.74377303  1.0
  F  F42  1  0.09735416  0.58588445  0.25622697  1.0
  F  F43  1  0.09735416  0.91411555  0.75622697  1.0
  F  F44  1  0.59630149  0.14760584  0.22448038  1.0
  F  F45  1  0.59630149  0.35239416  0.72448038  1.0
  F  F46  1  0.40369851  0.64760584  0.27551962  1.0
  F  F47  1  0.40369851  0.85239416  0.77551962  1.0
