# generated using pymatgen
data_YSiPt2
_symmetry_space_group_name_H-M   'P 1'
_cell_length_a   7.34417424
_cell_length_b   6.97914725
_cell_length_c   5.51733936
_cell_angle_alpha   90.00000000
_cell_angle_beta   90.00000000
_cell_angle_gamma   90.00000000
_symmetry_Int_Tables_number   1
_chemical_formula_structural   YSiPt2
_chemical_formula_sum   'Y4 Si4 Pt8'
_cell_volume   282.79715155
_cell_formula_units_Z   4
loop_
 _symmetry_equiv_pos_site_id
 _symmetry_equiv_pos_as_xyz
  1  'x, y, z'
loop_
 _atom_site_type_symbol
 _atom_site_label
 _atom_site_symmetry_multiplicity
 _atom_site_fract_x
 _atom_site_fract_y
 _atom_site_fract_z
 _atom_site_occupancy
  Y  Y0  1  0.97345741  0.25000000  0.63466313  1.0
  Y  Y1  1  0.47345741  0.25000000  0.86533687  1.0
  Y  Y2  1  0.02654259  0.75000000  0.36533687  1.0
  Y  Y3  1  0.52654259  0.75000000  0.13466313  1.0
  Si  Si4  1  0.62081700  0.25000000  0.36492328  1.0
  Si  Si5  1  0.12081700  0.25000000  0.13507672  1.0
  Si  Si6  1  0.37918300  0.75000000  0.63507672  1.0
  Si  Si7  1  0.87918300  0.75000000  0.86492328  1.0
  Pt  Pt8  1  0.81952979  0.44884434  0.09261182  1.0
  Pt  Pt9  1  0.81952979  0.05115566  0.09261182  1.0
  Pt  Pt10  1  0.31952979  0.44884434  0.40738818  1.0
  Pt  Pt11  1  0.31952979  0.05115566  0.40738818  1.0
  Pt  Pt12  1  0.18047021  0.94884434  0.90738818  1.0
  Pt  Pt13  1  0.18047021  0.55115566  0.90738818  1.0
  Pt  Pt14  1  0.68047021  0.94884434  0.59261182  1.0
  Pt  Pt15  1  0.68047021  0.55115566  0.59261182  1.0
