# generated using pymatgen
data_Mg7(Ge4O7)2
_symmetry_space_group_name_H-M   'P 1'
_cell_length_a   7.63598037
_cell_length_b   7.63598037
_cell_length_c   7.63598037
_cell_angle_alpha   74.30816142
_cell_angle_beta   74.30816142
_cell_angle_gamma   74.30816142
_symmetry_Int_Tables_number   1
_chemical_formula_structural   Mg7(Ge4O7)2
_chemical_formula_sum   'Mg7 Ge8 O14'
_cell_volume   403.21114308
_cell_formula_units_Z   1
loop_
 _symmetry_equiv_pos_site_id
 _symmetry_equiv_pos_as_xyz
  1  'x, y, z'
loop_
 _atom_site_type_symbol
 _atom_site_label
 _atom_site_symmetry_multiplicity
 _atom_site_fract_x
 _atom_site_fract_y
 _atom_site_fract_z
 _atom_site_occupancy
  Mg  Mg0  1  0.30851628  0.30851628  -0.03179743  1.0
  Mg  Mg1  1  0.30851628  0.96820257  -0.69148372  1.0
  Mg  Mg2  1  1.03179743  0.69148372  -0.30851628  1.0
  Mg  Mg3  1  0.96820257  0.30851628  -0.69148372  1.0
  Mg  Mg4  1  0.69148372  0.69148372  0.03179743  1.0
  Mg  Mg5  1  0.69148372  1.03179743  -0.30851628  1.0
  Mg  Mg6  1  -0.00000000  0.00000000  -0.00000000  1.0
  O  O7  1  1.02859604  1.02859604  0.32114963  1.0
  O  O8  1  1.02859604  1.32114963  0.02859604  1.0
  O  O9  1  0.72334161  0.72334161  0.72334161  1.0
  O  O10  1  0.67885037  -0.02859604  -0.02859604  1.0
  O  O11  1  1.32114963  1.02859604  0.02859604  1.0
  O  O12  1  0.27665839  0.27665839  0.27665839  1.0
  O  O13  1  0.97140396  -0.32114963  -0.02859604  1.0
  O  O14  1  0.97140396  -0.02859604  -0.32114963  1.0
  O  O15  1  0.79536161  0.47070354  0.47070354  1.0
  O  O16  1  0.52929646  0.52929646  0.20463839  1.0
  O  O17  1  0.52929646  1.20463839  -0.47070354  1.0
  O  O18  1  1.47070354  -0.20463839  0.47070354  1.0
  O  O19  1  1.47070354  0.47070354  -0.20463839  1.0
  O  O20  1  1.20463839  0.52929646  -0.47070354  1.0
  Ge  Ge21  1  0.87293283  0.87293283  0.34567356  1.0
  Ge  Ge22  1  0.87293283  1.34567356  -0.12706717  1.0
  Ge  Ge23  1  0.60400817  0.60400817  0.60400817  1.0
  Ge  Ge24  1  0.65432644  0.12706717  0.12706717  1.0
  Ge  Ge25  1  0.39599183  0.39599183  0.39599183  1.0
  Ge  Ge26  1  1.34567356  0.87293283  -0.12706717  1.0
  Ge  Ge27  1  1.12706717  -0.34567356  0.12706717  1.0
  Ge  Ge28  1  1.12706717  0.12706717  -0.34567356  1.0
