# generated using pymatgen
data_NaSrGaF6
_symmetry_space_group_name_H-M   'P 1'
_cell_length_a   5.44621147
_cell_length_b   9.47229732
_cell_length_c   10.49184330
_cell_angle_alpha   90.00000000
_cell_angle_beta   90.00000000
_cell_angle_gamma   90.00000000
_symmetry_Int_Tables_number   1
_chemical_formula_structural   NaSrGaF6
_chemical_formula_sum   'Na4 Sr4 Ga4 F24'
_cell_volume   541.25462065
_cell_formula_units_Z   4
loop_
 _symmetry_equiv_pos_site_id
 _symmetry_equiv_pos_as_xyz
  1  'x, y, z'
loop_
 _atom_site_type_symbol
 _atom_site_label
 _atom_site_symmetry_multiplicity
 _atom_site_fract_x
 _atom_site_fract_y
 _atom_site_fract_z
 _atom_site_occupancy
  Na  Na0  1  0.45965599  0.35069748  0.58294341  1.0
  Na  Na1  1  0.95965599  0.14930252  0.41705659  1.0
  Na  Na2  1  0.54034401  0.85069748  0.91705659  1.0
  Na  Na3  1  0.04034401  0.64930252  0.08294341  1.0
  Sr  Sr4  1  0.98963584  0.68328041  0.67277469  1.0
  Sr  Sr5  1  0.48963584  0.81671959  0.32722531  1.0
  Sr  Sr6  1  0.01036416  0.18328041  0.82722531  1.0
  Sr  Sr7  1  0.51036416  0.31671959  0.17277469  1.0
  Ga  Ga8  1  0.46927655  1.00064866  0.62833565  1.0
  Ga  Ga9  1  0.96927655  0.49935134  0.37166435  1.0
  Ga  Ga10  1  0.53072345  0.50064866  0.87166435  1.0
  Ga  Ga11  1  0.03072345  -0.00064866  0.12833565  1.0
  F  F12  1  0.33144950  0.65858465  0.81769250  1.0
  F  F13  1  0.83144950  0.84141535  0.18230750  1.0
  F  F14  1  0.66855050  0.15858465  0.68230750  1.0
  F  F15  1  0.16855050  0.34141535  0.31769250  1.0
  F  F16  1  0.28975319  0.37626150  0.79852907  1.0
  F  F17  1  0.78975319  0.12373850  0.20147093  1.0
  F  F18  1  0.71024681  0.87626150  0.70147093  1.0
  F  F19  1  0.21024681  0.62373850  0.29852907  1.0
  F  F20  1  0.27719782  0.85914229  0.08613120  1.0
  F  F21  1  0.77719782  0.64085771  0.91386880  1.0
  F  F22  1  0.72280218  0.35914229  0.41386880  1.0
  F  F23  1  0.22280218  0.14085771  0.58613120  1.0
  F  F24  1  0.28465936  0.84432811  0.55453038  1.0
  F  F25  1  0.78465936  0.65567189  0.44546962  1.0
  F  F26  1  0.71534064  0.34432811  0.94546962  1.0
  F  F27  1  0.21534064  0.15567189  0.05453038  1.0
  F  F28  1  0.29526864  0.98556831  0.78710536  1.0
  F  F29  1  0.79526864  0.51443169  0.21289464  1.0
  F  F30  1  0.70473136  0.48556831  0.71289464  1.0
  F  F31  1  0.20473136  0.01443169  0.28710536  1.0
  F  F32  1  0.13768250  0.49443289  0.53192813  1.0
  F  F33  1  0.63768250  0.00556711  0.46807187  1.0
  F  F34  1  0.86231750  0.99443289  0.96807187  1.0
  F  F35  1  0.36231750  0.50556711  0.03192813  1.0
