# generated using pymatgen
data_NaZn(H3O2)3
_symmetry_space_group_name_H-M   'P 1'
_cell_length_a   11.45843704
_cell_length_b   8.09441682
_cell_length_c   3.41165579
_cell_angle_alpha   93.69374500
_cell_angle_beta   100.00391186
_cell_angle_gamma   93.71384444
_symmetry_Int_Tables_number   1
_chemical_formula_structural   NaZn(H3O2)3
_chemical_formula_sum   'Na2 Zn2 H18 O12'
_cell_volume   310.04013743
_cell_formula_units_Z   2
loop_
 _symmetry_equiv_pos_site_id
 _symmetry_equiv_pos_as_xyz
  1  'x, y, z'
loop_
 _atom_site_type_symbol
 _atom_site_label
 _atom_site_symmetry_multiplicity
 _atom_site_fract_x
 _atom_site_fract_y
 _atom_site_fract_z
 _atom_site_occupancy
  Na  Na0  1  -0.27414617  -0.70701602  -0.73473953  1.0
  Na  Na1  1  -0.72585383  -0.29298398  -0.26526047  1.0
  Zn  Zn2  1  -0.82991033  -0.91369893  -0.70523138  1.0
  Zn  Zn3  1  -0.17008967  -0.08630107  -0.29476862  1.0
  H  H4  1  -0.93471876  -0.35702101  -0.99957761  1.0
  H  H5  1  -0.06528124  -0.64297899  -0.00042239  1.0
  H  H6  1  -0.64200988  -0.81615986  -0.87847408  1.0
  H  H7  1  -0.35799012  -0.18384014  -0.12152592  1.0
  H  H8  1  -0.88341758  -0.52146043  -0.82957180  1.0
  H  H9  1  -0.11658242  -0.47853957  -0.17042820  1.0
  H  H10  1  -0.42023436  -0.45709009  -1.04184948  1.0
  H  H11  1  -0.57976564  -0.54290991  0.04184948  1.0
  H  H12  1  -0.07441575  -0.88855050  -0.72435995  1.0
  H  H13  1  -0.92558425  -0.11144950  -0.27564005  1.0
  H  H14  1  -0.94051186  -0.69417902  -0.45710557  1.0
  H  H15  1  -0.05948814  -0.30582098  -0.54289443  1.0
  H  H16  1  -0.63550016  -0.64792005  -0.36432874  1.0
  H  H17  1  -0.36449984  -0.35207995  -0.63567126  1.0
  H  H18  1  -0.48658389  -0.83068817  -0.41035414  1.0
  H  H19  1  -0.51341611  -0.16931183  -0.58964586  1.0
  H  H20  1  -0.38614012  -0.95554848  -0.35625143  1.0
  H  H21  1  -0.61385988  -0.04445152  -0.64374857  1.0
  O  O22  1  -0.86184179  -0.40298677  -0.85972103  1.0
  O  O23  1  -0.13815821  -0.59701323  -0.14027897  1.0
  O  O24  1  -0.15002832  -0.95863068  -0.76387059  1.0
  O  O25  1  -0.84997168  -0.04136932  -0.23612941  1.0
  O  O26  1  -0.94020816  -0.73337704  -0.73302324  1.0
  O  O27  1  -0.05979184  -0.26662296  -0.26697676  1.0
  O  O28  1  -0.37940201  -0.46700513  -0.76998245  1.0
  O  O29  1  -0.62059799  -0.53299487  -0.23001755  1.0
  O  O30  1  -0.65523000  -0.84116867  -0.61341980  1.0
  O  O31  1  -0.34477000  -0.15883133  -0.38658020  1.0
  O  O32  1  -0.40029671  -0.83533807  -0.32745047  1.0
  O  O33  1  -0.59970329  -0.16466193  -0.67254953  1.0
