# generated using pymatgen
data_KIO3
_symmetry_space_group_name_H-M   'P 1'
_cell_length_a   6.56248060
_cell_length_b   6.56248060
_cell_length_c   6.56248060
_cell_angle_alpha   57.55970109
_cell_angle_beta   57.55970109
_cell_angle_gamma   57.55970109
_symmetry_Int_Tables_number   1
_chemical_formula_structural   KIO3
_chemical_formula_sum   'K2 I2 O6'
_cell_volume   188.63023300
_cell_formula_units_Z   2
loop_
 _symmetry_equiv_pos_site_id
 _symmetry_equiv_pos_as_xyz
  1  'x, y, z'
loop_
 _atom_site_type_symbol
 _atom_site_label
 _atom_site_symmetry_multiplicity
 _atom_site_fract_x
 _atom_site_fract_y
 _atom_site_fract_z
 _atom_site_occupancy
  K  K0  1  -0.01558124  -0.01558124  -0.01558124  1.0
  K  K1  1  0.48446244  0.48446244  -0.51553756  1.0
  I  I2  1  1.24094998  1.24094998  0.24094998  1.0
  I  I3  1  0.74094008  0.74094008  -0.25905992  1.0
  O  O4  1  1.09874338  -0.02079347  -0.50937057  1.0
  O  O5  1  0.97920653  -0.50937057  0.09874338  1.0
  O  O6  1  0.49062943  0.09874338  -0.02079347  1.0
  O  O7  1  0.59880964  0.99060112  -0.52086134  1.0
  O  O8  1  0.99060112  0.47913866  -0.40119036  1.0
  O  O9  1  0.47913866  0.59880964  -0.00939888  1.0
