# generated using pymatgen
data_MgTi2O4
_symmetry_space_group_name_H-M   'P 1'
_cell_length_a   6.02015383
_cell_length_b   6.02015383
_cell_length_c   6.02015383
_cell_angle_alpha   60.00000000
_cell_angle_beta   60.00000000
_cell_angle_gamma   60.00000000
_symmetry_Int_Tables_number   1
_chemical_formula_structural   MgTi2O4
_chemical_formula_sum   'Mg2 Ti4 O8'
_cell_volume   154.27933851
_cell_formula_units_Z   2
loop_
 _symmetry_equiv_pos_site_id
 _symmetry_equiv_pos_as_xyz
  1  'x, y, z'
loop_
 _atom_site_type_symbol
 _atom_site_label
 _atom_site_symmetry_multiplicity
 _atom_site_fract_x
 _atom_site_fract_y
 _atom_site_fract_z
 _atom_site_occupancy
  Mg  Mg0  1  0.75000000  -0.25000000  0.75000000  1.0
  Mg  Mg1  1  0.50000000  0.50000000  -0.50000000  1.0
  Ti  Ti2  1  0.12500000  0.12500000  1.62500000  1.0
  Ti  Ti3  1  0.12500000  0.62500000  0.12500000  1.0
  Ti  Ti4  1  0.62500000  0.12500000  1.12500000  1.0
  Ti  Ti5  1  0.12500000  0.12500000  0.12500000  1.0
  O  O6  1  0.36663556  0.36663556  -0.09990667  1.0
  O  O7  1  0.36663556  -0.09990667  0.36663556  1.0
  O  O8  1  -0.09990667  0.36663556  0.36663556  1.0
  O  O9  1  0.36663556  0.36663556  0.36663556  1.0
  O  O10  1  -0.11663556  0.88336444  0.34990667  1.0
  O  O11  1  0.88336444  -0.65009333  0.88336444  1.0
  O  O12  1  -0.65009333  0.88336444  0.88336444  1.0
  O  O13  1  0.88336444  -0.11663556  0.88336444  1.0
