# generated using pymatgen
data_KCrO2
_symmetry_space_group_name_H-M   'P 1'
_cell_length_a   6.20627118
_cell_length_b   6.20627118
_cell_length_c   6.20627118
_cell_angle_alpha   28.89001875
_cell_angle_beta   28.89001875
_cell_angle_gamma   28.89001875
_symmetry_Int_Tables_number   1
_chemical_formula_structural   KCrO2
_chemical_formula_sum   'K1 Cr1 O2'
_cell_volume   49.34517003
_cell_formula_units_Z   1
loop_
 _symmetry_equiv_pos_site_id
 _symmetry_equiv_pos_as_xyz
  1  'x, y, z'
loop_
 _atom_site_type_symbol
 _atom_site_label
 _atom_site_symmetry_multiplicity
 _atom_site_fract_x
 _atom_site_fract_y
 _atom_site_fract_z
 _atom_site_occupancy
  K  K0  1  0.00000000  0.00000000  0.00000000  1.0
  Cr  Cr1  1  1.50000000  0.50000000  0.50000000  1.0
  O  O2  1  0.77714997  0.77714997  0.77714997  1.0
  O  O3  1  1.22285003  1.22285003  0.22285003  1.0
