# generated using pymatgen
data_Ti6Al16Ni7
_symmetry_space_group_name_H-M   'P 1'
_cell_length_a   8.36327189
_cell_length_b   8.36327189
_cell_length_c   8.36327189
_cell_angle_alpha   60.00000000
_cell_angle_beta   60.00000000
_cell_angle_gamma   60.00000000
_symmetry_Int_Tables_number   1
_chemical_formula_structural   Ti6Al16Ni7
_chemical_formula_sum   'Ti6 Al16 Ni7'
_cell_volume   413.63154331
_cell_formula_units_Z   1
loop_
 _symmetry_equiv_pos_site_id
 _symmetry_equiv_pos_as_xyz
  1  'x, y, z'
loop_
 _atom_site_type_symbol
 _atom_site_label
 _atom_site_symmetry_multiplicity
 _atom_site_fract_x
 _atom_site_fract_y
 _atom_site_fract_z
 _atom_site_occupancy
  Ti  Ti0  1  -0.68133274  0.68133274  0.68133274  1.0
  Ti  Ti1  1  -0.31866726  0.31866726  0.68133274  1.0
  Ti  Ti2  1  0.68133274  0.68133274  -0.68133274  1.0
  Ti  Ti3  1  0.31866726  1.31866726  -0.31866726  1.0
  Ti  Ti4  1  0.31866726  -0.31866726  1.31866726  1.0
  Ti  Ti5  1  -0.31866726  0.31866726  0.31866726  1.0
  Al  Al6  1  0.88085754  0.88085754  -0.11914246  1.0
  Al  Al7  1  1.11914246  0.11914246  0.64257261  1.0
  Al  Al8  1  1.11914246  0.64257261  0.11914246  1.0
  Al  Al9  1  0.35742739  0.88085754  -0.11914246  1.0
  Al  Al10  1  1.64257261  0.11914246  0.11914246  1.0
  Al  Al11  1  0.88085754  0.35742739  -0.11914246  1.0
  Al  Al12  1  0.88085754  0.88085754  -0.64257261  1.0
  Al  Al13  1  1.11914246  0.11914246  0.11914246  1.0
  Al  Al14  1  0.66216633  0.66216633  -0.33783367  1.0
  Al  Al15  1  0.33783367  1.33783367  -0.01350102  1.0
  Al  Al16  1  1.33783367  -0.01350102  0.33783367  1.0
  Al  Al17  1  1.01350102  0.66216633  0.66216633  1.0
  Al  Al18  1  -0.01350102  1.33783367  0.33783367  1.0
  Al  Al19  1  0.66216633  1.01350102  -0.33783367  1.0
  Al  Al20  1  0.66216633  0.66216633  1.01350102  1.0
  Al  Al21  1  1.33783367  0.33783367  0.33783367  1.0
  Ni  Ni22  1  1.50000000  -0.00000000  0.00000000  1.0
  Ni  Ni23  1  1.00000000  0.50000000  -0.50000000  1.0
  Ni  Ni24  1  -0.00000000  1.50000000  0.00000000  1.0
  Ni  Ni25  1  0.50000000  1.00000000  -0.50000000  1.0
  Ni  Ni26  1  -0.00000000  0.00000000  0.50000000  1.0
  Ni  Ni27  1  0.50000000  -0.50000000  1.00000000  1.0
  Ni  Ni28  1  0.00000000  -0.00000000  -0.00000000  1.0
