# generated using pymatgen
data_La(Al2Fe)4
_symmetry_space_group_name_H-M   'P 1'
_cell_length_a   6.74401990
_cell_length_b   6.74401990
_cell_length_c   6.74401990
_cell_angle_alpha   98.03461139
_cell_angle_beta   98.03461139
_cell_angle_gamma   136.09226056
_symmetry_Int_Tables_number   1
_chemical_formula_structural   La(Al2Fe)4
_chemical_formula_sum   'La1 Al8 Fe4'
_cell_volume   197.29198092
_cell_formula_units_Z   1
loop_
 _symmetry_equiv_pos_site_id
 _symmetry_equiv_pos_as_xyz
  1  'x, y, z'
loop_
 _atom_site_type_symbol
 _atom_site_label
 _atom_site_symmetry_multiplicity
 _atom_site_fract_x
 _atom_site_fract_y
 _atom_site_fract_z
 _atom_site_occupancy
  La  La0  1  0.00000000  0.00000000  0.00000000  1.0
  Al  Al1  1  0.50000000  0.72717146  0.22717146  1.0
  Al  Al2  1  0.72717146  0.50000000  1.22717146  1.0
  Al  Al3  1  0.27282854  0.50000000  0.77282854  1.0
  Al  Al4  1  0.50000000  1.27282854  0.77282854  1.0
  Al  Al5  1  0.00000000  0.65600118  0.65600118  1.0
  Al  Al6  1  0.65600118  1.00000000  0.65600118  1.0
  Al  Al7  1  1.34399882  1.00000000  1.34399882  1.0
  Al  Al8  1  -0.00000000  0.34399882  0.34399882  1.0
  Fe  Fe9  1  0.50000000  0.50000000  0.50000000  1.0
  Fe  Fe10  1  1.00000000  1.00000000  0.50000000  1.0
  Fe  Fe11  1  1.00000000  0.50000000  1.00000000  1.0
  Fe  Fe12  1  1.50000000  1.00000000  1.00000000  1.0
