# generated using pymatgen
data_TeAsHO5
_symmetry_space_group_name_H-M   'P 1'
_cell_length_a   6.35557846
_cell_length_b   4.80018666
_cell_length_c   14.88112629
_cell_angle_alpha   90.00000000
_cell_angle_beta   94.40234805
_cell_angle_gamma   90.00000000
_symmetry_Int_Tables_number   1
_chemical_formula_structural   TeAsHO5
_chemical_formula_sum   'Te4 As4 H4 O20'
_cell_volume   452.65339236
_cell_formula_units_Z   4
loop_
 _symmetry_equiv_pos_site_id
 _symmetry_equiv_pos_as_xyz
  1  'x, y, z'
loop_
 _atom_site_type_symbol
 _atom_site_label
 _atom_site_symmetry_multiplicity
 _atom_site_fract_x
 _atom_site_fract_y
 _atom_site_fract_z
 _atom_site_occupancy
  Te  Te0  1  0.85618717  0.35211170  0.18016142  1.0
  Te  Te1  1  0.85618717  0.14788830  0.68016142  1.0
  Te  Te2  1  0.14381283  0.85211170  0.31983858  1.0
  Te  Te3  1  0.14381283  0.64788830  0.81983858  1.0
  As  As4  1  0.65429134  0.15713860  0.38189975  1.0
  As  As5  1  0.65429134  0.34286140  0.88189975  1.0
  As  As6  1  0.34570866  0.65713860  0.11810025  1.0
  As  As7  1  0.34570866  0.84286140  0.61810025  1.0
  H  H8  1  0.76031089  0.90635431  0.93566348  1.0
  H  H9  1  0.76031089  0.59364569  0.43566348  1.0
  H  H10  1  0.23968911  0.40635431  0.56433652  1.0
  H  H11  1  0.23968911  0.09364569  0.06433652  1.0
  O  O12  1  0.92355440  0.74337357  0.21242286  1.0
  O  O13  1  0.92355440  0.75662643  0.71242286  1.0
  O  O14  1  0.07644560  0.24337357  0.28757714  1.0
  O  O15  1  0.07644560  0.25662643  0.78757714  1.0
  O  O16  1  0.83255532  0.88420149  0.39374973  1.0
  O  O17  1  0.83255532  0.61579851  0.89374973  1.0
  O  O18  1  0.16744468  0.38420149  0.10625027  1.0
  O  O19  1  0.16744468  0.11579851  0.60625027  1.0
  O  O20  1  0.73873254  0.40435821  0.46400700  1.0
  O  O21  1  0.73873254  0.09564179  0.96400700  1.0
  O  O22  1  0.26126746  0.90435821  0.03599300  1.0
  O  O23  1  0.26126746  0.59564179  0.53599300  1.0
  O  O24  1  0.63249893  0.31894316  0.27507175  1.0
  O  O25  1  0.63249893  0.18105684  0.77507175  1.0
  O  O26  1  0.36750107  0.81894316  0.22492825  1.0
  O  O27  1  0.36750107  0.68105684  0.72492825  1.0
  O  O28  1  0.40397137  0.04854846  0.40322750  1.0
  O  O29  1  0.40397137  0.45145154  0.90322750  1.0
  O  O30  1  0.59602863  0.54854846  0.09677250  1.0
  O  O31  1  0.59602863  0.95145154  0.59677250  1.0
