# generated using pymatgen
data_Ta2Pt3S8
_symmetry_space_group_name_H-M   'P 1'
_cell_length_a   10.72386561
_cell_length_b   14.76356268
_cell_length_c   3.47896856
_cell_angle_alpha   90.00000000
_cell_angle_beta   90.00000000
_cell_angle_gamma   90.00000000
_symmetry_Int_Tables_number   1
_chemical_formula_structural   Ta2Pt3S8
_chemical_formula_sum   'Ta4 Pt6 S16'
_cell_volume   550.79886779
_cell_formula_units_Z   2
loop_
 _symmetry_equiv_pos_site_id
 _symmetry_equiv_pos_as_xyz
  1  'x, y, z'
loop_
 _atom_site_type_symbol
 _atom_site_label
 _atom_site_symmetry_multiplicity
 _atom_site_fract_x
 _atom_site_fract_y
 _atom_site_fract_z
 _atom_site_occupancy
  Ta  Ta0  1  0.69255732  0.37430692  0.50000000  1.0
  Ta  Ta1  1  0.30744268  0.62569308  0.50000000  1.0
  Ta  Ta2  1  0.80744268  0.87430692  0.50000000  1.0
  Ta  Ta3  1  0.19255732  0.12569308  0.50000000  1.0
  Pt  Pt4  1  0.50000000  0.50000000  0.00000000  1.0
  Pt  Pt5  1  0.00000000  0.00000000  -0.00000000  1.0
  Pt  Pt6  1  0.85072928  0.27241357  -0.00000000  1.0
  Pt  Pt7  1  0.14927072  0.72758643  0.00000000  1.0
  Pt  Pt8  1  0.64927072  0.77241357  -0.00000000  1.0
  Pt  Pt9  1  0.35072928  0.22758643  -0.00000000  1.0
  S  S10  1  0.71880440  0.49499800  0.00000000  1.0
  S  S11  1  0.28119560  0.50500200  0.00000000  1.0
  S  S12  1  0.78119560  -0.00500200  -0.00000000  1.0
  S  S13  1  0.21880440  1.00500200  -0.00000000  1.0
  S  S14  1  0.52634296  0.34259029  0.00000000  1.0
  S  S15  1  0.47365704  0.65740971  -0.00000000  1.0
  S  S16  1  0.97365704  0.84259029  0.00000000  1.0
  S  S17  1  0.02634296  0.15740971  -0.00000000  1.0
  S  S18  1  0.72807878  0.20952727  0.50000000  1.0
  S  S19  1  0.27192122  0.79047273  0.50000000  1.0
  S  S20  1  0.77192122  0.70952727  0.50000000  1.0
  S  S21  1  0.22807878  0.29047273  0.50000000  1.0
  S  S22  1  0.92192320  0.36849071  0.50000000  1.0
  S  S23  1  0.07807680  0.63150929  0.50000000  1.0
  S  S24  1  0.57807680  0.86849071  0.50000000  1.0
  S  S25  1  0.42192320  0.13150929  0.50000000  1.0
