# generated using pymatgen
data_H2C2N2O
_symmetry_space_group_name_H-M   'P 1'
_cell_length_a   8.30423886
_cell_length_b   6.16987993
_cell_length_c   7.38988259
_cell_angle_alpha   90.00000000
_cell_angle_beta   90.00000000
_cell_angle_gamma   90.00000000
_symmetry_Int_Tables_number   1
_chemical_formula_structural   H2C2N2O
_chemical_formula_sum   'H8 C8 N8 O4'
_cell_volume   378.62918186
_cell_formula_units_Z   4
loop_
 _symmetry_equiv_pos_site_id
 _symmetry_equiv_pos_as_xyz
  1  'x, y, z'
loop_
 _atom_site_type_symbol
 _atom_site_label
 _atom_site_symmetry_multiplicity
 _atom_site_fract_x
 _atom_site_fract_y
 _atom_site_fract_z
 _atom_site_occupancy
  H  H0  1  0.06988442  0.75000000  0.08789654  1.0
  H  H1  1  0.56988442  0.75000000  0.41210346  1.0
  H  H2  1  0.93011558  0.25000000  0.91210346  1.0
  H  H3  1  0.43011558  0.25000000  0.58789654  1.0
  H  H4  1  0.01241522  0.75000000  0.85782460  1.0
  H  H5  1  0.51241522  0.75000000  0.64217540  1.0
  H  H6  1  0.98758478  0.25000000  0.14217540  1.0
  H  H7  1  0.48758478  0.25000000  0.35782460  1.0
  C  C8  1  0.37156510  0.75000000  0.05795821  1.0
  C  C9  1  0.87156510  0.75000000  0.44204179  1.0
  C  C10  1  0.62843490  0.25000000  0.94204179  1.0
  C  C11  1  0.12843490  0.25000000  0.55795821  1.0
  C  C12  1  0.25651540  0.75000000  0.90473399  1.0
  C  C13  1  0.75651540  0.75000000  0.59526601  1.0
  C  C14  1  0.74348460  0.25000000  0.09526601  1.0
  C  C15  1  0.24348460  0.25000000  0.40473399  1.0
  N  N16  1  0.47000937  0.75000000  0.16951036  1.0
  N  N17  1  0.97000937  0.75000000  0.33048964  1.0
  N  N18  1  0.52999063  0.25000000  0.83048964  1.0
  N  N19  1  0.02999063  0.25000000  0.66951036  1.0
  N  N20  1  0.10253007  0.75000000  0.95393970  1.0
  N  N21  1  0.60253007  0.75000000  0.54606030  1.0
  N  N22  1  0.89746993  0.25000000  0.04606030  1.0
  N  N23  1  0.39746993  0.25000000  0.45393970  1.0
  O  O24  1  0.31080768  0.75000000  0.74850655  1.0
  O  O25  1  0.81080768  0.75000000  0.75149345  1.0
  O  O26  1  0.68919232  0.25000000  0.25149345  1.0
  O  O27  1  0.18919232  0.25000000  0.24850655  1.0
