# generated using pymatgen
data_BaV2(P2O7)2
_symmetry_space_group_name_H-M   'P 1'
_cell_length_a   8.03609178
_cell_length_b   6.37440081
_cell_length_c   6.22778829
_cell_angle_alpha   105.50235829
_cell_angle_beta   101.72467137
_cell_angle_gamma   96.18278450
_symmetry_Int_Tables_number   1
_chemical_formula_structural   BaV2(P2O7)2
_chemical_formula_sum   'Ba1 V2 P4 O14'
_cell_volume   296.52917406
_cell_formula_units_Z   1
loop_
 _symmetry_equiv_pos_site_id
 _symmetry_equiv_pos_as_xyz
  1  'x, y, z'
loop_
 _atom_site_type_symbol
 _atom_site_label
 _atom_site_symmetry_multiplicity
 _atom_site_fract_x
 _atom_site_fract_y
 _atom_site_fract_z
 _atom_site_occupancy
  Ba  Ba0  1  0.00000000  0.00000000  0.00000000  1.0
  V  V1  1  -0.76849611  -0.30905109  -0.62075757  1.0
  V  V2  1  -0.23150389  -0.69094891  -0.37924243  1.0
  P  P3  1  -0.18899470  -0.52795630  -0.81357097  1.0
  P  P4  1  -0.81100530  -0.47204370  -0.18642903  1.0
  P  P5  1  -0.66613553  -0.75525256  -0.51821549  1.0
  P  P6  1  -0.33386447  -0.24474744  -0.48178451  1.0
  O  O7  1  -0.74173987  -0.32872561  -0.93684949  1.0
  O  O8  1  -0.25826013  -0.67127439  -0.06315051  1.0
  O  O9  1  -0.75912356  -0.64050999  -0.68656958  1.0
  O  O10  1  -0.24087644  -0.35949001  -0.31343042  1.0
  O  O11  1  -0.15945550  -0.68815553  -0.66580705  1.0
  O  O12  1  -0.84054450  -0.31184447  -0.33419295  1.0
  O  O13  1  -0.77879519  -0.98182339  -0.57141442  1.0
  O  O14  1  -0.22120481  -0.01817661  -0.42858558  1.0
  O  O15  1  -0.47813117  -0.76411749  -0.52064795  1.0
  O  O16  1  -0.52186883  -0.23588251  -0.47935205  1.0
  O  O17  1  -0.66175538  -0.60838996  -0.25739113  1.0
  O  O18  1  -0.33824462  -0.39161004  -0.74260887  1.0
  O  O19  1  -0.97118849  -0.64510646  -0.22340234  1.0
  O  O20  1  -0.02881151  -0.35489354  -0.77659766  1.0
