# generated using pymatgen
data_Ba3B3Pb2BrO9
_symmetry_space_group_name_H-M   'P 1'
_cell_length_a   8.99697531
_cell_length_b   8.99697531
_cell_length_c   8.13499790
_cell_angle_alpha   90.00000000
_cell_angle_beta   90.00000000
_cell_angle_gamma   107.16571417
_symmetry_Int_Tables_number   1
_chemical_formula_structural   Ba3B3Pb2BrO9
_chemical_formula_sum   'Ba6 B6 Pb4 Br2 O18'
_cell_volume   629.15956660
_cell_formula_units_Z   2
loop_
 _symmetry_equiv_pos_site_id
 _symmetry_equiv_pos_as_xyz
  1  'x, y, z'
loop_
 _atom_site_type_symbol
 _atom_site_label
 _atom_site_symmetry_multiplicity
 _atom_site_fract_x
 _atom_site_fract_y
 _atom_site_fract_z
 _atom_site_occupancy
  Ba  Ba0  1  0.15178122  0.84821878  0.25000000  1.0
  Ba  Ba1  1  -0.15178122  1.15178122  0.75000000  1.0
  Ba  Ba2  1  -0.14621707  1.14621707  0.25000000  1.0
  Ba  Ba3  1  0.14621707  0.85378293  0.75000000  1.0
  Ba  Ba4  1  0.74005673  0.74005673  0.00000000  1.0
  Ba  Ba5  1  0.25994327  0.25994327  0.50000000  1.0
  B  B6  1  0.07345206  0.50565381  0.45899596  1.0
  B  B7  1  -0.49434619  1.07345206  0.54100404  1.0
  B  B8  1  0.49434619  0.92654794  0.04100404  1.0
  B  B9  1  -0.07345206  1.49434619  0.95899596  1.0
  B  B10  1  0.11981024  0.11981024  0.00000000  1.0
  B  B11  1  0.88018976  0.88018976  0.50000000  1.0
  Pb  Pb12  1  0.22748995  0.46892115  0.08204502  1.0
  Pb  Pb13  1  -0.53107885  1.22748995  0.91795498  1.0
  Pb  Pb14  1  0.53107885  0.77251005  0.41795498  1.0
  Pb  Pb15  1  -0.22748995  1.53107885  0.58204502  1.0
  Br  Br16  1  -0.42648642  1.42648642  0.25000000  1.0
  Br  Br17  1  0.42648642  0.57351358  0.75000000  1.0
  O  O18  1  0.20341086  0.52281867  0.36006668  1.0
  O  O19  1  -0.47718133  1.20341086  0.63993332  1.0
  O  O20  1  0.47718133  0.79658914  0.13993332  1.0
  O  O21  1  -0.20341086  1.47718133  0.86006668  1.0
  O  O22  1  0.01941361  0.64069554  0.00579970  1.0
  O  O23  1  -0.35930446  1.01941361  0.99420030  1.0
  O  O24  1  0.35930446  0.98058639  0.49420030  1.0
  O  O25  1  -0.01941361  1.35930446  0.50579970  1.0
  O  O26  1  0.17505891  0.19036433  0.15034501  1.0
  O  O27  1  -0.80963567  1.17505891  0.84965499  1.0
  O  O28  1  0.80963567  0.82494109  0.34965499  1.0
  O  O29  1  -0.17505891  1.80963567  0.65034501  1.0
  O  O30  1  -0.03828052  1.36102897  0.01065130  1.0
  O  O31  1  0.36102897  0.96171948  0.98934870  1.0
  O  O32  1  -0.36102897  1.03828052  0.48934870  1.0
  O  O33  1  0.03828052  0.63897103  0.51065130  1.0
  O  O34  1  0.98996611  0.98996611  0.00000000  1.0
  O  O35  1  0.01003389  0.01003389  0.50000000  1.0
