# generated using pymatgen
data_TeMoCl7O
_symmetry_space_group_name_H-M   'P 1'
_cell_length_a   8.22964334
_cell_length_b   12.73277387
_cell_length_c   12.84372945
_cell_angle_alpha   90.00000000
_cell_angle_beta   93.56983229
_cell_angle_gamma   90.00000000
_symmetry_Int_Tables_number   1
_chemical_formula_structural   TeMoCl7O
_chemical_formula_sum   'Te4 Mo4 Cl28 O4'
_cell_volume   1343.23403438
_cell_formula_units_Z   4
loop_
 _symmetry_equiv_pos_site_id
 _symmetry_equiv_pos_as_xyz
  1  'x, y, z'
loop_
 _atom_site_type_symbol
 _atom_site_label
 _atom_site_symmetry_multiplicity
 _atom_site_fract_x
 _atom_site_fract_y
 _atom_site_fract_z
 _atom_site_occupancy
  Te  Te0  1  0.26728040  0.15906037  0.14040444  1.0
  Te  Te1  1  0.26728040  0.34093963  0.64040444  1.0
  Te  Te2  1  0.73271960  0.65906037  0.35959556  1.0
  Te  Te3  1  0.73271960  0.84093963  0.85959556  1.0
  Mo  Mo4  1  0.94197706  0.40124716  0.14895485  1.0
  Mo  Mo5  1  0.94197706  0.09875284  0.64895485  1.0
  Mo  Mo6  1  0.05802294  0.90124716  0.35104515  1.0
  Mo  Mo7  1  0.05802294  0.59875284  0.85104515  1.0
  Cl  Cl8  1  1.01633111  0.07155691  0.27589763  1.0
  Cl  Cl9  1  1.01633111  0.42844309  0.77589763  1.0
  Cl  Cl10  1  -0.01633111  0.57155691  0.22410237  1.0
  Cl  Cl11  1  -0.01633111  0.92844309  0.72410237  1.0
  Cl  Cl12  1  0.99238208  0.26127240  0.03045561  1.0
  Cl  Cl13  1  0.99238208  0.23872760  0.53045561  1.0
  Cl  Cl14  1  0.00761792  0.76127240  0.46954439  1.0
  Cl  Cl15  1  0.00761792  0.73872760  0.96954439  1.0
  Cl  Cl16  1  0.79501582  0.86286249  0.26905210  1.0
  Cl  Cl17  1  0.79501582  0.63713751  0.76905210  1.0
  Cl  Cl18  1  0.20498418  0.36286249  0.23094790  1.0
  Cl  Cl19  1  0.20498418  0.13713751  0.73094790  1.0
  Cl  Cl20  1  0.78534113  1.02155298  0.51268745  1.0
  Cl  Cl21  1  0.78534113  0.47844702  1.01268745  1.0
  Cl  Cl22  1  0.21465887  0.52155298  -0.01268745  1.0
  Cl  Cl23  1  0.21465887  -0.02155298  0.48731255  1.0
  Cl  Cl24  1  0.74779703  0.50030321  0.45925610  1.0
  Cl  Cl25  1  0.74779703  -0.00030321  0.95925610  1.0
  Cl  Cl26  1  0.25220297  0.00030321  0.04074390  1.0
  Cl  Cl27  1  0.25220297  0.49969679  0.54074390  1.0
  Cl  Cl28  1  0.48573096  0.10886788  0.26174530  1.0
  Cl  Cl29  1  0.48573096  0.39113212  0.76174530  1.0
  Cl  Cl30  1  0.51426904  0.60886788  0.23825470  1.0
  Cl  Cl31  1  0.51426904  0.89113212  0.73825470  1.0
  Cl  Cl32  1  0.44048905  0.24485506  0.02603793  1.0
  Cl  Cl33  1  0.44048905  0.25514494  0.52603793  1.0
  Cl  Cl34  1  0.55951095  0.74485506  0.47396207  1.0
  Cl  Cl35  1  0.55951095  0.75514494  0.97396207  1.0
  O  O36  1  0.81066575  0.34755311  0.22583767  1.0
  O  O37  1  0.81066575  0.15244689  0.72583767  1.0
  O  O38  1  0.18933425  0.84755311  0.27416233  1.0
  O  O39  1  0.18933425  0.65244689  0.77416233  1.0
