# generated using pymatgen
data_V2CuH18(N3O5)2
_symmetry_space_group_name_H-M   'P 1'
_cell_length_a   8.09274804
_cell_length_b   7.52156462
_cell_length_c   7.25972883
_cell_angle_alpha   60.39455378
_cell_angle_beta   77.05563913
_cell_angle_gamma   80.05692730
_symmetry_Int_Tables_number   1
_chemical_formula_structural   V2CuH18(N3O5)2
_chemical_formula_sum   'V2 Cu1 H18 N6 O10'
_cell_volume   373.44221441
_cell_formula_units_Z   1
loop_
 _symmetry_equiv_pos_site_id
 _symmetry_equiv_pos_as_xyz
  1  'x, y, z'
loop_
 _atom_site_type_symbol
 _atom_site_label
 _atom_site_symmetry_multiplicity
 _atom_site_fract_x
 _atom_site_fract_y
 _atom_site_fract_z
 _atom_site_occupancy
  O  O0  1  -0.79732367  -0.73217312  -0.76467172  1.0
  O  O1  1  -0.20267633  -0.26782688  -0.23532828  1.0
  O  O2  1  -0.75899480  -0.95760510  -0.35416111  1.0
  O  O3  1  -0.24100520  -0.04239490  -0.64583889  1.0
  O  O4  1  -0.73990665  -0.52330490  -0.55275907  1.0
  O  O5  1  -0.26009335  -0.47669510  -0.44724093  1.0
  O  O6  1  -0.63200794  -0.65130518  -0.87752390  1.0
  O  O7  1  -0.36799206  -0.34869482  -0.12247610  1.0
  O  O8  1  -0.59212556  -0.92953213  -0.33085048  1.0
  O  O9  1  -0.40787444  -0.07046787  -0.66914952  1.0
  H  H10  1  -0.92088720  -0.68230368  -1.00062596  1.0
  H  H11  1  -0.07911280  -0.31769632  0.00062596  1.0
  H  H12  1  -0.88967267  -0.64455067  -0.25209370  1.0
  H  H13  1  -0.11032733  -0.35544933  -0.74790630  1.0
  H  H14  1  -0.92001157  -0.40162354  -0.85990025  1.0
  H  H15  1  -0.07998843  -0.59837646  -0.14009975  1.0
  H  H16  1  -0.76602175  -0.22159563  -0.76370589  1.0
  H  H17  1  -0.23397825  -0.77840437  -0.23629411  1.0
  H  H18  1  -0.77686021  0.02022071  -0.80569195  1.0
  H  H19  1  -0.22313979  -1.02022071  -0.19430805  1.0
  H  H20  1  -0.68488248  -0.03660995  -1.00157095  1.0
  H  H21  1  -0.31511752  -0.96339005  0.00157095  1.0
  H  H22  1  -0.38162498  -0.54536102  -0.82982344  1.0
  H  H23  1  -0.61837502  -0.45463898  -0.17017656  1.0
  H  H24  1  -0.36777918  -0.60241864  -0.57964857  1.0
  H  H25  1  -0.63222082  -0.39758136  -0.42035143  1.0
  H  H26  1  -0.32873651  -0.78690603  -0.65308784  1.0
  H  H27  1  -0.67126349  -0.21309397  -0.34691216  1.0
  V  V28  1  -0.66094706  -0.72239485  -0.58753925  1.0
  V  V29  1  -0.33905294  -0.27760515  -0.41246075  1.0
  N  N30  1  -0.40348290  -0.65496767  -0.67051577  1.0
  N  N31  1  -0.59651710  -0.34503233  -0.32948423  1.0
  N  N32  1  -0.78296378  -0.06974646  -0.87429084  1.0
  N  N33  1  -0.21703622  -0.93025354  -0.12570916  1.0
  N  N34  1  -0.97289079  -0.69676288  -0.10900910  1.0
  N  N35  1  -0.02710921  -0.30323712  -0.89099090  1.0
  Cu  Cu36  1  0.00000000  0.00000000  0.00000000  1.0
