# generated using pymatgen
data_SrZnPd
_symmetry_space_group_name_H-M   'P 1'
_cell_length_a   7.53726363
_cell_length_b   4.59505566
_cell_length_c   7.86534610
_cell_angle_alpha   90.00000000
_cell_angle_beta   90.00000000
_cell_angle_gamma   90.00000000
_symmetry_Int_Tables_number   1
_chemical_formula_structural   SrZnPd
_chemical_formula_sum   'Sr4 Zn4 Pd4'
_cell_volume   272.40954437
_cell_formula_units_Z   4
loop_
 _symmetry_equiv_pos_site_id
 _symmetry_equiv_pos_as_xyz
  1  'x, y, z'
loop_
 _atom_site_type_symbol
 _atom_site_label
 _atom_site_symmetry_multiplicity
 _atom_site_fract_x
 _atom_site_fract_y
 _atom_site_fract_z
 _atom_site_occupancy
  Sr  Sr0  1  0.99167135  0.75000000  0.69681125  1.0
  Sr  Sr1  1  0.49167135  0.75000000  0.80318875  1.0
  Sr  Sr2  1  0.00832865  0.25000000  0.30318875  1.0
  Sr  Sr3  1  0.50832865  0.25000000  0.19681125  1.0
  Zn  Zn4  1  0.82711275  0.75000000  0.08170948  1.0
  Zn  Zn5  1  0.32711275  0.75000000  0.41829052  1.0
  Zn  Zn6  1  0.17288725  0.25000000  0.91829052  1.0
  Zn  Zn7  1  0.67288725  0.25000000  0.58170948  1.0
  Pd  Pd8  1  0.69569457  0.75000000  0.40626699  1.0
  Pd  Pd9  1  0.19569457  0.75000000  0.09373301  1.0
  Pd  Pd10  1  0.30430543  0.25000000  0.59373301  1.0
  Pd  Pd11  1  0.80430543  0.25000000  0.90626699  1.0
