# generated using pymatgen
data_Ba(InSb2)2
_symmetry_space_group_name_H-M   'P 1'
_cell_length_a   10.37870848
_cell_length_b   4.59491996
_cell_length_c   19.85912079
_cell_angle_alpha   90.00000000
_cell_angle_beta   90.00000000
_cell_angle_gamma   90.00000000
_symmetry_Int_Tables_number   1
_chemical_formula_structural   Ba(InSb2)2
_chemical_formula_sum   'Ba4 In8 Sb16'
_cell_volume   947.06825956
_cell_formula_units_Z   4
loop_
 _symmetry_equiv_pos_site_id
 _symmetry_equiv_pos_as_xyz
  1  'x, y, z'
loop_
 _atom_site_type_symbol
 _atom_site_label
 _atom_site_symmetry_multiplicity
 _atom_site_fract_x
 _atom_site_fract_y
 _atom_site_fract_z
 _atom_site_occupancy
  Ba  Ba0  1  0.75109581  0.75000000  0.04531212  1.0
  Ba  Ba1  1  0.25109581  0.75000000  0.45468788  1.0
  Ba  Ba2  1  0.24890419  0.25000000  0.95468788  1.0
  Ba  Ba3  1  0.74890419  0.25000000  0.54531212  1.0
  In  In4  1  0.87284595  0.75000000  0.72878056  1.0
  In  In5  1  0.37284595  0.75000000  0.77121944  1.0
  In  In6  1  0.12715405  0.25000000  0.27121944  1.0
  In  In7  1  0.62715405  0.25000000  0.22878056  1.0
  In  In8  1  0.85183938  0.75000000  0.36432478  1.0
  In  In9  1  0.35183938  0.75000000  0.13567522  1.0
  In  In10  1  0.14816062  0.25000000  0.63567522  1.0
  In  In11  1  0.64816062  0.25000000  0.86432478  1.0
  Sb  Sb12  1  0.99703683  0.75000000  0.59682634  1.0
  Sb  Sb13  1  0.49703683  0.75000000  0.90317366  1.0
  Sb  Sb14  1  0.00296317  0.25000000  0.40317366  1.0
  Sb  Sb15  1  0.50296317  0.25000000  0.09682634  1.0
  Sb  Sb16  1  0.79990281  0.75000000  0.22392292  1.0
  Sb  Sb17  1  0.29990281  0.75000000  0.27607708  1.0
  Sb  Sb18  1  0.20009719  0.25000000  0.77607708  1.0
  Sb  Sb19  1  0.70009719  0.25000000  0.72392292  1.0
  Sb  Sb20  1  0.60380347  0.75000000  0.42920477  1.0
  Sb  Sb21  1  0.10380347  0.75000000  0.07079523  1.0
  Sb  Sb22  1  0.39619653  0.25000000  0.57079523  1.0
  Sb  Sb23  1  0.89619653  0.25000000  0.92920477  1.0
  Sb  Sb24  1  0.52077713  0.75000000  0.64289910  1.0
  Sb  Sb25  1  0.02077713  0.75000000  0.85710090  1.0
  Sb  Sb26  1  0.47922287  0.25000000  0.35710090  1.0
  Sb  Sb27  1  0.97922287  0.25000000  0.14289910  1.0
