# generated using pymatgen
data_GdGa7Au3
_symmetry_space_group_name_H-M   'P 1'
_cell_length_a   8.48624907
_cell_length_b   8.48624907
_cell_length_c   8.48624907
_cell_angle_alpha   58.32942716
_cell_angle_beta   58.32942716
_cell_angle_gamma   58.32942716
_symmetry_Int_Tables_number   1
_chemical_formula_structural   GdGa7Au3
_chemical_formula_sum   'Gd2 Ga14 Au6'
_cell_volume   415.61723873
_cell_formula_units_Z   2
loop_
 _symmetry_equiv_pos_site_id
 _symmetry_equiv_pos_as_xyz
  1  'x, y, z'
loop_
 _atom_site_type_symbol
 _atom_site_label
 _atom_site_symmetry_multiplicity
 _atom_site_fract_x
 _atom_site_fract_y
 _atom_site_fract_z
 _atom_site_occupancy
  Gd  Gd0  1  1.00000000  -0.00000000  -0.00000000  1.0
  Gd  Gd1  1  0.50000000  0.50000000  0.50000000  1.0
  Ga  Ga2  1  0.85368076  0.07282421  -0.32916375  1.0
  Ga  Ga3  1  1.35368076  0.17083625  -0.42717579  1.0
  Ga  Ga4  1  0.82916375  0.42717579  -0.35368076  1.0
  Ga  Ga5  1  1.32916375  0.14631924  -0.07282421  1.0
  Ga  Ga6  1  0.92717579  0.32916375  0.14631924  1.0
  Ga  Ga7  1  0.42717579  0.64631924  -0.17083625  1.0
  Ga  Ga8  1  1.14631924  -0.07282421  0.32916375  1.0
  Ga  Ga9  1  0.64631924  0.82916375  -0.57282421  1.0
  Ga  Ga10  1  0.67083625  -0.14631924  0.07282421  1.0
  Ga  Ga11  1  1.17083625  -0.42717579  0.35368076  1.0
  Ga  Ga12  1  0.57282421  0.35368076  0.17083625  1.0
  Ga  Ga13  1  1.07282421  -0.32916375  -0.14631924  1.0
  Ga  Ga14  1  0.75000000  0.75000000  -0.25000000  1.0
  Ga  Ga15  1  0.25000000  0.25000000  0.25000000  1.0
  Au  Au16  1  0.43406151  0.75000000  0.06593849  1.0
  Au  Au17  1  0.93406151  -0.43406151  0.25000000  1.0
  Au  Au18  1  0.25000000  0.93406151  -0.43406151  1.0
  Au  Au19  1  0.75000000  1.06593849  -0.56593849  1.0
  Au  Au20  1  0.56593849  0.25000000  -0.06593849  1.0
  Au  Au21  1  1.06593849  0.43406151  -0.25000000  1.0
