# generated using pymatgen
data_KGd2CuSe4
_symmetry_space_group_name_H-M   'P 1'
_cell_length_a   7.41304450
_cell_length_b   7.41304450
_cell_length_c   14.44142950
_cell_angle_alpha   90.00000000
_cell_angle_beta   90.00000000
_cell_angle_gamma   147.45147084
_symmetry_Int_Tables_number   1
_chemical_formula_structural   KGd2CuSe4
_chemical_formula_sum   'K2 Gd4 Cu2 Se8'
_cell_volume   426.96943223
_cell_formula_units_Z   2
loop_
 _symmetry_equiv_pos_site_id
 _symmetry_equiv_pos_as_xyz
  1  'x, y, z'
loop_
 _atom_site_type_symbol
 _atom_site_label
 _atom_site_symmetry_multiplicity
 _atom_site_fract_x
 _atom_site_fract_y
 _atom_site_fract_z
 _atom_site_occupancy
  K  K0  1  -0.38888951  0.38888951  0.25000000  1.0
  K  K1  1  0.38888951  0.61111049  0.75000000  1.0
  Gd  Gd2  1  -0.13426818  0.13426818  0.06380724  1.0
  Gd  Gd3  1  0.13426818  0.86573182  0.93619276  1.0
  Gd  Gd4  1  -0.13426818  0.13426818  0.43619276  1.0
  Gd  Gd5  1  0.13426818  0.86573182  0.56380724  1.0
  Cu  Cu6  1  0.33984327  0.66015673  0.25000000  1.0
  Cu  Cu7  1  -0.33984327  0.33984327  0.75000000  1.0
  Se  Se8  1  -0.06551102  0.06551102  0.25000000  1.0
  Se  Se9  1  0.06551102  0.93448898  0.75000000  1.0
  Se  Se10  1  0.50000000  0.50000000  0.00000000  1.0
  Se  Se11  1  0.50000000  0.50000000  0.50000000  1.0
  Se  Se12  1  -0.23548905  0.23548905  0.88703011  1.0
  Se  Se13  1  0.23548905  0.76451095  0.11296989  1.0
  Se  Se14  1  -0.23548905  0.23548905  0.61296989  1.0
  Se  Se15  1  0.23548905  0.76451095  0.38703011  1.0
