# generated using pymatgen
data_LiSc(TlCl3)2
_symmetry_space_group_name_H-M   'P 1'
_cell_length_a   7.17391422
_cell_length_b   7.17391422
_cell_length_c   7.17391422
_cell_angle_alpha   60.00000000
_cell_angle_beta   60.00000000
_cell_angle_gamma   60.00000000
_symmetry_Int_Tables_number   1
_chemical_formula_structural   LiSc(TlCl3)2
_chemical_formula_sum   'Li1 Sc1 Tl2 Cl6'
_cell_volume   261.06793873
_cell_formula_units_Z   1
loop_
 _symmetry_equiv_pos_site_id
 _symmetry_equiv_pos_as_xyz
  1  'x, y, z'
loop_
 _atom_site_type_symbol
 _atom_site_label
 _atom_site_symmetry_multiplicity
 _atom_site_fract_x
 _atom_site_fract_y
 _atom_site_fract_z
 _atom_site_occupancy
  Li  Li0  1  -0.50000000  0.50000000  0.50000000  1.0
  Sc  Sc1  1  0.00000000  0.00000000  0.00000000  1.0
  Tl  Tl2  1  0.75000000  0.75000000  -0.25000000  1.0
  Tl  Tl3  1  1.25000000  0.25000000  0.25000000  1.0
  Cl  Cl4  1  -0.75406159  0.75406159  0.75406159  1.0
  Cl  Cl5  1  -0.24593841  0.24593841  0.75406159  1.0
  Cl  Cl6  1  0.75406159  0.75406159  -0.75406159  1.0
  Cl  Cl7  1  0.24593841  1.24593841  -0.24593841  1.0
  Cl  Cl8  1  0.24593841  -0.24593841  1.24593841  1.0
  Cl  Cl9  1  -0.24593841  0.24593841  0.24593841  1.0
