# generated using pymatgen
data_Be12Mo
_symmetry_space_group_name_H-M   'P 1'
_cell_length_a   5.51644123
_cell_length_b   5.51644123
_cell_length_c   5.51644123
_cell_angle_alpha   98.33730256
_cell_angle_beta   98.33730256
_cell_angle_gamma   135.23484966
_symmetry_Int_Tables_number   1
_chemical_formula_structural   Be12Mo
_chemical_formula_sum   'Be12 Mo1'
_cell_volume   109.30939710
_cell_formula_units_Z   1
loop_
 _symmetry_equiv_pos_site_id
 _symmetry_equiv_pos_as_xyz
  1  'x, y, z'
loop_
 _atom_site_type_symbol
 _atom_site_label
 _atom_site_symmetry_multiplicity
 _atom_site_fract_x
 _atom_site_fract_y
 _atom_site_fract_z
 _atom_site_occupancy
  Be  Be0  1  0.50000000  0.50000000  0.50000000  1.0
  Be  Be1  1  1.00000000  1.00000000  0.50000000  1.0
  Be  Be2  1  1.00000000  0.50000000  1.00000000  1.0
  Be  Be3  1  1.50000000  1.00000000  1.00000000  1.0
  Be  Be4  1  0.50000000  0.71114152  0.21114152  1.0
  Be  Be5  1  0.71114152  0.50000000  1.21114152  1.0
  Be  Be6  1  0.28885848  0.50000000  0.78885848  1.0
  Be  Be7  1  0.50000000  1.28885848  0.78885848  1.0
  Be  Be8  1  0.00000000  0.64939780  0.64939780  1.0
  Be  Be9  1  0.64939780  1.00000000  0.64939780  1.0
  Be  Be10  1  1.35060220  1.00000000  1.35060220  1.0
  Be  Be11  1  -0.00000000  0.35060220  0.35060220  1.0
  Mo  Mo12  1  0.00000000  0.00000000  0.00000000  1.0
