# generated using pymatgen
data_Tl4O3
_symmetry_space_group_name_H-M   'P 1'
_cell_length_a   8.21835619
_cell_length_b   3.56203491
_cell_length_c   11.38170935
_cell_angle_alpha   90.00000000
_cell_angle_beta   109.56515130
_cell_angle_gamma   90.00000000
_symmetry_Int_Tables_number   1
_chemical_formula_structural   Tl4O3
_chemical_formula_sum   'Tl8 O6'
_cell_volume   313.95107957
_cell_formula_units_Z   2
loop_
 _symmetry_equiv_pos_site_id
 _symmetry_equiv_pos_as_xyz
  1  'x, y, z'
loop_
 _atom_site_type_symbol
 _atom_site_label
 _atom_site_symmetry_multiplicity
 _atom_site_fract_x
 _atom_site_fract_y
 _atom_site_fract_z
 _atom_site_occupancy
  Tl  Tl0  1  0.70192861  0.25000000  0.67098104  1.0
  Tl  Tl1  1  0.29807139  0.75000000  0.32901896  1.0
  Tl  Tl2  1  0.89625482  0.25000000  0.12198068  1.0
  Tl  Tl3  1  0.10374518  0.75000000  0.87801932  1.0
  Tl  Tl4  1  0.24964017  0.25000000  0.63126501  1.0
  Tl  Tl5  1  0.75035983  0.75000000  0.36873499  1.0
  Tl  Tl6  1  0.43685688  0.25000000  0.10853321  1.0
  Tl  Tl7  1  0.56314312  0.75000000  0.89146679  1.0
  O  O8  1  0.74615344  0.25000000  0.90036315  1.0
  O  O9  1  0.25384656  0.75000000  0.09963685  1.0
  O  O10  1  0.36034238  0.25000000  0.89328987  1.0
  O  O11  1  0.63965762  0.75000000  0.10671013  1.0
  O  O12  1  0.52025233  0.25000000  0.31803551  1.0
  O  O13  1  0.47974767  0.75000000  0.68196449  1.0
