# generated using pymatgen
data_NF
_symmetry_space_group_name_H-M   'P 1'
_cell_length_a   7.99558055
_cell_length_b   7.99558055
_cell_length_c   7.99558055
_cell_angle_alpha   25.02076965
_cell_angle_beta   25.02076965
_cell_angle_gamma   25.02076965
_symmetry_Int_Tables_number   1
_chemical_formula_structural   NF
_chemical_formula_sum   'N2 F2'
_cell_volume   80.44422104
_cell_formula_units_Z   2
loop_
 _symmetry_equiv_pos_site_id
 _symmetry_equiv_pos_as_xyz
  1  'x, y, z'
loop_
 _atom_site_type_symbol
 _atom_site_label
 _atom_site_symmetry_multiplicity
 _atom_site_fract_x
 _atom_site_fract_y
 _atom_site_fract_z
 _atom_site_occupancy
  N  N0  1  0.97620744  0.97620744  0.97620744  1.0
  N  N1  1  1.02379256  1.02379256  0.02379256  1.0
  F  F2  1  0.82343339  0.82343339  0.82343339  1.0
  F  F3  1  1.17656661  1.17656661  0.17656661  1.0
