# generated using pymatgen
data_Re2Mo3C
_symmetry_space_group_name_H-M   'P 1'
_cell_length_a   6.92562227
_cell_length_b   6.92562227
_cell_length_c   6.92562227
_cell_angle_alpha   90.00000000
_cell_angle_beta   90.00000000
_cell_angle_gamma   90.00000000
_symmetry_Int_Tables_number   1
_chemical_formula_structural   Re2Mo3C
_chemical_formula_sum   'Re8 Mo12 C4'
_cell_volume   332.18223522
_cell_formula_units_Z   4
loop_
 _symmetry_equiv_pos_site_id
 _symmetry_equiv_pos_as_xyz
  1  'x, y, z'
loop_
 _atom_site_type_symbol
 _atom_site_label
 _atom_site_symmetry_multiplicity
 _atom_site_fract_x
 _atom_site_fract_y
 _atom_site_fract_z
 _atom_site_occupancy
  Re  Re0  1  0.18196901  0.81803099  0.31803099  1.0
  Re  Re1  1  0.31803099  0.18196901  0.81803099  1.0
  Re  Re2  1  0.81803099  0.31803099  0.18196901  1.0
  Re  Re3  1  0.68196901  0.68196901  0.68196901  1.0
  Re  Re4  1  0.56803099  0.43196901  0.93196901  1.0
  Re  Re5  1  0.43196901  0.93196901  0.56803099  1.0
  Re  Re6  1  0.93196901  0.56803099  0.43196901  1.0
  Re  Re7  1  0.06803099  0.06803099  0.06803099  1.0
  Mo  Mo8  1  0.79448277  0.95551723  0.37500000  1.0
  Mo  Mo9  1  0.70551723  0.04448277  0.87500000  1.0
  Mo  Mo10  1  0.20551723  0.45551723  0.12500000  1.0
  Mo  Mo11  1  0.29448277  0.54448277  0.62500000  1.0
  Mo  Mo12  1  0.95551723  0.37500000  0.79448277  1.0
  Mo  Mo13  1  0.04448277  0.87500000  0.70551723  1.0
  Mo  Mo14  1  0.45551723  0.12500000  0.20551723  1.0
  Mo  Mo15  1  0.54448277  0.62500000  0.29448277  1.0
  Mo  Mo16  1  0.37500000  0.79448277  0.95551723  1.0
  Mo  Mo17  1  0.87500000  0.70551723  0.04448277  1.0
  Mo  Mo18  1  0.12500000  0.20551723  0.45551723  1.0
  Mo  Mo19  1  0.62500000  0.29448277  0.54448277  1.0
  C  C20  1  0.87500000  0.12500000  0.62500000  1.0
  C  C21  1  0.62500000  0.87500000  0.12500000  1.0
  C  C22  1  0.12500000  0.62500000  0.87500000  1.0
  C  C23  1  0.37500000  0.37500000  0.37500000  1.0
