# generated using pymatgen
data_BiPd2Pb
_symmetry_space_group_name_H-M   'P 1'
_cell_length_a   5.74397173
_cell_length_b   5.74397173
_cell_length_c   5.64926716
_cell_angle_alpha   78.41826283
_cell_angle_beta   101.58173717
_cell_angle_gamma   78.81945676
_symmetry_Int_Tables_number   1
_chemical_formula_structural   BiPd2Pb
_chemical_formula_sum   'Bi2 Pd4 Pb2'
_cell_volume   173.46630886
_cell_formula_units_Z   2
loop_
 _symmetry_equiv_pos_site_id
 _symmetry_equiv_pos_as_xyz
  1  'x, y, z'
loop_
 _atom_site_type_symbol
 _atom_site_label
 _atom_site_symmetry_multiplicity
 _atom_site_fract_x
 _atom_site_fract_y
 _atom_site_fract_z
 _atom_site_occupancy
  Bi  Bi0  1  0.61543455  -0.06824258  0.42707814  1.0
  Bi  Bi1  1  1.06824258  0.38456545  0.42707814  1.0
  Pd  Pd2  1  1.45945472  0.05078966  0.86915706  1.0
  Pd  Pd3  1  0.94921034  -0.45945472  0.86915706  1.0
  Pd  Pd4  1  0.57056579  -0.57056579  0.52792255  1.0
  Pd  Pd5  1  0.15939812  -0.15939812  0.53438618  1.0
  Pb  Pb6  1  -0.01041266  0.01041266  -0.01398051  1.0
  Pb  Pb7  1  0.47910656  -0.47910656  0.99520138  1.0
