# generated using pymatgen
data_CaGa3Co2
_symmetry_space_group_name_H-M   'P 1'
_cell_length_a   6.20660905
_cell_length_b   6.20660905
_cell_length_c   5.27184543
_cell_angle_alpha   90.00000000
_cell_angle_beta   90.00000000
_cell_angle_gamma   76.82685808
_symmetry_Int_Tables_number   1
_chemical_formula_structural   CaGa3Co2
_chemical_formula_sum   'Ca2 Ga6 Co4'
_cell_volume   197.73807524
_cell_formula_units_Z   2
loop_
 _symmetry_equiv_pos_site_id
 _symmetry_equiv_pos_as_xyz
  1  'x, y, z'
loop_
 _atom_site_type_symbol
 _atom_site_label
 _atom_site_symmetry_multiplicity
 _atom_site_fract_x
 _atom_site_fract_y
 _atom_site_fract_z
 _atom_site_occupancy
  Ca  Ca0  1  -0.34589417  1.34589417  0.25000000  1.0
  Ca  Ca1  1  0.34589417  0.65410583  0.75000000  1.0
  Ga  Ga2  1  0.04584471  0.95415529  0.25000000  1.0
  Ga  Ga3  1  -0.04584471  1.04584471  0.75000000  1.0
  Ga  Ga4  1  0.08388563  0.52893876  0.25000000  1.0
  Ga  Ga5  1  -0.47106124  1.08388563  0.75000000  1.0
  Ga  Ga6  1  0.47106124  0.91611437  0.25000000  1.0
  Ga  Ga7  1  -0.08388563  1.47106124  0.75000000  1.0
  Co  Co8  1  0.79422229  0.79422229  0.50000000  1.0
  Co  Co9  1  0.79422229  0.79422229  0.00000000  1.0
  Co  Co10  1  0.20577771  0.20577771  0.50000000  1.0
  Co  Co11  1  0.20577771  0.20577771  0.00000000  1.0
