# generated using pymatgen
data_FeS
_symmetry_space_group_name_H-M   'P 1'
_cell_length_a   5.87516841
_cell_length_b   5.87516841
_cell_length_c   10.47004443
_cell_angle_alpha   90.00000000
_cell_angle_beta   90.00000000
_cell_angle_gamma   120.00000000
_symmetry_Int_Tables_number   1
_chemical_formula_structural   FeS
_chemical_formula_sum   'Fe12 S12'
_cell_volume   312.98231393
_cell_formula_units_Z   12
loop_
 _symmetry_equiv_pos_site_id
 _symmetry_equiv_pos_as_xyz
  1  'x, y, z'
loop_
 _atom_site_type_symbol
 _atom_site_label
 _atom_site_symmetry_multiplicity
 _atom_site_fract_x
 _atom_site_fract_y
 _atom_site_fract_z
 _atom_site_occupancy
  Fe  Fe0  1  0.92892706  0.59194432  0.38561139  1.0
  Fe  Fe1  1  0.92892706  0.59194432  0.11438861  1.0
  Fe  Fe2  1  0.59194432  0.92892706  0.88561139  1.0
  Fe  Fe3  1  0.59194432  0.92892706  0.61438861  1.0
  Fe  Fe4  1  0.66301726  0.07107294  0.38561139  1.0
  Fe  Fe5  1  0.66301726  0.07107294  0.11438861  1.0
  Fe  Fe6  1  0.40805568  0.33698274  0.38561139  1.0
  Fe  Fe7  1  0.40805568  0.33698274  0.11438861  1.0
  Fe  Fe8  1  0.07107294  0.66301726  0.88561139  1.0
  Fe  Fe9  1  0.07107294  0.66301726  0.61438861  1.0
  Fe  Fe10  1  0.33698274  0.40805568  0.88561139  1.0
  Fe  Fe11  1  0.33698274  0.40805568  0.61438861  1.0
  S  S12  1  0.00000000  0.00000000  0.50000000  1.0
  S  S13  1  -0.00000000  -0.00000000  0.00000000  1.0
  S  S14  1  0.35280675  1.02865605  0.25000000  1.0
  S  S15  1  1.02865605  0.35280675  0.75000000  1.0
  S  S16  1  0.67584930  0.64719325  0.25000000  1.0
  S  S17  1  -0.02865605  0.32415070  0.25000000  1.0
  S  S18  1  0.64719325  0.67584930  0.75000000  1.0
  S  S19  1  0.32415070  -0.02865605  0.75000000  1.0
  S  S20  1  0.33333333  0.66666667  0.46292576  1.0
  S  S21  1  0.33333333  0.66666667  0.03707424  1.0
  S  S22  1  0.66666667  0.33333333  0.96292576  1.0
  S  S23  1  0.66666667  0.33333333  0.53707424  1.0
