# generated using pymatgen
data_Co2Mo4C
_symmetry_space_group_name_H-M   'P 1'
_cell_length_a   7.97327120
_cell_length_b   7.97327120
_cell_length_c   7.97327120
_cell_angle_alpha   60.00000000
_cell_angle_beta   60.00000000
_cell_angle_gamma   60.00000000
_symmetry_Int_Tables_number   1
_chemical_formula_structural   Co2Mo4C
_chemical_formula_sum   'Co8 Mo16 C4'
_cell_volume   358.42196065
_cell_formula_units_Z   4
loop_
 _symmetry_equiv_pos_site_id
 _symmetry_equiv_pos_as_xyz
  1  'x, y, z'
loop_
 _atom_site_type_symbol
 _atom_site_label
 _atom_site_symmetry_multiplicity
 _atom_site_fract_x
 _atom_site_fract_y
 _atom_site_fract_z
 _atom_site_occupancy
  Co  Co0  1  0.91914475  -0.08085525  0.24256576  1.0
  Co  Co1  1  0.91914475  -0.75743424  0.91914475  1.0
  Co  Co2  1  0.24256576  0.91914475  0.91914475  1.0
  Co  Co3  1  0.91914475  0.91914475  0.91914475  1.0
  Co  Co4  1  1.33085525  0.33085525  0.00743424  1.0
  Co  Co5  1  1.33085525  0.00743424  0.33085525  1.0
  Co  Co6  1  1.00743424  0.33085525  0.33085525  1.0
  Co  Co7  1  1.33085525  0.33085525  0.33085525  1.0
  Mo  Mo8  1  0.12500000  0.12500000  1.62500000  1.0
  Mo  Mo9  1  0.12500000  0.62500000  1.12500000  1.0
  Mo  Mo10  1  1.62500000  0.12500000  0.12500000  1.0
  Mo  Mo11  1  1.12500000  0.12500000  0.12500000  1.0
  Mo  Mo12  1  0.56207470  0.56207470  0.93792530  1.0
  Mo  Mo13  1  0.93792530  0.56207470  0.93792530  1.0
  Mo  Mo14  1  0.56207470  0.93792530  0.93792530  1.0
  Mo  Mo15  1  0.93792530  0.93792530  0.56207470  1.0
  Mo  Mo16  1  0.56207470  0.93792530  0.56207470  1.0
  Mo  Mo17  1  0.93792530  0.56207470  0.56207470  1.0
  Mo  Mo18  1  0.68792530  0.68792530  -0.68792530  1.0
  Mo  Mo19  1  1.31207470  -0.31207470  0.31207470  1.0
  Mo  Mo20  1  -0.31207470  0.31207470  0.31207470  1.0
  Mo  Mo21  1  0.31207470  0.31207470  -0.31207470  1.0
  Mo  Mo22  1  0.68792530  -0.68792530  0.68792530  1.0
  Mo  Mo23  1  -0.68792530  0.68792530  0.68792530  1.0
  C  C24  1  0.62500000  0.62500000  1.12500000  1.0
  C  C25  1  0.62500000  1.12500000  0.62500000  1.0
  C  C26  1  1.12500000  0.62500000  0.62500000  1.0
  C  C27  1  0.62500000  0.62500000  0.62500000  1.0
