# generated using pymatgen
data_Gd3CuGeS7
_symmetry_space_group_name_H-M   'P 1'
_cell_length_a   9.99265230
_cell_length_b   9.99265230
_cell_length_c   5.84349616
_cell_angle_alpha   90.00000000
_cell_angle_beta   90.00000000
_cell_angle_gamma   120.00000000
_symmetry_Int_Tables_number   1
_chemical_formula_structural   Gd3CuGeS7
_chemical_formula_sum   'Gd6 Cu2 Ge2 S14'
_cell_volume   505.31820823
_cell_formula_units_Z   2
loop_
 _symmetry_equiv_pos_site_id
 _symmetry_equiv_pos_as_xyz
  1  'x, y, z'
loop_
 _atom_site_type_symbol
 _atom_site_label
 _atom_site_symmetry_multiplicity
 _atom_site_fract_x
 _atom_site_fract_y
 _atom_site_fract_z
 _atom_site_occupancy
  Gd  Gd0  1  0.22612446  0.86916569  0.03331107  1.0
  Gd  Gd1  1  0.86916569  0.64304123  0.53331107  1.0
  Gd  Gd2  1  0.64304123  0.77387554  0.03331107  1.0
  Gd  Gd3  1  0.13083431  0.35695877  0.03331107  1.0
  Gd  Gd4  1  0.77387554  0.13083431  0.53331107  1.0
  Gd  Gd5  1  0.35695877  0.22612446  0.53331107  1.0
  Cu  Cu6  1  0.00000000  0.00000000  -0.01553318  1.0
  Cu  Cu7  1  0.00000000  0.00000000  0.48446682  1.0
  Ge  Ge8  1  0.33333333  0.66666667  0.61551130  1.0
  Ge  Ge9  1  0.66666667  0.33333333  0.11551130  1.0
  S  S10  1  0.90404829  0.74359594  0.00158089  1.0
  S  S11  1  0.74359594  0.83954764  0.50158089  1.0
  S  S12  1  0.83954764  0.09595171  0.00158089  1.0
  S  S13  1  0.25640406  0.16045236  0.00158089  1.0
  S  S14  1  0.09595171  0.25640406  0.50158089  1.0
  S  S15  1  0.16045236  0.90404829  0.50158089  1.0
  S  S16  1  0.58037582  0.48057658  0.27517187  1.0
  S  S17  1  0.48057658  0.90020076  0.77517187  1.0
  S  S18  1  0.90020076  0.41962418  0.27517187  1.0
  S  S19  1  0.51942342  0.09979924  0.27517187  1.0
  S  S20  1  0.41962418  0.51942342  0.77517187  1.0
  S  S21  1  0.09979924  0.58037582  0.77517187  1.0
  S  S22  1  0.33333333  0.66666667  0.23783038  1.0
  S  S23  1  0.66666667  0.33333333  0.73783038  1.0
