# generated using pymatgen
data_Na3ScBr6
_symmetry_space_group_name_H-M   'P 1'
_cell_length_a   7.37550858
_cell_length_b   7.37550858
_cell_length_c   13.29110663
_cell_angle_alpha   90.00000000
_cell_angle_beta   90.00000000
_cell_angle_gamma   120.00000000
_symmetry_Int_Tables_number   1
_chemical_formula_structural   Na3ScBr6
_chemical_formula_sum   'Na6 Sc2 Br12'
_cell_volume   626.14615580
_cell_formula_units_Z   2
loop_
 _symmetry_equiv_pos_site_id
 _symmetry_equiv_pos_as_xyz
  1  'x, y, z'
loop_
 _atom_site_type_symbol
 _atom_site_label
 _atom_site_symmetry_multiplicity
 _atom_site_fract_x
 _atom_site_fract_y
 _atom_site_fract_z
 _atom_site_occupancy
  Na  Na0  1  0.33333333  0.66666667  0.03517962  1.0
  Na  Na1  1  0.33333333  0.66666667  0.46482038  1.0
  Na  Na2  1  0.66666667  0.33333333  0.53517962  1.0
  Na  Na3  1  0.66666667  0.33333333  0.96482038  1.0
  Na  Na4  1  0.00000000  0.00000000  0.25000000  1.0
  Na  Na5  1  0.00000000  0.00000000  0.75000000  1.0
  Sc  Sc6  1  0.66666667  0.33333333  0.25000000  1.0
  Sc  Sc7  1  0.33333333  0.66666667  0.75000000  1.0
  Br  Br8  1  0.67865153  0.63215241  0.13103277  1.0
  Br  Br9  1  0.67865153  0.04649911  0.36896723  1.0
  Br  Br10  1  0.63215241  0.67865153  0.63103277  1.0
  Br  Br11  1  0.63215241  0.95350089  0.86896723  1.0
  Br  Br12  1  0.95350089  0.63215241  0.36896723  1.0
  Br  Br13  1  0.95350089  0.32134847  0.13103277  1.0
  Br  Br14  1  0.36784759  0.32134847  0.36896723  1.0
  Br  Br15  1  0.36784759  0.04649911  0.13103277  1.0
  Br  Br16  1  0.32134847  0.95350089  0.63103277  1.0
  Br  Br17  1  0.32134847  0.36784759  0.86896723  1.0
  Br  Br18  1  0.04649911  0.67865153  0.86896723  1.0
  Br  Br19  1  0.04649911  0.36784759  0.63103277  1.0
