# generated using pymatgen
data_CrP(HO)5
_symmetry_space_group_name_H-M   'P 1'
_cell_length_a   6.77839464
_cell_length_b   7.53723765
_cell_length_c   9.34144756
_cell_angle_alpha   90.00000000
_cell_angle_beta   90.00000000
_cell_angle_gamma   90.00000000
_symmetry_Int_Tables_number   1
_chemical_formula_structural   CrP(HO)5
_chemical_formula_sum   'Cr4 P4 H20 O20'
_cell_volume   477.25802432
_cell_formula_units_Z   4
loop_
 _symmetry_equiv_pos_site_id
 _symmetry_equiv_pos_as_xyz
  1  'x, y, z'
loop_
 _atom_site_type_symbol
 _atom_site_label
 _atom_site_symmetry_multiplicity
 _atom_site_fract_x
 _atom_site_fract_y
 _atom_site_fract_z
 _atom_site_occupancy
  Cr  Cr0  1  0.22885184  0.96568551  0.59324504  1.0
  Cr  Cr1  1  0.72885184  0.53431449  0.40675496  1.0
  Cr  Cr2  1  0.77114816  0.46568551  0.90675496  1.0
  Cr  Cr3  1  0.27114816  0.03431449  0.09324504  1.0
  P  P4  1  0.48763551  0.31778917  0.64911554  1.0
  P  P5  1  0.98763551  0.18221083  0.35088446  1.0
  P  P6  1  0.51236449  0.81778917  0.85088446  1.0
  P  P7  1  0.01236449  0.68221083  0.14911554  1.0
  H  H8  1  0.36308893  0.69607934  0.88676273  1.0
  H  H9  1  0.86308893  0.80392066  0.11323727  1.0
  H  H10  1  0.63691107  0.19607934  0.61323727  1.0
  H  H11  1  0.13691107  0.30392066  0.38676273  1.0
  H  H12  1  0.37826191  0.32018562  0.93825571  1.0
  H  H13  1  0.87826191  0.17981438  0.06174429  1.0
  H  H14  1  0.62173809  0.82018562  0.56174429  1.0
  H  H15  1  0.12173809  0.67981438  0.43825571  1.0
  H  H16  1  0.30981983  0.62277899  0.53420908  1.0
  H  H17  1  0.80981983  0.87722101  0.46579092  1.0
  H  H18  1  0.69018017  0.12277899  0.96579092  1.0
  H  H19  1  0.19018017  0.37722101  0.03420908  1.0
  H  H20  1  0.02659207  0.55220571  0.65755732  1.0
  H  H21  1  0.52659207  0.94779429  0.34244268  1.0
  H  H22  1  0.97340793  0.05220571  0.84244268  1.0
  H  H23  1  0.47340793  0.44779429  0.15755732  1.0
  H  H24  1  0.92241827  0.85456314  0.81666590  1.0
  H  H25  1  0.42241827  0.64543686  0.18333410  1.0
  H  H26  1  0.07758173  0.35456314  0.68333410  1.0
  H  H27  1  0.57758173  0.14543686  0.31666590  1.0
  O  O28  1  0.50078918  0.97226798  0.96073811  1.0
  O  O29  1  1.00078918  0.52773202  0.03926189  1.0
  O  O30  1  0.49921082  0.47226798  0.53926189  1.0
  O  O31  1  -0.00078918  0.02773202  0.46073811  1.0
  O  O32  1  0.47604844  0.88177073  0.69484362  1.0
  O  O33  1  0.97604844  0.61822927  0.30515638  1.0
  O  O34  1  0.52395156  0.38177073  0.80515638  1.0
  O  O35  1  0.02395156  0.11822927  0.19484362  1.0
  O  O36  1  0.21481514  0.77733104  0.14159795  1.0
  O  O37  1  0.71481514  0.72266896  0.85840205  1.0
  O  O38  1  0.78518486  0.27733104  0.35840205  1.0
  O  O39  1  0.28518486  0.22266896  0.64159795  1.0
  O  O40  1  0.19181774  0.70316842  0.53143777  1.0
  O  O41  1  0.69181774  0.79683158  0.46856223  1.0
  O  O42  1  0.80818226  0.20316842  0.96856223  1.0
  O  O43  1  0.30818226  0.29683158  0.03143777  1.0
  O  O44  1  0.02861520  0.94324663  0.80110870  1.0
  O  O45  1  0.52861520  0.55675337  0.19889130  1.0
  O  O46  1  0.97138480  0.44324663  0.69889130  1.0
  O  O47  1  0.47138480  0.05675337  0.30110870  1.0
