# generated using pymatgen
data_FeAsO4
_symmetry_space_group_name_H-M   'P 1'
_cell_length_a   9.44837823
_cell_length_b   9.44837823
_cell_length_c   9.44837823
_cell_angle_alpha   86.22778587
_cell_angle_beta   108.25267324
_cell_angle_gamma   138.81452668
_symmetry_Int_Tables_number   1
_chemical_formula_structural   FeAsO4
_chemical_formula_sum   'Fe6 As6 O24'
_cell_volume   507.63429109
_cell_formula_units_Z   6
loop_
 _symmetry_equiv_pos_site_id
 _symmetry_equiv_pos_as_xyz
  1  'x, y, z'
loop_
 _atom_site_type_symbol
 _atom_site_label
 _atom_site_symmetry_multiplicity
 _atom_site_fract_x
 _atom_site_fract_y
 _atom_site_fract_z
 _atom_site_occupancy
  Fe  Fe0  1  0.00000000  0.11273619  0.11273619  1.0
  Fe  Fe1  1  0.50000000  0.11273619  0.61273619  1.0
  Fe  Fe2  1  0.50000000  0.88726381  0.38726381  1.0
  Fe  Fe3  1  1.00000000  0.88726381  0.88726381  1.0
  Fe  Fe4  1  1.00000000  1.00000000  0.50000000  1.0
  Fe  Fe5  1  1.00000000  0.50000000  1.00000000  1.0
  As  As6  1  1.00000000  0.67771405  0.67771405  1.0
  As  As7  1  0.50000000  0.67771405  0.17771405  1.0
  As  As8  1  0.50000000  0.32228595  0.82228595  1.0
  As  As9  1  0.00000000  0.32228595  0.32228595  1.0
  As  As10  1  1.07038126  0.82038126  1.25000000  1.0
  As  As11  1  0.92961874  0.17961874  0.75000000  1.0
  O  O12  1  1.07485340  1.19363008  0.34838990  1.0
  O  O13  1  0.65475982  0.27353650  0.84838990  1.0
  O  O14  1  0.65475982  0.80636992  0.38122332  1.0
  O  O15  1  1.07485340  0.72646350  0.88122332  1.0
  O  O16  1  1.34524018  1.19363008  0.61877668  1.0
  O  O17  1  0.92514660  0.27353650  1.11877668  1.0
  O  O18  1  0.92514660  0.80636992  0.65161010  1.0
  O  O19  1  1.34524018  0.72646350  1.15161010  1.0
  O  O20  1  0.32252359  0.40094954  0.14008035  1.0
  O  O21  1  1.23913081  0.81755676  0.64008035  1.0
  O  O22  1  0.23913081  0.59905046  0.42157405  1.0
  O  O23  1  1.32252359  1.18244324  0.92157405  1.0
  O  O24  1  0.76086919  0.40094954  0.57842595  1.0
  O  O25  1  1.67747641  0.81755676  1.07842595  1.0
  O  O26  1  0.67747641  0.59905046  0.85991965  1.0
  O  O27  1  1.76086919  1.18244324  1.35991965  1.0
  O  O28  1  1.10069237  0.97865732  1.12203505  1.0
  O  O29  1  0.64337773  0.02134268  0.62203505  1.0
  O  O30  1  1.35662227  0.97865732  1.37796495  1.0
  O  O31  1  0.89930763  0.02134268  0.87796495  1.0
  O  O32  1  1.06324157  0.42027369  0.85703212  1.0
  O  O33  1  0.93675843  0.79379055  1.35703212  1.0
  O  O34  1  0.93675843  0.57972631  1.14296788  1.0
  O  O35  1  1.06324157  1.20620945  1.64296788  1.0
