# generated using pymatgen
data_Ag2Te
_symmetry_space_group_name_H-M   'P 1'
_cell_length_a   8.03790051
_cell_length_b   4.52436840
_cell_length_c   9.15384543
_cell_angle_alpha   90.00000000
_cell_angle_beta   122.19816509
_cell_angle_gamma   90.00000000
_symmetry_Int_Tables_number   1
_chemical_formula_structural   Ag2Te
_chemical_formula_sum   'Ag8 Te4'
_cell_volume   281.69713720
_cell_formula_units_Z   4
loop_
 _symmetry_equiv_pos_site_id
 _symmetry_equiv_pos_as_xyz
  1  'x, y, z'
loop_
 _atom_site_type_symbol
 _atom_site_label
 _atom_site_symmetry_multiplicity
 _atom_site_fract_x
 _atom_site_fract_y
 _atom_site_fract_z
 _atom_site_occupancy
  Ag  Ag0  1  0.96853867  0.37476119  0.34292124  1.0
  Ag  Ag1  1  0.96853867  0.12523881  0.84292124  1.0
  Ag  Ag2  1  0.03146133  0.87476119  0.15707876  1.0
  Ag  Ag3  1  0.03146133  0.62523881  0.65707876  1.0
  Ag  Ag4  1  0.33341676  0.35587957  0.34541373  1.0
  Ag  Ag5  1  0.33341676  0.14412043  0.84541373  1.0
  Ag  Ag6  1  0.66658324  0.85587957  0.15458627  1.0
  Ag  Ag7  1  0.66658324  0.64412043  0.65458627  1.0
  Te  Te8  1  0.72657490  0.14581088  0.46865912  1.0
  Te  Te9  1  0.72657490  0.35418912  0.96865912  1.0
  Te  Te10  1  0.27342510  0.64581088  0.03134088  1.0
  Te  Te11  1  0.27342510  0.85418912  0.53134088  1.0
