# generated using pymatgen
data_CsGaSe2
_symmetry_space_group_name_H-M   'P 1'
_cell_length_a   7.97004480
_cell_length_b   7.97004480
_cell_length_c   17.08313747
_cell_angle_alpha   83.28013172
_cell_angle_beta   96.71986828
_cell_angle_gamma   89.99958935
_symmetry_Int_Tables_number   1
_chemical_formula_structural   CsGaSe2
_chemical_formula_sum   'Cs8 Ga8 Se16'
_cell_volume   1070.18677675
_cell_formula_units_Z   8
loop_
 _symmetry_equiv_pos_site_id
 _symmetry_equiv_pos_as_xyz
  1  'x, y, z'
loop_
 _atom_site_type_symbol
 _atom_site_label
 _atom_site_symmetry_multiplicity
 _atom_site_fract_x
 _atom_site_fract_y
 _atom_site_fract_z
 _atom_site_occupancy
  Cs  Cs0  1  1.22416558  0.65163246  0.39527418  1.0
  Cs  Cs1  1  1.65163246  0.22416558  0.10472582  1.0
  Cs  Cs2  1  0.77583442  -0.65163246  0.60472582  1.0
  Cs  Cs3  1  0.34836754  -0.22416558  0.89527418  1.0
  Cs  Cs4  1  1.14974207  0.22501813  0.10097861  1.0
  Cs  Cs5  1  1.22501813  0.14974207  0.39902139  1.0
  Cs  Cs6  1  0.85025793  -0.22501813  0.89902139  1.0
  Cs  Cs7  1  0.77498187  -0.14974207  0.60097861  1.0
  Ga  Ga8  1  0.91413114  -0.29282675  0.17191700  1.0
  Ga  Ga9  1  0.70717325  -0.08586886  0.32808300  1.0
  Ga  Ga10  1  1.08586886  0.29282675  0.82808300  1.0
  Ga  Ga11  1  1.29282675  0.08586886  0.67191700  1.0
  Ga  Ga12  1  0.70721062  -0.57788616  0.32822339  1.0
  Ga  Ga13  1  0.42211384  -0.29278938  0.17177661  1.0
  Ga  Ga14  1  1.29278938  0.57788616  0.67177661  1.0
  Ga  Ga15  1  1.57788616  0.29278938  0.82822339  1.0
  Se  Se16  1  0.72952884  -0.35425498  0.41780818  1.0
  Se  Se17  1  0.64574502  -0.27047116  0.08219182  1.0
  Se  Se18  1  1.27047116  0.35425498  0.58219182  1.0
  Se  Se19  1  1.35425498  0.27047116  0.91780818  1.0
  Se  Se20  1  1.14644188  0.72859102  0.08590613  1.0
  Se  Se21  1  1.72859102  0.14644188  0.41409387  1.0
  Se  Se22  1  0.85355812  -0.72859102  0.91409387  1.0
  Se  Se23  1  0.27140898  -0.14644188  0.58590613  1.0
  Se  Se24  1  0.94403830  -0.56857527  0.25021139  1.0
  Se  Se25  1  0.43142473  -0.05596170  0.24978861  1.0
  Se  Se26  1  1.05596170  0.56857527  0.74978861  1.0
  Se  Se27  1  1.56857527  0.05596170  0.75021139  1.0
  Se  Se28  1  0.94392901  -0.05607099  0.25000000  1.0
  Se  Se29  1  1.05607099  0.05607099  0.75000000  1.0
  Se  Se30  1  1.43142425  0.43142425  0.25000000  1.0
  Se  Se31  1  0.56857575  -0.43142425  0.75000000  1.0
