# generated using pymatgen
data_LiGaTe2
_symmetry_space_group_name_H-M   'P 1'
_cell_length_a   7.51149368
_cell_length_b   7.51149368
_cell_length_c   7.51149368
_cell_angle_alpha   129.61886381
_cell_angle_beta   129.61886381
_cell_angle_gamma   74.01681288
_symmetry_Int_Tables_number   1
_chemical_formula_structural   LiGaTe2
_chemical_formula_sum   'Li2 Ga2 Te4'
_cell_volume   245.24753402
_cell_formula_units_Z   2
loop_
 _symmetry_equiv_pos_site_id
 _symmetry_equiv_pos_as_xyz
  1  'x, y, z'
loop_
 _atom_site_type_symbol
 _atom_site_label
 _atom_site_symmetry_multiplicity
 _atom_site_fract_x
 _atom_site_fract_y
 _atom_site_fract_z
 _atom_site_occupancy
  Li  Li0  1  0.25000000  0.75000000  0.50000000  1.0
  Li  Li1  1  0.50000000  0.50000000  0.00000000  1.0
  Ga  Ga2  1  0.75000000  0.25000000  0.50000000  1.0
  Ga  Ga3  1  1.00000000  1.00000000  1.00000000  1.0
  Te  Te4  1  1.11169946  1.12500000  1.48669946  1.0
  Te  Te5  1  1.37500000  0.88830054  1.01330054  1.0
  Te  Te6  1  0.87500000  1.36169946  0.98669946  1.0
  Te  Te7  1  0.63830054  0.62500000  0.51330054  1.0
