# generated using pymatgen
data_LaAgO3
_symmetry_space_group_name_H-M   'P 1'
_cell_length_a   6.61780392
_cell_length_b   6.61780392
_cell_length_c   6.61780392
_cell_angle_alpha   53.36552381
_cell_angle_beta   53.36552381
_cell_angle_gamma   53.36552381
_symmetry_Int_Tables_number   1
_chemical_formula_structural   LaAgO3
_chemical_formula_sum   'La2 Ag2 O6'
_cell_volume   173.10991225
_cell_formula_units_Z   2
loop_
 _symmetry_equiv_pos_site_id
 _symmetry_equiv_pos_as_xyz
  1  'x, y, z'
loop_
 _atom_site_type_symbol
 _atom_site_label
 _atom_site_symmetry_multiplicity
 _atom_site_fract_x
 _atom_site_fract_y
 _atom_site_fract_z
 _atom_site_occupancy
  La  La0  1  0.50000000  0.50000000  -0.50000000  1.0
  La  La1  1  -0.00000000  0.00000000  0.00000000  1.0
  Ag  Ag2  1  1.25000000  1.25000000  0.25000000  1.0
  Ag  Ag3  1  0.75000000  0.75000000  -0.25000000  1.0
  O  O4  1  0.90861815  0.25000000  -0.40861815  1.0
  O  O5  1  0.40861815  0.09138185  -0.25000000  1.0
  O  O6  1  0.75000000  0.40861815  -0.90861815  1.0
  O  O7  1  0.25000000  0.59138185  -0.09138185  1.0
  O  O8  1  0.09138185  0.75000000  -0.59138185  1.0
  O  O9  1  0.59138185  -0.09138185  0.25000000  1.0
