# generated using pymatgen
data_Ca4IrO6
_symmetry_space_group_name_H-M   'P 1'
_cell_length_a   6.59395449
_cell_length_b   6.59395449
_cell_length_c   6.59395449
_cell_angle_alpha   91.02674053
_cell_angle_beta   91.02674053
_cell_angle_gamma   91.02674053
_symmetry_Int_Tables_number   1
_chemical_formula_structural   Ca4IrO6
_chemical_formula_sum   'Ca8 Ir2 O12'
_cell_volume   286.56692368
_cell_formula_units_Z   2
loop_
 _symmetry_equiv_pos_site_id
 _symmetry_equiv_pos_as_xyz
  1  'x, y, z'
loop_
 _atom_site_type_symbol
 _atom_site_label
 _atom_site_symmetry_multiplicity
 _atom_site_fract_x
 _atom_site_fract_y
 _atom_site_fract_z
 _atom_site_occupancy
  Ca  Ca0  1  0.88999046  1.25000000  -0.38999046  1.0
  Ca  Ca1  1  1.38999046  0.11000954  -0.25000000  1.0
  Ca  Ca2  1  0.75000000  0.38999046  0.11000954  1.0
  Ca  Ca3  1  1.25000000  0.61000954  -0.11000954  1.0
  Ca  Ca4  1  1.11000954  -0.25000000  0.38999046  1.0
  Ca  Ca5  1  0.61000954  0.88999046  0.25000000  1.0
  Ca  Ca6  1  0.25000000  0.25000000  0.25000000  1.0
  Ca  Ca7  1  0.75000000  0.75000000  0.75000000  1.0
  Ir  Ir8  1  0.50000000  0.50000000  0.50000000  1.0
  Ir  Ir9  1  0.00000000  0.00000000  0.00000000  1.0
  O  O10  1  1.20364868  0.42876209  -0.44511135  1.0
  O  O11  1  0.70364868  1.05488865  -0.07123791  1.0
  O  O12  1  0.94511135  0.07123791  0.29635132  1.0
  O  O13  1  1.44511135  -0.20364868  0.57123791  1.0
  O  O14  1  1.57123791  0.44511135  -0.20364868  1.0
  O  O15  1  1.07123791  0.29635132  -0.05488865  1.0
  O  O16  1  0.79635132  0.57123791  0.44511135  1.0
  O  O17  1  1.29635132  -0.05488865  0.07123791  1.0
  O  O18  1  0.55488865  1.20364868  -0.57123791  1.0
  O  O19  1  1.05488865  0.92876209  -0.29635132  1.0
  O  O20  1  0.92876209  0.70364868  0.05488865  1.0
  O  O21  1  0.42876209  0.55488865  0.20364868  1.0
