# generated using pymatgen
data_BaGd(CoO3)2
_symmetry_space_group_name_H-M   'P 1'
_cell_length_a   3.89137843
_cell_length_b   7.53038100
_cell_length_c   7.77498479
_cell_angle_alpha   90.00000000
_cell_angle_beta   90.00000000
_cell_angle_gamma   90.00000000
_symmetry_Int_Tables_number   1
_chemical_formula_structural   BaGd(CoO3)2
_chemical_formula_sum   'Ba2 Gd2 Co4 O12'
_cell_volume   227.83475032
_cell_formula_units_Z   2
loop_
 _symmetry_equiv_pos_site_id
 _symmetry_equiv_pos_as_xyz
  1  'x, y, z'
loop_
 _atom_site_type_symbol
 _atom_site_label
 _atom_site_symmetry_multiplicity
 _atom_site_fract_x
 _atom_site_fract_y
 _atom_site_fract_z
 _atom_site_occupancy
  O  O0  1  0.00000000  0.77814088  0.75000278  1.0
  O  O1  1  0.00000000  0.77814088  0.24999722  1.0
  O  O2  1  0.00000000  0.22185912  0.75000278  1.0
  O  O3  1  0.00000000  0.22185912  0.24999722  1.0
  O  O4  1  0.50000000  0.77821975  0.50000000  1.0
  O  O5  1  0.50000000  0.22178025  0.50000000  1.0
  O  O6  1  0.50000000  0.77829015  0.00000000  1.0
  O  O7  1  0.50000000  0.22170985  0.00000000  1.0
  O  O8  1  0.00000000  0.00000000  0.50000000  1.0
  O  O9  1  0.00000000  0.50000000  0.00000000  1.0
  O  O10  1  0.00000000  0.50000000  0.50000000  1.0
  O  O11  1  0.00000000  0.00000000  0.00000000  1.0
  Co  Co12  1  0.00000000  0.75185625  0.50000000  1.0
  Co  Co13  1  0.00000000  0.24814375  0.50000000  1.0
  Co  Co14  1  0.00000000  0.75182113  0.00000000  1.0
  Co  Co15  1  0.00000000  0.24817887  0.00000000  1.0
  Gd  Gd16  1  0.50000000  0.00000000  0.75003404  1.0
  Gd  Gd17  1  0.50000000  0.00000000  0.24996596  1.0
  Ba  Ba18  1  0.50000000  0.50000000  0.74997691  1.0
  Ba  Ba19  1  0.50000000  0.50000000  0.25002309  1.0
