# generated using pymatgen
data_Co2Re5P12
_symmetry_space_group_name_H-M   'P 1'
_cell_length_a   11.93847527
_cell_length_b   14.90505574
_cell_length_c   3.06500287
_cell_angle_alpha   90.00000000
_cell_angle_beta   90.00000000
_cell_angle_gamma   90.00000000
_symmetry_Int_Tables_number   1
_chemical_formula_structural   Co2Re5P12
_chemical_formula_sum   'Co4 Re10 P24'
_cell_volume   545.39776575
_cell_formula_units_Z   2
loop_
 _symmetry_equiv_pos_site_id
 _symmetry_equiv_pos_as_xyz
  1  'x, y, z'
loop_
 _atom_site_type_symbol
 _atom_site_label
 _atom_site_symmetry_multiplicity
 _atom_site_fract_x
 _atom_site_fract_y
 _atom_site_fract_z
 _atom_site_occupancy
  Co  Co0  1  0.86835258  0.65505146  0.50000000  1.0
  Co  Co1  1  0.36835258  0.84494854  0.00000000  1.0
  Co  Co2  1  0.13164742  0.34494854  0.50000000  1.0
  Co  Co3  1  0.63164742  0.15505146  0.00000000  1.0
  Re  Re4  1  0.31848518  0.10046361  0.50000000  1.0
  Re  Re5  1  0.81848518  0.39953639  0.00000000  1.0
  Re  Re6  1  0.68151482  0.89953639  0.50000000  1.0
  Re  Re7  1  0.18151482  0.60046361  0.00000000  1.0
  Re  Re8  1  0.07696813  0.74145421  0.50000000  1.0
  Re  Re9  1  0.57696813  0.75854579  0.00000000  1.0
  Re  Re10  1  0.92303187  0.25854579  0.50000000  1.0
  Re  Re11  1  0.42303187  0.24145421  0.00000000  1.0
  Re  Re12  1  0.50000000  0.50000000  0.50000000  1.0
  Re  Re13  1  0.00000000  0.00000000  0.00000000  1.0
  P  P14  1  0.42219652  0.73853050  0.50000000  1.0
  P  P15  1  0.92219652  0.76146950  0.00000000  1.0
  P  P16  1  0.57780348  0.26146950  0.50000000  1.0
  P  P17  1  0.07780348  0.23853050  0.00000000  1.0
  P  P18  1  0.34537288  0.59930471  0.50000000  1.0
  P  P19  1  0.84537288  0.90069529  0.00000000  1.0
  P  P20  1  0.65462712  0.40069529  0.50000000  1.0
  P  P21  1  0.15462712  0.09930471  0.00000000  1.0
  P  P22  1  0.28792254  0.93665882  0.50000000  1.0
  P  P23  1  0.78792254  0.56334118  -0.00000000  1.0
  P  P24  1  0.71207746  0.06334118  0.50000000  1.0
  P  P25  1  0.21207746  0.43665882  -0.00000000  1.0
  P  P26  1  0.27510446  0.25725118  0.50000000  1.0
  P  P27  1  0.77510446  0.24274882  0.00000000  1.0
  P  P28  1  0.72489554  0.74274882  0.50000000  1.0
  P  P29  1  0.22489554  0.75725118  0.00000000  1.0
  P  P30  1  0.09933914  0.90414379  0.50000000  1.0
  P  P31  1  0.59933914  0.59585621  0.00000000  1.0
  P  P32  1  0.90066086  0.09585621  0.50000000  1.0
  P  P33  1  0.40066086  0.40414379  0.00000000  1.0
  P  P34  1  0.02730249  0.57405294  0.50000000  1.0
  P  P35  1  0.52730249  0.92594706  0.00000000  1.0
  P  P36  1  0.97269751  0.42594706  0.50000000  1.0
  P  P37  1  0.47269751  0.07405294  0.00000000  1.0
