# generated using pymatgen
data_LiCa2HC3
_symmetry_space_group_name_H-M   'P 1'
_cell_length_a   6.81356394
_cell_length_b   6.81356394
_cell_length_c   3.76083725
_cell_angle_alpha   90.00000000
_cell_angle_beta   90.00000000
_cell_angle_gamma   90.00000000
_symmetry_Int_Tables_number   1
_chemical_formula_structural   LiCa2HC3
_chemical_formula_sum   'Li2 Ca4 H2 C6'
_cell_volume   174.59556628
_cell_formula_units_Z   2
loop_
 _symmetry_equiv_pos_site_id
 _symmetry_equiv_pos_as_xyz
  1  'x, y, z'
loop_
 _atom_site_type_symbol
 _atom_site_label
 _atom_site_symmetry_multiplicity
 _atom_site_fract_x
 _atom_site_fract_y
 _atom_site_fract_z
 _atom_site_occupancy
  Li  Li0  1  0.50000000  0.50000000  0.00000000  1.0
  Li  Li1  1  0.00000000  0.00000000  0.00000000  1.0
  Ca  Ca2  1  0.31787245  0.18212755  0.50000000  1.0
  Ca  Ca3  1  0.81787245  0.31787245  0.50000000  1.0
  Ca  Ca4  1  0.68212755  0.81787245  0.50000000  1.0
  Ca  Ca5  1  0.18212755  0.68212755  0.50000000  1.0
  H  H6  1  0.50000000  0.50000000  0.50000000  1.0
  H  H7  1  0.00000000  0.00000000  0.50000000  1.0
  C  C8  1  0.86198667  0.63801333  0.00000000  1.0
  C  C9  1  0.36198667  0.86198667  0.00000000  1.0
  C  C10  1  0.13801333  0.36198667  0.00000000  1.0
  C  C11  1  0.63801333  0.13801333  0.00000000  1.0
  C  C12  1  0.50000000  0.00000000  0.00000000  1.0
  C  C13  1  0.00000000  0.50000000  0.00000000  1.0
