# generated using pymatgen
data_LaSeCl
_symmetry_space_group_name_H-M   'P 1'
_cell_length_a   7.66976823
_cell_length_b   4.37304413
_cell_length_c   9.16786733
_cell_angle_alpha   90.00000000
_cell_angle_beta   90.00000000
_cell_angle_gamma   90.00000000
_symmetry_Int_Tables_number   1
_chemical_formula_structural   LaSeCl
_chemical_formula_sum   'La4 Se4 Cl4'
_cell_volume   307.49242392
_cell_formula_units_Z   4
loop_
 _symmetry_equiv_pos_site_id
 _symmetry_equiv_pos_as_xyz
  1  'x, y, z'
loop_
 _atom_site_type_symbol
 _atom_site_label
 _atom_site_symmetry_multiplicity
 _atom_site_fract_x
 _atom_site_fract_y
 _atom_site_fract_z
 _atom_site_occupancy
  La  La0  1  0.75957308  0.75000000  0.36873086  1.0
  La  La1  1  0.25957308  0.75000000  0.13126914  1.0
  La  La2  1  0.24042692  0.25000000  0.63126914  1.0
  La  La3  1  0.74042692  0.25000000  0.86873086  1.0
  Se  Se4  1  0.95952500  0.75000000  0.67111578  1.0
  Se  Se5  1  0.45952500  0.75000000  0.82888422  1.0
  Se  Se6  1  0.04047500  0.25000000  0.32888422  1.0
  Se  Se7  1  0.54047500  0.25000000  0.17111578  1.0
  Cl  Cl8  1  0.86497556  0.75000000  0.05995159  1.0
  Cl  Cl9  1  0.36497556  0.75000000  0.44004841  1.0
  Cl  Cl10  1  0.13502444  0.25000000  0.94004841  1.0
  Cl  Cl11  1  0.63502444  0.25000000  0.55995159  1.0
