# generated using pymatgen
data_Li3Bi
_symmetry_space_group_name_H-M   'P 1'
_cell_length_a   4.79016093
_cell_length_b   4.79016093
_cell_length_c   8.51484802
_cell_angle_alpha   90.00000000
_cell_angle_beta   90.00000000
_cell_angle_gamma   120.00000000
_symmetry_Int_Tables_number   1
_chemical_formula_structural   Li3Bi
_chemical_formula_sum   'Li6 Bi2'
_cell_volume   169.20287574
_cell_formula_units_Z   2
loop_
 _symmetry_equiv_pos_site_id
 _symmetry_equiv_pos_as_xyz
  1  'x, y, z'
loop_
 _atom_site_type_symbol
 _atom_site_label
 _atom_site_symmetry_multiplicity
 _atom_site_fract_x
 _atom_site_fract_y
 _atom_site_fract_z
 _atom_site_occupancy
  Li  Li0  1  0.33333333  0.66666667  0.91232816  1.0
  Li  Li1  1  0.33333333  0.66666667  0.58767184  1.0
  Li  Li2  1  0.66666667  0.33333333  0.41232816  1.0
  Li  Li3  1  0.66666667  0.33333333  0.08767184  1.0
  Li  Li4  1  0.00000000  0.00000000  0.25000000  1.0
  Li  Li5  1  0.00000000  0.00000000  0.75000000  1.0
  Bi  Bi6  1  0.33333333  0.66666667  0.25000000  1.0
  Bi  Bi7  1  0.66666667  0.33333333  0.75000000  1.0
