# generated using pymatgen
data_Rb2MoSe4
_symmetry_space_group_name_H-M   'P 1'
_cell_length_a   10.34164814
_cell_length_b   7.37037767
_cell_length_c   13.05981665
_cell_angle_alpha   90.00000000
_cell_angle_beta   90.00000000
_cell_angle_gamma   90.00000000
_symmetry_Int_Tables_number   1
_chemical_formula_structural   Rb2MoSe4
_chemical_formula_sum   'Rb8 Mo4 Se16'
_cell_volume   995.44341835
_cell_formula_units_Z   4
loop_
 _symmetry_equiv_pos_site_id
 _symmetry_equiv_pos_as_xyz
  1  'x, y, z'
loop_
 _atom_site_type_symbol
 _atom_site_label
 _atom_site_symmetry_multiplicity
 _atom_site_fract_x
 _atom_site_fract_y
 _atom_site_fract_z
 _atom_site_occupancy
  Rb  Rb0  1  0.84609762  0.75000000  0.39097078  1.0
  Rb  Rb1  1  0.34609762  0.75000000  0.10902922  1.0
  Rb  Rb2  1  0.15390238  0.25000000  0.60902922  1.0
  Rb  Rb3  1  0.65390238  0.25000000  0.89097078  1.0
  Rb  Rb4  1  0.54299988  0.75000000  0.65890560  1.0
  Rb  Rb5  1  0.04299988  0.75000000  0.84109440  1.0
  Rb  Rb6  1  0.45700012  0.25000000  0.34109440  1.0
  Rb  Rb7  1  0.95700012  0.25000000  0.15890560  1.0
  Mo  Mo8  1  0.75132921  0.75000000  0.07304636  1.0
  Mo  Mo9  1  0.25132921  0.75000000  0.42695364  1.0
  Mo  Mo10  1  0.24867079  0.25000000  0.92695364  1.0
  Mo  Mo11  1  0.74867079  0.25000000  0.57304636  1.0
  Se  Se12  1  0.65414940  1.00473971  0.14411052  1.0
  Se  Se13  1  0.65414940  0.49526029  0.14411052  1.0
  Se  Se14  1  0.15414940  1.00473971  0.35588948  1.0
  Se  Se15  1  0.15414940  0.49526029  0.35588948  1.0
  Se  Se16  1  0.34585060  0.50473971  0.85588948  1.0
  Se  Se17  1  0.34585060  -0.00473971  0.85588948  1.0
  Se  Se18  1  0.84585060  0.50473971  0.64411052  1.0
  Se  Se19  1  0.84585060  -0.00473971  0.64411052  1.0
  Se  Se20  1  0.97259586  0.75000000  0.11158459  1.0
  Se  Se21  1  0.47259586  0.75000000  0.38841541  1.0
  Se  Se22  1  0.02740414  0.25000000  0.88841541  1.0
  Se  Se23  1  0.52740414  0.25000000  0.61158459  1.0
  Se  Se24  1  0.21630689  0.75000000  0.60338221  1.0
  Se  Se25  1  0.71630689  0.75000000  0.89661779  1.0
  Se  Se26  1  0.78369311  0.25000000  0.39661779  1.0
  Se  Se27  1  0.28369311  0.25000000  0.10338221  1.0
