# generated using pymatgen
data_SeF4
_symmetry_space_group_name_H-M   'P 1'
_cell_length_a   6.08757310
_cell_length_b   6.17109759
_cell_length_c   10.96400244
_cell_angle_alpha   90.00000000
_cell_angle_beta   90.00000000
_cell_angle_gamma   90.00000000
_symmetry_Int_Tables_number   1
_chemical_formula_structural   SeF4
_chemical_formula_sum   'Se4 F16'
_cell_volume   411.88476368
_cell_formula_units_Z   4
loop_
 _symmetry_equiv_pos_site_id
 _symmetry_equiv_pos_as_xyz
  1  'x, y, z'
loop_
 _atom_site_type_symbol
 _atom_site_label
 _atom_site_symmetry_multiplicity
 _atom_site_fract_x
 _atom_site_fract_y
 _atom_site_fract_z
 _atom_site_occupancy
  Se  Se0  1  0.11921029  0.86665323  0.62502961  1.0
  Se  Se1  1  0.61921029  0.63334677  0.37497039  1.0
  Se  Se2  1  0.88078971  0.36665323  0.87497039  1.0
  Se  Se3  1  0.38078971  0.13334677  0.12502961  1.0
  F  F4  1  0.34022179  0.91419332  0.72105433  1.0
  F  F5  1  0.84022179  0.58580668  0.27894567  1.0
  F  F6  1  0.65977821  0.41419332  0.77894567  1.0
  F  F7  1  0.15977821  0.08580668  0.22105433  1.0
  F  F8  1  0.30576059  0.69601812  0.52922507  1.0
  F  F9  1  0.80576059  0.80398188  0.47077493  1.0
  F  F10  1  0.69423941  0.19601812  0.97077493  1.0
  F  F11  1  0.19423941  0.30398188  0.02922507  1.0
  F  F12  1  0.32367927  0.91832724  0.02841448  1.0
  F  F13  1  0.82367927  0.58167276  0.97158552  1.0
  F  F14  1  0.67632073  0.41832724  0.47158552  1.0
  F  F15  1  0.17632073  0.08167276  0.52841448  1.0
  F  F16  1  1.04495000  0.55855406  0.77963942  1.0
  F  F17  1  0.54495000  0.94144594  0.22036058  1.0
  F  F18  1  -0.04495000  0.05855406  0.72036058  1.0
  F  F19  1  0.45505000  0.44144594  0.27963942  1.0
