# generated using pymatgen
data_YZnPd
_symmetry_space_group_name_H-M   'P 1'
_cell_length_a   7.30797149
_cell_length_b   7.30797149
_cell_length_c   3.85614404
_cell_angle_alpha   90.00000000
_cell_angle_beta   90.00000000
_cell_angle_gamma   120.00000000
_symmetry_Int_Tables_number   1
_chemical_formula_structural   YZnPd
_chemical_formula_sum   'Y3 Zn3 Pd3'
_cell_volume   178.35182977
_cell_formula_units_Z   3
loop_
 _symmetry_equiv_pos_site_id
 _symmetry_equiv_pos_as_xyz
  1  'x, y, z'
loop_
 _atom_site_type_symbol
 _atom_site_label
 _atom_site_symmetry_multiplicity
 _atom_site_fract_x
 _atom_site_fract_y
 _atom_site_fract_z
 _atom_site_occupancy
  Y  Y0  1  0.40463453  0.40463453  0.00000000  1.0
  Y  Y1  1  0.00000000  0.59536547  0.00000000  1.0
  Y  Y2  1  0.59536547  0.00000000  0.00000000  1.0
  Zn  Zn3  1  0.74792492  0.74792492  0.50000000  1.0
  Zn  Zn4  1  -0.00000000  0.25207508  0.50000000  1.0
  Zn  Zn5  1  0.25207508  0.00000000  0.50000000  1.0
  Pd  Pd6  1  0.33333333  0.66666667  0.50000000  1.0
  Pd  Pd7  1  0.66666667  0.33333333  0.50000000  1.0
  Pd  Pd8  1  0.00000000  0.00000000  -0.00000000  1.0
