# generated using pymatgen
data_K2Mn3(AsO4)3
_symmetry_space_group_name_H-M   'P 1'
_cell_length_a   9.07919450
_cell_length_b   9.07919450
_cell_length_c   7.19652490
_cell_angle_alpha   73.62588375
_cell_angle_beta   106.37411625
_cell_angle_gamma   86.93223510
_symmetry_Int_Tables_number   1
_chemical_formula_structural   K2Mn3(AsO4)3
_chemical_formula_sum   'K4 Mn6 As6 O24'
_cell_volume   540.34880685
_cell_formula_units_Z   2
loop_
 _symmetry_equiv_pos_site_id
 _symmetry_equiv_pos_as_xyz
  1  'x, y, z'
loop_
 _atom_site_type_symbol
 _atom_site_label
 _atom_site_symmetry_multiplicity
 _atom_site_fract_x
 _atom_site_fract_y
 _atom_site_fract_z
 _atom_site_occupancy
  K  K0  1  0.51192843  -0.48807157  0.75000000  1.0
  K  K1  1  0.48807157  -0.51192843  0.25000000  1.0
  K  K2  1  0.00000000  0.00000000  0.00000000  1.0
  K  K3  1  0.00000000  -0.00000000  0.50000000  1.0
  Mn  Mn4  1  1.56149442  0.11814600  0.63287476  1.0
  Mn  Mn5  1  0.88185400  -0.56149442  0.13287476  1.0
  Mn  Mn6  1  1.11814600  0.56149442  0.86712524  1.0
  Mn  Mn7  1  0.43850558  -0.11814600  0.36712524  1.0
  Mn  Mn8  1  1.23990796  0.23990796  0.75000000  1.0
  Mn  Mn9  1  0.76009204  -0.23990796  0.25000000  1.0
  As  As10  1  0.37857838  -0.14673368  0.88035656  1.0
  As  As11  1  1.14673368  0.62142162  0.38035656  1.0
  As  As12  1  0.85326632  -0.62142162  0.61964344  1.0
  As  As13  1  1.62142162  0.14673368  0.11964344  1.0
  As  As14  1  0.77847351  -0.22152649  0.75000000  1.0
  As  As15  1  1.22152649  0.22152649  0.25000000  1.0
  O  O16  1  0.66147381  -0.25271015  0.52689956  1.0
  O  O17  1  1.25271015  0.33852619  0.02689956  1.0
  O  O18  1  0.74728985  -0.33852619  0.97310044  1.0
  O  O19  1  1.33852619  0.25271015  0.47310044  1.0
  O  O20  1  0.75583043  -0.02391643  0.72423925  1.0
  O  O21  1  1.02391643  0.24416957  0.22423925  1.0
  O  O22  1  0.97608357  -0.24416957  0.77576075  1.0
  O  O23  1  1.24416957  0.02391643  0.27576075  1.0
  O  O24  1  0.46805262  -0.09123080  0.68879379  1.0
  O  O25  1  1.09123080  0.53194738  0.18879379  1.0
  O  O26  1  0.90876920  -0.53194738  0.81120621  1.0
  O  O27  1  1.53194738  0.09123080  0.31120621  1.0
  O  O28  1  1.67867147  0.30850665  0.62575693  1.0
  O  O29  1  0.69149335  -0.67867147  0.12575693  1.0
  O  O30  1  1.30850665  0.67867147  0.87424307  1.0
  O  O31  1  0.32132853  -0.30850665  0.37424307  1.0
  O  O32  1  1.48708757  0.18419327  0.87496337  1.0
  O  O33  1  0.81580673  -0.48708757  0.37496337  1.0
  O  O34  1  1.18419327  0.48708757  0.62503663  1.0
  O  O35  1  0.51291243  -0.18419327  0.12503663  1.0
  O  O36  1  0.23363963  0.00204070  0.83534309  1.0
  O  O37  1  0.99795930  0.76636037  0.33534309  1.0
  O  O38  1  1.00204070  -0.76636037  0.66465691  1.0
  O  O39  1  1.76636037  -0.00204070  0.16465691  1.0
