# generated using pymatgen
data_Li2ZnBr4
_symmetry_space_group_name_H-M   'P 1'
_cell_length_a   13.77620732
_cell_length_b   7.98346148
_cell_length_c   6.51944624
_cell_angle_alpha   90.00000000
_cell_angle_beta   90.00000000
_cell_angle_gamma   90.00000000
_symmetry_Int_Tables_number   1
_chemical_formula_structural   Li2ZnBr4
_chemical_formula_sum   'Li8 Zn4 Br16'
_cell_volume   717.02056578
_cell_formula_units_Z   4
loop_
 _symmetry_equiv_pos_site_id
 _symmetry_equiv_pos_as_xyz
  1  'x, y, z'
loop_
 _atom_site_type_symbol
 _atom_site_label
 _atom_site_symmetry_multiplicity
 _atom_site_fract_x
 _atom_site_fract_y
 _atom_site_fract_z
 _atom_site_occupancy
  Li  Li0  1  0.76608660  0.25000000  0.49801819  1.0
  Li  Li1  1  0.26608660  0.25000000  0.00198181  1.0
  Li  Li2  1  0.23391340  0.75000000  0.50198181  1.0
  Li  Li3  1  0.73391340  0.75000000  0.99801819  1.0
  Li  Li4  1  0.00000000  0.50000000  0.00000000  1.0
  Li  Li5  1  0.00000000  0.00000000  0.00000000  1.0
  Li  Li6  1  0.50000000  0.50000000  0.50000000  1.0
  Li  Li7  1  0.50000000  0.00000000  0.50000000  1.0
  Zn  Zn8  1  0.58705476  0.25000000  0.08929044  1.0
  Zn  Zn9  1  0.08705476  0.25000000  0.41070956  1.0
  Zn  Zn10  1  0.41294524  0.75000000  0.91070956  1.0
  Zn  Zn11  1  0.91294524  0.75000000  0.58929044  1.0
  Br  Br12  1  0.66590902  0.49114588  0.25157692  1.0
  Br  Br13  1  0.66590902  0.00885412  0.25157692  1.0
  Br  Br14  1  0.16590902  0.49114588  0.24842308  1.0
  Br  Br15  1  0.16590902  0.00885412  0.24842308  1.0
  Br  Br16  1  0.33409098  0.99114588  0.74842308  1.0
  Br  Br17  1  0.33409098  0.50885412  0.74842308  1.0
  Br  Br18  1  0.83409098  0.99114588  0.75157692  1.0
  Br  Br19  1  0.83409098  0.50885412  0.75157692  1.0
  Br  Br20  1  0.92564125  0.25000000  0.24958042  1.0
  Br  Br21  1  0.42564125  0.25000000  0.25041958  1.0
  Br  Br22  1  0.07435875  0.75000000  0.75041958  1.0
  Br  Br23  1  0.57435875  0.75000000  0.74958042  1.0
  Br  Br24  1  0.58948022  0.25000000  0.71984040  1.0
  Br  Br25  1  0.08948022  0.25000000  0.78015960  1.0
  Br  Br26  1  0.41051978  0.75000000  0.28015960  1.0
  Br  Br27  1  0.91051978  0.75000000  0.21984040  1.0
