# generated using pymatgen
data_SrSi
_symmetry_space_group_name_H-M   'P 1'
_cell_length_a   11.37168894
_cell_length_b   4.04626096
_cell_length_c   14.45530756
_cell_angle_alpha   90.00000000
_cell_angle_beta   90.00000000
_cell_angle_gamma   90.00000000
_symmetry_Int_Tables_number   1
_chemical_formula_structural   SrSi
_chemical_formula_sum   'Sr12 Si12'
_cell_volume   665.12947869
_cell_formula_units_Z   12
loop_
 _symmetry_equiv_pos_site_id
 _symmetry_equiv_pos_as_xyz
  1  'x, y, z'
loop_
 _atom_site_type_symbol
 _atom_site_label
 _atom_site_symmetry_multiplicity
 _atom_site_fract_x
 _atom_site_fract_y
 _atom_site_fract_z
 _atom_site_occupancy
  Sr  Sr0  1  0.86097155  0.25000000  0.66666514  1.0
  Sr  Sr1  1  0.36097155  0.25000000  0.83333486  1.0
  Sr  Sr2  1  0.13902845  0.75000000  0.33333486  1.0
  Sr  Sr3  1  0.63902845  0.75000000  0.16666514  1.0
  Sr  Sr4  1  0.86101071  0.25000000  0.33333754  1.0
  Sr  Sr5  1  0.36101071  0.25000000  0.16666246  1.0
  Sr  Sr6  1  0.13898929  0.75000000  0.66666246  1.0
  Sr  Sr7  1  0.63898929  0.75000000  0.83333754  1.0
  Sr  Sr8  1  0.86099744  0.25000000  -0.00000146  1.0
  Sr  Sr9  1  0.36099744  0.25000000  0.50000146  1.0
  Sr  Sr10  1  0.13900256  0.75000000  1.00000146  1.0
  Sr  Sr11  1  0.63900256  0.75000000  0.49999854  1.0
  Si  Si12  1  0.56399029  0.25000000  0.66667172  1.0
  Si  Si13  1  0.06399029  0.25000000  0.83332828  1.0
  Si  Si14  1  0.43600971  0.75000000  0.33332828  1.0
  Si  Si15  1  0.93600971  0.75000000  0.16667172  1.0
  Si  Si16  1  0.56401618  0.25000000  0.33332938  1.0
  Si  Si17  1  0.06401618  0.25000000  0.16667062  1.0
  Si  Si18  1  0.43598382  0.75000000  0.66667062  1.0
  Si  Si19  1  0.93598382  0.75000000  0.83332938  1.0
  Si  Si20  1  0.56400225  0.25000000  1.00000072  1.0
  Si  Si21  1  0.06400225  0.25000000  0.49999928  1.0
  Si  Si22  1  0.43599775  0.75000000  -0.00000072  1.0
  Si  Si23  1  0.93599775  0.75000000  0.50000072  1.0
