# generated using pymatgen
data_Hf6Al16Os7
_symmetry_space_group_name_H-M   'P 1'
_cell_length_a   8.71498545
_cell_length_b   8.71498545
_cell_length_c   8.71498545
_cell_angle_alpha   60.00000000
_cell_angle_beta   60.00000000
_cell_angle_gamma   60.00000000
_symmetry_Int_Tables_number   1
_chemical_formula_structural   Hf6Al16Os7
_chemical_formula_sum   'Hf6 Al16 Os7'
_cell_volume   468.04218864
_cell_formula_units_Z   1
loop_
 _symmetry_equiv_pos_site_id
 _symmetry_equiv_pos_as_xyz
  1  'x, y, z'
loop_
 _atom_site_type_symbol
 _atom_site_label
 _atom_site_symmetry_multiplicity
 _atom_site_fract_x
 _atom_site_fract_y
 _atom_site_fract_z
 _atom_site_occupancy
  Hf  Hf0  1  -0.70655820  0.70655820  0.70655820  1.0
  Hf  Hf1  1  -0.29344180  0.29344180  0.70655820  1.0
  Hf  Hf2  1  0.70655820  0.70655820  -0.70655820  1.0
  Hf  Hf3  1  0.29344180  1.29344180  -0.29344180  1.0
  Hf  Hf4  1  0.29344180  -0.29344180  1.29344180  1.0
  Hf  Hf5  1  -0.29344180  0.29344180  0.29344180  1.0
  Al  Al6  1  0.88023501  0.88023501  -0.11976499  1.0
  Al  Al7  1  1.11976499  0.11976499  0.64070504  1.0
  Al  Al8  1  1.11976499  0.64070504  0.11976499  1.0
  Al  Al9  1  0.35929496  0.88023501  -0.11976499  1.0
  Al  Al10  1  1.64070504  0.11976499  0.11976499  1.0
  Al  Al11  1  0.88023501  0.35929496  -0.11976499  1.0
  Al  Al12  1  0.88023501  0.88023501  -0.64070504  1.0
  Al  Al13  1  1.11976499  0.11976499  0.11976499  1.0
  Al  Al14  1  0.66341349  0.66341349  -0.33658651  1.0
  Al  Al15  1  1.33658651  0.33658651  -0.00975952  1.0
  Al  Al16  1  1.33658651  -0.00975952  0.33658651  1.0
  Al  Al17  1  1.00975952  0.66341349  -0.33658651  1.0
  Al  Al18  1  0.99024048  0.33658651  0.33658651  1.0
  Al  Al19  1  0.66341349  1.00975952  -0.33658651  1.0
  Al  Al20  1  0.66341349  0.66341349  0.00975952  1.0
  Al  Al21  1  1.33658651  0.33658651  0.33658651  1.0
  Os  Os22  1  1.50000000  0.00000000  -0.00000000  1.0
  Os  Os23  1  1.00000000  0.50000000  -0.50000000  1.0
  Os  Os24  1  0.00000000  1.50000000  -0.00000000  1.0
  Os  Os25  1  0.50000000  1.00000000  -0.50000000  1.0
  Os  Os26  1  0.00000000  0.00000000  0.50000000  1.0
  Os  Os27  1  0.50000000  -0.50000000  1.00000000  1.0
  Os  Os28  1  0.00000000  0.00000000  0.00000000  1.0
