# generated using pymatgen
data_NaZnMoHO5
_symmetry_space_group_name_H-M   'P 1'
_cell_length_a   7.91073403
_cell_length_b   6.23386793
_cell_length_c   9.39521871
_cell_angle_alpha   90.00000000
_cell_angle_beta   90.00000000
_cell_angle_gamma   90.00000000
_symmetry_Int_Tables_number   1
_chemical_formula_structural   NaZnMoHO5
_chemical_formula_sum   'Na4 Zn4 Mo4 H4 O20'
_cell_volume   463.32024231
_cell_formula_units_Z   4
loop_
 _symmetry_equiv_pos_site_id
 _symmetry_equiv_pos_as_xyz
  1  'x, y, z'
loop_
 _atom_site_type_symbol
 _atom_site_label
 _atom_site_symmetry_multiplicity
 _atom_site_fract_x
 _atom_site_fract_y
 _atom_site_fract_z
 _atom_site_occupancy
  Na  Na0  1  0.85853263  0.75000000  0.69132948  1.0
  Na  Na1  1  0.35853263  0.75000000  0.80867052  1.0
  Na  Na2  1  0.14146737  0.25000000  0.30867052  1.0
  Na  Na3  1  0.64146737  0.25000000  0.19132948  1.0
  Zn  Zn4  1  0.00000000  0.00000000  0.00000000  1.0
  Zn  Zn5  1  0.00000000  0.50000000  0.00000000  1.0
  Zn  Zn6  1  0.50000000  0.00000000  0.50000000  1.0
  Zn  Zn7  1  0.50000000  0.50000000  0.50000000  1.0
  Mo  Mo8  1  0.88119996  0.75000000  0.33328256  1.0
  Mo  Mo9  1  0.38119996  0.75000000  0.16671744  1.0
  Mo  Mo10  1  0.11880004  0.25000000  0.66671744  1.0
  Mo  Mo11  1  0.61880004  0.25000000  0.83328256  1.0
  H  H12  1  0.25555058  0.75000000  0.51858069  1.0
  H  H13  1  0.75555058  0.75000000  0.98141931  1.0
  H  H14  1  0.74444942  0.25000000  0.48141931  1.0
  H  H15  1  0.24444942  0.25000000  0.01858069  1.0
  O  O16  1  0.89069598  0.98355424  0.22433419  1.0
  O  O17  1  0.89069598  0.51644576  0.22433419  1.0
  O  O18  1  0.39069598  0.98355424  0.27566581  1.0
  O  O19  1  0.39069598  0.51644576  0.27566581  1.0
  O  O20  1  0.10930402  0.48355424  0.77566581  1.0
  O  O21  1  0.10930402  0.01644576  0.77566581  1.0
  O  O22  1  0.60930402  0.48355424  0.72433419  1.0
  O  O23  1  0.60930402  0.01644576  0.72433419  1.0
  O  O24  1  0.69185853  0.75000000  0.44171284  1.0
  O  O25  1  0.19185853  0.75000000  0.05828716  1.0
  O  O26  1  0.30814147  0.25000000  0.55828716  1.0
  O  O27  1  0.80814147  0.25000000  0.94171284  1.0
  O  O28  1  0.55281906  0.75000000  0.04747987  1.0
  O  O29  1  0.05281906  0.75000000  0.45252013  1.0
  O  O30  1  0.44718094  0.25000000  0.95252013  1.0
  O  O31  1  0.94718094  0.25000000  0.54747987  1.0
  O  O32  1  0.36978564  0.75000000  0.56169820  1.0
  O  O33  1  0.86978564  0.75000000  0.93830180  1.0
  O  O34  1  0.63021436  0.25000000  0.43830180  1.0
  O  O35  1  0.13021436  0.25000000  0.06169820  1.0
