# generated using pymatgen
data_Ag4TeO5
_symmetry_space_group_name_H-M   'P 1'
_cell_length_a   8.83660906
_cell_length_b   8.83660906
_cell_length_c   11.97417070
_cell_angle_alpha   76.34118876
_cell_angle_beta   103.65881124
_cell_angle_gamma   137.93505413
_symmetry_Int_Tables_number   1
_chemical_formula_structural   Ag4TeO5
_chemical_formula_sum   'Ag16 Te4 O20'
_cell_volume   606.05239397
_cell_formula_units_Z   4
loop_
 _symmetry_equiv_pos_site_id
 _symmetry_equiv_pos_as_xyz
  1  'x, y, z'
loop_
 _atom_site_type_symbol
 _atom_site_label
 _atom_site_symmetry_multiplicity
 _atom_site_fract_x
 _atom_site_fract_y
 _atom_site_fract_z
 _atom_site_occupancy
  Ag  Ag0  1  0.93376724  0.93376724  0.75000000  1.0
  Ag  Ag1  1  0.06623276  0.06623276  0.25000000  1.0
  Ag  Ag2  1  0.50000000  -0.00000000  0.00000000  1.0
  Ag  Ag3  1  1.00000000  0.50000000  0.50000000  1.0
  Ag  Ag4  1  0.72171818  -0.12403622  0.95066908  1.0
  Ag  Ag5  1  1.12403622  0.27828182  0.45066908  1.0
  Ag  Ag6  1  0.87596378  0.72171818  0.54933092  1.0
  Ag  Ag7  1  0.27828182  0.12403622  0.04933092  1.0
  Ag  Ag8  1  0.79070772  0.21563052  0.75645445  1.0
  Ag  Ag9  1  0.78436948  0.20929228  0.25645445  1.0
  Ag  Ag10  1  1.21563052  0.79070772  0.74354555  1.0
  Ag  Ag11  1  0.20929228  -0.21563052  0.24354555  1.0
  Ag  Ag12  1  0.44765231  0.28530842  0.71200651  1.0
  Ag  Ag13  1  0.71469158  0.55234769  0.21200651  1.0
  Ag  Ag14  1  1.28530842  0.44765231  0.78799349  1.0
  Ag  Ag15  1  0.55234769  -0.28530842  0.28799349  1.0
  Te  Te16  1  0.55870784  -0.14862370  0.53039177  1.0
  Te  Te17  1  1.14862370  0.44129216  0.03039177  1.0
  Te  Te18  1  0.85137630  0.55870784  0.96960823  1.0
  Te  Te19  1  0.44129216  0.14862370  0.46960823  1.0
  O  O20  1  0.45287473  -0.41236127  0.63553725  1.0
  O  O21  1  1.41236127  0.54712527  0.13553725  1.0
  O  O22  1  0.58763873  0.45287473  0.86446275  1.0
  O  O23  1  0.54712527  0.41236127  0.36446275  1.0
  O  O24  1  0.75845960  -0.10717432  0.44509260  1.0
  O  O25  1  1.10717432  0.24154040  0.94509260  1.0
  O  O26  1  0.89282568  0.75845960  0.05490740  1.0
  O  O27  1  0.24154040  0.10717432  0.55490740  1.0
  O  O28  1  0.82710335  0.07844073  0.63895349  1.0
  O  O29  1  0.92155927  0.17289665  0.13895349  1.0
  O  O30  1  1.07844073  0.82710335  0.86104651  1.0
  O  O31  1  0.17289665  -0.07844073  0.36104651  1.0
  O  O32  1  0.36108617  -0.29043403  0.91387507  1.0
  O  O33  1  1.29043403  0.63891383  0.41387507  1.0
  O  O34  1  0.70956597  0.36108617  0.58612493  1.0
  O  O35  1  0.63891383  0.29043403  0.08612493  1.0
  O  O36  1  0.36732943  -0.12155074  0.58404418  1.0
  O  O37  1  1.12155074  0.63267057  0.08404418  1.0
  O  O38  1  0.87844926  0.36732943  0.91595582  1.0
  O  O39  1  0.63267057  0.12155074  0.41595582  1.0
