# generated using pymatgen
data_RbBO2
_symmetry_space_group_name_H-M   'P 1'
_cell_length_a   8.12828324
_cell_length_b   8.12828324
_cell_length_c   8.12828324
_cell_angle_alpha   109.72843958
_cell_angle_beta   109.72843958
_cell_angle_gamma   109.72843958
_symmetry_Int_Tables_number   1
_chemical_formula_structural   RbBO2
_chemical_formula_sum   'Rb6 B6 O12'
_cell_volume   409.41965416
_cell_formula_units_Z   6
loop_
 _symmetry_equiv_pos_site_id
 _symmetry_equiv_pos_as_xyz
  1  'x, y, z'
loop_
 _atom_site_type_symbol
 _atom_site_label
 _atom_site_symmetry_multiplicity
 _atom_site_fract_x
 _atom_site_fract_y
 _atom_site_fract_z
 _atom_site_occupancy
  Rb  Rb0  1  1.31004342  -0.25000000  0.18995658  1.0
  Rb  Rb1  1  0.81004342  0.68995658  0.25000000  1.0
  Rb  Rb2  1  1.25000000  0.81004342  0.68995658  1.0
  Rb  Rb3  1  0.75000000  1.18995658  0.31004342  1.0
  Rb  Rb4  1  0.68995658  0.25000000  -0.18995658  1.0
  Rb  Rb5  1  0.18995658  0.31004342  -0.25000000  1.0
  B  B6  1  0.64057722  0.75000000  -0.14057722  1.0
  B  B7  1  1.14057722  0.35942278  0.25000000  1.0
  B  B8  1  1.25000000  1.14057722  0.35942278  1.0
  B  B9  1  0.75000000  0.85942278  0.64057722  1.0
  B  B10  1  0.35942278  0.25000000  0.14057722  1.0
  B  B11  1  0.85942278  -0.35942278  -0.25000000  1.0
  O  O12  1  0.54095274  0.75000000  -0.04095274  1.0
  O  O13  1  1.04095274  0.45904726  0.25000000  1.0
  O  O14  1  1.25000000  1.04095274  0.45904726  1.0
  O  O15  1  0.75000000  0.95904726  0.54095274  1.0
  O  O16  1  0.45904726  0.25000000  0.04095274  1.0
  O  O17  1  0.95904726  -0.45904726  -0.25000000  1.0
  O  O18  1  0.85470712  0.75000000  0.64529288  1.0
  O  O19  1  1.35470712  0.14529288  0.25000000  1.0
  O  O20  1  0.25000000  0.35470712  0.14529288  1.0
  O  O21  1  0.75000000  0.64529288  -0.14529288  1.0
  O  O22  1  1.14529288  1.25000000  0.35470712  1.0
  O  O23  1  0.64529288  -0.14529288  -0.25000000  1.0
