# generated using pymatgen
data_Al2HgTe4
_symmetry_space_group_name_H-M   'P 1'
_cell_length_a   6.02603134
_cell_length_b   6.02603134
_cell_length_c   6.46359922
_cell_angle_alpha   90.00000000
_cell_angle_beta   90.00000000
_cell_angle_gamma   90.00000000
_symmetry_Int_Tables_number   1
_chemical_formula_structural   Al2HgTe4
_chemical_formula_sum   'Al2 Hg1 Te4'
_cell_volume   234.71302559
_cell_formula_units_Z   1
loop_
 _symmetry_equiv_pos_site_id
 _symmetry_equiv_pos_as_xyz
  1  'x, y, z'
loop_
 _atom_site_type_symbol
 _atom_site_label
 _atom_site_symmetry_multiplicity
 _atom_site_fract_x
 _atom_site_fract_y
 _atom_site_fract_z
 _atom_site_occupancy
  Al  Al0  1  0.00000000  0.50000000  0.50000000  1.0
  Al  Al1  1  0.50000000  0.00000000  0.50000000  1.0
  Hg  Hg2  1  0.00000000  0.00000000  0.00000000  1.0
  Te  Te3  1  0.27648234  0.72351766  0.25194746  1.0
  Te  Te4  1  0.72351766  0.72351766  0.74805254  1.0
  Te  Te5  1  0.27648234  0.27648234  0.74805254  1.0
  Te  Te6  1  0.72351766  0.27648234  0.25194746  1.0
