# generated using pymatgen
data_Pr(ClO4)3
_symmetry_space_group_name_H-M   'P 1'
_cell_length_a   9.92019119
_cell_length_b   9.92019119
_cell_length_c   5.79047032
_cell_angle_alpha   90.00000000
_cell_angle_beta   90.00000000
_cell_angle_gamma   120.00000000
_symmetry_Int_Tables_number   1
_chemical_formula_structural   Pr(ClO4)3
_chemical_formula_sum   'Pr2 Cl6 O24'
_cell_volume   493.49704503
_cell_formula_units_Z   2
loop_
 _symmetry_equiv_pos_site_id
 _symmetry_equiv_pos_as_xyz
  1  'x, y, z'
loop_
 _atom_site_type_symbol
 _atom_site_label
 _atom_site_symmetry_multiplicity
 _atom_site_fract_x
 _atom_site_fract_y
 _atom_site_fract_z
 _atom_site_occupancy
  Pr  Pr0  1  0.66666667  0.33333333  0.25000000  1.0
  Pr  Pr1  1  0.33333333  0.66666667  0.75000000  1.0
  Cl  Cl2  1  0.30054071  0.90660222  0.25000000  1.0
  Cl  Cl3  1  0.90660222  0.60606150  0.75000000  1.0
  Cl  Cl4  1  0.60606150  0.69945929  0.25000000  1.0
  Cl  Cl5  1  0.09339778  0.39393850  0.25000000  1.0
  Cl  Cl6  1  0.69945929  0.09339778  0.75000000  1.0
  Cl  Cl7  1  0.39393850  0.30054071  0.75000000  1.0
  O  O8  1  0.34955886  0.85272732  0.45574351  1.0
  O  O9  1  0.34955886  0.85272732  0.04425649  1.0
  O  O10  1  0.85272732  0.50316846  0.95574351  1.0
  O  O11  1  0.85272732  0.50316846  0.54425649  1.0
  O  O12  1  0.50316846  0.65044114  0.45574351  1.0
  O  O13  1  0.50316846  0.65044114  0.04425649  1.0
  O  O14  1  0.14727268  0.49683154  0.45574351  1.0
  O  O15  1  0.14727268  0.49683154  0.04425649  1.0
  O  O16  1  0.65044114  0.14727268  0.95574351  1.0
  O  O17  1  0.65044114  0.14727268  0.54425649  1.0
  O  O18  1  0.49683154  0.34955886  0.95574351  1.0
  O  O19  1  0.49683154  0.34955886  0.54425649  1.0
  O  O20  1  0.13627258  0.84734848  0.25000000  1.0
  O  O21  1  0.84734848  0.71107590  0.75000000  1.0
  O  O22  1  0.71107590  0.86372742  0.25000000  1.0
  O  O23  1  0.15265152  0.28892410  0.25000000  1.0
  O  O24  1  0.86372742  0.15265152  0.75000000  1.0
  O  O25  1  0.28892410  0.13627258  0.75000000  1.0
  O  O26  1  0.68980353  0.61328243  0.25000000  1.0
  O  O27  1  0.61328243  0.92347889  0.75000000  1.0
  O  O28  1  0.92347889  0.31019647  0.25000000  1.0
  O  O29  1  0.38671757  0.07652111  0.25000000  1.0
  O  O30  1  0.31019647  0.38671757  0.75000000  1.0
  O  O31  1  0.07652111  0.68980353  0.75000000  1.0
