# generated using pymatgen
data_Si(SnS2)2
_symmetry_space_group_name_H-M   'P 1'
_cell_length_a   8.58123329
_cell_length_b   8.54350334
_cell_length_c   11.32599997
_cell_angle_alpha   90.00000000
_cell_angle_beta   116.87922705
_cell_angle_gamma   90.00000000
_symmetry_Int_Tables_number   1
_chemical_formula_structural   Si(SnS2)2
_chemical_formula_sum   'Si4 Sn8 S16'
_cell_volume   740.64205780
_cell_formula_units_Z   4
loop_
 _symmetry_equiv_pos_site_id
 _symmetry_equiv_pos_as_xyz
  1  'x, y, z'
loop_
 _atom_site_type_symbol
 _atom_site_label
 _atom_site_symmetry_multiplicity
 _atom_site_fract_x
 _atom_site_fract_y
 _atom_site_fract_z
 _atom_site_occupancy
  Si  Si0  1  0.70483154  0.28120330  0.52082503  1.0
  Si  Si1  1  0.29516846  0.78120330  0.97917497  1.0
  Si  Si2  1  0.29516846  0.71879670  0.47917497  1.0
  Si  Si3  1  0.70483154  0.21879670  0.02082503  1.0
  Sn  Sn4  1  0.46212325  0.14597003  0.69797860  1.0
  Sn  Sn5  1  0.53787675  0.64597003  0.80202140  1.0
  Sn  Sn6  1  0.53787675  0.85402997  0.30202140  1.0
  Sn  Sn7  1  0.46212325  0.35402997  0.19797860  1.0
  Sn  Sn8  1  -0.00875662  0.25515854  0.89316426  1.0
  Sn  Sn9  1  1.00875662  0.75515854  0.60683574  1.0
  Sn  Sn10  1  1.00875662  0.74484146  0.10683574  1.0
  Sn  Sn11  1  -0.00875662  0.24484146  0.39316426  1.0
  S  S12  1  0.69532243  0.37433953  0.69475740  1.0
  S  S13  1  0.30467757  0.87433953  0.80524260  1.0
  S  S14  1  0.30467757  0.62566047  0.30524260  1.0
  S  S15  1  0.69532243  0.12566047  0.19475740  1.0
  S  S16  1  0.75416273  0.46128573  0.40669279  1.0
  S  S17  1  0.24583727  0.96128573  0.09330721  1.0
  S  S18  1  0.24583727  0.53871427  0.59330721  1.0
  S  S19  1  0.75416273  0.03871427  0.90669279  1.0
  S  S20  1  0.45729522  0.18360806  0.39745109  1.0
  S  S21  1  0.54270478  0.68360806  0.10254891  1.0
  S  S22  1  0.54270478  0.81639194  0.60254891  1.0
  S  S23  1  0.45729522  0.31639194  0.89745109  1.0
  S  S24  1  0.92386643  0.12831005  0.58252267  1.0
  S  S25  1  0.07613357  0.62831005  0.91747733  1.0
  S  S26  1  0.07613357  0.87168995  0.41747733  1.0
  S  S27  1  0.92386643  0.37168995  0.08252267  1.0
