# generated using pymatgen
data_RuCl3
_symmetry_space_group_name_H-M   'P 1'
_cell_length_a   6.04838610
_cell_length_b   6.04838610
_cell_length_c   6.84361244
_cell_angle_alpha   81.86585318
_cell_angle_beta   98.13414682
_cell_angle_gamma   60.02639269
_symmetry_Int_Tables_number   1
_chemical_formula_structural   RuCl3
_chemical_formula_sum   'Ru2 Cl6'
_cell_volume   208.01794910
_cell_formula_units_Z   2
loop_
 _symmetry_equiv_pos_site_id
 _symmetry_equiv_pos_as_xyz
  1  'x, y, z'
loop_
 _atom_site_type_symbol
 _atom_site_label
 _atom_site_symmetry_multiplicity
 _atom_site_fract_x
 _atom_site_fract_y
 _atom_site_fract_z
 _atom_site_occupancy
  Ru  Ru0  1  0.83340141  -0.16659859  0.00000000  1.0
  Ru  Ru1  1  1.16659859  0.16659859  0.00000000  1.0
  Cl  Cl2  1  0.43490630  -0.08163973  0.79643040  1.0
  Cl  Cl3  1  1.08163973  0.56509370  0.79643040  1.0
  Cl  Cl4  1  0.91836027  -0.56509370  0.20356960  1.0
  Cl  Cl5  1  1.56509370  0.08163973  0.20356960  1.0
  Cl  Cl6  1  0.78812372  -0.78812372  0.79595364  1.0
  Cl  Cl7  1  0.21187628  -0.21187628  0.20404636  1.0
