# generated using pymatgen
data_Mg3Mn
_symmetry_space_group_name_H-M   'P 1'
_cell_length_a   4.77439342
_cell_length_b   4.71447761
_cell_length_c   8.60236948
_cell_angle_alpha   90.00000000
_cell_angle_beta   105.28845978
_cell_angle_gamma   90.00000000
_symmetry_Int_Tables_number   1
_chemical_formula_structural   Mg3Mn
_chemical_formula_sum   'Mg6 Mn2'
_cell_volume   186.77634744
_cell_formula_units_Z   2
loop_
 _symmetry_equiv_pos_site_id
 _symmetry_equiv_pos_as_xyz
  1  'x, y, z'
loop_
 _atom_site_type_symbol
 _atom_site_label
 _atom_site_symmetry_multiplicity
 _atom_site_fract_x
 _atom_site_fract_y
 _atom_site_fract_z
 _atom_site_occupancy
  Mg  Mg0  1  0.56497088  0.25000000  0.63158596  1.0
  Mg  Mg1  1  0.43502912  0.75000000  0.36841404  1.0
  Mg  Mg2  1  0.94793289  0.25000000  0.38699058  1.0
  Mg  Mg3  1  0.05206711  0.75000000  0.61300942  1.0
  Mg  Mg4  1  0.74726930  0.25000000  0.00515186  1.0
  Mg  Mg5  1  0.25273070  0.75000000  0.99484814  1.0
  Mn  Mn6  1  0.14680231  0.25000000  0.80034045  1.0
  Mn  Mn7  1  0.85319769  0.75000000  0.19965955  1.0
