# generated using pymatgen
data_Lu3Ni
_symmetry_space_group_name_H-M   'P 1'
_cell_length_a   6.69374900
_cell_length_b   9.26287017
_cell_length_c   6.18645530
_cell_angle_alpha   90.00000000
_cell_angle_beta   90.00000000
_cell_angle_gamma   90.00000000
_symmetry_Int_Tables_number   1
_chemical_formula_structural   Lu3Ni
_chemical_formula_sum   'Lu12 Ni4'
_cell_volume   383.58081680
_cell_formula_units_Z   4
loop_
 _symmetry_equiv_pos_site_id
 _symmetry_equiv_pos_as_xyz
  1  'x, y, z'
loop_
 _atom_site_type_symbol
 _atom_site_label
 _atom_site_symmetry_multiplicity
 _atom_site_fract_x
 _atom_site_fract_y
 _atom_site_fract_z
 _atom_site_occupancy
  Lu  Lu0  1  0.31835762  0.93650425  0.68154263  1.0
  Lu  Lu1  1  0.31835762  0.56349575  0.68154263  1.0
  Lu  Lu2  1  0.81835762  0.93650425  0.81845737  1.0
  Lu  Lu3  1  0.81835762  0.56349575  0.81845737  1.0
  Lu  Lu4  1  0.68164238  0.43650425  0.31845737  1.0
  Lu  Lu5  1  0.68164238  0.06349575  0.31845737  1.0
  Lu  Lu6  1  0.18164238  0.43650425  0.18154263  1.0
  Lu  Lu7  1  0.18164238  0.06349575  0.18154263  1.0
  Lu  Lu8  1  0.46912917  0.75000000  0.13181356  1.0
  Lu  Lu9  1  0.96912917  0.75000000  0.36818644  1.0
  Lu  Lu10  1  0.53087083  0.25000000  0.86818644  1.0
  Lu  Lu11  1  0.03087083  0.25000000  0.63181356  1.0
  Ni  Ni12  1  0.10429287  0.75000000  0.95364428  1.0
  Ni  Ni13  1  0.60429287  0.75000000  0.54635572  1.0
  Ni  Ni14  1  0.89570713  0.25000000  0.04635572  1.0
  Ni  Ni15  1  0.39570713  0.25000000  0.45364428  1.0
