# generated using pymatgen
data_Ni2P2O7
_symmetry_space_group_name_H-M   'P 1'
_cell_length_a   5.28434383
_cell_length_b   5.28434383
_cell_length_c   4.51473396
_cell_angle_alpha   82.05799750
_cell_angle_beta   97.94200250
_cell_angle_gamma   75.93656297
_symmetry_Int_Tables_number   1
_chemical_formula_structural   Ni2P2O7
_chemical_formula_sum   'Ni2 P2 O7'
_cell_volume   119.16803136
_cell_formula_units_Z   1
loop_
 _symmetry_equiv_pos_site_id
 _symmetry_equiv_pos_as_xyz
  1  'x, y, z'
loop_
 _atom_site_type_symbol
 _atom_site_label
 _atom_site_symmetry_multiplicity
 _atom_site_fract_x
 _atom_site_fract_y
 _atom_site_fract_z
 _atom_site_occupancy
  P  P0  1  0.77981208  -0.77981208  0.09300365  1.0
  P  P1  1  0.22018792  -0.22018792  0.90699635  1.0
  O  O2  1  0.00000000  0.00000000  0.00000000  1.0
  O  O3  1  0.92589618  -0.61622182  0.27744773  1.0
  O  O4  1  1.61622182  0.07410382  0.27744773  1.0
  O  O5  1  1.07410382  0.61622182  0.72255227  1.0
  O  O6  1  0.38377818  -0.07410382  0.72255227  1.0
  O  O7  1  0.61902478  -0.61902478  0.78251429  1.0
  O  O8  1  0.38097522  -0.38097522  0.21748571  1.0
  Ni  Ni9  1  1.31435615  0.31435615  0.50000000  1.0
  Ni  Ni10  1  0.68564385  -0.31435615  0.50000000  1.0
