# generated using pymatgen
data_YSnPt
_symmetry_space_group_name_H-M   'P 1'
_cell_length_a   7.22200104
_cell_length_b   4.56579227
_cell_length_c   8.06305909
_cell_angle_alpha   90.00000000
_cell_angle_beta   90.00000000
_cell_angle_gamma   90.00000000
_symmetry_Int_Tables_number   1
_chemical_formula_structural   YSnPt
_chemical_formula_sum   'Y4 Sn4 Pt4'
_cell_volume   265.87257252
_cell_formula_units_Z   4
loop_
 _symmetry_equiv_pos_site_id
 _symmetry_equiv_pos_as_xyz
  1  'x, y, z'
loop_
 _atom_site_type_symbol
 _atom_site_label
 _atom_site_symmetry_multiplicity
 _atom_site_fract_x
 _atom_site_fract_y
 _atom_site_fract_z
 _atom_site_occupancy
  Y  Y0  1  0.98987238  0.75000000  0.69602799  1.0
  Y  Y1  1  0.48987238  0.75000000  0.80397201  1.0
  Y  Y2  1  0.01012762  0.25000000  0.30397201  1.0
  Y  Y3  1  0.51012762  0.25000000  0.19602799  1.0
  Sn  Sn4  1  0.82114729  0.75000000  0.08442261  1.0
  Sn  Sn5  1  0.32114729  0.75000000  0.41557739  1.0
  Sn  Sn6  1  0.17885271  0.25000000  0.91557739  1.0
  Sn  Sn7  1  0.67885271  0.25000000  0.58442261  1.0
  Pt  Pt8  1  0.71721069  0.75000000  0.40927412  1.0
  Pt  Pt9  1  0.21721069  0.75000000  0.09072588  1.0
  Pt  Pt10  1  0.28278931  0.25000000  0.59072588  1.0
  Pt  Pt11  1  0.78278931  0.25000000  0.90927412  1.0
