# generated using pymatgen
data_GaAgF4
_symmetry_space_group_name_H-M   'P 1'
_cell_length_a   7.44586284
_cell_length_b   11.73946246
_cell_length_c   7.64134897
_cell_angle_alpha   90.00000000
_cell_angle_beta   90.00000000
_cell_angle_gamma   90.00000000
_symmetry_Int_Tables_number   1
_chemical_formula_structural   GaAgF4
_chemical_formula_sum   'Ga8 Ag8 F32'
_cell_volume   667.93357850
_cell_formula_units_Z   8
loop_
 _symmetry_equiv_pos_site_id
 _symmetry_equiv_pos_as_xyz
  1  'x, y, z'
loop_
 _atom_site_type_symbol
 _atom_site_label
 _atom_site_symmetry_multiplicity
 _atom_site_fract_x
 _atom_site_fract_y
 _atom_site_fract_z
 _atom_site_occupancy
  Ga  Ga0  1  0.74975026  0.99898336  0.99793031  1.0
  Ga  Ga1  1  0.24975026  0.00101664  0.49793031  1.0
  Ga  Ga2  1  0.25024974  0.99898336  0.99793031  1.0
  Ga  Ga3  1  0.75024974  0.00101664  0.49793031  1.0
  Ga  Ga4  1  0.75025151  0.50103320  0.24838778  1.0
  Ga  Ga5  1  0.25025151  0.49896680  0.74838778  1.0
  Ga  Ga6  1  0.24974849  0.50103320  0.24838778  1.0
  Ga  Ga7  1  0.74974849  0.49896680  0.74838778  1.0
  Ag  Ag8  1  0.50000000  0.72876207  0.49954622  1.0
  Ag  Ag9  1  0.00000000  0.27123793  -0.00045378  1.0
  Ag  Ag10  1  0.50000000  0.72375496  -0.00294233  1.0
  Ag  Ag11  1  0.00000000  0.27624504  0.49705767  1.0
  Ag  Ag12  1  0.50000000  0.22880856  0.24679136  1.0
  Ag  Ag13  1  0.00000000  0.77119144  0.74679136  1.0
  Ag  Ag14  1  0.50000000  0.22376706  0.74920600  1.0
  Ag  Ag15  1  0.00000000  0.77623294  0.24920600  1.0
  F  F16  1  0.69648264  0.65693229  0.25450961  1.0
  F  F17  1  0.19648264  0.34306771  0.75450961  1.0
  F  F18  1  0.30351736  0.65693229  0.25450961  1.0
  F  F19  1  0.80351736  0.34306771  0.75450961  1.0
  F  F20  1  0.80059059  0.50149191  0.49844026  1.0
  F  F21  1  0.30059059  0.49850809  0.99844026  1.0
  F  F22  1  0.19940941  0.50149191  0.49844026  1.0
  F  F23  1  0.69940941  0.49850809  0.99844026  1.0
  F  F24  1  0.80045776  1.00140055  0.24788456  1.0
  F  F25  1  0.30045776  -0.00140055  0.74788456  1.0
  F  F26  1  0.19954224  1.00140055  0.24788456  1.0
  F  F27  1  0.69954224  -0.00140055  0.74788456  1.0
  F  F28  1  0.80443798  0.84503834  0.50429834  1.0
  F  F29  1  0.30443798  0.15496166  1.00429834  1.0
  F  F30  1  0.19556202  0.84503834  0.50429834  1.0
  F  F31  1  0.69556202  0.15496166  1.00429834  1.0
  F  F32  1  0.80361003  0.84309624  0.99172553  1.0
  F  F33  1  0.30361003  0.15690376  0.49172553  1.0
  F  F34  1  0.19638997  0.84309624  0.99172553  1.0
  F  F35  1  0.69638997  0.15690376  0.49172553  1.0
  F  F36  1  0.80435113  0.34503550  0.24210475  1.0
  F  F37  1  0.30435113  0.65496450  0.74210475  1.0
  F  F38  1  0.19564887  0.34503550  0.24210475  1.0
  F  F39  1  0.69564887  0.65496450  0.74210475  1.0
  F  F40  1  0.50000000  0.95952310  0.45092298  1.0
  F  F41  1  0.00000000  0.04047690  0.95092298  1.0
  F  F42  1  0.50000000  0.95722670  0.04495372  1.0
  F  F43  1  0.00000000  0.04277330  0.54495372  1.0
  F  F44  1  0.50000000  0.45964804  0.29556135  1.0
  F  F45  1  0.00000000  0.54035196  0.79556135  1.0
  F  F46  1  0.50000000  0.45731346  0.70119845  1.0
  F  F47  1  0.00000000  0.54268654  0.20119845  1.0
