# generated using pymatgen
data_Na4Cd2Si3O10
_symmetry_space_group_name_H-M   'P 1'
_cell_length_a   5.82907503
_cell_length_b   5.82907503
_cell_length_c   17.93768897
_cell_angle_alpha   81.61849117
_cell_angle_beta   98.38150883
_cell_angle_gamma   119.06102791
_symmetry_Int_Tables_number   1
_chemical_formula_structural   Na4Cd2Si3O10
_chemical_formula_sum   'Na8 Cd4 Si6 O20'
_cell_volume   525.08191270
_cell_formula_units_Z   2
loop_
 _symmetry_equiv_pos_site_id
 _symmetry_equiv_pos_as_xyz
  1  'x, y, z'
loop_
 _atom_site_type_symbol
 _atom_site_label
 _atom_site_symmetry_multiplicity
 _atom_site_fract_x
 _atom_site_fract_y
 _atom_site_fract_z
 _atom_site_occupancy
  Na  Na0  1  1.72420612  0.07067932  0.25769006  1.0
  Na  Na1  1  0.92932068  -0.72420612  0.75769006  1.0
  Na  Na2  1  1.07067932  0.72420612  0.24230994  1.0
  Na  Na3  1  0.27579388  -0.07067932  0.74230994  1.0
  Na  Na4  1  1.67479836  0.18211744  0.94013514  1.0
  Na  Na5  1  0.81788256  -0.67479836  0.44013514  1.0
  Na  Na6  1  1.18211744  0.67479836  0.55986486  1.0
  Na  Na7  1  0.32520164  -0.18211744  0.05986486  1.0
  Cd  Cd8  1  0.50028510  -0.30459897  0.41471197  1.0
  Cd  Cd9  1  1.30459897  0.49971490  0.91471197  1.0
  Cd  Cd10  1  0.69540103  -0.49971490  0.08528803  1.0
  Cd  Cd11  1  1.49971490  0.30459897  0.58528803  1.0
  Si  Si12  1  1.17184302  0.04087045  0.39840353  1.0
  Si  Si13  1  0.95912955  -0.17184302  0.89840353  1.0
  Si  Si14  1  1.04087045  0.17184302  0.10159647  1.0
  Si  Si15  1  0.82815698  -0.04087045  0.60159647  1.0
  Si  Si16  1  1.38172074  0.38172074  0.25000000  1.0
  Si  Si17  1  0.61827926  -0.38172074  0.75000000  1.0
  O  O18  1  1.88744843  0.03966604  0.38559705  1.0
  O  O19  1  0.96033396  -0.88744843  0.88559705  1.0
  O  O20  1  1.03966604  0.88744843  0.11440295  1.0
  O  O21  1  0.11255157  -0.03966604  0.61440295  1.0
  O  O22  1  0.41680943  -0.36375993  0.28665605  1.0
  O  O23  1  1.36375993  0.58319057  0.78665605  1.0
  O  O24  1  0.63624007  -0.58319057  0.21334395  1.0
  O  O25  1  1.58319057  0.36375993  0.71334395  1.0
  O  O26  1  1.75150391  0.14896169  0.07263492  1.0
  O  O27  1  0.85103831  -0.75150391  0.57263492  1.0
  O  O28  1  1.14896169  0.75150391  0.42736508  1.0
  O  O29  1  0.24849609  -0.14896169  0.92736508  1.0
  O  O30  1  1.29394320  0.11547196  0.31265315  1.0
  O  O31  1  0.88452804  -0.29394320  0.81265315  1.0
  O  O32  1  1.11547196  0.29394320  0.18734685  1.0
  O  O33  1  0.70605680  -0.11547196  0.68734685  1.0
  O  O34  1  1.39461347  0.27210662  0.45170597  1.0
  O  O35  1  0.72789338  -0.39461347  0.95170597  1.0
  O  O36  1  1.27210662  0.39461347  0.04829403  1.0
  O  O37  1  0.60538653  -0.27210662  0.54829403  1.0
