# generated using pymatgen
data_H4NF3
_symmetry_space_group_name_H-M   'P 1'
_cell_length_a   8.69029042
_cell_length_b   8.69029042
_cell_length_c   8.69029042
_cell_angle_alpha   124.53718600
_cell_angle_beta   124.53718600
_cell_angle_gamma   82.30602477
_symmetry_Int_Tables_number   1
_chemical_formula_structural   H4NF3
_chemical_formula_sum   'H16 N4 F12'
_cell_volume   428.00503144
_cell_formula_units_Z   4
loop_
 _symmetry_equiv_pos_site_id
 _symmetry_equiv_pos_as_xyz
  1  'x, y, z'
loop_
 _atom_site_type_symbol
 _atom_site_label
 _atom_site_symmetry_multiplicity
 _atom_site_fract_x
 _atom_site_fract_y
 _atom_site_fract_z
 _atom_site_occupancy
  N  N0  1  0.37500000  0.62500000  0.75000000  1.0
  N  N1  1  0.87500000  0.62500000  1.25000000  1.0
  N  N2  1  0.37500000  1.12500000  0.75000000  1.0
  N  N3  1  0.37500000  0.62500000  0.25000000  1.0
  F  F4  1  1.05918585  0.95175647  1.63668667  1.0
  F  F5  1  0.43493020  0.82750081  1.13668667  1.0
  F  F6  1  1.04824353  0.68493020  1.10742939  1.0
  F  F7  1  1.17249919  1.30918585  1.60742939  1.0
  F  F8  1  0.31506980  0.42249919  0.36331333  1.0
  F  F9  1  0.69081415  0.29824353  0.86331333  1.0
  F  F10  1  0.57750081  0.94081415  0.89257061  1.0
  F  F11  1  0.70175647  0.56506980  0.39257061  1.0
  F  F12  1  0.87500000  0.12500000  0.75000000  1.0
  F  F13  1  0.37500000  0.12500000  0.25000000  1.0
  F  F14  1  0.87500000  0.62500000  0.75000000  1.0
  F  F15  1  0.87500000  1.12500000  1.25000000  1.0
  H  H16  1  0.35055443  0.53191580  0.57849901  1.0
  H  H17  1  0.79658321  0.47794459  1.07849901  1.0
  H  H18  1  0.46808420  1.04658321  0.81863862  1.0
  H  H19  1  0.52205541  0.60055443  0.31863862  1.0
  H  H20  1  0.95341679  0.77205541  1.42150099  1.0
  H  H21  1  0.39944557  0.71808420  0.92150099  1.0
  H  H22  1  1.22794459  0.64944557  1.18136138  1.0
  H  H23  1  1.28191580  1.20341679  1.68136138  1.0
  H  H24  1  0.97224998  1.03490990  1.69260434  1.0
  H  H25  1  0.40769443  0.97035436  1.19260434  1.0
  H  H26  1  0.96509010  0.65769443  0.93734008  1.0
  H  H27  1  1.02964564  1.22224998  1.43734008  1.0
  H  H28  1  0.34230557  0.27964564  0.30739566  1.0
  H  H29  1  0.77775002  0.21509010  0.80739566  1.0
  H  H30  1  0.72035436  1.02775002  1.06265992  1.0
  H  H31  1  0.78490990  0.59230557  0.56265992  1.0
