# generated using pymatgen
data_OsO2
_symmetry_space_group_name_H-M   'P 1'
_cell_length_a   4.91473354
_cell_length_b   4.91473354
_cell_length_c   4.91473354
_cell_angle_alpha   90.00000000
_cell_angle_beta   90.00000000
_cell_angle_gamma   90.00000000
_symmetry_Int_Tables_number   1
_chemical_formula_structural   OsO2
_chemical_formula_sum   'Os4 O8'
_cell_volume   118.71345138
_cell_formula_units_Z   4
loop_
 _symmetry_equiv_pos_site_id
 _symmetry_equiv_pos_as_xyz
  1  'x, y, z'
loop_
 _atom_site_type_symbol
 _atom_site_label
 _atom_site_symmetry_multiplicity
 _atom_site_fract_x
 _atom_site_fract_y
 _atom_site_fract_z
 _atom_site_occupancy
  Os  Os0  1  0.50000000  0.00000000  0.50000000  1.0
  Os  Os1  1  0.50000000  0.50000000  0.00000000  1.0
  Os  Os2  1  0.00000000  0.00000000  0.00000000  1.0
  Os  Os3  1  0.00000000  0.50000000  0.50000000  1.0
  O  O4  1  0.15131072  0.65131072  0.84868928  1.0
  O  O5  1  0.15131072  0.84868928  0.34868928  1.0
  O  O6  1  0.65131072  0.65131072  0.65131072  1.0
  O  O7  1  0.65131072  0.84868928  0.15131072  1.0
  O  O8  1  0.84868928  0.15131072  0.65131072  1.0
  O  O9  1  0.84868928  0.34868928  0.15131072  1.0
  O  O10  1  0.34868928  0.15131072  0.84868928  1.0
  O  O11  1  0.34868928  0.34868928  0.34868928  1.0
