# generated using pymatgen
data_Y3ReO8
_symmetry_space_group_name_H-M   'P 1'
_cell_length_a   7.27151794
_cell_length_b   6.02370903
_cell_length_c   14.50857346
_cell_angle_alpha   90.00000000
_cell_angle_beta   111.37470560
_cell_angle_gamma   90.00000000
_symmetry_Int_Tables_number   1
_chemical_formula_structural   Y3ReO8
_chemical_formula_sum   'Y12 Re4 O32'
_cell_volume   591.78586093
_cell_formula_units_Z   4
loop_
 _symmetry_equiv_pos_site_id
 _symmetry_equiv_pos_as_xyz
  1  'x, y, z'
loop_
 _atom_site_type_symbol
 _atom_site_label
 _atom_site_symmetry_multiplicity
 _atom_site_fract_x
 _atom_site_fract_y
 _atom_site_fract_z
 _atom_site_occupancy
  Y  Y0  1  0.89182702  0.18919603  0.33317437  1.0
  Y  Y1  1  0.89182702  0.31080397  0.83317437  1.0
  Y  Y2  1  0.10817298  0.68919603  0.16682563  1.0
  Y  Y3  1  0.10817298  0.81080397  0.66682563  1.0
  Y  Y4  1  0.40694542  0.23968541  0.29769934  1.0
  Y  Y5  1  0.40694542  0.26031459  0.79769934  1.0
  Y  Y6  1  0.59305458  0.73968541  0.20230066  1.0
  Y  Y7  1  0.59305458  0.76031459  0.70230066  1.0
  Y  Y8  1  0.33950230  0.19765334  0.05524883  1.0
  Y  Y9  1  0.33950230  0.30234666  0.55524883  1.0
  Y  Y10  1  0.66049770  0.69765334  0.44475117  1.0
  Y  Y11  1  0.66049770  0.80234666  0.94475117  1.0
  Re  Re12  1  0.82085610  0.24537876  0.09070598  1.0
  Re  Re13  1  0.82085610  0.25462124  0.59070598  1.0
  Re  Re14  1  0.17914390  0.74537876  0.40929402  1.0
  Re  Re15  1  0.17914390  0.75462124  0.90929402  1.0
  O  O16  1  0.97427741  0.30479751  0.01961833  1.0
  O  O17  1  0.97427741  0.19520249  0.51961833  1.0
  O  O18  1  0.02572259  0.80479751  0.48038167  1.0
  O  O19  1  0.02572259  0.69520249  0.98038167  1.0
  O  O20  1  0.96801617  0.79275405  0.28632390  1.0
  O  O21  1  0.96801617  0.70724595  0.78632390  1.0
  O  O22  1  0.03198383  0.29275405  0.21367610  1.0
  O  O23  1  0.03198383  0.20724595  0.71367610  1.0
  O  O24  1  0.88057284  0.94549607  0.08713041  1.0
  O  O25  1  0.88057284  0.55450393  0.58713041  1.0
  O  O26  1  0.11942716  0.44549607  0.41286959  1.0
  O  O27  1  0.11942716  0.05450393  0.91286959  1.0
  O  O28  1  0.68665547  0.46909715  0.32709969  1.0
  O  O29  1  0.68665547  0.03090285  0.82709969  1.0
  O  O30  1  0.31334453  0.96909715  0.17290031  1.0
  O  O31  1  0.31334453  0.53090285  0.67290031  1.0
  O  O32  1  0.66829380  0.14297507  0.17027388  1.0
  O  O33  1  0.66829380  0.35702493  0.67027388  1.0
  O  O34  1  0.33170620  0.64297507  0.32972612  1.0
  O  O35  1  0.33170620  0.85702493  0.82972612  1.0
  O  O36  1  0.64868772  0.96900074  0.34239146  1.0
  O  O37  1  0.64868772  0.53099926  0.84239146  1.0
  O  O38  1  0.35131228  0.46900074  0.15760854  1.0
  O  O39  1  0.35131228  0.03099926  0.65760854  1.0
  O  O40  1  0.58480278  0.30467110  0.48084463  1.0
  O  O41  1  0.58480278  0.19532890  0.98084463  1.0
  O  O42  1  0.41519722  0.80467110  0.01915537  1.0
  O  O43  1  0.41519722  0.69532890  0.51915537  1.0
  O  O44  1  0.25203313  0.04425106  0.40266951  1.0
  O  O45  1  0.25203313  0.45574894  0.90266951  1.0
  O  O46  1  0.74796687  0.54425106  0.09733049  1.0
  O  O47  1  0.74796687  0.95574894  0.59733049  1.0
