# generated using pymatgen
data_Sr2B2O5
_symmetry_space_group_name_H-M   'P 1'
_cell_length_a   7.81385784
_cell_length_b   5.38334992
_cell_length_c   12.04388958
_cell_angle_alpha   90.00000000
_cell_angle_beta   91.90823204
_cell_angle_gamma   90.00000000
_symmetry_Int_Tables_number   1
_chemical_formula_structural   Sr2B2O5
_chemical_formula_sum   'Sr8 B8 O20'
_cell_volume   506.34202312
_cell_formula_units_Z   4
loop_
 _symmetry_equiv_pos_site_id
 _symmetry_equiv_pos_as_xyz
  1  'x, y, z'
loop_
 _atom_site_type_symbol
 _atom_site_label
 _atom_site_symmetry_multiplicity
 _atom_site_fract_x
 _atom_site_fract_y
 _atom_site_fract_z
 _atom_site_occupancy
  Sr  Sr0  1  0.87764641  0.40823968  0.16073252  1.0
  Sr  Sr1  1  0.87764641  0.09176032  0.66073252  1.0
  Sr  Sr2  1  0.12235359  0.90823968  0.33926748  1.0
  Sr  Sr3  1  0.12235359  0.59176032  0.83926748  1.0
  Sr  Sr4  1  0.61709937  0.94540022  0.36681520  1.0
  Sr  Sr5  1  0.61709937  0.55459978  0.86681520  1.0
  Sr  Sr6  1  0.38290063  0.44540022  0.13318480  1.0
  Sr  Sr7  1  0.38290063  0.05459978  0.63318480  1.0
  B  B8  1  0.83974069  0.42783717  0.40411847  1.0
  B  B9  1  0.83974069  0.07216283  0.90411847  1.0
  B  B10  1  0.16025931  0.92783717  0.09588153  1.0
  B  B11  1  0.16025931  0.57216283  0.59588153  1.0
  B  B12  1  0.33656759  0.44957211  0.41561161  1.0
  B  B13  1  0.33656759  0.05042789  0.91561161  1.0
  B  B14  1  0.66343241  0.94957211  0.08438839  1.0
  B  B15  1  0.66343241  0.55042789  0.58438839  1.0
  O  O16  1  0.88928249  0.20858591  0.35751827  1.0
  O  O17  1  0.88928249  0.29141409  0.85751827  1.0
  O  O18  1  0.11071751  0.70858591  0.14248173  1.0
  O  O19  1  0.11071751  0.79141409  0.64248173  1.0
  O  O20  1  0.85513253  0.64847024  0.35039256  1.0
  O  O21  1  0.85513253  0.85152976  0.85039256  1.0
  O  O22  1  0.14486747  0.14847024  0.14960744  1.0
  O  O23  1  0.14486747  0.35152976  0.64960744  1.0
  O  O24  1  0.75866168  0.09956579  0.00795164  1.0
  O  O25  1  0.75866168  0.40043421  0.50795164  1.0
  O  O26  1  0.24133832  0.59956579  0.49204836  1.0
  O  O27  1  0.24133832  0.90043421  0.99204836  1.0
  O  O28  1  0.60152253  0.08941337  0.16914118  1.0
  O  O29  1  0.60152253  0.41058663  0.66914118  1.0
  O  O30  1  0.39847747  0.58941337  0.33085882  1.0
  O  O31  1  0.39847747  0.91058663  0.83085882  1.0
  O  O32  1  0.35301279  0.19858926  0.42879345  1.0
  O  O33  1  0.35301279  0.30141074  0.92879345  1.0
  O  O34  1  0.64698721  0.69858926  0.07120655  1.0
  O  O35  1  0.64698721  0.80141074  0.57120655  1.0
