# generated using pymatgen
data_Cs2CrO4
_symmetry_space_group_name_H-M   'P 1'
_cell_length_a   8.56251716
_cell_length_b   6.41247418
_cell_length_c   11.45721493
_cell_angle_alpha   90.00000000
_cell_angle_beta   90.00000000
_cell_angle_gamma   90.00000000
_symmetry_Int_Tables_number   1
_chemical_formula_structural   Cs2CrO4
_chemical_formula_sum   'Cs8 Cr4 O16'
_cell_volume   629.08038616
_cell_formula_units_Z   4
loop_
 _symmetry_equiv_pos_site_id
 _symmetry_equiv_pos_as_xyz
  1  'x, y, z'
loop_
 _atom_site_type_symbol
 _atom_site_label
 _atom_site_symmetry_multiplicity
 _atom_site_fract_x
 _atom_site_fract_y
 _atom_site_fract_z
 _atom_site_occupancy
  Cs  Cs0  1  0.82963034  0.75000000  0.41578082  1.0
  Cs  Cs1  1  0.32963034  0.75000000  0.08421918  1.0
  Cs  Cs2  1  0.17036966  0.25000000  0.58421918  1.0
  Cs  Cs3  1  0.67036966  0.25000000  0.91578082  1.0
  Cs  Cs4  1  0.50879621  0.75000000  0.69595043  1.0
  Cs  Cs5  1  0.00879621  0.75000000  0.80404957  1.0
  Cs  Cs6  1  0.49120379  0.25000000  0.30404957  1.0
  Cs  Cs7  1  0.99120379  0.25000000  0.19595043  1.0
  Cr  Cr8  1  0.76908636  0.75000000  0.08062212  1.0
  Cr  Cr9  1  0.26908636  0.75000000  0.41937788  1.0
  Cr  Cr10  1  0.23091364  0.25000000  0.91937788  1.0
  Cr  Cr11  1  0.73091364  0.25000000  0.58062212  1.0
  O  O12  1  0.70288737  0.96204220  0.14725334  1.0
  O  O13  1  0.70288737  0.53795780  0.14725334  1.0
  O  O14  1  0.20288737  0.96204220  0.35274666  1.0
  O  O15  1  0.20288737  0.53795780  0.35274666  1.0
  O  O16  1  0.29711263  0.46204220  0.85274666  1.0
  O  O17  1  0.29711263  0.03795780  0.85274666  1.0
  O  O18  1  0.79711263  0.46204220  0.64725334  1.0
  O  O19  1  0.79711263  0.03795780  0.64725334  1.0
  O  O20  1  0.96202191  0.75000000  0.08274756  1.0
  O  O21  1  0.46202191  0.75000000  0.41725244  1.0
  O  O22  1  0.03797809  0.25000000  0.91725244  1.0
  O  O23  1  0.53797809  0.25000000  0.58274756  1.0
  O  O24  1  0.20642456  0.75000000  0.55686341  1.0
  O  O25  1  0.70642456  0.75000000  0.94313659  1.0
  O  O26  1  0.79357544  0.25000000  0.44313659  1.0
  O  O27  1  0.29357544  0.25000000  0.05686341  1.0
