# generated using pymatgen
data_TiNi
_symmetry_space_group_name_H-M   'P 1'
_cell_length_a   4.18373448
_cell_length_b   2.82249233
_cell_length_c   4.60972523
_cell_angle_alpha   90.00000000
_cell_angle_beta   90.00000000
_cell_angle_gamma   90.00000000
_symmetry_Int_Tables_number   1
_chemical_formula_structural   TiNi
_chemical_formula_sum   'Ti2 Ni2'
_cell_volume   54.43420998
_cell_formula_units_Z   2
loop_
 _symmetry_equiv_pos_site_id
 _symmetry_equiv_pos_as_xyz
  1  'x, y, z'
loop_
 _atom_site_type_symbol
 _atom_site_label
 _atom_site_symmetry_multiplicity
 _atom_site_fract_x
 _atom_site_fract_y
 _atom_site_fract_z
 _atom_site_occupancy
  Ti  Ti0  1  0.75000000  0.50000000  0.27750315  1.0
  Ti  Ti1  1  0.25000000  0.50000000  0.72249685  1.0
  Ni  Ni2  1  0.75000000  0.00000000  0.81651421  1.0
  Ni  Ni3  1  0.25000000  0.00000000  0.18348579  1.0
