# generated using pymatgen
data_LaAl3Ni2
_symmetry_space_group_name_H-M   'P 1'
_cell_length_a   6.44083101
_cell_length_b   6.44083101
_cell_length_c   5.14247797
_cell_angle_alpha   90.00000000
_cell_angle_beta   90.00000000
_cell_angle_gamma   75.04021374
_symmetry_Int_Tables_number   1
_chemical_formula_structural   LaAl3Ni2
_chemical_formula_sum   'La2 Al6 Ni4'
_cell_volume   206.10170614
_cell_formula_units_Z   2
loop_
 _symmetry_equiv_pos_site_id
 _symmetry_equiv_pos_as_xyz
  1  'x, y, z'
loop_
 _atom_site_type_symbol
 _atom_site_label
 _atom_site_symmetry_multiplicity
 _atom_site_fract_x
 _atom_site_fract_y
 _atom_site_fract_z
 _atom_site_occupancy
  La  La0  1  -0.34799094  1.34799094  0.25000000  1.0
  La  La1  1  0.34799094  0.65200906  0.75000000  1.0
  Al  Al2  1  0.08044796  0.52503241  0.25000000  1.0
  Al  Al3  1  -0.47496759  1.08044796  0.75000000  1.0
  Al  Al4  1  0.47496759  0.91955204  0.25000000  1.0
  Al  Al5  1  -0.08044796  1.47496759  0.75000000  1.0
  Al  Al6  1  0.06058978  0.93941022  0.25000000  1.0
  Al  Al7  1  -0.06058978  1.06058978  0.75000000  1.0
  Ni  Ni8  1  0.79969491  0.79969491  0.50000000  1.0
  Ni  Ni9  1  0.79969491  0.79969491  0.00000000  1.0
  Ni  Ni10  1  0.20030509  0.20030509  0.50000000  1.0
  Ni  Ni11  1  0.20030509  0.20030509  0.00000000  1.0
