# generated using pymatgen
data_IrCl3
_symmetry_space_group_name_H-M   'P 1'
_cell_length_a   11.69715214
_cell_length_b   11.21212614
_cell_length_c   6.20848643
_cell_angle_alpha   78.63538028
_cell_angle_beta   70.00806324
_cell_angle_gamma   31.35655648
_symmetry_Int_Tables_number   1
_chemical_formula_structural   IrCl3
_chemical_formula_sum   'Ir4 Cl12'
_cell_volume   390.59907999
_cell_formula_units_Z   4
loop_
 _symmetry_equiv_pos_site_id
 _symmetry_equiv_pos_as_xyz
  1  'x, y, z'
loop_
 _atom_site_type_symbol
 _atom_site_label
 _atom_site_symmetry_multiplicity
 _atom_site_fract_x
 _atom_site_fract_y
 _atom_site_fract_z
 _atom_site_occupancy
  Ir  Ir0  1  0.58360401  0.58360401  0.41639599  1.0
  Ir  Ir1  1  0.41639599  0.41639599  0.58360401  1.0
  Ir  Ir2  1  0.66639599  -0.33360401  0.83360401  1.0
  Ir  Ir3  1  0.83360401  -0.16639599  0.66639599  1.0
  Cl  Cl4  1  -0.28767299  1.28767299  0.28767299  1.0
  Cl  Cl5  1  0.28767299  0.71232701  -0.28767299  1.0
  Cl  Cl6  1  -0.46232701  0.96232701  0.96232701  1.0
  Cl  Cl7  1  -0.03767299  0.53767299  0.53767299  1.0
  Cl  Cl8  1  0.80392126  0.37255634  0.67028762  1.0
  Cl  Cl9  1  0.15323477  0.67028762  0.37255634  1.0
  Cl  Cl10  1  0.67028762  0.15323477  0.80392126  1.0
  Cl  Cl11  1  0.37255634  0.80392126  0.15323477  1.0
  Cl  Cl12  1  0.44607874  -0.12255634  0.57971238  1.0
  Cl  Cl13  1  1.09676523  -0.42028762  0.87744366  1.0
  Cl  Cl14  1  0.57971238  0.09676523  0.44607874  1.0
  Cl  Cl15  1  0.87744366  -0.55392126  1.09676523  1.0
