# generated using pymatgen
data_CeP2O7
_symmetry_space_group_name_H-M   'P 1'
_cell_length_a   8.92957501
_cell_length_b   8.92957501
_cell_length_c   8.92957501
_cell_angle_alpha   90.00000000
_cell_angle_beta   90.00000000
_cell_angle_gamma   90.00000000
_symmetry_Int_Tables_number   1
_chemical_formula_structural   CeP2O7
_chemical_formula_sum   'Ce4 P8 O28'
_cell_volume   712.02028970
_cell_formula_units_Z   4
loop_
 _symmetry_equiv_pos_site_id
 _symmetry_equiv_pos_as_xyz
  1  'x, y, z'
loop_
 _atom_site_type_symbol
 _atom_site_label
 _atom_site_symmetry_multiplicity
 _atom_site_fract_x
 _atom_site_fract_y
 _atom_site_fract_z
 _atom_site_occupancy
  Ce  Ce0  1  -0.00000000  0.50000000  -0.00000000  1.0
  Ce  Ce1  1  -0.00000000  -0.00000000  0.50000000  1.0
  Ce  Ce2  1  0.50000000  0.50000000  0.50000000  1.0
  Ce  Ce3  1  0.50000000  -0.00000000  -0.00000000  1.0
  P  P4  1  0.39700122  0.89700122  0.60299878  1.0
  P  P5  1  0.39700122  0.60299878  0.10299878  1.0
  P  P6  1  0.89700122  0.89700122  0.89700122  1.0
  P  P7  1  0.89700122  0.60299878  0.39700122  1.0
  P  P8  1  0.60299878  0.39700122  0.89700122  1.0
  P  P9  1  0.60299878  0.10299878  0.39700122  1.0
  P  P10  1  0.10299878  0.39700122  0.60299878  1.0
  P  P11  1  0.10299878  0.10299878  0.10299878  1.0
  O  O12  1  0.44363287  0.73442735  0.57277960  1.0
  O  O13  1  0.44363287  0.76557265  0.07277960  1.0
  O  O14  1  0.94363287  0.73442735  0.92722040  1.0
  O  O15  1  0.94363287  0.76557265  0.42722040  1.0
  O  O16  1  0.23442735  0.92722040  0.55636713  1.0
  O  O17  1  0.23442735  0.57277960  0.05636713  1.0
  O  O18  1  0.73442735  0.92722040  0.94363287  1.0
  O  O19  1  0.73442735  0.57277960  0.44363287  1.0
  O  O20  1  0.42722040  0.94363287  0.76557265  1.0
  O  O21  1  0.42722040  0.55636713  0.26557265  1.0
  O  O22  1  0.92722040  0.94363287  0.73442735  1.0
  O  O23  1  0.92722040  0.55636713  0.23442735  1.0
  O  O24  1  0.55636713  0.23442735  0.92722040  1.0
  O  O25  1  0.55636713  0.26557265  0.42722040  1.0
  O  O26  1  0.05636713  0.23442735  0.57277960  1.0
  O  O27  1  0.05636713  0.26557265  0.07277960  1.0
  O  O28  1  0.76557265  0.42722040  0.94363287  1.0
  O  O29  1  0.76557265  0.07277960  0.44363287  1.0
  O  O30  1  0.26557265  0.42722040  0.55636713  1.0
  O  O31  1  0.26557265  0.07277960  0.05636713  1.0
  O  O32  1  0.57277960  0.44363287  0.73442735  1.0
  O  O33  1  0.57277960  0.05636713  0.23442735  1.0
  O  O34  1  0.07277960  0.44363287  0.76557265  1.0
  O  O35  1  0.07277960  0.05636713  0.26557265  1.0
  O  O36  1  0.50000000  -0.00000000  0.50000000  1.0
  O  O37  1  0.50000000  0.50000000  -0.00000000  1.0
  O  O38  1  -0.00000000  0.00000000  0.00000000  1.0
  O  O39  1  0.00000000  0.50000000  0.50000000  1.0
