# generated using pymatgen
data_K2BiH5(CO2)5
_symmetry_space_group_name_H-M   'P 1'
_cell_length_a   7.30507575
_cell_length_b   7.30507575
_cell_length_c   12.50894908
_cell_angle_alpha   87.77634380
_cell_angle_beta   92.22365620
_cell_angle_gamma   67.53876933
_symmetry_Int_Tables_number   1
_chemical_formula_structural   K2BiH5(CO2)5
_chemical_formula_sum   'K4 Bi2 H10 C10 O20'
_cell_volume   615.38454247
_cell_formula_units_Z   2
loop_
 _symmetry_equiv_pos_site_id
 _symmetry_equiv_pos_as_xyz
  1  'x, y, z'
loop_
 _atom_site_type_symbol
 _atom_site_label
 _atom_site_symmetry_multiplicity
 _atom_site_fract_x
 _atom_site_fract_y
 _atom_site_fract_z
 _atom_site_occupancy
  K  K0  1  1.04412619  0.25368983  0.38229950  1.0
  K  K1  1  1.25368983  0.04412619  0.11770050  1.0
  K  K2  1  0.95587381  -0.25368983  0.61770050  1.0
  K  K3  1  0.74631017  -0.04412619  0.88229950  1.0
  Bi  Bi4  1  0.83228422  -0.16771578  0.25000000  1.0
  Bi  Bi5  1  1.16771578  0.16771578  0.75000000  1.0
  H  H6  1  0.34734440  -0.34025045  0.42872682  1.0
  H  H7  1  0.65974955  -0.65265560  0.07127318  1.0
  H  H8  1  0.65265560  -0.65974955  0.57127318  1.0
  H  H9  1  0.34025045  -0.34734440  0.92872682  1.0
  H  H10  1  1.48818194  0.21559366  0.45966743  1.0
  H  H11  1  1.21559366  0.48818194  0.04033257  1.0
  H  H12  1  0.51181806  -0.21559366  0.54033257  1.0
  H  H13  1  0.78440634  -0.48818194  0.95966743  1.0
  H  H14  1  0.49970727  -0.50029273  0.25000000  1.0
  H  H15  1  0.50029273  -0.49970727  0.75000000  1.0
  C  C16  1  1.20209267  0.70559578  0.38336936  1.0
  C  C17  1  1.70559578  0.20209267  0.11663064  1.0
  C  C18  1  0.79790733  -0.70559578  0.61663064  1.0
  C  C19  1  0.29440422  -0.20209267  0.88336936  1.0
  C  C20  1  1.57246192  0.10979386  0.40050129  1.0
  C  C21  1  1.10979386  0.57246192  0.09949871  1.0
  C  C22  1  0.42753808  -0.10979386  0.59949871  1.0
  C  C23  1  0.89020614  -0.57246192  0.90050129  1.0
  C  C24  1  0.59110470  -0.40889530  0.25000000  1.0
  C  C25  1  1.40889530  0.40889530  0.75000000  1.0
  O  O26  1  1.16154799  0.84196697  0.30935234  1.0
  O  O27  1  1.84196697  0.16154799  0.19064766  1.0
  O  O28  1  0.83845201  -0.84196697  0.69064766  1.0
  O  O29  1  0.15803303  -0.16154799  0.80935234  1.0
  O  O30  1  1.08693694  0.61996706  0.40717583  1.0
  O  O31  1  1.61996706  0.08693694  0.09282417  1.0
  O  O32  1  0.91306306  -0.61996706  0.59282417  1.0
  O  O33  1  0.38003294  -0.08693694  0.90717583  1.0
  O  O34  1  1.75966136  0.02549027  0.41939135  1.0
  O  O35  1  1.02549027  0.75966136  0.08060865  1.0
  O  O36  1  0.24033864  -0.02549027  0.58060865  1.0
  O  O37  1  0.97450973  -0.75966136  0.91939135  1.0
  O  O38  1  1.47796555  0.08151650  0.32077837  1.0
  O  O39  1  1.08151650  0.47796555  0.17922163  1.0
  O  O40  1  0.52203445  -0.08151650  0.67922163  1.0
  O  O41  1  0.91848350  -0.47796555  0.82077837  1.0
  O  O42  1  0.58481154  -0.30538417  0.16520537  1.0
  O  O43  1  0.69461583  -0.41518846  0.33479463  1.0
  O  O44  1  1.41518846  0.30538417  0.83479463  1.0
  O  O45  1  1.30538417  0.41518846  0.66520537  1.0
