# generated using pymatgen
data_HgSO5
_symmetry_space_group_name_H-M   'P 1'
_cell_length_a   10.22713073
_cell_length_b   5.68022725
_cell_length_c   7.45692483
_cell_angle_alpha   90.00000000
_cell_angle_beta   90.00000000
_cell_angle_gamma   90.00000000
_symmetry_Int_Tables_number   1
_chemical_formula_structural   HgSO5
_chemical_formula_sum   'Hg4 S4 O20'
_cell_volume   433.19085893
_cell_formula_units_Z   4
loop_
 _symmetry_equiv_pos_site_id
 _symmetry_equiv_pos_as_xyz
  1  'x, y, z'
loop_
 _atom_site_type_symbol
 _atom_site_label
 _atom_site_symmetry_multiplicity
 _atom_site_fract_x
 _atom_site_fract_y
 _atom_site_fract_z
 _atom_site_occupancy
  O  O0  1  0.64168041  0.03368198  0.21528194  1.0
  O  O1  1  0.14168041  0.46631802  0.28471806  1.0
  O  O2  1  0.35831959  0.53368198  0.78471806  1.0
  O  O3  1  0.85831959  0.96631802  0.71528194  1.0
  O  O4  1  0.35831959  0.96631802  0.78471806  1.0
  O  O5  1  0.85831959  0.53368198  0.71528194  1.0
  O  O6  1  0.64168041  0.46631802  0.21528194  1.0
  O  O7  1  0.14168041  0.03368198  0.28471806  1.0
  O  O8  1  0.69971955  0.25000000  0.48146746  1.0
  O  O9  1  0.19971955  0.25000000  0.01853254  1.0
  O  O10  1  0.30028045  0.75000000  0.51853254  1.0
  O  O11  1  0.80028045  0.75000000  0.98146746  1.0
  O  O12  1  0.45442432  0.75000000  0.01647476  1.0
  O  O13  1  0.95442432  0.75000000  0.48352524  1.0
  O  O14  1  0.54557568  0.25000000  0.98352524  1.0
  O  O15  1  0.04557568  0.25000000  0.51647476  1.0
  O  O16  1  0.46787526  0.25000000  0.37782723  1.0
  O  O17  1  0.96787526  0.25000000  1.12217277  1.0
  O  O18  1  0.53212474  0.75000000  0.62217277  1.0
  O  O19  1  0.03212474  0.75000000  -0.12217277  1.0
  S  S20  1  0.60445514  0.25000000  0.32038536  1.0
  S  S21  1  0.10445514  0.25000000  0.17961464  1.0
  S  S22  1  0.39554486  0.75000000  0.67961464  1.0
  S  S23  1  0.89554486  0.75000000  0.82038536  1.0
  Hg  Hg24  1  0.36588136  0.75000000  0.25633842  1.0
  Hg  Hg25  1  0.86588136  0.75000000  0.24366158  1.0
  Hg  Hg26  1  0.63411864  0.25000000  0.74366158  1.0
  Hg  Hg27  1  0.13411864  0.25000000  0.75633842  1.0
