# generated using pymatgen
data_K3Cu5O4
_symmetry_space_group_name_H-M   'P 1'
_cell_length_a   9.54879969
_cell_length_b   7.41903331
_cell_length_c   14.17849358
_cell_angle_alpha   90.00000000
_cell_angle_beta   106.65227334
_cell_angle_gamma   90.00000000
_symmetry_Int_Tables_number   1
_chemical_formula_structural   K3Cu5O4
_chemical_formula_sum   'K12 Cu20 O16'
_cell_volume   962.32018784
_cell_formula_units_Z   4
loop_
 _symmetry_equiv_pos_site_id
 _symmetry_equiv_pos_as_xyz
  1  'x, y, z'
loop_
 _atom_site_type_symbol
 _atom_site_label
 _atom_site_symmetry_multiplicity
 _atom_site_fract_x
 _atom_site_fract_y
 _atom_site_fract_z
 _atom_site_occupancy
  K  K0  1  0.82769546  0.08756810  0.39732276  1.0
  K  K1  1  0.82769546  0.41243190  0.89732276  1.0
  K  K2  1  0.17230454  0.58756810  0.10267724  1.0
  K  K3  1  0.17230454  0.91243190  0.60267724  1.0
  K  K4  1  0.59817824  0.34066459  0.09103123  1.0
  K  K5  1  0.59817824  0.15933541  0.59103123  1.0
  K  K6  1  0.40182176  0.84066459  0.40896877  1.0
  K  K7  1  0.40182176  0.65933541  0.90896877  1.0
  K  K8  1  0.23060021  0.28020487  0.41891506  1.0
  K  K9  1  0.23060021  0.21979513  0.91891506  1.0
  K  K10  1  0.76939979  0.78020487  0.08108494  1.0
  K  K11  1  0.76939979  0.71979513  0.58108494  1.0
  Cu  Cu12  1  0.95094049  0.20368511  0.11664151  1.0
  Cu  Cu13  1  0.95094049  0.29631489  0.61664151  1.0
  Cu  Cu14  1  0.04905951  0.70368511  0.38335849  1.0
  Cu  Cu15  1  0.04905951  0.79631489  0.88335849  1.0
  Cu  Cu16  1  0.93479686  0.45736347  0.23303040  1.0
  Cu  Cu17  1  0.93479686  0.04263653  0.73303040  1.0
  Cu  Cu18  1  0.06520314  0.95736347  0.26696960  1.0
  Cu  Cu19  1  0.06520314  0.54263653  0.76696960  1.0
  Cu  Cu20  1  0.80324743  0.94523516  0.86964565  1.0
  Cu  Cu21  1  0.80324743  0.55476484  0.36964565  1.0
  Cu  Cu22  1  0.19675257  0.44523516  0.63035435  1.0
  Cu  Cu23  1  0.19675257  0.05476484  0.13035435  1.0
  Cu  Cu24  1  0.56212753  0.41197935  0.38261722  1.0
  Cu  Cu25  1  0.56212753  0.08802065  0.88261722  1.0
  Cu  Cu26  1  0.43787247  0.91197935  0.11738278  1.0
  Cu  Cu27  1  0.43787247  0.58802065  0.61738278  1.0
  Cu  Cu28  1  0.43913558  0.16418974  0.25703593  1.0
  Cu  Cu29  1  0.43913558  0.33581026  0.75703593  1.0
  Cu  Cu30  1  0.56086442  0.66418974  0.24296407  1.0
  Cu  Cu31  1  0.56086442  0.83581026  0.74296407  1.0
  O  O32  1  0.98403793  0.46593702  0.36880932  1.0
  O  O33  1  0.98403793  0.03406298  0.86880932  1.0
  O  O34  1  0.01596207  0.96593702  0.13119068  1.0
  O  O35  1  0.01596207  0.53406298  0.63119068  1.0
  O  O36  1  0.88791892  0.43848248  0.09826010  1.0
  O  O37  1  0.88791892  0.06151752  0.59826010  1.0
  O  O38  1  0.11208108  0.93848248  0.40173990  1.0
  O  O39  1  0.11208108  0.56151752  0.90173990  1.0
  O  O40  1  0.50292220  0.18030796  0.39152673  1.0
  O  O41  1  0.50292220  0.31969204  0.89152673  1.0
  O  O42  1  0.49707780  0.68030796  0.10847327  1.0
  O  O43  1  0.49707780  0.81969204  0.60847327  1.0
  O  O44  1  0.37280238  0.14842180  0.11967756  1.0
  O  O45  1  0.37280238  0.35157820  0.61967756  1.0
  O  O46  1  0.62719762  0.64842180  0.38032244  1.0
  O  O47  1  0.62719762  0.85157820  0.88032244  1.0
