# generated using pymatgen
data_La4Co
_symmetry_space_group_name_H-M   'P 1'
_cell_length_a   7.85088191
_cell_length_b   7.85088191
_cell_length_c   7.85088191
_cell_angle_alpha   60.00000000
_cell_angle_beta   60.00000000
_cell_angle_gamma   60.00000000
_symmetry_Int_Tables_number   1
_chemical_formula_structural   La4Co
_chemical_formula_sum   'La8 Co2'
_cell_volume   342.16874565
_cell_formula_units_Z   2
loop_
 _symmetry_equiv_pos_site_id
 _symmetry_equiv_pos_as_xyz
  1  'x, y, z'
loop_
 _atom_site_type_symbol
 _atom_site_label
 _atom_site_symmetry_multiplicity
 _atom_site_fract_x
 _atom_site_fract_y
 _atom_site_fract_z
 _atom_site_occupancy
  La  La0  1  -0.11666723  0.88333277  0.35000170  1.0
  La  La1  1  0.88333277  -0.64999830  0.88333277  1.0
  La  La2  1  0.36666723  0.36666723  0.36666723  1.0
  La  La3  1  -0.10000170  0.36666723  0.36666723  1.0
  La  La4  1  -0.64999830  0.88333277  0.88333277  1.0
  La  La5  1  0.88333277  -0.11666723  0.88333277  1.0
  La  La6  1  0.36666723  -0.10000170  0.36666723  1.0
  La  La7  1  0.36666723  0.36666723  -0.10000170  1.0
  Co  Co8  1  0.50000000  0.50000000  -0.50000000  1.0
  Co  Co9  1  0.75000000  -0.25000000  0.75000000  1.0
