# generated using pymatgen
data_RbAsOF4
_symmetry_space_group_name_H-M   'P 1'
_cell_length_a   5.64229327
_cell_length_b   6.14489141
_cell_length_c   15.17307582
_cell_angle_alpha   90.00000000
_cell_angle_beta   110.04548938
_cell_angle_gamma   90.00000000
_symmetry_Int_Tables_number   1
_chemical_formula_structural   RbAsOF4
_chemical_formula_sum   'Rb4 As4 O4 F16'
_cell_volume   494.20104512
_cell_formula_units_Z   4
loop_
 _symmetry_equiv_pos_site_id
 _symmetry_equiv_pos_as_xyz
  1  'x, y, z'
loop_
 _atom_site_type_symbol
 _atom_site_label
 _atom_site_symmetry_multiplicity
 _atom_site_fract_x
 _atom_site_fract_y
 _atom_site_fract_z
 _atom_site_occupancy
  Rb  Rb0  1  0.85185898  0.87464075  0.35121702  1.0
  Rb  Rb1  1  0.85185898  0.62535925  0.85121702  1.0
  Rb  Rb2  1  0.14814102  0.37464075  0.14878298  1.0
  Rb  Rb3  1  0.14814102  0.12535925  0.64878298  1.0
  As  As4  1  0.47497786  0.38648843  0.41968154  1.0
  As  As5  1  0.47497786  0.11351157  0.91968154  1.0
  As  As6  1  0.52502214  0.88648843  0.08031846  1.0
  As  As7  1  0.52502214  0.61351157  0.58031846  1.0
  O  O8  1  0.66492765  0.88360147  0.98673469  1.0
  O  O9  1  0.66492765  0.61639853  0.48673469  1.0
  O  O10  1  0.33507235  0.38360147  0.51326531  1.0
  O  O11  1  0.33507235  0.11639853  0.01326531  1.0
  F  F12  1  0.62343666  0.40683723  0.33057368  1.0
  F  F13  1  0.62343666  0.09316277  0.83057368  1.0
  F  F14  1  0.37656334  0.90683723  0.16942632  1.0
  F  F15  1  0.37656334  0.59316277  0.66942632  1.0
  F  F16  1  0.71503938  0.18251342  0.47582121  1.0
  F  F17  1  0.71503938  0.31748658  0.97582121  1.0
  F  F18  1  0.28496062  0.68251342  0.02417879  1.0
  F  F19  1  0.28496062  0.81748658  0.52417879  1.0
  F  F20  1  0.76881795  0.06613733  0.15732575  1.0
  F  F21  1  0.76881795  0.43386267  0.65732575  1.0
  F  F22  1  0.23118205  0.56613733  0.34267425  1.0
  F  F23  1  0.23118205  0.93386267  0.84267425  1.0
  F  F24  1  0.28058049  0.16336054  0.35602226  1.0
  F  F25  1  0.28058049  0.33663946  0.85602226  1.0
  F  F26  1  0.71941951  0.66336054  0.14397774  1.0
  F  F27  1  0.71941951  0.83663946  0.64397774  1.0
