# generated using pymatgen
data_RhPb2F7
_symmetry_space_group_name_H-M   'P 1'
_cell_length_a   5.68351771
_cell_length_b   11.98053379
_cell_length_c   9.09597563
_cell_angle_alpha   90.00000000
_cell_angle_beta   90.59629784
_cell_angle_gamma   90.00000000
_symmetry_Int_Tables_number   1
_chemical_formula_structural   RhPb2F7
_chemical_formula_sum   'Rh4 Pb8 F28'
_cell_volume   619.32577326
_cell_formula_units_Z   4
loop_
 _symmetry_equiv_pos_site_id
 _symmetry_equiv_pos_as_xyz
  1  'x, y, z'
loop_
 _atom_site_type_symbol
 _atom_site_label
 _atom_site_symmetry_multiplicity
 _atom_site_fract_x
 _atom_site_fract_y
 _atom_site_fract_z
 _atom_site_occupancy
  Rh  Rh0  1  0.80100339  0.36770239  0.19086485  1.0
  Rh  Rh1  1  0.80100339  0.13229761  0.69086485  1.0
  Rh  Rh2  1  0.19899661  0.86770239  0.30913515  1.0
  Rh  Rh3  1  0.19899661  0.63229761  0.80913515  1.0
  Pb  Pb4  1  0.28713940  0.20398082  0.45624841  1.0
  Pb  Pb5  1  0.28713940  0.29601918  0.95624841  1.0
  Pb  Pb6  1  0.71286060  0.70398082  0.04375159  1.0
  Pb  Pb7  1  0.71286060  0.79601918  0.54375159  1.0
  Pb  Pb8  1  0.73302695  0.05274086  0.14832111  1.0
  Pb  Pb9  1  0.73302695  0.44725914  0.64832111  1.0
  Pb  Pb10  1  0.26697305  0.55274086  0.35167889  1.0
  Pb  Pb11  1  0.26697305  0.94725914  0.85167889  1.0
  F  F12  1  0.99867433  0.72942953  0.30679220  1.0
  F  F13  1  0.99867433  0.77057047  0.80679220  1.0
  F  F14  1  0.00132567  0.22942953  0.19320780  1.0
  F  F15  1  0.00132567  0.27057047  0.69320780  1.0
  F  F16  1  0.91400918  0.40038444  0.39712232  1.0
  F  F17  1  0.91400918  0.09961556  0.89712232  1.0
  F  F18  1  0.08599082  0.90038444  0.10287768  1.0
  F  F19  1  0.08599082  0.59961556  0.60287768  1.0
  F  F20  1  0.90745813  0.94779471  0.36604977  1.0
  F  F21  1  0.90745813  0.55220529  0.86604977  1.0
  F  F22  1  0.09254187  0.44779471  0.13395023  1.0
  F  F23  1  0.09254187  0.05220529  0.63395023  1.0
  F  F24  1  0.70580544  0.16359019  0.48303299  1.0
  F  F25  1  0.70580544  0.33640981  0.98303299  1.0
  F  F26  1  0.29419456  0.66359019  0.01696701  1.0
  F  F27  1  0.29419456  0.83640981  0.51696701  1.0
  F  F28  1  0.50722864  0.27577096  0.23009999  1.0
  F  F29  1  0.50722864  0.22422904  0.73009999  1.0
  F  F30  1  0.49277136  0.77577096  0.26990001  1.0
  F  F31  1  0.49277136  0.72422904  0.76990001  1.0
  F  F32  1  0.39306025  0.39358948  0.49625864  1.0
  F  F33  1  0.39306025  0.10641052  0.99625864  1.0
  F  F34  1  0.60693975  0.89358948  0.00374136  1.0
  F  F35  1  0.60693975  0.60641052  0.50374136  1.0
  F  F36  1  0.38513765  0.01071812  0.31202232  1.0
  F  F37  1  0.38513765  0.48928188  0.81202232  1.0
  F  F38  1  0.61486235  0.51071812  0.18797768  1.0
  F  F39  1  0.61486235  0.98928188  0.68797768  1.0
