# generated using pymatgen
data_Zr2GaFe3
_symmetry_space_group_name_H-M   'P 1'
_cell_length_a   5.01720970
_cell_length_b   5.01720970
_cell_length_c   8.19351881
_cell_angle_alpha   90.00000000
_cell_angle_beta   90.00000000
_cell_angle_gamma   120.00000000
_symmetry_Int_Tables_number   1
_chemical_formula_structural   Zr2GaFe3
_chemical_formula_sum   'Zr4 Ga2 Fe6'
_cell_volume   178.61815231
_cell_formula_units_Z   2
loop_
 _symmetry_equiv_pos_site_id
 _symmetry_equiv_pos_as_xyz
  1  'x, y, z'
loop_
 _atom_site_type_symbol
 _atom_site_label
 _atom_site_symmetry_multiplicity
 _atom_site_fract_x
 _atom_site_fract_y
 _atom_site_fract_z
 _atom_site_occupancy
  Zr  Zr0  1  0.33333333  0.66666667  0.43434516  1.0
  Zr  Zr1  1  0.66666667  0.33333333  0.56565484  1.0
  Zr  Zr2  1  0.66666667  0.33333333  0.93434516  1.0
  Zr  Zr3  1  0.33333333  0.66666667  0.06565484  1.0
  Ga  Ga4  1  -0.00000000  -0.00000000  0.50000000  1.0
  Ga  Ga5  1  -0.00000000  -0.00000000  0.00000000  1.0
  Fe  Fe6  1  0.82726139  0.17273861  0.25000000  1.0
  Fe  Fe7  1  0.82726139  0.65452277  0.25000000  1.0
  Fe  Fe8  1  0.34547723  0.17273861  0.25000000  1.0
  Fe  Fe9  1  0.17273861  0.82726139  0.75000000  1.0
  Fe  Fe10  1  0.17273861  0.34547723  0.75000000  1.0
  Fe  Fe11  1  0.65452277  0.82726139  0.75000000  1.0
