# generated using pymatgen
data_Eu4Pt
_symmetry_space_group_name_H-M   'P 1'
_cell_length_a   8.26996989
_cell_length_b   8.26996989
_cell_length_c   8.26996989
_cell_angle_alpha   60.00000000
_cell_angle_beta   60.00000000
_cell_angle_gamma   60.00000000
_symmetry_Int_Tables_number   1
_chemical_formula_structural   Eu4Pt
_chemical_formula_sum   'Eu8 Pt2'
_cell_volume   399.94179120
_cell_formula_units_Z   2
loop_
 _symmetry_equiv_pos_site_id
 _symmetry_equiv_pos_as_xyz
  1  'x, y, z'
loop_
 _atom_site_type_symbol
 _atom_site_label
 _atom_site_symmetry_multiplicity
 _atom_site_fract_x
 _atom_site_fract_y
 _atom_site_fract_z
 _atom_site_occupancy
  Eu  Eu0  1  -0.11425138  0.88574862  0.34275413  1.0
  Eu  Eu1  1  0.88574862  -0.65724587  0.88574862  1.0
  Eu  Eu2  1  0.36425138  0.36425138  0.36425138  1.0
  Eu  Eu3  1  -0.09275413  0.36425138  0.36425138  1.0
  Eu  Eu4  1  -0.65724587  0.88574862  0.88574862  1.0
  Eu  Eu5  1  0.88574862  -0.11425138  0.88574862  1.0
  Eu  Eu6  1  0.36425138  -0.09275413  0.36425138  1.0
  Eu  Eu7  1  0.36425138  0.36425138  -0.09275413  1.0
  Pt  Pt8  1  0.50000000  0.50000000  -0.50000000  1.0
  Pt  Pt9  1  0.75000000  -0.25000000  0.75000000  1.0
