# generated using pymatgen
data_Al5Mo
_symmetry_space_group_name_H-M   'P 1'
_cell_length_a   4.93462281
_cell_length_b   4.93462281
_cell_length_c   44.03655626
_cell_angle_alpha   90.00000000
_cell_angle_beta   90.00000000
_cell_angle_gamma   120.00000000
_symmetry_Int_Tables_number   1
_chemical_formula_structural   Al5Mo
_chemical_formula_sum   'Al50 Mo10'
_cell_volume   928.64965927
_cell_formula_units_Z   10
loop_
 _symmetry_equiv_pos_site_id
 _symmetry_equiv_pos_as_xyz
  1  'x, y, z'
loop_
 _atom_site_type_symbol
 _atom_site_label
 _atom_site_symmetry_multiplicity
 _atom_site_fract_x
 _atom_site_fract_y
 _atom_site_fract_z
 _atom_site_occupancy
  Al  Al0  1  0.00000000  0.00000000  0.45143888  1.0
  Al  Al1  1  0.00000000  0.00000000  0.54856112  1.0
  Al  Al2  1  0.00000000  0.00000000  0.24976715  1.0
  Al  Al3  1  0.00000000  0.00000000  0.75023285  1.0
  Al  Al4  1  0.33210950  1.00825823  0.19952726  1.0
  Al  Al5  1  1.00825823  0.33210950  0.80047274  1.0
  Al  Al6  1  0.67614872  0.66789050  0.19952726  1.0
  Al  Al7  1  -0.00825823  0.32385128  0.19952726  1.0
  Al  Al8  1  0.66789050  0.67614872  0.80047274  1.0
  Al  Al9  1  0.32385128  -0.00825823  0.80047274  1.0
  Al  Al10  1  0.33402094  1.00898073  0.40010223  1.0
  Al  Al11  1  1.00898073  0.33402094  0.59989777  1.0
  Al  Al12  1  0.67495979  0.66597906  0.40010223  1.0
  Al  Al13  1  -0.00898073  0.32504021  0.40010223  1.0
  Al  Al14  1  0.66597906  0.67495979  0.59989777  1.0
  Al  Al15  1  0.32504021  -0.00898073  0.59989777  1.0
  Al  Al16  1  1.01077130  0.67677477  0.09961461  1.0
  Al  Al17  1  0.67677477  1.01077130  0.90038539  1.0
  Al  Al18  1  0.66600347  -0.01077130  0.09961461  1.0
  Al  Al19  1  0.32322523  0.33399653  0.09961461  1.0
  Al  Al20  1  -0.01077130  0.66600347  0.90038539  1.0
  Al  Al21  1  0.33399653  0.32322523  0.90038539  1.0
  Al  Al22  1  0.99341696  0.66655242  0.29979741  1.0
  Al  Al23  1  0.66655242  0.99341696  0.70020259  1.0
  Al  Al24  1  0.67313546  0.00658304  0.29979741  1.0
  Al  Al25  1  0.33344758  0.32686454  0.29979741  1.0
  Al  Al26  1  0.00658304  0.67313546  0.70020259  1.0
  Al  Al27  1  0.32686454  0.33344758  0.70020259  1.0
  Al  Al28  1  0.34293317  0.34293317  0.50000000  1.0
  Al  Al29  1  0.00000000  0.65706683  0.50000000  1.0
  Al  Al30  1  0.65706683  0.00000000  0.50000000  1.0
  Al  Al31  1  0.65595273  0.65595273  0.00000000  1.0
  Al  Al32  1  0.00000000  0.34404727  0.00000000  1.0
  Al  Al33  1  0.34404727  0.00000000  0.00000000  1.0
  Al  Al34  1  0.33333333  0.66666667  0.15119508  1.0
  Al  Al35  1  0.66666667  0.33333333  0.84880492  1.0
  Al  Al36  1  0.33333333  0.66666667  0.24982157  1.0
  Al  Al37  1  0.66666667  0.33333333  0.75017843  1.0
  Al  Al38  1  0.33333333  0.66666667  0.34992518  1.0
  Al  Al39  1  0.66666667  0.33333333  0.65007482  1.0
  Al  Al40  1  0.33333333  0.66666667  0.44849920  1.0
  Al  Al41  1  0.66666667  0.33333333  0.55150080  1.0
  Al  Al42  1  0.33333333  0.66666667  0.65018236  1.0
  Al  Al43  1  0.66666667  0.33333333  0.34981764  1.0
  Al  Al44  1  0.33333333  0.66666667  0.85170168  1.0
  Al  Al45  1  0.66666667  0.33333333  0.14829832  1.0
  Al  Al46  1  0.33333333  0.66666667  0.94858137  1.0
  Al  Al47  1  0.66666667  0.33333333  0.05141863  1.0
  Al  Al48  1  0.00000000  0.00000000  0.04833333  1.0
  Al  Al49  1  0.00000000  0.00000000  0.95166667  1.0
  Mo  Mo50  1  0.33333333  0.66666667  0.04963544  1.0
  Mo  Mo51  1  0.66666667  0.33333333  0.95036456  1.0
  Mo  Mo52  1  0.33333333  0.66666667  0.54953146  1.0
  Mo  Mo53  1  0.66666667  0.33333333  0.45046854  1.0
  Mo  Mo54  1  0.33333333  0.66666667  0.75087184  1.0
  Mo  Mo55  1  0.66666667  0.33333333  0.24912816  1.0
  Mo  Mo56  1  0.00000000  0.00000000  0.35035857  1.0
  Mo  Mo57  1  0.00000000  0.00000000  0.64964143  1.0
  Mo  Mo58  1  0.00000000  0.00000000  0.14888472  1.0
  Mo  Mo59  1  0.00000000  0.00000000  0.85111528  1.0
