# generated using pymatgen
data_Al4As3O23
_symmetry_space_group_name_H-M   'P 1'
_cell_length_a   7.76853635
_cell_length_b   7.76853635
_cell_length_c   7.76853635
_cell_angle_alpha   90.00000000
_cell_angle_beta   90.00000000
_cell_angle_gamma   90.00000000
_symmetry_Int_Tables_number   1
_chemical_formula_structural   Al4As3O23
_chemical_formula_sum   'Al4 As3 O23'
_cell_volume   468.83238836
_cell_formula_units_Z   1
loop_
 _symmetry_equiv_pos_site_id
 _symmetry_equiv_pos_as_xyz
  1  'x, y, z'
loop_
 _atom_site_type_symbol
 _atom_site_label
 _atom_site_symmetry_multiplicity
 _atom_site_fract_x
 _atom_site_fract_y
 _atom_site_fract_z
 _atom_site_occupancy
  Al  Al0  1  0.14239121  0.14239121  0.85760879  1.0
  Al  Al1  1  0.14239121  0.85760879  0.14239121  1.0
  Al  Al2  1  0.85760879  0.14239121  0.14239121  1.0
  Al  Al3  1  0.85760879  0.85760879  0.85760879  1.0
  O  O4  1  0.59959153  0.59959153  0.40040847  1.0
  O  O5  1  0.59959153  0.40040847  0.59959153  1.0
  O  O6  1  0.40040847  0.59959153  0.59959153  1.0
  O  O7  1  0.40040847  0.40040847  0.40040847  1.0
  O  O8  1  0.00000000  0.50000000  0.50000000  1.0
  O  O9  1  0.50000000  0.00000000  0.50000000  1.0
  O  O10  1  0.50000000  0.50000000  0.00000000  1.0
  O  O11  1  0.89356633  0.89356633  0.10643367  1.0
  O  O12  1  0.89356633  0.10643367  0.89356633  1.0
  O  O13  1  0.10643367  0.89356633  0.89356633  1.0
  O  O14  1  0.10643367  0.10643367  0.10643367  1.0
  O  O15  1  0.86752285  0.86752285  0.62039662  1.0
  O  O16  1  0.86752285  0.37960338  0.13247715  1.0
  O  O17  1  0.86752285  0.13247715  0.37960338  1.0
  O  O18  1  0.86752285  0.62039662  0.86752285  1.0
  O  O19  1  0.37960338  0.86752285  0.13247715  1.0
  O  O20  1  0.37960338  0.13247715  0.86752285  1.0
  O  O21  1  0.13247715  0.86752285  0.37960338  1.0
  O  O22  1  0.13247715  0.37960338  0.86752285  1.0
  O  O23  1  0.13247715  0.13247715  0.62039662  1.0
  O  O24  1  0.13247715  0.62039662  0.13247715  1.0
  O  O25  1  0.62039662  0.86752285  0.86752285  1.0
  O  O26  1  0.62039662  0.13247715  0.13247715  1.0
  As  As27  1  0.50000000  0.00000000  0.00000000  1.0
  As  As28  1  0.00000000  0.50000000  0.00000000  1.0
  As  As29  1  0.00000000  0.00000000  0.50000000  1.0
