# generated using pymatgen
data_Ca2P2O7
_symmetry_space_group_name_H-M   'P 1'
_cell_length_a   5.46217419
_cell_length_b   8.51738860
_cell_length_c   14.31727320
_cell_angle_alpha   90.00000000
_cell_angle_beta   115.09640273
_cell_angle_gamma   90.00000000
_symmetry_Int_Tables_number   1
_chemical_formula_structural   Ca2P2O7
_chemical_formula_sum   'Ca8 P8 O28'
_cell_volume   603.20723651
_cell_formula_units_Z   4
loop_
 _symmetry_equiv_pos_site_id
 _symmetry_equiv_pos_as_xyz
  1  'x, y, z'
loop_
 _atom_site_type_symbol
 _atom_site_label
 _atom_site_symmetry_multiplicity
 _atom_site_fract_x
 _atom_site_fract_y
 _atom_site_fract_z
 _atom_site_occupancy
  Ca  Ca0  1  0.99014570  0.68194143  0.24521354  1.0
  Ca  Ca1  1  0.99014570  0.81805857  0.74521354  1.0
  Ca  Ca2  1  0.00985430  0.18194143  0.25478646  1.0
  Ca  Ca3  1  0.00985430  0.31805857  0.75478646  1.0
  Ca  Ca4  1  0.65952151  0.88780176  0.40969281  1.0
  Ca  Ca5  1  0.65952151  0.61219824  0.90969281  1.0
  Ca  Ca6  1  0.34047849  0.38780176  0.09030719  1.0
  Ca  Ca7  1  0.34047849  0.11219824  0.59030719  1.0
  P  P8  1  0.67339704  0.23681379  0.47299654  1.0
  P  P9  1  0.67339704  0.26318621  0.97299654  1.0
  P  P10  1  0.32660296  0.73681379  0.02700346  1.0
  P  P11  1  0.32660296  0.76318621  0.52700346  1.0
  P  P12  1  0.60021360  0.48619896  0.31820210  1.0
  P  P13  1  0.60021360  0.01380104  0.81820210  1.0
  P  P14  1  0.39978640  0.98619896  0.18179790  1.0
  P  P15  1  0.39978640  0.51380104  0.68179790  1.0
  O  O16  1  0.90361446  0.15045444  0.46015140  1.0
  O  O17  1  0.90361446  0.34954556  0.96015140  1.0
  O  O18  1  0.09638554  0.65045444  0.03984860  1.0
  O  O19  1  0.09638554  0.84954556  0.53984860  1.0
  O  O20  1  0.71157493  0.24554894  0.08475465  1.0
  O  O21  1  0.71157493  0.25445106  0.58475465  1.0
  O  O22  1  0.28842507  0.74554894  0.41524535  1.0
  O  O23  1  0.28842507  0.75445106  0.91524535  1.0
  O  O24  1  0.75330787  0.39330867  0.26733182  1.0
  O  O25  1  0.75330787  0.10669133  0.76733182  1.0
  O  O26  1  0.24669213  0.89330867  0.23266818  1.0
  O  O27  1  0.24669213  0.60669133  0.73266818  1.0
  O  O28  1  0.70845272  0.97450291  0.24913876  1.0
  O  O29  1  0.70845272  0.52549709  0.74913876  1.0
  O  O30  1  0.29154728  0.47450291  0.25086124  1.0
  O  O31  1  0.29154728  0.02549709  0.75086124  1.0
  O  O32  1  0.65698270  0.41469489  0.43063739  1.0
  O  O33  1  0.65698270  0.08530511  0.93063739  1.0
  O  O34  1  0.34301730  0.91469489  0.06936261  1.0
  O  O35  1  0.34301730  0.58530511  0.56936261  1.0
  O  O36  1  0.40385140  0.14770209  0.41116507  1.0
  O  O37  1  0.40385140  0.35229791  0.91116507  1.0
  O  O38  1  0.59614860  0.64770209  0.08883493  1.0
  O  O39  1  0.59614860  0.85229791  0.58883493  1.0
  O  O40  1  0.29026844  0.15407577  0.16154245  1.0
  O  O41  1  0.29026844  0.34592423  0.66154245  1.0
  O  O42  1  0.70973156  0.65407577  0.33845755  1.0
  O  O43  1  0.70973156  0.84592423  0.83845755  1.0
