# generated using pymatgen
data_K2Pb
_symmetry_space_group_name_H-M   'P 1'
_cell_length_a   14.96893628
_cell_length_b   14.96893628
_cell_length_c   14.96893628
_cell_angle_alpha   122.79691482
_cell_angle_beta   122.79691482
_cell_angle_gamma   85.22023578
_symmetry_Int_Tables_number   1
_chemical_formula_structural   K2Pb
_chemical_formula_sum   'K32 Pb16'
_cell_volume   2262.83217943
_cell_formula_units_Z   16
loop_
 _symmetry_equiv_pos_site_id
 _symmetry_equiv_pos_as_xyz
  1  'x, y, z'
loop_
 _atom_site_type_symbol
 _atom_site_label
 _atom_site_symmetry_multiplicity
 _atom_site_fract_x
 _atom_site_fract_y
 _atom_site_fract_z
 _atom_site_occupancy
  K  K0  1  0.76840341  1.05776046  1.49000874  1.0
  K  K1  1  0.18224828  0.97160533  0.99000874  1.0
  K  K2  1  1.06775172  0.55776046  1.28935705  1.0
  K  K3  1  0.48159659  0.47160533  0.78935705  1.0
  K  K4  1  1.22160533  0.93224828  1.49000874  1.0
  K  K5  1  1.30776046  0.51840341  0.99000874  1.0
  K  K6  1  0.94223954  0.43224828  0.71064295  1.0
  K  K7  1  1.02839467  1.01840341  1.21064295  1.0
  K  K8  1  0.26840341  0.77839467  0.71064295  1.0
  K  K9  1  0.68224828  0.69223954  1.21064295  1.0
  K  K10  1  0.56775172  0.27839467  0.50999126  1.0
  K  K11  1  0.98159659  0.19223954  1.00999126  1.0
  K  K12  1  0.72160533  1.23159659  1.28935705  1.0
  K  K13  1  0.80776046  0.81775172  0.78935705  1.0
  K  K14  1  0.44223954  0.73159659  0.50999126  1.0
  K  K15  1  0.52839467  1.31775172  1.00999126  1.0
  K  K16  1  0.24599324  1.06977830  0.79393243  1.0
  K  K17  1  0.47415413  0.79793919  1.29393243  1.0
  K  K18  1  0.77584587  0.56977830  0.82378506  1.0
  K  K19  1  0.00400676  0.29793919  0.32378506  1.0
  K  K20  1  1.04793919  0.22415413  0.79393243  1.0
  K  K21  1  0.31977830  -0.00400676  0.29393243  1.0
  K  K22  1  0.93022170  0.72415413  1.17621494  1.0
  K  K23  1  0.20206081  0.49599324  0.67621494  1.0
  K  K24  1  0.74599324  0.95206081  1.17621494  1.0
  K  K25  1  -0.02584587  0.68022170  0.67621494  1.0
  K  K26  1  0.27584587  0.45206081  0.20606757  1.0
  K  K27  1  0.50400676  0.18022170  0.70606757  1.0
  K  K28  1  0.54793919  0.75400676  0.82378506  1.0
  K  K29  1  0.81977830  0.52584587  1.32378506  1.0
  K  K30  1  0.43022170  0.25400676  0.20606757  1.0
  K  K31  1  0.70206081  0.02584587  0.70606757  1.0
  Pb  Pb32  1  0.99857433  0.81760614  1.49934822  1.0
  Pb  Pb33  1  0.43174208  0.75077390  0.99934822  1.0
  Pb  Pb34  1  0.81825792  0.31760614  0.81903182  1.0
  Pb  Pb35  1  0.25142567  0.25077390  0.31903182  1.0
  Pb  Pb36  1  1.00077390  1.18174208  1.49934822  1.0
  Pb  Pb37  1  1.06760614  0.74857433  0.99934822  1.0
  Pb  Pb38  1  1.18239386  0.68174208  1.18096818  1.0
  Pb  Pb39  1  1.24922610  1.24857433  1.68096818  1.0
  Pb  Pb40  1  0.49857433  0.99922610  1.18096818  1.0
  Pb  Pb41  1  0.93174208  0.93239386  1.68096818  1.0
  Pb  Pb42  1  0.31825792  0.49922610  0.50065178  1.0
  Pb  Pb43  1  0.75142567  0.43239386  1.00065178  1.0
  Pb  Pb44  1  0.50077390  1.00142567  0.81903182  1.0
  Pb  Pb45  1  0.56760614  0.56825792  0.31903182  1.0
  Pb  Pb46  1  0.68239386  0.50142567  0.50065178  1.0
  Pb  Pb47  1  0.74922610  1.06825792  1.00065178  1.0
