# generated using pymatgen
data_LaSbTe
_symmetry_space_group_name_H-M   'P 1'
_cell_length_a   19.38599041
_cell_length_b   4.42513016
_cell_length_c   4.43816537
_cell_angle_alpha   90.00000000
_cell_angle_beta   90.00000000
_cell_angle_gamma   90.00000000
_symmetry_Int_Tables_number   1
_chemical_formula_structural   LaSbTe
_chemical_formula_sum   'La4 Sb4 Te4'
_cell_volume   380.73037211
_cell_formula_units_Z   4
loop_
 _symmetry_equiv_pos_site_id
 _symmetry_equiv_pos_as_xyz
  1  'x, y, z'
loop_
 _atom_site_type_symbol
 _atom_site_label
 _atom_site_symmetry_multiplicity
 _atom_site_fract_x
 _atom_site_fract_y
 _atom_site_fract_z
 _atom_site_occupancy
  La  La0  1  0.36064493  0.75000000  0.73901214  1.0
  La  La1  1  0.86064493  0.75000000  0.76098786  1.0
  La  La2  1  0.63935507  0.25000000  0.26098786  1.0
  La  La3  1  0.13935507  0.25000000  0.23901214  1.0
  Sb  Sb4  1  0.49908163  0.75000000  0.22801936  1.0
  Sb  Sb5  1  0.99908163  0.75000000  0.27198064  1.0
  Sb  Sb6  1  0.50091837  0.25000000  0.77198064  1.0
  Sb  Sb7  1  0.00091837  0.25000000  0.72801936  1.0
  Te  Te8  1  0.18642223  0.75000000  0.74016244  1.0
  Te  Te9  1  0.68642223  0.75000000  0.75983756  1.0
  Te  Te10  1  0.81357777  0.25000000  0.25983756  1.0
  Te  Te11  1  0.31357777  0.25000000  0.24016244  1.0
