# generated using pymatgen
data_Nb2Pt
_symmetry_space_group_name_H-M   'P 1'
_cell_length_a   9.97901008
_cell_length_b   9.97901008
_cell_length_c   5.15840618
_cell_angle_alpha   90.00000000
_cell_angle_beta   90.00000000
_cell_angle_gamma   90.00000000
_symmetry_Int_Tables_number   1
_chemical_formula_structural   Nb2Pt
_chemical_formula_sum   'Nb20 Pt10'
_cell_volume   513.67739998
_cell_formula_units_Z   10
loop_
 _symmetry_equiv_pos_site_id
 _symmetry_equiv_pos_as_xyz
  1  'x, y, z'
loop_
 _atom_site_type_symbol
 _atom_site_label
 _atom_site_symmetry_multiplicity
 _atom_site_fract_x
 _atom_site_fract_y
 _atom_site_fract_z
 _atom_site_occupancy
  Nb  Nb0  1  0.10700233  0.89299767  0.50000000  1.0
  Nb  Nb1  1  0.89299767  0.10700233  0.50000000  1.0
  Nb  Nb2  1  0.39299767  0.39299767  0.00000000  1.0
  Nb  Nb3  1  0.60700233  0.60700233  0.00000000  1.0
  Nb  Nb4  1  0.37460761  0.96177612  0.50000000  1.0
  Nb  Nb5  1  0.62539239  0.03822388  0.50000000  1.0
  Nb  Nb6  1  0.12539239  0.46177612  0.00000000  1.0
  Nb  Nb7  1  0.87460761  0.53822388  0.00000000  1.0
  Nb  Nb8  1  0.96177612  0.37460761  0.50000000  1.0
  Nb  Nb9  1  0.03822388  0.62539239  0.50000000  1.0
  Nb  Nb10  1  0.46177612  0.12539239  0.00000000  1.0
  Nb  Nb11  1  0.53822388  0.87460761  0.00000000  1.0
  Nb  Nb12  1  0.32125621  0.67874379  0.24685270  1.0
  Nb  Nb13  1  0.67874379  0.32125621  0.24685270  1.0
  Nb  Nb14  1  0.17874379  0.17874379  0.74685270  1.0
  Nb  Nb15  1  0.82125621  0.82125621  0.74685270  1.0
  Nb  Nb16  1  0.67874379  0.32125621  0.75314730  1.0
  Nb  Nb17  1  0.32125621  0.67874379  0.75314730  1.0
  Nb  Nb18  1  0.82125621  0.82125621  0.25314730  1.0
  Nb  Nb19  1  0.17874379  0.17874379  0.25314730  1.0
  Pt  Pt20  1  0.50000000  0.50000000  0.50000000  1.0
  Pt  Pt21  1  0.00000000  0.00000000  0.00000000  1.0
  Pt  Pt22  1  0.43242245  0.23552457  0.50000000  1.0
  Pt  Pt23  1  0.56757755  0.76447543  0.50000000  1.0
  Pt  Pt24  1  0.06757755  0.73552457  0.00000000  1.0
  Pt  Pt25  1  0.93242245  0.26447543  0.00000000  1.0
  Pt  Pt26  1  0.23552457  0.43242245  0.50000000  1.0
  Pt  Pt27  1  0.76447543  0.56757755  0.50000000  1.0
  Pt  Pt28  1  0.73552457  0.06757755  0.00000000  1.0
  Pt  Pt29  1  0.26447543  0.93242245  0.00000000  1.0
