# generated using pymatgen
data_CsVO3
_symmetry_space_group_name_H-M   'P 1'
_cell_length_a   5.93226458
_cell_length_b   13.33577231
_cell_length_c   5.74498118
_cell_angle_alpha   90.00000000
_cell_angle_beta   90.00000000
_cell_angle_gamma   90.00000000
_symmetry_Int_Tables_number   1
_chemical_formula_structural   CsVO3
_chemical_formula_sum   'Cs4 V4 O12'
_cell_volume   454.49309968
_cell_formula_units_Z   4
loop_
 _symmetry_equiv_pos_site_id
 _symmetry_equiv_pos_as_xyz
  1  'x, y, z'
loop_
 _atom_site_type_symbol
 _atom_site_label
 _atom_site_symmetry_multiplicity
 _atom_site_fract_x
 _atom_site_fract_y
 _atom_site_fract_z
 _atom_site_occupancy
  Cs  Cs0  1  0.69054109  0.10025020  0.25000000  1.0
  Cs  Cs1  1  0.69054109  0.39974980  0.75000000  1.0
  Cs  Cs2  1  0.30945891  0.60025020  0.25000000  1.0
  Cs  Cs3  1  0.30945891  0.89974980  0.75000000  1.0
  V  V4  1  0.86572936  0.82549813  0.25000000  1.0
  V  V5  1  0.86572936  0.67450187  0.75000000  1.0
  V  V6  1  0.13427064  0.32549813  0.25000000  1.0
  V  V7  1  0.13427064  0.17450187  0.75000000  1.0
  O  O8  1  0.97599337  0.42698566  0.25000000  1.0
  O  O9  1  0.97599337  0.07301434  0.75000000  1.0
  O  O10  1  0.02400663  0.92698566  0.25000000  1.0
  O  O11  1  0.02400663  0.57301434  0.75000000  1.0
  O  O12  1  0.40297617  0.35918508  0.25000000  1.0
  O  O13  1  0.40297617  0.14081492  0.75000000  1.0
  O  O14  1  0.59702383  0.85918508  0.25000000  1.0
  O  O15  1  0.59702383  0.64081492  0.75000000  1.0
  O  O16  1  1.06000548  0.25000000  0.50000000  1.0
  O  O17  1  1.06000548  0.25000000  0.00000000  1.0
  O  O18  1  -0.06000548  0.75000000  0.50000000  1.0
  O  O19  1  -0.06000548  0.75000000  0.00000000  1.0
