# generated using pymatgen
data_AgNO3
_symmetry_space_group_name_H-M   'P 1'
_cell_length_a   6.62451498
_cell_length_b   6.62451498
_cell_length_c   6.62451498
_cell_angle_alpha   46.26523272
_cell_angle_beta   46.26523272
_cell_angle_gamma   46.26523272
_symmetry_Int_Tables_number   1
_chemical_formula_structural   AgNO3
_chemical_formula_sum   'Ag2 N2 O6'
_cell_volume   138.51562370
_cell_formula_units_Z   2
loop_
 _symmetry_equiv_pos_site_id
 _symmetry_equiv_pos_as_xyz
  1  'x, y, z'
loop_
 _atom_site_type_symbol
 _atom_site_label
 _atom_site_symmetry_multiplicity
 _atom_site_fract_x
 _atom_site_fract_y
 _atom_site_fract_z
 _atom_site_occupancy
  Ag  Ag0  1  0.75281392  -0.24718608  -0.24718608  1.0
  Ag  Ag1  1  0.25281392  0.25281392  0.25281392  1.0
  N  N2  1  0.00289448  0.00289448  0.00289448  1.0
  N  N3  1  0.50289448  0.50289448  -0.49710552  1.0
  O  O4  1  0.75925890  0.00312947  0.24630324  1.0
  O  O5  1  0.25925890  0.74630324  -0.49687053  1.0
  O  O6  1  0.74630324  0.50312947  -0.74074110  1.0
  O  O7  1  1.24630324  -0.24074110  0.00312947  1.0
  O  O8  1  0.50312947  0.25925890  -0.25369676  1.0
  O  O9  1  1.00312947  0.24630324  -0.24074110  1.0
