# generated using pymatgen
data_Gd2Ge2O7
_symmetry_space_group_name_H-M   'P 1'
_cell_length_a   6.95900651
_cell_length_b   6.95900651
_cell_length_c   12.67393986
_cell_angle_alpha   90.00000000
_cell_angle_beta   90.00000000
_cell_angle_gamma   90.00000000
_symmetry_Int_Tables_number   1
_chemical_formula_structural   Gd2Ge2O7
_chemical_formula_sum   'Gd8 Ge8 O28'
_cell_volume   613.77066543
_cell_formula_units_Z   4
loop_
 _symmetry_equiv_pos_site_id
 _symmetry_equiv_pos_as_xyz
  1  'x, y, z'
loop_
 _atom_site_type_symbol
 _atom_site_label
 _atom_site_symmetry_multiplicity
 _atom_site_fract_x
 _atom_site_fract_y
 _atom_site_fract_z
 _atom_site_occupancy
  Gd  Gd0  1  0.14964739  0.62242536  0.86572529  1.0
  Gd  Gd1  1  0.64964739  0.87757464  0.88427471  1.0
  Gd  Gd2  1  0.37757464  0.85035261  0.63427471  1.0
  Gd  Gd3  1  0.87757464  0.64964739  0.11572529  1.0
  Gd  Gd4  1  0.85035261  0.37757464  0.36572529  1.0
  Gd  Gd5  1  0.35035261  0.12242536  0.38427471  1.0
  Gd  Gd6  1  0.62242536  0.14964739  0.13427471  1.0
  Gd  Gd7  1  0.12242536  0.35035261  0.61572529  1.0
  Ge  Ge8  1  0.40221210  0.65426671  0.12094623  1.0
  Ge  Ge9  1  0.90221210  0.84573329  0.62905377  1.0
  Ge  Ge10  1  0.34573329  0.59778790  0.37905377  1.0
  Ge  Ge11  1  0.84573329  0.90221210  0.37094623  1.0
  Ge  Ge12  1  0.59778790  0.34573329  0.62094623  1.0
  Ge  Ge13  1  0.09778790  0.15426671  0.12905377  1.0
  Ge  Ge14  1  0.65426671  0.40221210  0.87905377  1.0
  Ge  Ge15  1  0.15426671  0.09778790  0.87094623  1.0
  O  O16  1  0.47207146  0.57727968  0.87473050  1.0
  O  O17  1  0.97207146  0.92272032  0.87526950  1.0
  O  O18  1  0.42272032  0.52792854  0.62526950  1.0
  O  O19  1  0.92272032  0.97207146  0.12473050  1.0
  O  O20  1  0.52792854  0.42272032  0.37473050  1.0
  O  O21  1  0.02792854  0.07727968  0.37526950  1.0
  O  O22  1  0.57727968  0.47207146  0.12526950  1.0
  O  O23  1  0.07727968  0.02792854  0.62473050  1.0
  O  O24  1  0.33837122  0.93802483  0.82209512  1.0
  O  O25  1  0.83837122  0.56197517  0.92790488  1.0
  O  O26  1  0.06197517  0.66162878  0.67790488  1.0
  O  O27  1  0.56197517  0.83837122  0.07209512  1.0
  O  O28  1  0.66162878  0.06197517  0.32209512  1.0
  O  O29  1  0.16162878  0.43802483  0.42790488  1.0
  O  O30  1  0.93802483  0.33837122  0.17790488  1.0
  O  O31  1  0.43802483  0.16162878  0.57209512  1.0
  O  O32  1  0.18900058  0.64252683  0.04609077  1.0
  O  O33  1  0.68900058  0.85747317  0.70390923  1.0
  O  O34  1  0.35747317  0.81099942  0.45390923  1.0
  O  O35  1  0.85747317  0.68900058  0.29609077  1.0
  O  O36  1  0.81099942  0.35747317  0.54609077  1.0
  O  O37  1  0.31099942  0.14252683  0.20390923  1.0
  O  O38  1  0.64252683  0.18900058  0.95390923  1.0
  O  O39  1  0.14252683  0.31099942  0.79609077  1.0
  O  O40  1  0.30331202  0.69668798  0.25000000  1.0
  O  O41  1  0.80331202  0.80331202  0.50000000  1.0
  O  O42  1  0.69668798  0.30331202  0.75000000  1.0
  O  O43  1  0.19668798  0.19668798  0.00000000  1.0
