# generated using pymatgen
data_KSnIO6
_symmetry_space_group_name_H-M   'P 1'
_cell_length_a   5.64649362
_cell_length_b   5.64649362
_cell_length_c   9.39428803
_cell_angle_alpha   90.00000000
_cell_angle_beta   90.00000000
_cell_angle_gamma   120.00000000
_symmetry_Int_Tables_number   1
_chemical_formula_structural   KSnIO6
_chemical_formula_sum   'K2 Sn2 I2 O12'
_cell_volume   259.38937763
_cell_formula_units_Z   2
loop_
 _symmetry_equiv_pos_site_id
 _symmetry_equiv_pos_as_xyz
  1  'x, y, z'
loop_
 _atom_site_type_symbol
 _atom_site_label
 _atom_site_symmetry_multiplicity
 _atom_site_fract_x
 _atom_site_fract_y
 _atom_site_fract_z
 _atom_site_occupancy
  K  K0  1  0.33333333  0.66666667  0.75000000  1.0
  K  K1  1  0.66666667  0.33333333  0.25000000  1.0
  Sn  Sn2  1  -0.00000000  -0.00000000  -0.00000000  1.0
  Sn  Sn3  1  0.00000000  0.00000000  0.50000000  1.0
  I  I4  1  0.33333333  0.66666667  0.25000000  1.0
  I  I5  1  0.66666667  0.33333333  0.75000000  1.0
  O  O6  1  0.26669943  0.90978139  0.11917275  1.0
  O  O7  1  0.26669943  0.35691804  0.38082725  1.0
  O  O8  1  0.90978139  0.26669943  0.88082725  1.0
  O  O9  1  0.90978139  0.64308196  0.61917275  1.0
  O  O10  1  0.64308196  0.90978139  0.38082725  1.0
  O  O11  1  0.64308196  0.73330057  0.11917275  1.0
  O  O12  1  0.09021861  0.73330057  0.38082725  1.0
  O  O13  1  0.09021861  0.35691804  0.11917275  1.0
  O  O14  1  0.73330057  0.64308196  0.88082725  1.0
  O  O15  1  0.73330057  0.09021861  0.61917275  1.0
  O  O16  1  0.35691804  0.26669943  0.61917275  1.0
  O  O17  1  0.35691804  0.09021861  0.88082725  1.0
