# generated using pymatgen
data_Rb2Mo9S11
_symmetry_space_group_name_H-M   'P 1'
_cell_length_a   13.22456018
_cell_length_b   13.22456018
_cell_length_c   13.22456018
_cell_angle_alpha   41.95715977
_cell_angle_beta   41.95715977
_cell_angle_gamma   41.95715977
_symmetry_Int_Tables_number   1
_chemical_formula_structural   Rb2Mo9S11
_chemical_formula_sum   'Rb4 Mo18 S22'
_cell_volume   935.08012127
_cell_formula_units_Z   2
loop_
 _symmetry_equiv_pos_site_id
 _symmetry_equiv_pos_as_xyz
  1  'x, y, z'
loop_
 _atom_site_type_symbol
 _atom_site_label
 _atom_site_symmetry_multiplicity
 _atom_site_fract_x
 _atom_site_fract_y
 _atom_site_fract_z
 _atom_site_occupancy
  Rb  Rb0  1  0.94874520  -0.05125480  -0.05125480  1.0
  Rb  Rb1  1  0.44874520  0.44874520  0.44874520  1.0
  Rb  Rb2  1  0.55125480  0.55125480  -0.44874520  1.0
  Rb  Rb3  1  1.05125480  0.05125480  0.05125480  1.0
  Mo  Mo4  1  0.64641303  0.97060828  -0.17798628  1.0
  Mo  Mo5  1  1.14641303  0.32201372  -0.52939172  1.0
  Mo  Mo6  1  0.67798628  0.52939172  -0.14641303  1.0
  Mo  Mo7  1  1.17798628  -0.64641303  0.02939172  1.0
  Mo  Mo8  1  1.02939172  0.17798628  -0.64641303  1.0
  Mo  Mo9  1  0.52939172  0.85358697  -0.32201372  1.0
  Mo  Mo10  1  0.35358697  0.02939172  0.17798628  1.0
  Mo  Mo11  1  0.85358697  0.67798628  -0.47060828  1.0
  Mo  Mo12  1  0.82201372  0.64641303  -0.02939172  1.0
  Mo  Mo13  1  0.32201372  0.47060828  0.14641303  1.0
  Mo  Mo14  1  0.47060828  1.14641303  -0.67798628  1.0
  Mo  Mo15  1  0.97060828  0.82201372  -0.35358697  1.0
  Mo  Mo16  1  0.58446068  0.75000000  -0.08446068  1.0
  Mo  Mo17  1  1.08446068  -0.58446068  0.25000000  1.0
  Mo  Mo18  1  0.25000000  1.08446068  -0.58446068  1.0
  Mo  Mo19  1  0.75000000  0.91553932  -0.41553932  1.0
  Mo  Mo20  1  0.41553932  0.25000000  0.08446068  1.0
  Mo  Mo21  1  0.91553932  0.58446068  -0.25000000  1.0
  S  S22  1  0.78985761  1.11673168  -0.48264921  1.0
  S  S23  1  1.28985761  0.01735079  -0.38326832  1.0
  S  S24  1  0.98264921  0.38326832  -0.28985761  1.0
  S  S25  1  0.48264921  0.21014239  -0.11673168  1.0
  S  S26  1  0.88326832  0.48264921  -0.78985761  1.0
  S  S27  1  0.38326832  0.71014239  -0.01735079  1.0
  S  S28  1  0.21014239  0.88326832  -0.51735079  1.0
  S  S29  1  0.71014239  0.98264921  -0.61673168  1.0
  S  S30  1  0.51735079  0.78985761  0.11673168  1.0
  S  S31  1  1.01735079  -0.38326832  0.28985761  1.0
  S  S32  1  0.61673168  0.28985761  0.01735079  1.0
  S  S33  1  1.11673168  0.51735079  -0.21014239  1.0
  S  S34  1  1.05051141  0.75000000  -0.55051141  1.0
  S  S35  1  0.55051141  -0.05051141  0.25000000  1.0
  S  S36  1  0.25000000  0.55051141  -0.05051141  1.0
  S  S37  1  0.75000000  0.44948859  0.05051141  1.0
  S  S38  1  0.94948859  0.25000000  -0.44948859  1.0
  S  S39  1  0.44948859  1.05051141  -0.25000000  1.0
  S  S40  1  0.86375215  -0.13624785  -0.13624785  1.0
  S  S41  1  0.36375215  0.36375215  0.36375215  1.0
  S  S42  1  0.63624785  0.63624785  -0.36375215  1.0
  S  S43  1  1.13624785  0.13624785  0.13624785  1.0
