# generated using pymatgen
data_Ca5V3O13
_symmetry_space_group_name_H-M   'P 1'
_cell_length_a   10.05964369
_cell_length_b   10.05964369
_cell_length_c   6.86525769
_cell_angle_alpha   90.00000000
_cell_angle_beta   90.00000000
_cell_angle_gamma   120.00000000
_symmetry_Int_Tables_number   1
_chemical_formula_structural   Ca5V3O13
_chemical_formula_sum   'Ca10 V6 O26'
_cell_volume   601.66212326
_cell_formula_units_Z   2
loop_
 _symmetry_equiv_pos_site_id
 _symmetry_equiv_pos_as_xyz
  1  'x, y, z'
loop_
 _atom_site_type_symbol
 _atom_site_label
 _atom_site_symmetry_multiplicity
 _atom_site_fract_x
 _atom_site_fract_y
 _atom_site_fract_z
 _atom_site_occupancy
  O  O0  1  0.74438121  0.66120728  0.44705504  1.0
  O  O1  1  0.74438121  0.66120728  0.05294496  1.0
  O  O2  1  0.66120728  0.91682607  0.94705504  1.0
  O  O3  1  0.66120728  0.91682607  0.55294496  1.0
  O  O4  1  0.91682607  0.25561879  0.44705504  1.0
  O  O5  1  0.91682607  0.25561879  0.05294496  1.0
  O  O6  1  0.33879272  0.08317393  0.44705504  1.0
  O  O7  1  0.33879272  0.08317393  0.05294496  1.0
  O  O8  1  0.25561879  0.33879272  0.94705504  1.0
  O  O9  1  0.25561879  0.33879272  0.55294496  1.0
  O  O10  1  0.08317393  0.74438121  0.94705504  1.0
  O  O11  1  0.08317393  0.74438121  0.55294496  1.0
  O  O12  1  0.34628721  0.83802509  0.25000000  1.0
  O  O13  1  0.83802509  0.49173788  0.75000000  1.0
  O  O14  1  0.49173788  0.65371279  0.25000000  1.0
  O  O15  1  0.16197491  0.50826212  0.25000000  1.0
  O  O16  1  0.65371279  0.16197491  0.75000000  1.0
  O  O17  1  0.50826212  0.34628721  0.75000000  1.0
  O  O18  1  0.53342502  0.39441485  0.25000000  1.0
  O  O19  1  0.39441485  0.86098983  0.75000000  1.0
  O  O20  1  0.86098983  0.46657498  0.25000000  1.0
  O  O21  1  0.60558515  0.13901017  0.25000000  1.0
  O  O22  1  0.46657498  0.60558515  0.75000000  1.0
  O  O23  1  0.13901017  0.53342502  0.75000000  1.0
  O  O24  1  0.00000000  0.00000000  0.25000000  1.0
  O  O25  1  0.00000000  0.00000000  0.75000000  1.0
  Ca  Ca26  1  0.97641338  0.74395967  0.25000000  1.0
  Ca  Ca27  1  0.74395967  0.76754629  0.75000000  1.0
  Ca  Ca28  1  0.76754629  0.02358662  0.25000000  1.0
  Ca  Ca29  1  0.25604033  0.23245371  0.25000000  1.0
  Ca  Ca30  1  0.02358662  0.25604033  0.75000000  1.0
  Ca  Ca31  1  0.23245371  0.97641338  0.75000000  1.0
  Ca  Ca32  1  0.33333333  0.66666667  0.49721745  1.0
  Ca  Ca33  1  0.33333333  0.66666667  0.00278255  1.0
  Ca  Ca34  1  0.66666667  0.33333333  0.99721745  1.0
  Ca  Ca35  1  0.66666667  0.33333333  0.50278255  1.0
  V  V36  1  0.62319713  0.59402582  0.25000000  1.0
  V  V37  1  0.59402582  0.97082869  0.75000000  1.0
  V  V38  1  0.97082869  0.37680287  0.25000000  1.0
  V  V39  1  0.40597418  0.02917131  0.25000000  1.0
  V  V40  1  0.37680287  0.40597418  0.75000000  1.0
  V  V41  1  0.02917131  0.62319713  0.75000000  1.0
