# generated using pymatgen
data_TiMnH12(OF)6
_symmetry_space_group_name_H-M   'P 1'
_cell_length_a   6.64572930
_cell_length_b   6.64572930
_cell_length_c   6.64572930
_cell_angle_alpha   96.60597926
_cell_angle_beta   96.60597926
_cell_angle_gamma   96.60597926
_symmetry_Int_Tables_number   1
_chemical_formula_structural   TiMnH12(OF)6
_chemical_formula_sum   'Ti1 Mn1 H12 O6 F6'
_cell_volume   287.17130898
_cell_formula_units_Z   1
loop_
 _symmetry_equiv_pos_site_id
 _symmetry_equiv_pos_as_xyz
  1  'x, y, z'
loop_
 _atom_site_type_symbol
 _atom_site_label
 _atom_site_symmetry_multiplicity
 _atom_site_fract_x
 _atom_site_fract_y
 _atom_site_fract_z
 _atom_site_occupancy
  Ti  Ti0  1  0.00000000  0.00000000  0.00000000  1.0
  Mn  Mn1  1  0.50000000  0.50000000  0.50000000  1.0
  H  H2  1  1.54544019  0.71081294  -0.09844925  1.0
  H  H3  1  1.28918706  0.09844925  -0.54544019  1.0
  H  H4  1  1.09844925  -0.54544019  0.28918706  1.0
  H  H5  1  0.45455981  0.28918706  0.09844925  1.0
  H  H6  1  0.71081294  0.90155075  0.54544019  1.0
  H  H7  1  0.90155075  1.54544019  -0.28918706  1.0
  H  H8  1  0.69000108  0.81709103  0.30937929  1.0
  H  H9  1  1.18290897  -0.30937929  0.30999892  1.0
  H  H10  1  0.69062071  0.30999892  0.18290897  1.0
  H  H11  1  1.30999892  0.18290897  -0.30937929  1.0
  H  H12  1  0.81709103  1.30937929  -0.30999892  1.0
  H  H13  1  1.30937929  0.69000108  -0.18290897  1.0
  O  O14  1  1.43780027  0.63486191  -0.20208503  1.0
  O  O15  1  1.36513809  0.20208503  -0.43780027  1.0
  O  O16  1  1.20208503  -0.43780027  0.36513809  1.0
  O  O17  1  0.56219973  0.36513809  0.20208503  1.0
  O  O18  1  0.63486191  0.79791497  0.43780027  1.0
  O  O19  1  0.79791497  1.43780027  -0.36513809  1.0
  F  F20  1  0.75998771  0.85201684  0.06402266  1.0
  F  F21  1  1.14798316  -0.06402266  0.24001229  1.0
  F  F22  1  0.93597734  0.24001229  0.14798316  1.0
  F  F23  1  1.24001229  0.14798316  -0.06402266  1.0
  F  F24  1  0.85201684  1.06402266  -0.24001229  1.0
  F  F25  1  1.06402266  0.75998771  -0.14798316  1.0
