# generated using pymatgen
data_IrC4
_symmetry_space_group_name_H-M   'P 1'
_cell_length_a   5.02148661
_cell_length_b   5.02148661
_cell_length_c   5.21755445
_cell_angle_alpha   90.00000000
_cell_angle_beta   90.00000000
_cell_angle_gamma   133.44319952
_symmetry_Int_Tables_number   1
_chemical_formula_structural   IrC4
_chemical_formula_sum   'Ir2 C8'
_cell_volume   95.52168547
_cell_formula_units_Z   2
loop_
 _symmetry_equiv_pos_site_id
 _symmetry_equiv_pos_as_xyz
  1  'x, y, z'
loop_
 _atom_site_type_symbol
 _atom_site_label
 _atom_site_symmetry_multiplicity
 _atom_site_fract_x
 _atom_site_fract_y
 _atom_site_fract_z
 _atom_site_occupancy
  Ir  Ir0  1  0.00000000  0.00000000  0.00000000  1.0
  Ir  Ir1  1  0.50000000  0.50000000  0.50000000  1.0
  C  C2  1  -0.49703339  1.14502836  -0.00000288  1.0
  C  C3  1  -0.64502836  0.99703339  0.49999712  1.0
  C  C4  1  0.64502836  1.00296661  0.49999712  1.0
  C  C5  1  0.49703339  0.85497164  -0.00000288  1.0
  C  C6  1  -0.00296661  0.35497164  0.50000288  1.0
  C  C7  1  0.14502836  0.50296661  1.00000288  1.0
  C  C8  1  -0.14502836  1.49703339  1.00000288  1.0
  C  C9  1  0.00296661  1.64502836  0.50000288  1.0
