# generated using pymatgen
data_Rb
_symmetry_space_group_name_H-M   'P 1'
_cell_length_a   9.05085368
_cell_length_b   16.49477537
_cell_length_c   12.31330240
_cell_angle_alpha   109.53212911
_cell_angle_beta   102.51393034
_cell_angle_gamma   90.00169553
_symmetry_Int_Tables_number   1
_chemical_formula_structural   Rb
_chemical_formula_sum   Rb4
_cell_volume   1686.07670774
_cell_formula_units_Z   4
loop_
 _symmetry_equiv_pos_site_id
 _symmetry_equiv_pos_as_xyz
  1  'x, y, z'
loop_
 _atom_site_type_symbol
 _atom_site_label
 _atom_site_symmetry_multiplicity
 _atom_site_fract_x
 _atom_site_fract_y
 _atom_site_fract_z
 _atom_site_occupancy
  Rb  Rb0  1  -0.33063422  -0.24682937  -0.99440167  1.0
  Rb  Rb1  1  -0.66936578  -0.75317063  -0.00559833  1.0
  Rb  Rb2  1  -0.82999017  -0.24863662  -0.99341242  1.0
  Rb  Rb3  1  -0.17000983  -0.75136338  -0.00658758  1.0
