# generated using pymatgen
data_Ba2CaWN4
_symmetry_space_group_name_H-M   'P 1'
_cell_length_a   10.85853163
_cell_length_b   10.55013477
_cell_length_c   8.13930300
_cell_angle_alpha   69.67771565
_cell_angle_beta   65.66065275
_cell_angle_gamma   44.66163160
_symmetry_Int_Tables_number   1
_chemical_formula_structural   Ba2CaWN4
_chemical_formula_sum   'Ba8 Ca4 W4 N16'
_cell_volume   595.02988964
_cell_formula_units_Z   4
loop_
 _symmetry_equiv_pos_site_id
 _symmetry_equiv_pos_as_xyz
  1  'x, y, z'
loop_
 _atom_site_type_symbol
 _atom_site_label
 _atom_site_symmetry_multiplicity
 _atom_site_fract_x
 _atom_site_fract_y
 _atom_site_fract_z
 _atom_site_occupancy
  Ba  Ba0  1  0.11195702  1.11195702  -0.11195702  1.0
  Ba  Ba1  1  -0.11195702  0.88804298  0.11195702  1.0
  Ba  Ba2  1  0.13804298  0.13804298  0.36195702  1.0
  Ba  Ba3  1  0.36195702  0.36195702  0.13804298  1.0
  Ba  Ba4  1  -0.43044862  0.93044862  0.93044862  1.0
  Ba  Ba5  1  -0.06955138  0.56955138  0.56955138  1.0
  Ba  Ba6  1  -0.31955138  1.31955138  0.31955138  1.0
  Ba  Ba7  1  0.31955138  0.68044862  -0.31955138  1.0
  Ca  Ca8  1  0.33859941  0.33859941  -0.33859941  1.0
  Ca  Ca9  1  -0.33859941  0.66140059  0.33859941  1.0
  Ca  Ca10  1  -0.08859941  0.91140059  0.58859941  1.0
  Ca  Ca11  1  0.58859941  0.58859941  -0.08859941  1.0
  W  W12  1  0.75688893  0.24311107  0.75688893  1.0
  W  W13  1  0.24311107  0.75688893  0.24311107  1.0
  W  W14  1  0.49311107  0.00688893  0.49311107  1.0
  W  W15  1  0.00688893  0.49311107  0.00688893  1.0
  N  N16  1  0.42724861  0.74182333  0.24096435  1.0
  N  N17  1  -0.41003628  1.24096435  0.74182333  1.0
  N  N18  1  0.24096435  0.58996372  0.42724861  1.0
  N  N19  1  0.74182333  0.42724861  -0.41003628  1.0
  N  N20  1  0.82275139  -0.49182333  1.00903565  1.0
  N  N21  1  -0.33996372  1.00903565  0.50817667  1.0
  N  N22  1  1.00903565  -0.33996372  0.82275139  1.0
  N  N23  1  -0.49182333  0.82275139  0.66003628  1.0
  N  N24  1  0.25365493  0.23030078  0.54933762  1.0
  N  N25  1  -0.03329334  0.54933762  0.23030078  1.0
  N  N26  1  0.54933762  -0.03329334  0.25365493  1.0
  N  N27  1  0.23030078  0.25365493  -0.03329334  1.0
  N  N28  1  0.99634507  0.01969922  0.70066238  1.0
  N  N29  1  0.28329334  0.70066238  0.01969922  1.0
  N  N30  1  0.70066238  0.28329334  0.99634507  1.0
  N  N31  1  0.01969922  0.99634507  0.28329334  1.0
