# generated using pymatgen
data_Pb(SeO3)2
_symmetry_space_group_name_H-M   'P 1'
_cell_length_a   14.52551235
_cell_length_b   7.12989048
_cell_length_c   5.49846299
_cell_angle_alpha   90.00000000
_cell_angle_beta   90.00000000
_cell_angle_gamma   90.00000000
_symmetry_Int_Tables_number   1
_chemical_formula_structural   Pb(SeO3)2
_chemical_formula_sum   'Pb4 Se8 O24'
_cell_volume   569.45003662
_cell_formula_units_Z   4
loop_
 _symmetry_equiv_pos_site_id
 _symmetry_equiv_pos_as_xyz
  1  'x, y, z'
loop_
 _atom_site_type_symbol
 _atom_site_label
 _atom_site_symmetry_multiplicity
 _atom_site_fract_x
 _atom_site_fract_y
 _atom_site_fract_z
 _atom_site_occupancy
  Pb  Pb0  1  0.00000000  0.34379972  0.75000000  1.0
  Pb  Pb1  1  0.00000000  0.65620028  0.25000000  1.0
  Pb  Pb2  1  0.50000000  0.84379972  0.75000000  1.0
  Pb  Pb3  1  0.50000000  0.15620028  0.25000000  1.0
  Se  Se4  1  0.84569617  0.77312203  0.73184484  1.0
  Se  Se5  1  0.84569617  0.22687797  0.23184484  1.0
  Se  Se6  1  0.34569617  0.27312203  0.76815516  1.0
  Se  Se7  1  0.34569617  0.72687797  0.26815516  1.0
  Se  Se8  1  0.15430383  0.77312203  0.76815516  1.0
  Se  Se9  1  0.15430383  0.22687797  0.26815516  1.0
  Se  Se10  1  0.65430383  0.27312203  0.73184484  1.0
  Se  Se11  1  0.65430383  0.72687797  0.23184484  1.0
  O  O12  1  0.91908092  0.83813256  0.48769654  1.0
  O  O13  1  0.91908092  0.16186744  -0.01230346  1.0
  O  O14  1  0.41908092  0.33813256  1.01230346  1.0
  O  O15  1  0.41908092  0.66186744  0.51230346  1.0
  O  O16  1  0.08091908  0.83813256  1.01230346  1.0
  O  O17  1  0.08091908  0.16186744  0.51230346  1.0
  O  O18  1  0.58091908  0.33813256  0.48769654  1.0
  O  O19  1  0.58091908  0.66186744  -0.01230346  1.0
  O  O20  1  0.91716782  0.59830429  0.90020942  1.0
  O  O21  1  0.91716782  0.40169571  0.40020942  1.0
  O  O22  1  0.41716782  0.09830429  0.59979058  1.0
  O  O23  1  0.41716782  0.90169571  0.09979058  1.0
  O  O24  1  0.08283218  0.59830429  0.59979058  1.0
  O  O25  1  0.08283218  0.40169571  0.09979058  1.0
  O  O26  1  0.58283218  0.09830429  0.90020942  1.0
  O  O27  1  0.58283218  0.90169571  0.40020942  1.0
  O  O28  1  0.76442260  0.63955548  0.61929745  1.0
  O  O29  1  0.76442260  0.36044452  0.11929745  1.0
  O  O30  1  0.26442260  0.13955548  0.88070255  1.0
  O  O31  1  0.26442260  0.86044452  0.38070255  1.0
  O  O32  1  0.23557740  0.63955548  0.88070255  1.0
  O  O33  1  0.23557740  0.36044452  0.38070255  1.0
  O  O34  1  0.73557740  0.13955548  0.61929745  1.0
  O  O35  1  0.73557740  0.86044452  0.11929745  1.0
