# generated using pymatgen
data_NbBr5N2
_symmetry_space_group_name_H-M   'P 1'
_cell_length_a   7.57915405
_cell_length_b   7.57915405
_cell_length_c   18.93123322
_cell_angle_alpha   90.00000000
_cell_angle_beta   90.00000000
_cell_angle_gamma   90.00000000
_symmetry_Int_Tables_number   1
_chemical_formula_structural   NbBr5N2
_chemical_formula_sum   'Nb4 Br20 N8'
_cell_volume   1087.47773716
_cell_formula_units_Z   4
loop_
 _symmetry_equiv_pos_site_id
 _symmetry_equiv_pos_as_xyz
  1  'x, y, z'
loop_
 _atom_site_type_symbol
 _atom_site_label
 _atom_site_symmetry_multiplicity
 _atom_site_fract_x
 _atom_site_fract_y
 _atom_site_fract_z
 _atom_site_occupancy
  Br  Br0  1  0.50000000  0.50000000  0.25184462  1.0
  Br  Br1  1  0.50000000  0.50000000  0.74815538  1.0
  Br  Br2  1  0.00000000  0.00000000  0.75184462  1.0
  Br  Br3  1  0.00000000  0.00000000  0.24815538  1.0
  Br  Br4  1  0.26671241  0.73599318  0.38412808  1.0
  Br  Br5  1  0.26671241  0.73599318  0.61587192  1.0
  Br  Br6  1  0.76671241  0.76400682  0.88412808  1.0
  Br  Br7  1  0.76671241  0.76400682  0.11587192  1.0
  Br  Br8  1  0.26400682  0.26671241  0.38412808  1.0
  Br  Br9  1  0.26400682  0.26671241  0.61587192  1.0
  Br  Br10  1  0.76400682  0.23328759  0.88412808  1.0
  Br  Br11  1  0.76400682  0.23328759  0.11587192  1.0
  Br  Br12  1  0.73328759  0.26400682  0.38412808  1.0
  Br  Br13  1  0.73328759  0.26400682  0.61587192  1.0
  Br  Br14  1  0.23328759  0.23599318  0.88412808  1.0
  Br  Br15  1  0.23328759  0.23599318  0.11587192  1.0
  Br  Br16  1  0.73599318  0.73328759  0.38412808  1.0
  Br  Br17  1  0.73599318  0.73328759  0.61587192  1.0
  Br  Br18  1  0.23599318  0.76671241  0.88412808  1.0
  Br  Br19  1  0.23599318  0.76671241  0.11587192  1.0
  Nb  Nb20  1  0.50000000  0.50000000  0.40130893  1.0
  Nb  Nb21  1  0.50000000  0.50000000  0.59869107  1.0
  Nb  Nb22  1  0.00000000  0.00000000  0.90130893  1.0
  Nb  Nb23  1  0.00000000  0.00000000  0.09869107  1.0
  N  N24  1  0.50000000  0.50000000  0.50000000  1.0
  N  N25  1  0.00000000  0.00000000  -0.00000000  1.0
  N  N26  1  0.50000000  0.00000000  0.25000000  1.0
  N  N27  1  0.50000000  0.00000000  0.75000000  1.0
  N  N28  1  0.00000000  0.50000000  0.75000000  1.0
  N  N29  1  0.00000000  0.50000000  0.25000000  1.0
  N  N30  1  0.50000000  0.50000000  0.00000000  1.0
  N  N31  1  0.00000000  0.00000000  0.50000000  1.0
