# generated using pymatgen
data_Rb2Si2O5
_symmetry_space_group_name_H-M   'P 1'
_cell_length_a   6.69429085
_cell_length_b   6.69429085
_cell_length_c   14.93015665
_cell_angle_alpha   89.74186559
_cell_angle_beta   90.25813441
_cell_angle_gamma   100.10566041
_symmetry_Int_Tables_number   1
_chemical_formula_structural   Rb2Si2O5
_chemical_formula_sum   'Rb8 Si8 O20'
_cell_volume   658.68154943
_cell_formula_units_Z   4
loop_
 _symmetry_equiv_pos_site_id
 _symmetry_equiv_pos_as_xyz
  1  'x, y, z'
loop_
 _atom_site_type_symbol
 _atom_site_label
 _atom_site_symmetry_multiplicity
 _atom_site_fract_x
 _atom_site_fract_y
 _atom_site_fract_z
 _atom_site_occupancy
  Rb  Rb0  1  0.45466723  -0.23940657  0.07378094  1.0
  Rb  Rb1  1  1.23940657  0.54533277  0.57378094  1.0
  Rb  Rb2  1  0.76059343  -0.54533277  0.42621906  1.0
  Rb  Rb3  1  1.54533277  0.23940657  0.92621906  1.0
  Rb  Rb4  1  1.19445548  0.04251592  0.39682878  1.0
  Rb  Rb5  1  0.95748408  -0.19445548  0.89682878  1.0
  Rb  Rb6  1  1.04251592  0.19445548  0.10317122  1.0
  Rb  Rb7  1  0.80554452  -0.04251592  0.60317122  1.0
  Si  Si8  1  0.68243800  -0.08776068  0.31882095  1.0
  Si  Si9  1  1.08776068  0.31756200  0.81882095  1.0
  Si  Si10  1  0.91223932  -0.31756200  0.18117905  1.0
  Si  Si11  1  1.31756200  0.08776068  0.68117905  1.0
  Si  Si12  1  1.55901352  0.27916674  0.20592439  1.0
  Si  Si13  1  0.72083326  -0.55901352  0.70592439  1.0
  Si  Si14  1  1.27916674  0.55901352  0.29407561  1.0
  Si  Si15  1  0.44098648  -0.27916674  0.79407561  1.0
  O  O16  1  1.75409130  -0.08482279  0.42040811  1.0
  O  O17  1  1.08482279  -0.75409130  0.92040811  1.0
  O  O18  1  0.91517721  0.75409130  0.07959189  1.0
  O  O19  1  0.24590870  0.08482279  0.57959189  1.0
  O  O20  1  0.47612450  -0.25418069  0.29566538  1.0
  O  O21  1  1.25418069  0.52387550  0.79566538  1.0
  O  O22  1  0.74581931  -0.52387550  0.20433462  1.0
  O  O23  1  1.52387550  0.25418069  0.70433462  1.0
  O  O24  1  1.62847451  0.13489533  0.28733978  1.0
  O  O25  1  0.86510467  -0.62847451  0.78733978  1.0
  O  O26  1  1.13489533  0.62847451  0.21266022  1.0
  O  O27  1  0.37152549  -0.13489533  0.71266022  1.0
  O  O28  1  1.50856301  0.17461703  0.11136656  1.0
  O  O29  1  0.82538297  -0.50856301  0.61136656  1.0
  O  O30  1  1.17461703  0.50856301  0.38863344  1.0
  O  O31  1  0.49143699  -0.17461703  0.88863344  1.0
  O  O32  1  0.86356549  -0.13643451  0.25000000  1.0
  O  O33  1  1.13643451  0.13643451  0.75000000  1.0
  O  O34  1  1.35840182  0.35840182  0.25000000  1.0
  O  O35  1  0.64159818  -0.35840182  0.75000000  1.0
