# generated using pymatgen
data_In2CuS4
_symmetry_space_group_name_H-M   'P 1'
_cell_length_a   6.84510990
_cell_length_b   6.84510990
_cell_length_c   6.84510990
_cell_angle_alpha   133.00734960
_cell_angle_beta   133.00734960
_cell_angle_gamma   68.64260595
_symmetry_Int_Tables_number   1
_chemical_formula_structural   In2CuS4
_chemical_formula_sum   'In2 Cu1 S4'
_cell_volume   168.42014176
_cell_formula_units_Z   1
loop_
 _symmetry_equiv_pos_site_id
 _symmetry_equiv_pos_as_xyz
  1  'x, y, z'
loop_
 _atom_site_type_symbol
 _atom_site_label
 _atom_site_symmetry_multiplicity
 _atom_site_fract_x
 _atom_site_fract_y
 _atom_site_fract_z
 _atom_site_occupancy
  In  In0  1  0.50000000  0.50000000  1.00000000  1.0
  In  In1  1  0.75000000  0.25000000  0.50000000  1.0
  Cu  Cu2  1  0.00000000  0.00000000  0.00000000  1.0
  S  S3  1  1.12567692  1.08981662  1.46668309  1.0
  S  S4  1  0.62313353  0.65899383  0.53331691  1.0
  S  S5  1  0.34100617  0.87432308  0.96413970  1.0
  S  S6  1  0.91018338  0.37686647  1.03586030  1.0
