# generated using pymatgen
data_Hf2P
_symmetry_space_group_name_H-M   'P 1'
_cell_length_a   12.27411105
_cell_length_b   15.08709385
_cell_length_c   3.59650219
_cell_angle_alpha   90.00000000
_cell_angle_beta   90.00000000
_cell_angle_gamma   90.00000000
_symmetry_Int_Tables_number   1
_chemical_formula_structural   Hf2P
_chemical_formula_sum   'Hf24 P12'
_cell_volume   666.00266877
_cell_formula_units_Z   12
loop_
 _symmetry_equiv_pos_site_id
 _symmetry_equiv_pos_as_xyz
  1  'x, y, z'
loop_
 _atom_site_type_symbol
 _atom_site_label
 _atom_site_symmetry_multiplicity
 _atom_site_fract_x
 _atom_site_fract_y
 _atom_site_fract_z
 _atom_site_occupancy
  Hf  Hf0  1  0.47431960  0.60632304  0.50000000  1.0
  Hf  Hf1  1  0.97431960  0.89367696  -0.00000000  1.0
  Hf  Hf2  1  0.52568040  0.39367696  0.50000000  1.0
  Hf  Hf3  1  0.02568040  0.10632304  -0.00000000  1.0
  Hf  Hf4  1  0.41191704  0.07620082  0.50000000  1.0
  Hf  Hf5  1  0.91191704  0.42379918  0.00000000  1.0
  Hf  Hf6  1  0.58808296  0.92379918  0.50000000  1.0
  Hf  Hf7  1  0.08808296  0.57620082  0.00000000  1.0
  Hf  Hf8  1  0.15980239  0.97766086  0.50000000  1.0
  Hf  Hf9  1  0.65980239  0.52233914  0.00000000  1.0
  Hf  Hf10  1  0.84019761  0.02233914  0.50000000  1.0
  Hf  Hf11  1  0.34019761  0.47766086  0.00000000  1.0
  Hf  Hf12  1  0.09680673  0.74617743  0.50000000  1.0
  Hf  Hf13  1  0.59680673  0.75382257  -0.00000000  1.0
  Hf  Hf14  1  0.90319327  0.25382257  0.50000000  1.0
  Hf  Hf15  1  0.40319327  0.24617743  -0.00000000  1.0
  Hf  Hf16  1  0.88307946  0.58435084  0.50000000  1.0
  Hf  Hf17  1  0.38307946  0.91564916  0.00000000  1.0
  Hf  Hf18  1  0.11692054  0.41564916  0.50000000  1.0
  Hf  Hf19  1  0.61692054  0.08435084  0.00000000  1.0
  Hf  Hf20  1  0.81245847  0.79091189  0.50000000  1.0
  Hf  Hf21  1  0.31245847  0.70908811  0.00000000  1.0
  Hf  Hf22  1  0.18754153  0.20908811  0.50000000  1.0
  Hf  Hf23  1  0.68754153  0.29091189  0.00000000  1.0
  P  P24  1  0.44256441  0.78834028  0.50000000  1.0
  P  P25  1  0.94256441  0.71165972  -0.00000000  1.0
  P  P26  1  0.55743559  0.21165972  0.50000000  1.0
  P  P27  1  0.05743559  0.28834028  -0.00000000  1.0
  P  P28  1  0.24505670  0.59043782  0.50000000  1.0
  P  P29  1  0.74505670  0.90956218  0.00000000  1.0
  P  P30  1  0.75494330  0.40956218  0.50000000  1.0
  P  P31  1  0.25494330  0.09043782  0.00000000  1.0
  P  P32  1  0.68751065  0.64997477  0.50000000  1.0
  P  P33  1  0.18751065  0.85002523  0.00000000  1.0
  P  P34  1  0.31248935  0.35002523  0.50000000  1.0
  P  P35  1  0.81248935  0.14997477  0.00000000  1.0
