# generated using pymatgen
data_Na4CaSn6
_symmetry_space_group_name_H-M   'P 1'
_cell_length_a   10.12499656
_cell_length_b   10.12499656
_cell_length_c   7.25986580
_cell_angle_alpha   90.00000000
_cell_angle_beta   90.00000000
_cell_angle_gamma   120.00000000
_symmetry_Int_Tables_number   1
_chemical_formula_structural   Na4CaSn6
_chemical_formula_sum   'Na8 Ca2 Sn12'
_cell_volume   644.53869144
_cell_formula_units_Z   2
loop_
 _symmetry_equiv_pos_site_id
 _symmetry_equiv_pos_as_xyz
  1  'x, y, z'
loop_
 _atom_site_type_symbol
 _atom_site_label
 _atom_site_symmetry_multiplicity
 _atom_site_fract_x
 _atom_site_fract_y
 _atom_site_fract_z
 _atom_site_occupancy
  Na  Na0  1  0.54292819  0.45707181  0.25000000  1.0
  Na  Na1  1  0.54292819  0.08585638  0.25000000  1.0
  Na  Na2  1  0.45707181  0.54292819  0.75000000  1.0
  Na  Na3  1  0.45707181  0.91414362  0.75000000  1.0
  Na  Na4  1  0.91414362  0.45707181  0.25000000  1.0
  Na  Na5  1  0.08585638  0.54292819  0.75000000  1.0
  Na  Na6  1  0.33333333  0.66666667  0.25000000  1.0
  Na  Na7  1  0.66666667  0.33333333  0.75000000  1.0
  Ca  Ca8  1  0.00000000  0.00000000  0.25000000  1.0
  Ca  Ca9  1  0.00000000  0.00000000  0.75000000  1.0
  Sn  Sn10  1  0.16887564  0.83112436  0.45946817  1.0
  Sn  Sn11  1  0.16887564  0.83112436  0.04053183  1.0
  Sn  Sn12  1  0.16887564  0.33775129  0.45946817  1.0
  Sn  Sn13  1  0.16887564  0.33775129  0.04053183  1.0
  Sn  Sn14  1  0.83112436  0.16887564  0.95946817  1.0
  Sn  Sn15  1  0.83112436  0.16887564  0.54053183  1.0
  Sn  Sn16  1  0.83112436  0.66224871  0.95946817  1.0
  Sn  Sn17  1  0.83112436  0.66224871  0.54053183  1.0
  Sn  Sn18  1  0.66224871  0.83112436  0.45946817  1.0
  Sn  Sn19  1  0.66224871  0.83112436  0.04053183  1.0
  Sn  Sn20  1  0.33775129  0.16887564  0.95946817  1.0
  Sn  Sn21  1  0.33775129  0.16887564  0.54053183  1.0
