# generated using pymatgen
data_Y4Rh6Pb19
_symmetry_space_group_name_H-M   'P 1'
_cell_length_a   10.11302093
_cell_length_b   10.11302093
_cell_length_c   10.11302093
_cell_angle_alpha   109.47122063
_cell_angle_beta   109.47122063
_cell_angle_gamma   109.47122063
_symmetry_Int_Tables_number   1
_chemical_formula_structural   Y4Rh6Pb19
_chemical_formula_sum   'Y4 Rh6 Pb19'
_cell_volume   796.19753271
_cell_formula_units_Z   1
loop_
 _symmetry_equiv_pos_site_id
 _symmetry_equiv_pos_as_xyz
  1  'x, y, z'
loop_
 _atom_site_type_symbol
 _atom_site_label
 _atom_site_symmetry_multiplicity
 _atom_site_fract_x
 _atom_site_fract_y
 _atom_site_fract_z
 _atom_site_occupancy
  Y  Y0  1  0.66329772  0.66329772  0.66329772  1.0
  Y  Y1  1  1.00000000  1.00000000  0.33670228  1.0
  Y  Y2  1  1.00000000  0.33670228  1.00000000  1.0
  Y  Y3  1  0.33670228  1.00000000  1.00000000  1.0
  Rh  Rh4  1  0.37393384  0.87393384  0.50000000  1.0
  Rh  Rh5  1  0.50000000  0.37393384  0.87393384  1.0
  Rh  Rh6  1  0.50000000  0.62606616  0.12606616  1.0
  Rh  Rh7  1  0.87393384  0.50000000  0.37393384  1.0
  Rh  Rh8  1  0.12606616  0.50000000  0.62606616  1.0
  Rh  Rh9  1  0.62606616  0.12606616  0.50000000  1.0
  Pb  Pb10  1  0.36257343  0.58663135  0.33840057  1.0
  Pb  Pb11  1  1.24823078  1.02417286  0.66159943  1.0
  Pb  Pb12  1  0.33840057  0.36257343  0.58663135  1.0
  Pb  Pb13  1  0.77594208  0.75176922  0.41336865  1.0
  Pb  Pb14  1  0.58663135  0.33840057  0.36257343  1.0
  Pb  Pb15  1  0.97582714  1.22405792  1.63742657  1.0
  Pb  Pb16  1  0.75176922  0.41336865  0.77594208  1.0
  Pb  Pb17  1  1.63742657  0.97582714  1.22405792  1.0
  Pb  Pb18  1  1.22405792  1.63742657  0.97582714  1.0
  Pb  Pb19  1  0.66159943  1.24823078  1.02417286  1.0
  Pb  Pb20  1  1.02417286  0.66159943  1.24823078  1.0
  Pb  Pb21  1  0.41336865  0.77594208  0.75176922  1.0
  Pb  Pb22  1  0.69515333  0.69515333  -0.00000000  1.0
  Pb  Pb23  1  -0.00000000  0.69515333  0.69515333  1.0
  Pb  Pb24  1  -0.00000000  0.30484667  0.30484667  1.0
  Pb  Pb25  1  0.69515333  -0.00000000  0.69515333  1.0
  Pb  Pb26  1  0.30484667  0.00000000  0.30484667  1.0
  Pb  Pb27  1  0.30484667  0.30484667  -0.00000000  1.0
  Pb  Pb28  1  -0.00000000  -0.00000000  0.00000000  1.0
