# generated using pymatgen
data_Ce2InCu2
_symmetry_space_group_name_H-M   'P 1'
_cell_length_a   8.29883175
_cell_length_b   8.29883175
_cell_length_c   3.29823913
_cell_angle_alpha   90.00000000
_cell_angle_beta   90.00000000
_cell_angle_gamma   90.00000000
_symmetry_Int_Tables_number   1
_chemical_formula_structural   Ce2InCu2
_chemical_formula_sum   'Ce4 In2 Cu4'
_cell_volume   227.15173551
_cell_formula_units_Z   2
loop_
 _symmetry_equiv_pos_site_id
 _symmetry_equiv_pos_as_xyz
  1  'x, y, z'
loop_
 _atom_site_type_symbol
 _atom_site_label
 _atom_site_symmetry_multiplicity
 _atom_site_fract_x
 _atom_site_fract_y
 _atom_site_fract_z
 _atom_site_occupancy
  Ce  Ce0  1  0.62069851  0.12069851  0.00000000  1.0
  Ce  Ce1  1  0.37930149  0.87930149  0.00000000  1.0
  Ce  Ce2  1  0.87930149  0.62069851  -0.00000000  1.0
  Ce  Ce3  1  0.12069851  0.37930149  -0.00000000  1.0
  In  In4  1  0.50000000  0.50000000  0.00000000  1.0
  In  In5  1  0.00000000  0.00000000  0.00000000  1.0
  Cu  Cu6  1  0.17252453  0.67252453  0.50000000  1.0
  Cu  Cu7  1  0.82747547  0.32747547  0.50000000  1.0
  Cu  Cu8  1  0.32747547  0.17252453  0.50000000  1.0
  Cu  Cu9  1  0.67252453  0.82747547  0.50000000  1.0
