# generated using pymatgen
data_Zr6MnCl14
_symmetry_space_group_name_H-M   'P 1'
_cell_length_a   9.92914166
_cell_length_b   9.92914166
_cell_length_c   11.97168018
_cell_angle_alpha   90.00000000
_cell_angle_beta   90.00000000
_cell_angle_gamma   82.70458524
_symmetry_Int_Tables_number   1
_chemical_formula_structural   Zr6MnCl14
_chemical_formula_sum   'Zr12 Mn2 Cl28'
_cell_volume   1170.70757371
_cell_formula_units_Z   2
loop_
 _symmetry_equiv_pos_site_id
 _symmetry_equiv_pos_as_xyz
  1  'x, y, z'
loop_
 _atom_site_type_symbol
 _atom_site_label
 _atom_site_symmetry_multiplicity
 _atom_site_fract_x
 _atom_site_fract_y
 _atom_site_fract_z
 _atom_site_occupancy
  Zr  Zr0  1  0.45362282  1.30595830  0.37909611  1.0
  Zr  Zr1  1  -0.04637718  0.80595830  0.12090389  1.0
  Zr  Zr2  1  0.30595830  1.45362282  0.62090389  1.0
  Zr  Zr3  1  -0.19404170  0.95362282  0.87909611  1.0
  Zr  Zr4  1  -0.30595830  0.54637718  0.37909611  1.0
  Zr  Zr5  1  0.19404170  1.04637718  0.12090389  1.0
  Zr  Zr6  1  -0.45362282  0.69404170  0.62090389  1.0
  Zr  Zr7  1  0.04637718  1.19404170  0.87909611  1.0
  Zr  Zr8  1  -0.14721206  1.14721206  0.10865144  1.0
  Zr  Zr9  1  0.35278794  0.64721206  0.39134856  1.0
  Zr  Zr10  1  0.14721206  0.85278794  0.89134856  1.0
  Zr  Zr11  1  -0.35278794  1.35278794  0.60865144  1.0
  Mn  Mn12  1  -0.50000000  0.50000000  0.50000000  1.0
  Mn  Mn13  1  0.00000000  1.00000000  0.00000000  1.0
  Cl  Cl14  1  -0.38248323  1.14105866  0.49240718  1.0
  Cl  Cl15  1  0.11751677  0.64105866  0.00759282  1.0
  Cl  Cl16  1  0.14105866  0.61751677  0.50759282  1.0
  Cl  Cl17  1  -0.35894134  1.11751677  0.99240718  1.0
  Cl  Cl18  1  -0.14105866  1.38248323  0.49240718  1.0
  Cl  Cl19  1  0.35894134  0.88248323  0.00759282  1.0
  Cl  Cl20  1  0.38248323  0.85894134  0.50759282  1.0
  Cl  Cl21  1  -0.11751677  1.35894134  0.99240718  1.0
  Cl  Cl22  1  -0.20367818  0.96377910  0.24535925  1.0
  Cl  Cl23  1  0.29632182  1.46377910  0.25464075  1.0
  Cl  Cl24  1  -0.03622090  0.79632182  0.75464075  1.0
  Cl  Cl25  1  0.46377910  1.29632182  0.74535925  1.0
  Cl  Cl26  1  0.03622090  1.20367818  0.24535925  1.0
  Cl  Cl27  1  -0.46377910  0.70367818  0.25464075  1.0
  Cl  Cl28  1  0.20367818  1.03622090  0.75464075  1.0
  Cl  Cl29  1  -0.29632182  0.53622090  0.74535925  1.0
  Cl  Cl30  1  -0.34014603  1.34014603  0.24437074  1.0
  Cl  Cl31  1  0.15985397  0.84014603  0.25562926  1.0
  Cl  Cl32  1  0.34014603  0.65985397  0.75562926  1.0
  Cl  Cl33  1  -0.15985397  1.15985397  0.74437074  1.0
  Cl  Cl34  1  0.39944905  1.10055095  0.25000000  1.0
  Cl  Cl35  1  -0.10055095  0.60055095  0.25000000  1.0
  Cl  Cl36  1  0.10055095  1.39944905  0.75000000  1.0
  Cl  Cl37  1  -0.39944905  0.89944905  0.75000000  1.0
  Cl  Cl38  1  0.25492536  1.25492536  0.50000000  1.0
  Cl  Cl39  1  -0.24507464  0.75492536  0.00000000  1.0
  Cl  Cl40  1  -0.25492536  0.74507464  0.50000000  1.0
  Cl  Cl41  1  0.24507464  1.24507464  0.00000000  1.0
