# generated using pymatgen
data_HfTe5
_symmetry_space_group_name_H-M   'P 1'
_cell_length_a   8.11611236
_cell_length_b   8.11611236
_cell_length_c   13.83489827
_cell_angle_alpha   90.00000000
_cell_angle_beta   90.00000000
_cell_angle_gamma   151.26275141
_symmetry_Int_Tables_number   1
_chemical_formula_structural   HfTe5
_chemical_formula_sum   'Hf2 Te10'
_cell_volume   438.15803876
_cell_formula_units_Z   2
loop_
 _symmetry_equiv_pos_site_id
 _symmetry_equiv_pos_as_xyz
  1  'x, y, z'
loop_
 _atom_site_type_symbol
 _atom_site_label
 _atom_site_symmetry_multiplicity
 _atom_site_fract_x
 _atom_site_fract_y
 _atom_site_fract_z
 _atom_site_occupancy
  Hf  Hf0  1  -0.31229440  0.31229440  0.75000000  1.0
  Hf  Hf1  1  0.31229440  0.68770560  0.25000000  1.0
  Te  Te2  1  0.08189981  0.91810019  0.85083765  1.0
  Te  Te3  1  0.08189981  0.91810019  0.64916235  1.0
  Te  Te4  1  -0.08189981  0.08189981  0.35083765  1.0
  Te  Te5  1  -0.08189981  0.08189981  0.14916235  1.0
  Te  Te6  1  0.21316243  0.78683757  0.43386085  1.0
  Te  Te7  1  0.21316243  0.78683757  0.06613915  1.0
  Te  Te8  1  -0.21316243  0.21316243  0.93386085  1.0
  Te  Te9  1  -0.21316243  0.21316243  0.56613915  1.0
  Te  Te10  1  0.32902768  0.67097232  0.75000000  1.0
  Te  Te11  1  -0.32902768  0.32902768  0.25000000  1.0
