# generated using pymatgen
data_ZrH24C8(NF3)2
_symmetry_space_group_name_H-M   'P 1'
_cell_length_a   8.30448492
_cell_length_b   8.30448492
_cell_length_c   8.30448492
_cell_angle_alpha   59.89266444
_cell_angle_beta   59.89266444
_cell_angle_gamma   59.89266445
_symmetry_Int_Tables_number   1
_chemical_formula_structural   ZrH24C8(NF3)2
_chemical_formula_sum   'Zr1 H24 C8 N2 F6'
_cell_volume   403.98405068
_cell_formula_units_Z   1
loop_
 _symmetry_equiv_pos_site_id
 _symmetry_equiv_pos_as_xyz
  1  'x, y, z'
loop_
 _atom_site_type_symbol
 _atom_site_label
 _atom_site_symmetry_multiplicity
 _atom_site_fract_x
 _atom_site_fract_y
 _atom_site_fract_z
 _atom_site_occupancy
  Zr  Zr0  1  0.00000000  0.00000000  0.00000000  1.0
  H  H1  1  0.26695382  0.27012353  -0.02386167  1.0
  H  H2  1  0.27012353  0.97613833  -0.73304618  1.0
  H  H3  1  0.97613833  0.26695382  -0.72987647  1.0
  H  H4  1  0.73304618  -0.27012353  0.02386167  1.0
  H  H5  1  0.72987647  0.02386167  -0.26695382  1.0
  H  H6  1  1.02386167  -0.26695382  -0.27012353  1.0
  H  H7  1  1.26599108  -0.51306513  -0.02286417  1.0
  H  H8  1  0.48693487  -0.02286417  0.26599108  1.0
  H  H9  1  0.97713583  0.26599108  -0.51306513  1.0
  H  H10  1  0.73400892  -0.48693487  0.02286417  1.0
  H  H11  1  0.51306513  0.02286417  -0.26599108  1.0
  H  H12  1  1.02286417  -0.26599108  -0.48693487  1.0
  H  H13  1  0.48404140  0.27069303  -0.02492274  1.0
  H  H14  1  0.27069303  0.97507726  -0.51595860  1.0
  H  H15  1  0.97507726  0.48404140  -0.72930697  1.0
  H  H16  1  0.51595860  -0.27069303  0.02492274  1.0
  H  H17  1  0.72930697  0.02492274  -0.48404140  1.0
  H  H18  1  1.02492274  -0.48404140  -0.27069303  1.0
  H  H19  1  0.26775618  0.48521818  -0.73163680  1.0
  H  H20  1  0.48521818  0.26836320  -0.73224382  1.0
  H  H21  1  0.26836320  0.26775618  -0.51478182  1.0
  H  H22  1  0.73224382  0.51478182  -0.26836320  1.0
  H  H23  1  0.51478182  0.73163680  -0.26775618  1.0
  H  H24  1  0.73163680  0.73224382  -0.48521818  1.0
  C  C25  1  0.32209136  0.32502529  0.02768625  1.0
  C  C26  1  0.32502529  1.02768625  -0.67790864  1.0
  C  C27  1  1.02768625  0.32209136  -0.67497471  1.0
  C  C28  1  0.67790864  -0.32502529  -0.02768625  1.0
  C  C29  1  0.67497471  -0.02768625  -0.32209136  1.0
  C  C30  1  0.97231375  -0.32209136  -0.32502529  1.0
  C  C31  1  0.32328797  0.32328797  0.32328797  1.0
  C  C32  1  0.67671203  -0.32328797  -0.32328797  1.0
  N  N33  1  0.24950744  0.24950744  0.24950744  1.0
  N  N34  1  0.75049256  -0.24950744  -0.24950744  1.0
  F  F35  1  1.17345391  -0.17127547  -0.17522089  1.0
  F  F36  1  0.82872453  -0.17522089  0.17345391  1.0
  F  F37  1  0.82477911  0.17345391  -0.17127547  1.0
  F  F38  1  0.82654609  0.17127547  -0.82477911  1.0
  F  F39  1  0.17127547  0.17522089  -0.17345391  1.0
  F  F40  1  0.17522089  0.82654609  -0.82872453  1.0
