# generated using pymatgen
data_H5BrNO
_symmetry_space_group_name_H-M   'P 1'
_cell_length_a   6.79558617
_cell_length_b   6.97983385
_cell_length_c   8.05493803
_cell_angle_alpha   90.00000000
_cell_angle_beta   112.53080304
_cell_angle_gamma   90.00000000
_symmetry_Int_Tables_number   1
_chemical_formula_structural   H5BrNO
_chemical_formula_sum   'H20 Br4 N4 O4'
_cell_volume   352.90090533
_cell_formula_units_Z   4
loop_
 _symmetry_equiv_pos_site_id
 _symmetry_equiv_pos_as_xyz
  1  'x, y, z'
loop_
 _atom_site_type_symbol
 _atom_site_label
 _atom_site_symmetry_multiplicity
 _atom_site_fract_x
 _atom_site_fract_y
 _atom_site_fract_z
 _atom_site_occupancy
  H  H0  1  0.86382178  0.80790225  0.35908624  1.0
  H  H1  1  0.86382178  0.69209775  0.85908624  1.0
  H  H2  1  0.13617822  0.30790225  0.14091376  1.0
  H  H3  1  0.13617822  0.19209775  0.64091376  1.0
  H  H4  1  0.75080975  0.91438971  0.46999522  1.0
  H  H5  1  0.75080975  0.58561029  0.96999522  1.0
  H  H6  1  0.24919025  0.41438971  0.03000478  1.0
  H  H7  1  0.24919025  0.08561029  0.53000478  1.0
  H  H8  1  0.67307023  0.12990378  0.01253606  1.0
  H  H9  1  0.67307023  0.37009622  0.51253606  1.0
  H  H10  1  0.32692977  0.62990378  0.48746394  1.0
  H  H11  1  0.32692977  0.87009622  0.98746394  1.0
  H  H12  1  0.45171734  0.41985336  0.31903632  1.0
  H  H13  1  0.45171734  0.08014664  0.81903632  1.0
  H  H14  1  0.54828266  0.91985336  0.18096368  1.0
  H  H15  1  0.54828266  0.58014664  0.68096368  1.0
  H  H16  1  0.36714339  0.10260193  0.07924296  1.0
  H  H17  1  0.36714339  0.39739807  0.57924296  1.0
  H  H18  1  0.63285661  0.60260194  0.42075704  1.0
  H  H19  1  0.63285661  0.89739807  0.92075704  1.0
  Br  Br20  1  0.83113139  0.36635365  0.18794580  1.0
  Br  Br21  1  0.83113139  0.13364635  0.68794580  1.0
  Br  Br22  1  0.16886861  0.86635365  0.31205420  1.0
  Br  Br23  1  0.16886861  0.63364635  0.81205420  1.0
  N  N24  1  0.55868302  0.47699818  0.44422550  1.0
  N  N25  1  0.55868302  0.02300182  0.94422550  1.0
  N  N26  1  0.44131698  0.97699818  0.05577450  1.0
  N  N27  1  0.44131698  0.52300182  0.55577450  1.0
  O  O28  1  0.72354045  0.81873062  0.37107354  1.0
  O  O29  1  0.72354045  0.68126938  0.87107354  1.0
  O  O30  1  0.27645955  0.31873062  0.12892646  1.0
  O  O31  1  0.27645955  0.18126938  0.62892646  1.0
