# generated using pymatgen
data_Li2TeO3
_symmetry_space_group_name_H-M   'P 1'
_cell_length_a   5.51305934
_cell_length_b   5.51305934
_cell_length_c   14.29388241
_cell_angle_alpha   87.20681645
_cell_angle_beta   92.79318355
_cell_angle_gamma   57.51500869
_symmetry_Int_Tables_number   1
_chemical_formula_structural   Li2TeO3
_chemical_formula_sum   'Li8 Te4 O12'
_cell_volume   364.58418324
_cell_formula_units_Z   4
loop_
 _symmetry_equiv_pos_site_id
 _symmetry_equiv_pos_as_xyz
  1  'x, y, z'
loop_
 _atom_site_type_symbol
 _atom_site_label
 _atom_site_symmetry_multiplicity
 _atom_site_fract_x
 _atom_site_fract_y
 _atom_site_fract_z
 _atom_site_occupancy
  Li  Li0  1  0.72501977  0.13016029  0.68548420  1.0
  Li  Li1  1  0.86983971  -0.72501977  0.18548420  1.0
  Li  Li2  1  1.13016029  -0.27498023  0.81451580  1.0
  Li  Li3  1  0.27498023  -0.13016029  0.31451580  1.0
  Li  Li4  1  0.44525876  0.04067795  0.81594633  1.0
  Li  Li5  1  0.95932205  -0.44525876  0.31594633  1.0
  Li  Li6  1  1.04067795  -0.55474124  0.68405367  1.0
  Li  Li7  1  0.55474124  -0.04067795  0.18405367  1.0
  Te  Te8  1  0.35065799  -0.17929543  0.59697670  1.0
  Te  Te9  1  1.17929543  -0.35065799  0.09697670  1.0
  Te  Te10  1  0.82070457  -0.64934201  0.90302330  1.0
  Te  Te11  1  0.64934201  0.17929543  0.40302330  1.0
  O  O12  1  0.45538803  -0.28662734  0.87801524  1.0
  O  O13  1  1.28662734  -0.45538803  0.37801524  1.0
  O  O14  1  0.71337266  -0.54461197  0.62198476  1.0
  O  O15  1  0.54461197  0.28662734  0.12198476  1.0
  O  O16  1  0.76568235  0.09795242  0.82793377  1.0
  O  O17  1  0.90204758  -0.76568235  0.32793377  1.0
  O  O18  1  1.09795242  -0.23431765  0.67206623  1.0
  O  O19  1  0.23431765  -0.09795242  0.17206623  1.0
  O  O20  1  0.40676151  0.07060074  0.67337892  1.0
  O  O21  1  0.92939926  -0.40676151  0.17337892  1.0
  O  O22  1  1.07060074  -0.59323849  0.82662108  1.0
  O  O23  1  0.59323849  -0.07060074  0.32662108  1.0
