# generated using pymatgen
data_Ba2I2O
_symmetry_space_group_name_H-M   'P 1'
_cell_length_a   8.72097918
_cell_length_b   8.72097918
_cell_length_c   8.72097918
_cell_angle_alpha   127.09893397
_cell_angle_beta   72.97868192
_cell_angle_gamma   133.59325988
_symmetry_Int_Tables_number   1
_chemical_formula_structural   Ba2I2O
_chemical_formula_sum   'Ba4 I4 O2'
_cell_volume   374.33514245
_cell_formula_units_Z   2
loop_
 _symmetry_equiv_pos_site_id
 _symmetry_equiv_pos_as_xyz
  1  'x, y, z'
loop_
 _atom_site_type_symbol
 _atom_site_label
 _atom_site_symmetry_multiplicity
 _atom_site_fract_x
 _atom_site_fract_y
 _atom_site_fract_z
 _atom_site_occupancy
  Ba  Ba0  1  0.40775832  0.32589464  0.73365297  1.0
  Ba  Ba1  1  0.09224168  0.82589464  0.91813632  1.0
  Ba  Ba2  1  0.90775832  1.17410536  1.08186368  1.0
  Ba  Ba3  1  0.59224168  0.67410536  0.26634703  1.0
  I  I4  1  0.14912659  0.34634739  0.49547398  1.0
  I  I5  1  0.35087341  0.84634739  1.19722079  1.0
  I  I6  1  0.64912659  1.15365261  0.80277921  1.0
  I  I7  1  0.85087341  0.65365261  0.50452602  1.0
  O  O8  1  0.25000000  0.25000000  -0.00000000  1.0
  O  O9  1  0.75000000  0.75000000  0.00000000  1.0
