# generated using pymatgen
data_SbOF6
_symmetry_space_group_name_H-M   'P 1'
_cell_length_a   8.38676402
_cell_length_b   8.38676402
_cell_length_c   8.38676402
_cell_angle_alpha   109.47122063
_cell_angle_beta   109.47122063
_cell_angle_gamma   109.47122063
_symmetry_Int_Tables_number   1
_chemical_formula_structural   SbOF6
_chemical_formula_sum   'Sb4 O4 F24'
_cell_volume   454.11032798
_cell_formula_units_Z   4
loop_
 _symmetry_equiv_pos_site_id
 _symmetry_equiv_pos_as_xyz
  1  'x, y, z'
loop_
 _atom_site_type_symbol
 _atom_site_label
 _atom_site_symmetry_multiplicity
 _atom_site_fract_x
 _atom_site_fract_y
 _atom_site_fract_z
 _atom_site_occupancy
  Sb  Sb0  1  0.50000000  0.50000000  0.00000000  1.0
  Sb  Sb1  1  1.00000000  1.00000000  1.00000000  1.0
  Sb  Sb2  1  0.00000000  0.50000000  0.50000000  1.0
  Sb  Sb3  1  0.50000000  1.00000000  0.50000000  1.0
  O  O4  1  1.00000000  0.50000000  1.00000000  1.0
  O  O5  1  0.50000000  0.50000000  0.50000000  1.0
  O  O6  1  1.00000000  1.00000000  1.50000000  1.0
  O  O7  1  1.50000000  1.00000000  1.00000000  1.0
  F  F8  1  0.76635490  0.71037260  0.18270205  1.0
  F  F9  1  1.26635490  1.08365285  1.05598230  1.0
  F  F10  1  1.02767055  1.58365285  1.31729795  1.0
  F  F11  1  1.52767055  1.21037260  1.44401770  1.0
  F  F12  1  0.55598230  0.47232945  0.78962740  1.0
  F  F13  1  1.05598230  1.26635490  1.08365285  1.0
  F  F14  1  0.18270205  0.76635490  0.71037260  1.0
  F  F15  1  0.68270205  0.97232945  0.41634715  1.0
  F  F16  1  0.58365285  1.31729795  1.02767055  1.0
  F  F17  1  1.08365285  1.05598230  1.26635490  1.0
  F  F18  1  0.78962740  0.55598230  0.47232945  1.0
  F  F19  1  1.28962740  0.81729795  1.23364510  1.0
  F  F20  1  0.97232945  0.41634715  0.68270205  1.0
  F  F21  1  0.47232945  0.78962740  0.55598230  1.0
  F  F22  1  1.23364510  1.28962740  1.81729795  1.0
  F  F23  1  0.73364510  0.91634715  0.94401770  1.0
  F  F24  1  1.81729795  1.23364510  1.28962740  1.0
  F  F25  1  1.31729795  1.02767055  1.58365285  1.0
  F  F26  1  1.44401770  1.52767055  1.21037260  1.0
  F  F27  1  0.94401770  0.73364510  0.91634715  1.0
  F  F28  1  1.21037260  1.44401770  1.52767055  1.0
  F  F29  1  0.71037260  1.18270205  0.76635490  1.0
  F  F30  1  1.41634715  0.68270205  0.97232945  1.0
  F  F31  1  0.91634715  0.94401770  0.73364510  1.0
