# generated using pymatgen
data_K5H(CN2)2
_symmetry_space_group_name_H-M   'P 1'
_cell_length_a   9.14597269
_cell_length_b   9.14597269
_cell_length_c   11.14611621
_cell_angle_alpha   90.00000000
_cell_angle_beta   90.00000000
_cell_angle_gamma   90.00000000
_symmetry_Int_Tables_number   1
_chemical_formula_structural   K5H(CN2)2
_chemical_formula_sum   'K20 H4 C8 N16'
_cell_volume   932.35943019
_cell_formula_units_Z   4
loop_
 _symmetry_equiv_pos_site_id
 _symmetry_equiv_pos_as_xyz
  1  'x, y, z'
loop_
 _atom_site_type_symbol
 _atom_site_label
 _atom_site_symmetry_multiplicity
 _atom_site_fract_x
 _atom_site_fract_y
 _atom_site_fract_z
 _atom_site_occupancy
  K  K0  1  0.00000000  0.50000000  0.34836766  1.0
  K  K1  1  0.00000000  0.50000000  0.84836766  1.0
  K  K2  1  0.50000000  0.00000000  0.65163234  1.0
  K  K3  1  0.50000000  0.00000000  0.15163234  1.0
  K  K4  1  0.79478037  0.10286481  0.40002807  1.0
  K  K5  1  0.20521963  0.10286481  0.90002807  1.0
  K  K6  1  0.79478037  0.89713519  0.90002807  1.0
  K  K7  1  0.20521963  0.89713519  0.40002807  1.0
  K  K8  1  0.60286481  0.29478037  0.90002807  1.0
  K  K9  1  0.39713519  0.29478037  0.40002807  1.0
  K  K10  1  0.60286481  0.70521963  0.40002807  1.0
  K  K11  1  0.39713519  0.70521963  0.90002807  1.0
  K  K12  1  0.70521963  0.39713519  0.59997193  1.0
  K  K13  1  0.29478037  0.39713519  0.09997193  1.0
  K  K14  1  0.70521963  0.60286481  0.09997193  1.0
  K  K15  1  0.29478037  0.60286481  0.59997193  1.0
  K  K16  1  0.89713519  0.20521963  0.09997193  1.0
  K  K17  1  0.10286481  0.20521963  0.59997193  1.0
  K  K18  1  0.89713519  0.79478037  0.59997193  1.0
  K  K19  1  0.10286481  0.79478037  0.09997193  1.0
  H  H20  1  0.50000000  0.00000000  0.40309347  1.0
  H  H21  1  0.50000000  0.00000000  0.90309347  1.0
  H  H22  1  0.00000000  0.50000000  0.59690653  1.0
  H  H23  1  0.00000000  0.50000000  0.09690653  1.0
  C  C24  1  0.64812351  0.35187649  0.25000000  1.0
  C  C25  1  0.35187649  0.35187649  0.75000000  1.0
  C  C26  1  0.64812351  0.64812351  0.75000000  1.0
  C  C27  1  0.35187649  0.64812351  0.25000000  1.0
  C  C28  1  0.85187649  0.14812351  0.75000000  1.0
  C  C29  1  0.14812351  0.14812351  0.25000000  1.0
  C  C30  1  0.85187649  0.85187649  0.25000000  1.0
  C  C31  1  0.14812351  0.85187649  0.75000000  1.0
  N  N32  1  0.69365413  0.39815400  0.34818985  1.0
  N  N33  1  0.30634587  0.39815400  0.84818985  1.0
  N  N34  1  0.69365413  0.60184600  0.84818985  1.0
  N  N35  1  0.30634587  0.60184600  0.34818985  1.0
  N  N36  1  0.89815400  0.19365413  0.84818985  1.0
  N  N37  1  0.10184600  0.19365413  0.34818985  1.0
  N  N38  1  0.89815400  0.80634587  0.34818985  1.0
  N  N39  1  0.10184600  0.80634587  0.84818985  1.0
  N  N40  1  0.80634587  0.10184600  0.65181015  1.0
  N  N41  1  0.19365413  0.10184600  0.15181015  1.0
  N  N42  1  0.80634587  0.89815400  0.15181015  1.0
  N  N43  1  0.19365413  0.89815400  0.65181015  1.0
  N  N44  1  0.60184600  0.30634587  0.15181015  1.0
  N  N45  1  0.39815400  0.30634587  0.65181015  1.0
  N  N46  1  0.60184600  0.69365413  0.65181015  1.0
  N  N47  1  0.39815400  0.69365413  0.15181015  1.0
