# generated using pymatgen
data_GaSe
_symmetry_space_group_name_H-M   'P 1'
_cell_length_a   3.81346323
_cell_length_b   3.81346323
_cell_length_c   17.55206880
_cell_angle_alpha   90.00000000
_cell_angle_beta   90.00000000
_cell_angle_gamma   120.00000000
_symmetry_Int_Tables_number   1
_chemical_formula_structural   GaSe
_chemical_formula_sum   'Ga4 Se4'
_cell_volume   221.05384371
_cell_formula_units_Z   4
loop_
 _symmetry_equiv_pos_site_id
 _symmetry_equiv_pos_as_xyz
  1  'x, y, z'
loop_
 _atom_site_type_symbol
 _atom_site_label
 _atom_site_symmetry_multiplicity
 _atom_site_fract_x
 _atom_site_fract_y
 _atom_site_fract_z
 _atom_site_occupancy
  Ga  Ga0  1  0.33333333  0.66666667  0.32027656  1.0
  Ga  Ga1  1  0.33333333  0.66666667  0.17972344  1.0
  Ga  Ga2  1  0.66666667  0.33333333  0.82027656  1.0
  Ga  Ga3  1  0.66666667  0.33333333  0.67972344  1.0
  Se  Se4  1  0.33333333  0.66666667  0.88712964  1.0
  Se  Se5  1  0.33333333  0.66666667  0.61287036  1.0
  Se  Se6  1  0.66666667  0.33333333  0.38712964  1.0
  Se  Se7  1  0.66666667  0.33333333  0.11287036  1.0
