# generated using pymatgen
data_Co2(GeS)3
_symmetry_space_group_name_H-M   'P 1'
_cell_length_a   8.04884214
_cell_length_b   8.04884214
_cell_length_c   8.04884214
_cell_angle_alpha   89.93348388
_cell_angle_beta   89.93348388
_cell_angle_gamma   89.93348387
_symmetry_Int_Tables_number   1
_chemical_formula_structural   Co2(GeS)3
_chemical_formula_sum   'Co8 Ge12 S12'
_cell_volume   521.43400695
_cell_formula_units_Z   4
loop_
 _symmetry_equiv_pos_site_id
 _symmetry_equiv_pos_as_xyz
  1  'x, y, z'
loop_
 _atom_site_type_symbol
 _atom_site_label
 _atom_site_symmetry_multiplicity
 _atom_site_fract_x
 _atom_site_fract_y
 _atom_site_fract_z
 _atom_site_occupancy
  Co  Co0  1  0.50551919  0.00838495  -0.48903682  1.0
  Co  Co1  1  0.00838495  0.51096318  -0.49448081  1.0
  Co  Co2  1  0.51096318  0.50551919  -0.99161505  1.0
  Co  Co3  1  0.99168145  -0.00286415  -0.50575345  1.0
  Co  Co4  1  0.99713585  -0.50575345  -0.00831855  1.0
  Co  Co5  1  0.49424655  -0.00831855  -0.00286415  1.0
  Co  Co6  1  0.00788782  0.00788782  0.00788782  1.0
  Co  Co7  1  0.49476087  0.49476087  -0.50523913  1.0
  Ge  Ge8  1  0.60080783  0.75283843  -0.58219363  1.0
  Ge  Ge9  1  0.75283843  0.41780637  -0.39919217  1.0
  Ge  Ge10  1  0.41780637  0.60080783  -0.24716157  1.0
  Ge  Ge11  1  0.25234150  0.91723096  -0.59777349  1.0
  Ge  Ge12  1  0.91723096  0.40222651  -0.74765850  1.0
  Ge  Ge13  1  0.40222651  0.25234150  -0.08276904  1.0
  Ge  Ge14  1  1.10039995  1.25029241  0.58541282  1.0
  Ge  Ge15  1  1.25029241  1.58541282  0.10039995  1.0
  Ge  Ge16  1  1.58541282  1.10039995  0.25029241  1.0
  Ge  Ge17  1  1.08486146  -0.09813410  -0.25020721  1.0
  Ge  Ge18  1  0.90186590  -0.25020721  0.08486146  1.0
  Ge  Ge19  1  0.74979279  0.08486146  -0.09813410  1.0
  S  S20  1  0.24823188  0.90579033  -0.89641821  1.0
  S  S21  1  0.90579033  0.10358179  -0.75176812  1.0
  S  S22  1  0.10358179  0.24823188  -0.09420967  1.0
  S  S23  1  0.39905157  0.25439014  -0.40316458  1.0
  S  S24  1  0.25439014  0.59683542  -0.60094843  1.0
  S  S25  1  0.59683542  0.39905157  -0.74560986  1.0
  S  S26  1  0.89966046  0.75047115  -0.59406038  1.0
  S  S27  1  0.75047115  0.40593962  -0.10033954  1.0
  S  S28  1  0.40593962  0.89966046  -0.24952885  1.0
  S  S29  1  0.75217223  0.09670926  -0.39699064  1.0
  S  S30  1  1.09670926  -0.39699064  -0.24782777  1.0
  S  S31  1  0.60300936  -0.24782777  0.09670926  1.0
