# generated using pymatgen
data_RbAu(SeO4)2
_symmetry_space_group_name_H-M   'P 1'
_cell_length_a   6.41486355
_cell_length_b   6.41486355
_cell_length_c   7.89129361
_cell_angle_alpha   62.94528396
_cell_angle_beta   117.05471604
_cell_angle_gamma   130.79818658
_symmetry_Int_Tables_number   1
_chemical_formula_structural   RbAu(SeO4)2
_chemical_formula_sum   'Rb1 Au1 Se2 O8'
_cell_volume   212.85627462
_cell_formula_units_Z   1
loop_
 _symmetry_equiv_pos_site_id
 _symmetry_equiv_pos_as_xyz
  1  'x, y, z'
loop_
 _atom_site_type_symbol
 _atom_site_label
 _atom_site_symmetry_multiplicity
 _atom_site_fract_x
 _atom_site_fract_y
 _atom_site_fract_z
 _atom_site_occupancy
  Rb  Rb0  1  0.50000000  0.50000000  0.50000000  1.0
  Au  Au1  1  0.00000000  0.00000000  0.00000000  1.0
  Se  Se2  1  0.30542735  -0.30542735  0.84709220  1.0
  Se  Se3  1  0.69457265  0.30542735  0.15290780  1.0
  O  O4  1  0.63114578  -0.12935791  0.79717708  1.0
  O  O5  1  1.12935791  0.36885422  0.79717708  1.0
  O  O6  1  0.87064209  0.63114578  0.20282292  1.0
  O  O7  1  0.36885422  0.12935791  0.20282292  1.0
  O  O8  1  0.84747862  0.15252138  0.33232559  1.0
  O  O9  1  0.15252138  -0.15252138  0.66767441  1.0
  O  O10  1  0.66483864  0.33516136  0.92805187  1.0
  O  O11  1  0.33516136  -0.33516136  0.07194813  1.0
