# generated using pymatgen
data_Ba2MgH6
_symmetry_space_group_name_H-M   'P 1'
_cell_length_a   5.71785675
_cell_length_b   5.71785675
_cell_length_c   4.53940784
_cell_angle_alpha   90.00000000
_cell_angle_beta   90.00000000
_cell_angle_gamma   120.00000000
_symmetry_Int_Tables_number   1
_chemical_formula_structural   Ba2MgH6
_chemical_formula_sum   'Ba2 Mg1 H6'
_cell_volume   128.52759372
_cell_formula_units_Z   1
loop_
 _symmetry_equiv_pos_site_id
 _symmetry_equiv_pos_as_xyz
  1  'x, y, z'
loop_
 _atom_site_type_symbol
 _atom_site_label
 _atom_site_symmetry_multiplicity
 _atom_site_fract_x
 _atom_site_fract_y
 _atom_site_fract_z
 _atom_site_occupancy
  Ba  Ba0  1  0.33333333  0.66666667  0.26446074  1.0
  Ba  Ba1  1  0.66666667  0.33333333  0.73553926  1.0
  Mg  Mg2  1  0.00000000  0.00000000  0.00000000  1.0
  H  H3  1  0.34311347  0.17155674  0.22523248  1.0
  H  H4  1  0.17155674  0.34311347  0.77476752  1.0
  H  H5  1  0.17155674  0.82844326  0.77476752  1.0
  H  H6  1  0.82844326  0.17155674  0.22523248  1.0
  H  H7  1  0.82844326  0.65688653  0.22523248  1.0
  H  H8  1  0.65688653  0.82844326  0.77476752  1.0
