# generated using pymatgen
data_Ti(Bi3O5)4
_symmetry_space_group_name_H-M   'P 1'
_cell_length_a   8.95992575
_cell_length_b   8.95992575
_cell_length_c   8.95992575
_cell_angle_alpha   109.47122063
_cell_angle_beta   109.47122063
_cell_angle_gamma   109.47122063
_symmetry_Int_Tables_number   1
_chemical_formula_structural   Ti(Bi3O5)4
_chemical_formula_sum   'Ti1 Bi12 O20'
_cell_volume   553.72144165
_cell_formula_units_Z   1
loop_
 _symmetry_equiv_pos_site_id
 _symmetry_equiv_pos_as_xyz
  1  'x, y, z'
loop_
 _atom_site_type_symbol
 _atom_site_label
 _atom_site_symmetry_multiplicity
 _atom_site_fract_x
 _atom_site_fract_y
 _atom_site_fract_z
 _atom_site_occupancy
  Ti  Ti0  1  0.00000000  0.00000000  0.00000000  1.0
  Bi  Bi1  1  0.49617389  0.33422669  0.19390633  1.0
  Bi  Bi2  1  1.14032036  1.30226756  0.80609367  1.0
  Bi  Bi3  1  0.19390633  0.49617389  0.33422669  1.0
  Bi  Bi4  1  1.16194720  0.85967964  1.66577331  1.0
  Bi  Bi5  1  0.33422669  0.19390633  0.49617389  1.0
  Bi  Bi6  1  0.69773244  0.83805280  0.50382611  1.0
  Bi  Bi7  1  0.85967964  1.66577331  1.16194720  1.0
  Bi  Bi8  1  0.50382611  0.69773244  0.83805280  1.0
  Bi  Bi9  1  0.83805280  0.50382611  0.69773244  1.0
  Bi  Bi10  1  0.80609367  1.14032036  1.30226756  1.0
  Bi  Bi11  1  1.30226756  0.80609367  1.14032036  1.0
  Bi  Bi12  1  1.66577331  1.16194720  0.85967964  1.0
  O  O13  1  0.73531891  0.62062590  0.37835922  1.0
  O  O14  1  1.24226668  1.35695970  0.62164078  1.0
  O  O15  1  0.37835922  0.73531891  0.62062590  1.0
  O  O16  1  1.11469302  0.75773332  1.37937410  1.0
  O  O17  1  0.62062590  0.37835922  0.73531891  1.0
  O  O18  1  0.64304030  0.88530698  0.26468109  1.0
  O  O19  1  0.75773332  1.37937410  1.11469302  1.0
  O  O20  1  0.26468109  0.64304030  0.88530698  1.0
  O  O21  1  0.88530698  0.26468109  0.64304030  1.0
  O  O22  1  0.62164078  1.24226668  1.35695970  1.0
  O  O23  1  1.35695970  0.62164078  1.24226668  1.0
  O  O24  1  1.37937410  1.11469302  0.75773332  1.0
  O  O25  1  0.79451599  0.79451599  0.79451599  1.0
  O  O26  1  1.00000000  1.00000000  0.20548401  1.0
  O  O27  1  1.00000000  0.20548401  1.00000000  1.0
  O  O28  1  0.20548401  1.00000000  1.00000000  1.0
  O  O29  1  0.38731053  0.38731053  0.38731053  1.0
  O  O30  1  1.00000000  1.00000000  0.61268947  1.0
  O  O31  1  1.00000000  0.61268947  1.00000000  1.0
  O  O32  1  0.61268947  1.00000000  1.00000000  1.0
