# generated using pymatgen
data_Y2MnC4
_symmetry_space_group_name_H-M   'P 1'
_cell_length_a   6.60984926
_cell_length_b   6.60984926
_cell_length_c   6.60984926
_cell_angle_alpha   110.27409645
_cell_angle_beta   86.82221514
_cell_angle_gamma   135.14733750
_symmetry_Int_Tables_number   1
_chemical_formula_structural   Y2MnC4
_chemical_formula_sum   'Y4 Mn2 C8'
_cell_volume   182.99041089
_cell_formula_units_Z   2
loop_
 _symmetry_equiv_pos_site_id
 _symmetry_equiv_pos_as_xyz
  1  'x, y, z'
loop_
 _atom_site_type_symbol
 _atom_site_label
 _atom_site_symmetry_multiplicity
 _atom_site_fract_x
 _atom_site_fract_y
 _atom_site_fract_z
 _atom_site_occupancy
  Y  Y0  1  0.64474809  0.84416135  0.48890944  1.0
  Y  Y1  1  0.85525191  0.34416135  1.19941326  1.0
  Y  Y2  1  0.14474809  0.65583865  0.80058674  1.0
  Y  Y3  1  1.35525191  1.15583865  1.51109056  1.0
  Mn  Mn4  1  0.75000000  0.75000000  0.00000000  1.0
  Mn  Mn5  1  0.25000000  0.25000000  0.00000000  1.0
  C  C6  1  0.87169102  0.65936824  1.53105926  1.0
  C  C7  1  0.62830898  1.15936824  0.78767722  1.0
  C  C8  1  1.37169102  0.84063176  1.21232278  1.0
  C  C9  1  0.12830898  0.34063176  0.46894074  1.0
  C  C10  1  0.92089497  0.83006574  1.75096071  1.0
  C  C11  1  0.57910503  1.33006574  0.90917077  1.0
  C  C12  1  1.42089497  0.66993426  1.09082923  1.0
  C  C13  1  0.07910503  0.16993426  0.24903929  1.0
