# generated using pymatgen
data_Fe3C
_symmetry_space_group_name_H-M   'P 1'
_cell_length_a   5.01940423
_cell_length_b   7.03516708
_cell_length_c   4.67155595
_cell_angle_alpha   90.00000000
_cell_angle_beta   90.00000000
_cell_angle_gamma   90.00000000
_symmetry_Int_Tables_number   1
_chemical_formula_structural   Fe3C
_chemical_formula_sum   'Fe12 C4'
_cell_volume   164.96360669
_cell_formula_units_Z   4
loop_
 _symmetry_equiv_pos_site_id
 _symmetry_equiv_pos_as_xyz
  1  'x, y, z'
loop_
 _atom_site_type_symbol
 _atom_site_label
 _atom_site_symmetry_multiplicity
 _atom_site_fract_x
 _atom_site_fract_y
 _atom_site_fract_z
 _atom_site_occupancy
  Fe  Fe0  1  0.16701457  0.42344874  0.65232454  1.0
  Fe  Fe1  1  0.16701457  0.07655126  0.65232454  1.0
  Fe  Fe2  1  0.66701457  0.42344874  0.84767546  1.0
  Fe  Fe3  1  0.66701457  0.07655126  0.84767546  1.0
  Fe  Fe4  1  0.83298543  0.92344874  0.34767546  1.0
  Fe  Fe5  1  0.83298543  0.57655126  0.34767546  1.0
  Fe  Fe6  1  0.33298543  0.92344874  0.15232454  1.0
  Fe  Fe7  1  0.33298543  0.57655126  0.15232454  1.0
  Fe  Fe8  1  0.44585311  0.75000000  0.65621130  1.0
  Fe  Fe9  1  0.94585311  0.75000000  0.84378870  1.0
  Fe  Fe10  1  0.55414689  0.25000000  0.34378870  1.0
  Fe  Fe11  1  0.05414689  0.25000000  0.15621130  1.0
  C  C12  1  0.50000000  -0.00000000  0.50000000  1.0
  C  C13  1  0.50000000  0.50000000  0.50000000  1.0
  C  C14  1  -0.00000000  0.00000000  -0.00000000  1.0
  C  C15  1  0.00000000  0.50000000  0.00000000  1.0
