# generated using pymatgen
data_Tl2SnF6
_symmetry_space_group_name_H-M   'P 1'
_cell_length_a   6.17266343
_cell_length_b   6.17266343
_cell_length_c   4.98557775
_cell_angle_alpha   90.00000000
_cell_angle_beta   90.00000000
_cell_angle_gamma   120.00000000
_symmetry_Int_Tables_number   1
_chemical_formula_structural   Tl2SnF6
_chemical_formula_sum   'Tl2 Sn1 F6'
_cell_volume   164.50962753
_cell_formula_units_Z   1
loop_
 _symmetry_equiv_pos_site_id
 _symmetry_equiv_pos_as_xyz
  1  'x, y, z'
loop_
 _atom_site_type_symbol
 _atom_site_label
 _atom_site_symmetry_multiplicity
 _atom_site_fract_x
 _atom_site_fract_y
 _atom_site_fract_z
 _atom_site_occupancy
  Tl  Tl0  1  0.33333333  0.66666667  0.31470344  1.0
  Tl  Tl1  1  0.66666667  0.33333333  0.68529656  1.0
  Sn  Sn2  1  -0.00000000  -0.00000000  -0.00000000  1.0
  F  F3  1  0.31274651  0.15637326  0.22358216  1.0
  F  F4  1  0.15637326  0.31274651  0.77641784  1.0
  F  F5  1  0.15637326  0.84362674  0.77641784  1.0
  F  F6  1  0.84362674  0.15637326  0.22358216  1.0
  F  F7  1  0.84362674  0.68725349  0.22358216  1.0
  F  F8  1  0.68725349  0.84362674  0.77641784  1.0
