# generated using pymatgen
data_Y2C3
_symmetry_space_group_name_H-M   'P 1'
_cell_length_a   7.13688830
_cell_length_b   7.13688830
_cell_length_c   7.13688830
_cell_angle_alpha   109.47122063
_cell_angle_beta   109.47122063
_cell_angle_gamma   109.47122063
_symmetry_Int_Tables_number   1
_chemical_formula_structural   Y2C3
_chemical_formula_sum   'Y8 C12'
_cell_volume   279.83678824
_cell_formula_units_Z   4
loop_
 _symmetry_equiv_pos_site_id
 _symmetry_equiv_pos_as_xyz
  1  'x, y, z'
loop_
 _atom_site_type_symbol
 _atom_site_label
 _atom_site_symmetry_multiplicity
 _atom_site_fract_x
 _atom_site_fract_y
 _atom_site_fract_z
 _atom_site_occupancy
  Y  Y0  1  1.39910674  1.39910674  1.39910674  1.0
  Y  Y1  1  1.50000000  1.00000000  1.10089326  1.0
  Y  Y2  1  0.89910674  0.89910674  0.89910674  1.0
  Y  Y3  1  0.50000000  1.00000000  0.60089326  1.0
  Y  Y4  1  1.00000000  1.10089326  1.50000000  1.0
  Y  Y5  1  1.10089326  0.50000000  1.00000000  1.0
  Y  Y6  1  1.00000000  0.60089326  1.50000000  1.0
  Y  Y7  1  0.60089326  1.50000000  1.00000000  1.0
  C  C8  1  1.20612224  0.95612224  1.25000000  1.0
  C  C9  1  0.45612224  0.70612224  0.75000000  1.0
  C  C10  1  0.25000000  1.20612224  0.95612224  1.0
  C  C11  1  0.75000000  1.29387776  0.54387776  1.0
  C  C12  1  0.70612224  0.75000000  0.45612224  1.0
  C  C13  1  0.79387776  0.25000000  1.04387776  1.0
  C  C14  1  0.95612224  0.25000000  1.20612224  1.0
  C  C15  1  0.54387776  0.75000000  0.29387776  1.0
  C  C16  1  0.75000000  1.45612224  0.70612224  1.0
  C  C17  1  0.25000000  1.04387776  0.79387776  1.0
  C  C18  1  0.29387776  0.54387776  0.75000000  1.0
  C  C19  1  1.04387776  0.79387776  1.25000000  1.0
