# generated using pymatgen
data_MgAlBO4
_symmetry_space_group_name_H-M   'P 1'
_cell_length_a   7.91092243
_cell_length_b   7.91092243
_cell_length_c   7.91092243
_cell_angle_alpha   139.80802493
_cell_angle_beta   76.13468956
_cell_angle_gamma   118.40844488
_symmetry_Int_Tables_number   1
_chemical_formula_structural   MgAlBO4
_chemical_formula_sum   'Mg4 Al4 B4 O16'
_cell_volume   274.26621710
_cell_formula_units_Z   4
loop_
 _symmetry_equiv_pos_site_id
 _symmetry_equiv_pos_as_xyz
  1  'x, y, z'
loop_
 _atom_site_type_symbol
 _atom_site_label
 _atom_site_symmetry_multiplicity
 _atom_site_fract_x
 _atom_site_fract_y
 _atom_site_fract_z
 _atom_site_occupancy
  Mg  Mg0  1  0.00000000  0.50000000  0.50000000  1.0
  Mg  Mg1  1  0.50000000  0.50000000  -0.00000000  1.0
  Mg  Mg2  1  1.19321526  0.44321526  0.75000000  1.0
  Mg  Mg3  1  0.80678474  0.55678474  0.25000000  1.0
  Al  Al4  1  1.62063859  1.50000000  1.62063859  1.0
  Al  Al5  1  0.37936141  1.00000000  0.87936141  1.0
  Al  Al6  1  1.62063859  1.00000000  1.12063859  1.0
  Al  Al7  1  0.37936141  0.50000000  0.37936141  1.0
  B  B8  1  0.90650079  1.06652261  0.83997818  1.0
  B  B9  1  1.09349921  0.93347739  1.16002182  1.0
  B  B10  1  1.27345557  0.93347739  1.33997818  1.0
  B  B11  1  0.72654443  1.06652261  0.66002182  1.0
  O  O12  1  1.47747779  0.72747779  0.75000000  1.0
  O  O13  1  0.52252221  0.27252221  0.25000000  1.0
  O  O14  1  0.93359876  1.18359876  0.75000000  1.0
  O  O15  1  1.06640124  0.81640124  1.25000000  1.0
  O  O16  1  1.30780009  0.26931030  1.03848980  1.0
  O  O17  1  0.69219991  0.73068970  -0.03848980  1.0
  O  O18  1  1.26917950  0.73068970  1.53848980  1.0
  O  O19  1  0.73082050  1.26931030  0.46151020  1.0
  O  O20  1  1.36278960  1.22322082  1.59203712  1.0
  O  O21  1  0.63721040  1.22924752  0.86043122  1.0
  O  O22  1  0.86881630  1.22924752  1.09203712  1.0
  O  O23  1  1.13118370  1.22322082  1.36043122  1.0
  O  O24  1  0.63721040  0.77677918  0.40796288  1.0
  O  O25  1  1.36278960  0.77075248  1.13956878  1.0
  O  O26  1  1.13118370  0.77075248  0.90796288  1.0
  O  O27  1  0.86881630  0.77677918  0.63956878  1.0
