# generated using pymatgen
data_CaSc2O4
_symmetry_space_group_name_H-M   'P 1'
_cell_length_a   9.52733506
_cell_length_b   3.15975943
_cell_length_c   11.17450396
_cell_angle_alpha   90.00000000
_cell_angle_beta   90.00000000
_cell_angle_gamma   90.00000000
_symmetry_Int_Tables_number   1
_chemical_formula_structural   CaSc2O4
_chemical_formula_sum   'Ca4 Sc8 O16'
_cell_volume   336.39823721
_cell_formula_units_Z   4
loop_
 _symmetry_equiv_pos_site_id
 _symmetry_equiv_pos_as_xyz
  1  'x, y, z'
loop_
 _atom_site_type_symbol
 _atom_site_label
 _atom_site_symmetry_multiplicity
 _atom_site_fract_x
 _atom_site_fract_y
 _atom_site_fract_z
 _atom_site_occupancy
  Ca  Ca0  1  0.75597602  0.75000000  0.65213886  1.0
  Ca  Ca1  1  0.25597602  0.75000000  0.84786114  1.0
  Ca  Ca2  1  0.24402398  0.25000000  0.34786114  1.0
  Ca  Ca3  1  0.74402398  0.25000000  0.15213886  1.0
  Sc  Sc4  1  0.91970439  0.75000000  0.39285046  1.0
  Sc  Sc5  1  0.41970439  0.75000000  0.10714954  1.0
  Sc  Sc6  1  0.08029561  0.25000000  0.60714954  1.0
  Sc  Sc7  1  0.58029561  0.25000000  0.89285046  1.0
  Sc  Sc8  1  0.43026106  0.75000000  0.61244503  1.0
  Sc  Sc9  1  0.93026106  0.75000000  0.88755497  1.0
  Sc  Sc10  1  0.56973894  0.25000000  0.38755497  1.0
  Sc  Sc11  1  0.06973894  0.25000000  0.11244503  1.0
  O  O12  1  0.91976041  0.75000000  0.07536907  1.0
  O  O13  1  0.41976041  0.75000000  0.42463093  1.0
  O  O14  1  0.08023959  0.25000000  0.92463093  1.0
  O  O15  1  0.58023959  0.25000000  0.57536907  1.0
  O  O16  1  0.70712048  0.75000000  0.32842810  1.0
  O  O17  1  0.20712048  0.75000000  0.17157190  1.0
  O  O18  1  0.29287952  0.25000000  0.67157190  1.0
  O  O19  1  0.79287952  0.25000000  0.82842810  1.0
  O  O20  1  0.62312658  0.75000000  0.02461132  1.0
  O  O21  1  0.12312658  0.75000000  0.47538868  1.0
  O  O22  1  0.37687342  0.25000000  0.97538868  1.0
  O  O23  1  0.87687342  0.25000000  0.52461132  1.0
  O  O24  1  0.52306703  0.75000000  0.78400430  1.0
  O  O25  1  0.02306703  0.75000000  0.71599570  1.0
  O  O26  1  0.47693297  0.25000000  0.21599570  1.0
  O  O27  1  0.97693297  0.25000000  0.28400430  1.0
