# generated using pymatgen
data_BaCu4S3
_symmetry_space_group_name_H-M   'P 1'
_cell_length_a   7.53879710
_cell_length_b   7.53879710
_cell_length_c   10.18656410
_cell_angle_alpha   90.00000000
_cell_angle_beta   90.00000000
_cell_angle_gamma   149.59222639
_symmetry_Int_Tables_number   1
_chemical_formula_structural   BaCu4S3
_chemical_formula_sum   'Ba2 Cu8 S6'
_cell_volume   293.02976949
_cell_formula_units_Z   2
loop_
 _symmetry_equiv_pos_site_id
 _symmetry_equiv_pos_as_xyz
  1  'x, y, z'
loop_
 _atom_site_type_symbol
 _atom_site_label
 _atom_site_symmetry_multiplicity
 _atom_site_fract_x
 _atom_site_fract_y
 _atom_site_fract_z
 _atom_site_occupancy
  Ba  Ba0  1  -0.25541957  0.25541957  0.75000000  1.0
  Ba  Ba1  1  0.25541957  0.74458043  0.25000000  1.0
  Cu  Cu2  1  0.09312906  0.90687094  0.97857090  1.0
  Cu  Cu3  1  0.09312906  0.90687094  0.52142910  1.0
  Cu  Cu4  1  -0.09312906  0.09312906  0.47857090  1.0
  Cu  Cu5  1  -0.09312906  0.09312906  0.02142910  1.0
  Cu  Cu6  1  -0.50408708  0.50408708  0.87314344  1.0
  Cu  Cu7  1  -0.50408708  0.50408708  0.62685656  1.0
  Cu  Cu8  1  0.50408708  0.49591292  0.37314344  1.0
  Cu  Cu9  1  0.50408708  0.49591292  0.12685656  1.0
  S  S10  1  0.34874444  0.65125556  0.94853794  1.0
  S  S11  1  0.34874444  0.65125556  0.55146206  1.0
  S  S12  1  -0.34874444  0.34874444  0.44853794  1.0
  S  S13  1  -0.34874444  0.34874444  0.05146206  1.0
  S  S14  1  0.05778109  0.94221891  0.75000000  1.0
  S  S15  1  -0.05778109  0.05778109  0.25000000  1.0
