# generated using pymatgen
data_AgTe4Au
_symmetry_space_group_name_H-M   'P 1'
_cell_length_a   9.06346335
_cell_length_b   4.54708521
_cell_length_c   10.27502532
_cell_angle_alpha   90.00000000
_cell_angle_beta   123.92927756
_cell_angle_gamma   90.00000000
_symmetry_Int_Tables_number   1
_chemical_formula_structural   AgTe4Au
_chemical_formula_sum   'Ag2 Te8 Au2'
_cell_volume   351.35447630
_cell_formula_units_Z   2
loop_
 _symmetry_equiv_pos_site_id
 _symmetry_equiv_pos_as_xyz
  1  'x, y, z'
loop_
 _atom_site_type_symbol
 _atom_site_label
 _atom_site_symmetry_multiplicity
 _atom_site_fract_x
 _atom_site_fract_y
 _atom_site_fract_z
 _atom_site_occupancy
  Ag  Ag0  1  0.50000000  0.51662996  0.25000000  1.0
  Ag  Ag1  1  0.50000000  0.48337004  0.75000000  1.0
  Te  Te2  1  0.80767884  0.59505930  0.04618640  1.0
  Te  Te3  1  0.80767884  0.40494070  0.54618640  1.0
  Te  Te4  1  0.19232116  0.59505930  0.45381360  1.0
  Te  Te5  1  0.19232116  0.40494070  0.95381360  1.0
  Te  Te6  1  0.70248133  0.97129098  0.20476155  1.0
  Te  Te7  1  0.70248133  0.02870902  0.70476155  1.0
  Te  Te8  1  0.29751867  0.97129098  0.29523845  1.0
  Te  Te9  1  0.29751867  0.02870902  0.79523845  1.0
  Au  Au10  1  0.00000000  0.00000000  0.50000000  1.0
  Au  Au11  1  0.00000000  0.00000000  0.00000000  1.0
