# generated using pymatgen
data_K3NbS4
_symmetry_space_group_name_H-M   'P 1'
_cell_length_a   9.36389316
_cell_length_b   10.88620980
_cell_length_c   9.61005404
_cell_angle_alpha   90.00000000
_cell_angle_beta   90.00000000
_cell_angle_gamma   90.00000000
_symmetry_Int_Tables_number   1
_chemical_formula_structural   K3NbS4
_chemical_formula_sum   'K12 Nb4 S16'
_cell_volume   979.62301451
_cell_formula_units_Z   4
loop_
 _symmetry_equiv_pos_site_id
 _symmetry_equiv_pos_as_xyz
  1  'x, y, z'
loop_
 _atom_site_type_symbol
 _atom_site_label
 _atom_site_symmetry_multiplicity
 _atom_site_fract_x
 _atom_site_fract_y
 _atom_site_fract_z
 _atom_site_occupancy
  K  K0  1  0.43960777  0.45449469  0.78723031  1.0
  K  K1  1  0.43960777  0.04550531  0.78723031  1.0
  K  K2  1  0.93960777  0.45449469  0.71276969  1.0
  K  K3  1  0.93960777  0.04550531  0.71276969  1.0
  K  K4  1  0.56039223  0.95449469  0.21276969  1.0
  K  K5  1  0.56039223  0.54550531  0.21276969  1.0
  K  K6  1  0.06039223  0.95449469  0.28723031  1.0
  K  K7  1  0.06039223  0.54550531  0.28723031  1.0
  K  K8  1  0.13263823  0.25000000  0.07378797  1.0
  K  K9  1  0.63263823  0.25000000  0.42621203  1.0
  K  K10  1  0.86736177  0.75000000  0.92621203  1.0
  K  K11  1  0.36736177  0.75000000  0.57378797  1.0
  Nb  Nb12  1  0.21347150  0.25000000  0.51139769  1.0
  Nb  Nb13  1  0.71347150  0.25000000  0.98860231  1.0
  Nb  Nb14  1  0.78652850  0.75000000  0.48860231  1.0
  Nb  Nb15  1  0.28652850  0.75000000  0.01139769  1.0
  S  S16  1  0.16571456  0.92347585  0.94829418  1.0
  S  S17  1  0.16571456  0.57652415  0.94829418  1.0
  S  S18  1  0.66571456  0.92347585  0.55170582  1.0
  S  S19  1  0.66571456  0.57652415  0.55170582  1.0
  S  S20  1  0.83428544  0.42347585  0.05170582  1.0
  S  S21  1  0.83428544  0.07652415  0.05170582  1.0
  S  S22  1  0.33428544  0.42347585  0.44829418  1.0
  S  S23  1  0.33428544  0.07652415  0.44829418  1.0
  S  S24  1  0.49162360  0.25000000  0.08878664  1.0
  S  S25  1  0.99162360  0.25000000  0.41121336  1.0
  S  S26  1  0.50837640  0.75000000  0.91121336  1.0
  S  S27  1  0.00837640  0.75000000  0.58878664  1.0
  S  S28  1  0.18868159  0.25000000  0.74867140  1.0
  S  S29  1  0.68868159  0.25000000  0.75132860  1.0
  S  S30  1  0.81131841  0.75000000  0.25132860  1.0
  S  S31  1  0.31131841  0.75000000  0.24867140  1.0
