# generated using pymatgen
data_Zr6Be15Pd8
_symmetry_space_group_name_H-M   'P 1'
_cell_length_a   8.09880926
_cell_length_b   8.09880926
_cell_length_c   8.09880926
_cell_angle_alpha   60.00000000
_cell_angle_beta   60.00000000
_cell_angle_gamma   60.00000000
_symmetry_Int_Tables_number   1
_chemical_formula_structural   Zr6Be15Pd8
_chemical_formula_sum   'Zr6 Be15 Pd8'
_cell_volume   375.61983193
_cell_formula_units_Z   1
loop_
 _symmetry_equiv_pos_site_id
 _symmetry_equiv_pos_as_xyz
  1  'x, y, z'
loop_
 _atom_site_type_symbol
 _atom_site_label
 _atom_site_symmetry_multiplicity
 _atom_site_fract_x
 _atom_site_fract_y
 _atom_site_fract_z
 _atom_site_occupancy
  Zr  Zr0  1  -0.69929239  0.69929239  0.69929239  1.0
  Zr  Zr1  1  -0.30070761  0.30070761  0.69929239  1.0
  Zr  Zr2  1  0.69929239  0.69929239  -0.69929239  1.0
  Zr  Zr3  1  0.30070761  1.30070761  -0.30070761  1.0
  Zr  Zr4  1  0.30070761  -0.30070761  1.30070761  1.0
  Zr  Zr5  1  -0.30070761  0.30070761  0.30070761  1.0
  Be  Be6  1  0.67471078  0.67471078  -0.32528922  1.0
  Be  Be7  1  1.32528922  0.32528922  0.02413234  1.0
  Be  Be8  1  1.32528922  0.02413234  0.32528922  1.0
  Be  Be9  1  0.97586766  0.67471078  -0.32528922  1.0
  Be  Be10  1  1.02413234  0.32528922  0.32528922  1.0
  Be  Be11  1  0.67471078  0.97586766  -0.32528922  1.0
  Be  Be12  1  0.67471078  0.67471078  -0.02413234  1.0
  Be  Be13  1  1.32528922  0.32528922  0.32528922  1.0
  Be  Be14  1  1.50000000  -0.00000000  0.00000000  1.0
  Be  Be15  1  1.00000000  0.50000000  -0.50000000  1.0
  Be  Be16  1  -0.00000000  1.50000000  0.00000000  1.0
  Be  Be17  1  0.50000000  1.00000000  -0.50000000  1.0
  Be  Be18  1  0.00000000  -0.00000000  0.50000000  1.0
  Be  Be19  1  0.50000000  -0.50000000  1.00000000  1.0
  Be  Be20  1  -0.00000000  0.00000000  0.00000000  1.0
  Pd  Pd21  1  0.87458333  0.87458333  -0.12541667  1.0
  Pd  Pd22  1  1.12541667  0.12541667  0.62374998  1.0
  Pd  Pd23  1  1.12541667  0.62374998  0.12541667  1.0
  Pd  Pd24  1  0.37625002  0.87458333  -0.12541667  1.0
  Pd  Pd25  1  1.62374998  0.12541667  0.12541667  1.0
  Pd  Pd26  1  0.87458333  0.37625002  -0.12541667  1.0
  Pd  Pd27  1  0.87458333  0.87458333  -0.62374998  1.0
  Pd  Pd28  1  1.12541667  0.12541667  0.12541667  1.0
