# generated using pymatgen
data_Na2TeS3
_symmetry_space_group_name_H-M   'P 1'
_cell_length_a   5.84458548
_cell_length_b   12.37768491
_cell_length_c   8.50448869
_cell_angle_alpha   90.00000000
_cell_angle_beta   92.67092095
_cell_angle_gamma   90.00000000
_symmetry_Int_Tables_number   1
_chemical_formula_structural   Na2TeS3
_chemical_formula_sum   'Na8 Te4 S12'
_cell_volume   614.56708258
_cell_formula_units_Z   4
loop_
 _symmetry_equiv_pos_site_id
 _symmetry_equiv_pos_as_xyz
  1  'x, y, z'
loop_
 _atom_site_type_symbol
 _atom_site_label
 _atom_site_symmetry_multiplicity
 _atom_site_fract_x
 _atom_site_fract_y
 _atom_site_fract_z
 _atom_site_occupancy
  Na  Na0  1  0.24478333  0.08359690  0.86589535  1.0
  Na  Na1  1  0.24478333  0.41640310  0.36589535  1.0
  Na  Na2  1  0.75521667  0.58359690  0.63410465  1.0
  Na  Na3  1  0.75521667  0.91640310  0.13410465  1.0
  Na  Na4  1  0.25990596  0.73839181  0.86850390  1.0
  Na  Na5  1  0.25990596  0.76160819  0.36850390  1.0
  Na  Na6  1  0.74009404  0.23839181  0.63149610  1.0
  Na  Na7  1  0.74009404  0.26160819  0.13149610  1.0
  Te  Te8  1  0.29483678  0.41244261  0.81651572  1.0
  Te  Te9  1  0.29483678  0.08755739  0.31651572  1.0
  Te  Te10  1  0.70516322  0.91244261  0.68348428  1.0
  Te  Te11  1  0.70516322  0.58755739  0.18348428  1.0
  S  S12  1  0.23966657  0.26456881  0.63254538  1.0
  S  S13  1  0.23966657  0.23543119  0.13254538  1.0
  S  S14  1  0.76033343  0.76456881  0.86745462  1.0
  S  S15  1  0.76033343  0.73543119  0.36745462  1.0
  S  S16  1  0.25270969  0.56460440  0.64381065  1.0
  S  S17  1  0.25270969  0.93539560  0.14381065  1.0
  S  S18  1  0.74729031  0.06460440  0.85618935  1.0
  S  S19  1  0.74729031  0.43539560  0.35618935  1.0
  S  S20  1  0.70342431  0.40809525  0.86650855  1.0
  S  S21  1  0.70342431  0.09190475  0.36650855  1.0
  S  S22  1  0.29657569  0.90809525  0.63349145  1.0
  S  S23  1  0.29657569  0.59190475  0.13349145  1.0
