# generated using pymatgen
data_CsBaAsS4
_symmetry_space_group_name_H-M   'P 1'
_cell_length_a   13.15510560
_cell_length_b   7.03384630
_cell_length_c   9.74217125
_cell_angle_alpha   90.00000000
_cell_angle_beta   90.00000000
_cell_angle_gamma   90.00000000
_symmetry_Int_Tables_number   1
_chemical_formula_structural   CsBaAsS4
_chemical_formula_sum   'Cs4 Ba4 As4 S16'
_cell_volume   901.45275898
_cell_formula_units_Z   4
loop_
 _symmetry_equiv_pos_site_id
 _symmetry_equiv_pos_as_xyz
  1  'x, y, z'
loop_
 _atom_site_type_symbol
 _atom_site_label
 _atom_site_symmetry_multiplicity
 _atom_site_fract_x
 _atom_site_fract_y
 _atom_site_fract_z
 _atom_site_occupancy
  Cs  Cs0  1  0.08930463  0.25000000  0.88007285  1.0
  Cs  Cs1  1  0.41069537  0.75000000  0.38007285  1.0
  Cs  Cs2  1  0.91069537  0.75000000  0.11992715  1.0
  Cs  Cs3  1  0.58930463  0.25000000  0.61992715  1.0
  Ba  Ba4  1  0.14280903  0.25000000  0.39878915  1.0
  Ba  Ba5  1  0.35719097  0.75000000  0.89878915  1.0
  Ba  Ba6  1  0.85719097  0.75000000  0.60121085  1.0
  Ba  Ba7  1  0.64280903  0.25000000  0.10121085  1.0
  As  As8  1  0.34638049  0.25000000  0.12567896  1.0
  As  As9  1  0.15361951  0.75000000  0.62567896  1.0
  As  As10  1  0.65361951  0.75000000  0.87432104  1.0
  As  As11  1  0.84638049  0.25000000  0.37432104  1.0
  S  S12  1  0.25215475  0.00078338  0.64154969  1.0
  S  S13  1  0.24784525  0.99921662  0.14154969  1.0
  S  S14  1  0.74784525  0.50078338  0.35845031  1.0
  S  S15  1  0.75215475  0.49921662  0.85845031  1.0
  S  S16  1  0.74784525  0.99921662  0.35845031  1.0
  S  S17  1  0.75215475  0.00078338  0.85845031  1.0
  S  S18  1  0.25215475  0.49921662  0.64154969  1.0
  S  S19  1  0.24784525  0.50078338  0.14154969  1.0
  S  S20  1  0.07087566  0.75000000  0.43014290  1.0
  S  S21  1  0.42912434  0.25000000  0.93014290  1.0
  S  S22  1  0.92912434  0.25000000  0.56985710  1.0
  S  S23  1  0.57087566  0.75000000  0.06985710  1.0
  S  S24  1  0.45147839  0.25000000  0.30078107  1.0
  S  S25  1  0.04852161  0.75000000  0.80078107  1.0
  S  S26  1  0.54852161  0.75000000  0.69921893  1.0
  S  S27  1  0.95147839  0.25000000  0.19921893  1.0
