# generated using pymatgen
data_AgH4C2S2N3
_symmetry_space_group_name_H-M   'P 1'
_cell_length_a   4.23569643
_cell_length_b   24.36461562
_cell_length_c   8.21935559
_cell_angle_alpha   90.00000000
_cell_angle_beta   117.39727144
_cell_angle_gamma   90.00000000
_symmetry_Int_Tables_number   1
_chemical_formula_structural   AgH4C2S2N3
_chemical_formula_sum   'Ag4 H16 C8 S8 N12'
_cell_volume   753.10502798
_cell_formula_units_Z   4
loop_
 _symmetry_equiv_pos_site_id
 _symmetry_equiv_pos_as_xyz
  1  'x, y, z'
loop_
 _atom_site_type_symbol
 _atom_site_label
 _atom_site_symmetry_multiplicity
 _atom_site_fract_x
 _atom_site_fract_y
 _atom_site_fract_z
 _atom_site_occupancy
  Ag  Ag0  1  0.61215345  0.29565919  0.06944126  1.0
  Ag  Ag1  1  0.61215345  0.20434081  0.56944126  1.0
  Ag  Ag2  1  0.38784655  0.79565919  0.43055874  1.0
  Ag  Ag3  1  0.38784655  0.70434081  0.93055874  1.0
  H  H4  1  0.77484115  0.09319857  0.13518666  1.0
  H  H5  1  0.77484114  0.40680143  0.63518666  1.0
  H  H6  1  0.22515885  0.59319857  0.36481334  1.0
  H  H7  1  0.22515885  0.90680143  0.86481334  1.0
  H  H8  1  0.76967893  0.02499600  0.18223333  1.0
  H  H9  1  0.76967893  0.47500400  0.68223333  1.0
  H  H10  1  0.23032107  0.52499600  0.31776667  1.0
  H  H11  1  0.23032107  0.97500400  0.81776667  1.0
  H  H12  1  0.58271379  0.07233677  0.26540929  1.0
  H  H13  1  0.58271379  0.42766323  0.76540929  1.0
  H  H14  1  0.41728621  0.57233677  0.23459071  1.0
  H  H15  1  0.41728621  0.92766323  0.73459071  1.0
  H  H16  1  0.38657053  0.05723723  0.03732202  1.0
  H  H17  1  0.38657053  0.44276277  0.53732202  1.0
  H  H18  1  0.61342947  0.55723723  0.46267798  1.0
  H  H19  1  0.61342947  0.94276277  0.96267798  1.0
  C  C20  1  0.99266256  0.18949699  1.01395104  1.0
  C  C21  1  0.99266256  0.31050301  0.51395104  1.0
  C  C22  1  0.00733744  0.68949699  0.48604896  1.0
  C  C23  1  0.00733744  0.81050301  -0.01395104  1.0
  C  C24  1  0.79051404  0.43112014  0.18659632  1.0
  C  C25  1  0.79051404  0.06887986  0.68659632  1.0
  C  C26  1  0.20948596  0.93112014  0.31340368  1.0
  C  C27  1  0.20948596  0.56887986  0.81340368  1.0
  S  S28  1  0.95099806  0.25201020  0.40090930  1.0
  S  S29  1  0.95099806  0.24798980  0.90090930  1.0
  S  S30  1  0.04900194  0.75201020  0.09909070  1.0
  S  S31  1  0.04900194  0.74798980  0.59909070  1.0
  S  S32  1  0.51708459  0.89652780  0.48575602  1.0
  S  S33  1  0.51708459  0.60347220  0.98575602  1.0
  S  S34  1  0.48291541  0.39652780  0.01424398  1.0
  S  S35  1  0.48291541  0.10347220  0.51424398  1.0
  N  N36  1  0.01887386  0.14861448  0.09525957  1.0
  N  N37  1  0.01887386  0.35138552  0.59525957  1.0
  N  N38  1  0.98112614  0.64861448  0.40474043  1.0
  N  N39  1  0.98112614  0.85138552  0.90474043  1.0
  N  N40  1  1.00301949  0.45817514  0.30623434  1.0
  N  N41  1  1.00301949  0.04182486  0.80623434  1.0
  N  N42  1  -0.00301949  0.95817514  0.19376566  1.0
  N  N43  1  -0.00301949  0.54182486  0.69376566  1.0
  N  N44  1  0.62799177  0.06179861  0.15579963  1.0
  N  N45  1  0.62799177  0.43820139  0.65579963  1.0
  N  N46  1  0.37200823  0.56179861  0.34420037  1.0
  N  N47  1  0.37200823  0.93820139  0.84420037  1.0
