# generated using pymatgen
data_NbI5
_symmetry_space_group_name_H-M   'P 1'
_cell_length_a   7.51912904
_cell_length_b   11.07424831
_cell_length_c   8.04795460
_cell_angle_alpha   66.17018343
_cell_angle_beta   64.12667279
_cell_angle_gamma   70.34760810
_symmetry_Int_Tables_number   1
_chemical_formula_structural   NbI5
_chemical_formula_sum   'Nb2 I10'
_cell_volume   541.04205668
_cell_formula_units_Z   2
loop_
 _symmetry_equiv_pos_site_id
 _symmetry_equiv_pos_as_xyz
  1  'x, y, z'
loop_
 _atom_site_type_symbol
 _atom_site_label
 _atom_site_symmetry_multiplicity
 _atom_site_fract_x
 _atom_site_fract_y
 _atom_site_fract_z
 _atom_site_occupancy
  Nb  Nb0  1  -0.60108333  0.72026416  -0.00440032  1.0
  Nb  Nb1  1  -0.39891667  0.27973584  0.00440032  1.0
  I  I2  1  -0.93410368  0.82593083  -0.75842471  1.0
  I  I3  1  -0.06589632  0.17406917  0.75842471  1.0
  I  I4  1  -0.79976869  0.74945590  -0.23833793  1.0
  I  I5  1  -0.20023131  0.25054410  0.23833793  1.0
  I  I6  1  -0.72651857  0.45737197  0.21870511  1.0
  I  I7  1  -0.27348143  0.54262803  -0.21870511  1.0
  I  I8  1  -0.42141820  0.92782902  -0.25357466  1.0
  I  I9  1  -0.57858180  0.07217098  0.25357466  1.0
  I  I10  1  -0.38039512  0.65008048  0.22491325  1.0
  I  I11  1  -0.61960488  0.34991952  -0.22491325  1.0
