# generated using pymatgen
data_HSN
_symmetry_space_group_name_H-M   'P 1'
_cell_length_a   8.37113104
_cell_length_b   12.70103860
_cell_length_c   7.05714135
_cell_angle_alpha   90.00000000
_cell_angle_beta   90.00000000
_cell_angle_gamma   90.00000000
_symmetry_Int_Tables_number   1
_chemical_formula_structural   HSN
_chemical_formula_sum   'H16 S16 N16'
_cell_volume   750.32979530
_cell_formula_units_Z   16
loop_
 _symmetry_equiv_pos_site_id
 _symmetry_equiv_pos_as_xyz
  1  'x, y, z'
loop_
 _atom_site_type_symbol
 _atom_site_label
 _atom_site_symmetry_multiplicity
 _atom_site_fract_x
 _atom_site_fract_y
 _atom_site_fract_z
 _atom_site_occupancy
  H  H0  1  0.26238503  0.44412589  0.97663839  1.0
  H  H1  1  0.26238503  0.05587411  0.97663839  1.0
  H  H2  1  0.76238503  0.44412589  0.52336161  1.0
  H  H3  1  0.76238503  0.05587411  0.52336161  1.0
  H  H4  1  0.73761497  0.94412589  0.02336161  1.0
  H  H5  1  0.73761497  0.55587411  0.02336161  1.0
  H  H6  1  0.23761497  0.94412589  0.47663839  1.0
  H  H7  1  0.23761497  0.55587411  0.47663839  1.0
  H  H8  1  0.29719320  0.75000000  0.15187387  1.0
  H  H9  1  0.79719320  0.75000000  0.34812613  1.0
  H  H10  1  0.70280680  0.25000000  0.84812613  1.0
  H  H11  1  0.20280680  0.25000000  0.65187387  1.0
  H  H12  1  0.15260784  0.75000000  0.78897529  1.0
  H  H13  1  0.65260784  0.75000000  0.71102471  1.0
  H  H14  1  0.84739216  0.25000000  0.21102471  1.0
  H  H15  1  0.34739216  0.25000000  0.28897529  1.0
  S  S16  1  0.45611128  0.86749047  0.32496193  1.0
  S  S17  1  0.45611128  0.63250953  0.32496193  1.0
  S  S18  1  0.95611128  0.86749047  0.17503807  1.0
  S  S19  1  0.95611128  0.63250953  0.17503807  1.0
  S  S20  1  0.54388872  0.36749047  0.67503807  1.0
  S  S21  1  0.54388872  0.13250953  0.67503807  1.0
  S  S22  1  0.04388872  0.36749047  0.82496193  1.0
  S  S23  1  0.04388872  0.13250953  0.82496193  1.0
  S  S24  1  0.36472198  0.86741332  0.73697303  1.0
  S  S25  1  0.36472198  0.63258668  0.73697303  1.0
  S  S26  1  0.86472198  0.86741332  0.76302697  1.0
  S  S27  1  0.86472198  0.63258668  0.76302697  1.0
  S  S28  1  0.63527802  0.36741332  0.26302697  1.0
  S  S29  1  0.63527802  0.13258668  0.26302697  1.0
  S  S30  1  0.13527802  0.36741332  0.23697303  1.0
  S  S31  1  0.13527802  0.13258668  0.23697303  1.0
  N  N32  1  0.34016617  0.90449185  0.50916651  1.0
  N  N33  1  0.34016617  0.59550815  0.50916651  1.0
  N  N34  1  0.84016617  0.90449185  0.99083349  1.0
  N  N35  1  0.84016617  0.59550815  0.99083349  1.0
  N  N36  1  0.65983383  0.40449185  0.49083349  1.0
  N  N37  1  0.65983383  0.09550815  0.49083349  1.0
  N  N38  1  0.15983383  0.40449185  0.00916651  1.0
  N  N39  1  0.15983383  0.09550815  0.00916651  1.0
  N  N40  1  0.39417253  0.75000000  0.24016440  1.0
  N  N41  1  0.89417253  0.75000000  0.25983560  1.0
  N  N42  1  0.60582747  0.25000000  0.75983560  1.0
  N  N43  1  0.10582747  0.25000000  0.74016440  1.0
  N  N44  1  0.27498183  0.75000000  0.77644506  1.0
  N  N45  1  0.77498183  0.75000000  0.72355494  1.0
  N  N46  1  0.72501817  0.25000000  0.22355494  1.0
  N  N47  1  0.22501817  0.25000000  0.27644506  1.0
