# generated using pymatgen
data_SrHfS3
_symmetry_space_group_name_H-M   'P 1'
_cell_length_a   7.10534012
_cell_length_b   9.76988066
_cell_length_c   6.75944645
_cell_angle_alpha   90.00000000
_cell_angle_beta   90.00000000
_cell_angle_gamma   90.00000000
_symmetry_Int_Tables_number   1
_chemical_formula_structural   SrHfS3
_chemical_formula_sum   'Sr4 Hf4 S12'
_cell_volume   469.22945035
_cell_formula_units_Z   4
loop_
 _symmetry_equiv_pos_site_id
 _symmetry_equiv_pos_as_xyz
  1  'x, y, z'
loop_
 _atom_site_type_symbol
 _atom_site_label
 _atom_site_symmetry_multiplicity
 _atom_site_fract_x
 _atom_site_fract_y
 _atom_site_fract_z
 _atom_site_occupancy
  Sr  Sr0  1  0.07744168  0.75000000  0.52349656  1.0
  Sr  Sr1  1  0.57744168  0.75000000  0.97650344  1.0
  Sr  Sr2  1  0.92255832  0.25000000  0.47650344  1.0
  Sr  Sr3  1  0.42255832  0.25000000  0.02349656  1.0
  Hf  Hf4  1  0.50000000  0.00000000  0.50000000  1.0
  Hf  Hf5  1  0.50000000  0.50000000  0.50000000  1.0
  Hf  Hf6  1  0.00000000  0.00000000  0.00000000  1.0
  Hf  Hf7  1  0.00000000  0.50000000  0.00000000  1.0
  S  S8  1  0.30185605  0.95140734  0.80583603  1.0
  S  S9  1  0.30185605  0.54859266  0.80583603  1.0
  S  S10  1  0.80185605  0.95140734  0.69416397  1.0
  S  S11  1  0.80185605  0.54859266  0.69416397  1.0
  S  S12  1  0.69814395  0.45140734  0.19416397  1.0
  S  S13  1  0.69814395  0.04859266  0.19416397  1.0
  S  S14  1  0.19814395  0.45140734  0.30583603  1.0
  S  S15  1  0.19814395  0.04859266  0.30583603  1.0
  S  S16  1  0.98208210  0.75000000  0.09487820  1.0
  S  S17  1  0.48208210  0.75000000  0.40512180  1.0
  S  S18  1  0.01791790  0.25000000  0.90512180  1.0
  S  S19  1  0.51791790  0.25000000  0.59487820  1.0
