# generated using pymatgen
data_Ti4Mn(PO4)6
_symmetry_space_group_name_H-M   'P 1'
_cell_length_a   8.64067065
_cell_length_b   8.64067065
_cell_length_c   8.64067065
_cell_angle_alpha   60.09648850
_cell_angle_beta   60.09648850
_cell_angle_gamma   60.09648850
_symmetry_Int_Tables_number   1
_chemical_formula_structural   Ti4Mn(PO4)6
_chemical_formula_sum   'Ti4 Mn1 P6 O24'
_cell_volume   457.16799572
_cell_formula_units_Z   1
loop_
 _symmetry_equiv_pos_site_id
 _symmetry_equiv_pos_as_xyz
  1  'x, y, z'
loop_
 _atom_site_type_symbol
 _atom_site_label
 _atom_site_symmetry_multiplicity
 _atom_site_fract_x
 _atom_site_fract_y
 _atom_site_fract_z
 _atom_site_occupancy
  Ti  Ti0  1  0.14707861  0.14707861  0.14707861  1.0
  Ti  Ti1  1  0.85292139  -0.14707861  -0.14707861  1.0
  Ti  Ti2  1  0.36635965  0.36635965  -0.63364035  1.0
  Ti  Ti3  1  0.63364035  0.63364035  -0.36635965  1.0
  Mn  Mn4  1  -0.00000000  0.00000000  0.00000000  1.0
  P  P5  1  0.54392664  0.24691242  -0.03056779  1.0
  P  P6  1  1.03056779  -0.54392664  -0.24691242  1.0
  P  P7  1  0.75308758  0.03056779  -0.54392664  1.0
  P  P8  1  0.45607336  -0.24691242  0.03056779  1.0
  P  P9  1  0.96943221  -0.45607336  0.24691242  1.0
  P  P10  1  1.24691242  -0.03056779  -0.45607336  1.0
  O  O11  1  1.18588624  0.00996305  -0.61893890  1.0
  O  O12  1  0.61893890  -0.18588624  -0.00996305  1.0
  O  O13  1  0.99003695  -0.38106110  -0.18588624  1.0
  O  O14  1  0.81411376  -0.00996305  -0.38106110  1.0
  O  O15  1  0.38106110  0.18588624  0.00996305  1.0
  O  O16  1  1.00996305  -0.61893890  0.18588624  1.0
  O  O17  1  0.58556090  0.21796331  -0.55523965  1.0
  O  O18  1  0.55523965  0.41443910  -0.21796331  1.0
  O  O19  1  0.78203669  0.55523965  -0.58556090  1.0
  O  O20  1  0.41443910  0.78203669  -0.44476035  1.0
  O  O21  1  0.44476035  0.58556090  -0.78203669  1.0
  O  O22  1  0.21796331  0.44476035  -0.41443910  1.0
  O  O23  1  0.26317107  -0.08072068  0.05560907  1.0
  O  O24  1  0.94439093  -0.26317107  0.08072068  1.0
  O  O25  1  1.08072068  -0.05560907  -0.26317107  1.0
  O  O26  1  0.73682893  0.08072068  -0.05560907  1.0
  O  O27  1  1.05560907  -0.73682893  -0.08072068  1.0
  O  O28  1  0.91927932  0.05560907  -0.73682893  1.0
  O  O29  1  0.50591634  0.29377706  0.13654941  1.0
  O  O30  1  0.86345059  -0.50591634  -0.29377706  1.0
  O  O31  1  0.70622294  -0.13654941  -0.50591634  1.0
  O  O32  1  0.49408366  -0.29377706  -0.13654941  1.0
  O  O33  1  1.13654941  -0.49408366  0.29377706  1.0
  O  O34  1  1.29377706  0.13654941  -0.49408366  1.0
