# generated using pymatgen
data_Si3Rh2
_symmetry_space_group_name_H-M   'P 1'
_cell_length_a   3.75747353
_cell_length_b   3.75747353
_cell_length_c   12.41382142
_cell_angle_alpha   90.00000000
_cell_angle_beta   90.00000000
_cell_angle_gamma   120.00000000
_symmetry_Int_Tables_number   1
_chemical_formula_structural   Si3Rh2
_chemical_formula_sum   'Si6 Rh4'
_cell_volume   151.78469609
_cell_formula_units_Z   2
loop_
 _symmetry_equiv_pos_site_id
 _symmetry_equiv_pos_as_xyz
  1  'x, y, z'
loop_
 _atom_site_type_symbol
 _atom_site_label
 _atom_site_symmetry_multiplicity
 _atom_site_fract_x
 _atom_site_fract_y
 _atom_site_fract_z
 _atom_site_occupancy
  Si  Si0  1  0.33333333  0.66666667  0.55771655  1.0
  Si  Si1  1  0.66666667  0.33333333  0.44228345  1.0
  Si  Si2  1  0.66666667  0.33333333  0.05771655  1.0
  Si  Si3  1  0.33333333  0.66666667  0.94228345  1.0
  Si  Si4  1  0.00000000  0.00000000  0.25000000  1.0
  Si  Si5  1  0.00000000  0.00000000  0.75000000  1.0
  Rh  Rh6  1  0.33333333  0.66666667  0.36012689  1.0
  Rh  Rh7  1  0.66666667  0.33333333  0.63987311  1.0
  Rh  Rh8  1  0.66666667  0.33333333  0.86012689  1.0
  Rh  Rh9  1  0.33333333  0.66666667  0.13987311  1.0
