# generated using pymatgen
data_Re7(NiMo)4
_symmetry_space_group_name_H-M   'P 1'
_cell_length_a   9.31837548
_cell_length_b   9.31837548
_cell_length_c   4.82774715
_cell_angle_alpha   90.00000000
_cell_angle_beta   90.00000000
_cell_angle_gamma   90.00000000
_symmetry_Int_Tables_number   1
_chemical_formula_structural   Re7(NiMo)4
_chemical_formula_sum   'Re14 Ni8 Mo8'
_cell_volume   419.20352777
_cell_formula_units_Z   2
loop_
 _symmetry_equiv_pos_site_id
 _symmetry_equiv_pos_as_xyz
  1  'x, y, z'
loop_
 _atom_site_type_symbol
 _atom_site_label
 _atom_site_symmetry_multiplicity
 _atom_site_fract_x
 _atom_site_fract_y
 _atom_site_fract_z
 _atom_site_occupancy
  Re  Re0  1  0.50000000  0.50000000  0.50000000  1.0
  Re  Re1  1  0.00000000  0.00000000  0.00000000  1.0
  Re  Re2  1  0.10393931  0.89606069  0.50000000  1.0
  Re  Re3  1  0.89606069  0.10393931  0.50000000  1.0
  Re  Re4  1  0.39606069  0.39606069  0.00000000  1.0
  Re  Re5  1  0.60393931  0.60393931  0.00000000  1.0
  Re  Re6  1  0.36898026  0.96400469  0.50000000  1.0
  Re  Re7  1  0.63101974  0.03599531  0.50000000  1.0
  Re  Re8  1  0.13101974  0.46400469  0.00000000  1.0
  Re  Re9  1  0.86898026  0.53599531  0.00000000  1.0
  Re  Re10  1  0.96400469  0.36898026  0.50000000  1.0
  Re  Re11  1  0.03599531  0.63101974  0.50000000  1.0
  Re  Re12  1  0.46400469  0.13101974  0.00000000  1.0
  Re  Re13  1  0.53599531  0.86898026  0.00000000  1.0
  Ni  Ni14  1  0.43412895  0.24108758  0.50000000  1.0
  Ni  Ni15  1  0.56587105  0.75891242  0.50000000  1.0
  Ni  Ni16  1  0.06587105  0.74108758  0.00000000  1.0
  Ni  Ni17  1  0.93412895  0.25891242  0.00000000  1.0
  Ni  Ni18  1  0.24108758  0.43412895  0.50000000  1.0
  Ni  Ni19  1  0.75891242  0.56587105  0.50000000  1.0
  Ni  Ni20  1  0.74108758  0.06587105  0.00000000  1.0
  Ni  Ni21  1  0.25891242  0.93412895  0.00000000  1.0
  Mo  Mo22  1  0.31511331  0.68488669  0.25003914  1.0
  Mo  Mo23  1  0.68488669  0.31511331  0.25003914  1.0
  Mo  Mo24  1  0.18488669  0.18488669  0.75003914  1.0
  Mo  Mo25  1  0.81511331  0.81511331  0.75003914  1.0
  Mo  Mo26  1  0.68488669  0.31511331  0.74996086  1.0
  Mo  Mo27  1  0.31511331  0.68488669  0.74996086  1.0
  Mo  Mo28  1  0.81511331  0.81511331  0.24996086  1.0
  Mo  Mo29  1  0.18488669  0.18488669  0.24996086  1.0
