# generated using pymatgen
data_ScSiO14
_symmetry_space_group_name_H-M   'P 1'
_cell_length_a   7.86936810
_cell_length_b   7.86936810
_cell_length_c   7.86936810
_cell_angle_alpha   60.00000000
_cell_angle_beta   60.00000000
_cell_angle_gamma   60.00000000
_symmetry_Int_Tables_number   1
_chemical_formula_structural   ScSiO14
_chemical_formula_sum   'Sc2 Si2 O28'
_cell_volume   344.59151854
_cell_formula_units_Z   2
loop_
 _symmetry_equiv_pos_site_id
 _symmetry_equiv_pos_as_xyz
  1  'x, y, z'
loop_
 _atom_site_type_symbol
 _atom_site_label
 _atom_site_symmetry_multiplicity
 _atom_site_fract_x
 _atom_site_fract_y
 _atom_site_fract_z
 _atom_site_occupancy
  Sc  Sc0  1  0.50000000  0.50000000  -0.50000000  1.0
  Sc  Sc1  1  0.75000000  -0.25000000  0.75000000  1.0
  Si  Si2  1  -0.00000000  1.00000000  0.00000000  1.0
  Si  Si3  1  0.25000000  0.25000000  0.25000000  1.0
  O  O4  1  0.94779439  -0.64552255  0.74993378  1.0
  O  O5  1  -0.05220561  0.74993378  0.35447745  1.0
  O  O6  1  -0.10447745  0.30220561  0.30220561  1.0
  O  O7  1  0.50006622  0.30220561  0.30220561  1.0
  O  O8  1  -0.64552255  0.94779439  0.74993378  1.0
  O  O9  1  0.94779439  -0.05220561  0.74993378  1.0
  O  O10  1  0.94779439  -0.25006622  0.94779439  1.0
  O  O11  1  -0.64552255  0.74993378  0.94779439  1.0
  O  O12  1  0.30220561  -0.10447745  0.30220561  1.0
  O  O13  1  0.30220561  0.30220561  -0.10447745  1.0
  O  O14  1  0.50006622  0.30220561  -0.10447745  1.0
  O  O15  1  0.50006622  -0.10447745  0.30220561  1.0
  O  O16  1  0.74993378  -0.05220561  0.94779439  1.0
  O  O17  1  -0.64552255  0.94779439  0.94779439  1.0
  O  O18  1  0.30220561  0.50006622  -0.10447745  1.0
  O  O19  1  0.30220561  -0.10447745  0.50006622  1.0
  O  O20  1  -0.25006622  0.94779439  0.35447745  1.0
  O  O21  1  0.74993378  -0.64552255  0.94779439  1.0
  O  O22  1  0.94779439  -0.64552255  0.94779439  1.0
  O  O23  1  -0.05220561  0.94779439  0.35447745  1.0
  O  O24  1  0.30220561  0.50006622  0.30220561  1.0
  O  O25  1  -0.10447745  0.50006622  0.30220561  1.0
  O  O26  1  -0.10447745  0.30220561  0.50006622  1.0
  O  O27  1  0.30220561  0.30220561  0.50006622  1.0
  O  O28  1  0.62500000  -0.37500000  1.12500000  1.0
  O  O29  1  0.62500000  0.12500000  0.62500000  1.0
  O  O30  1  0.62500000  -0.37500000  0.62500000  1.0
  O  O31  1  1.12500000  -0.37500000  0.62500000  1.0
