# generated using pymatgen
data_Y(Sn3Ru2)2
_symmetry_space_group_name_H-M   'P 1'
_cell_length_a   6.94985252
_cell_length_b   6.94985252
_cell_length_c   6.94985252
_cell_angle_alpha   120.41261229
_cell_angle_beta   120.41261229
_cell_angle_gamma   89.28680801
_symmetry_Int_Tables_number   1
_chemical_formula_structural   Y(Sn3Ru2)2
_chemical_formula_sum   'Y1 Sn6 Ru4'
_cell_volume   235.86216409
_cell_formula_units_Z   1
loop_
 _symmetry_equiv_pos_site_id
 _symmetry_equiv_pos_as_xyz
  1  'x, y, z'
loop_
 _atom_site_type_symbol
 _atom_site_label
 _atom_site_symmetry_multiplicity
 _atom_site_fract_x
 _atom_site_fract_y
 _atom_site_fract_z
 _atom_site_occupancy
  Y  Y0  1  0.00000000  0.00000000  0.00000000  1.0
  Sn  Sn1  1  0.46771034  1.11829286  1.00000000  1.0
  Sn  Sn2  1  0.88170714  0.88170714  1.34941748  1.0
  Sn  Sn3  1  0.53228966  0.53228966  0.65058252  1.0
  Sn  Sn4  1  1.11829286  0.46771034  1.00000000  1.0
  Sn  Sn5  1  -0.00000000  0.50000000  0.50000000  1.0
  Sn  Sn6  1  0.50000000  -0.00000000  0.50000000  1.0
  Ru  Ru7  1  0.40253018  0.75076767  1.00000000  1.0
  Ru  Ru8  1  1.24923233  1.24923233  1.65176250  1.0
  Ru  Ru9  1  0.59746982  0.59746982  0.34823750  1.0
  Ru  Ru10  1  0.75076767  0.40253018  1.00000000  1.0
