# generated using pymatgen
data_BiAuBr6
_symmetry_space_group_name_H-M   'P 1'
_cell_length_a   8.63943653
_cell_length_b   15.06439137
_cell_length_c   10.73822468
_cell_angle_alpha   108.14271134
_cell_angle_beta   114.50749655
_cell_angle_gamma   82.87479691
_symmetry_Int_Tables_number   1
_chemical_formula_structural   BiAuBr6
_chemical_formula_sum   'Bi4 Au4 Br24'
_cell_volume   1208.40419412
_cell_formula_units_Z   4
loop_
 _symmetry_equiv_pos_site_id
 _symmetry_equiv_pos_as_xyz
  1  'x, y, z'
loop_
 _atom_site_type_symbol
 _atom_site_label
 _atom_site_symmetry_multiplicity
 _atom_site_fract_x
 _atom_site_fract_y
 _atom_site_fract_z
 _atom_site_occupancy
  Bi  Bi0  1  -0.15469157  0.87358200  0.81684889  1.0
  Bi  Bi1  1  0.15469157  0.12641800  0.18315111  1.0
  Bi  Bi2  1  -0.16205608  0.62248693  0.43335056  1.0
  Bi  Bi3  1  0.16205608  0.37751307  0.56664944  1.0
  Au  Au4  1  0.16467670  0.23447541  0.86925098  1.0
  Au  Au5  1  -0.16467670  0.76552459  0.13074902  1.0
  Au  Au6  1  -0.50000000  0.50000000  0.00000000  1.0
  Au  Au7  1  0.50000000  -0.00000000  0.50000000  1.0
  Br  Br8  1  -0.38922886  0.72574250  0.55449498  1.0
  Br  Br9  1  0.38922886  0.27425750  0.44550502  1.0
  Br  Br10  1  -0.95468779  0.77144037  0.03260165  1.0
  Br  Br11  1  0.95468779  0.22855963  0.96739835  1.0
  Br  Br12  1  -0.17353739  0.48331329  0.55131074  1.0
  Br  Br13  1  0.17353739  0.51668671  0.44868926  1.0
  Br  Br14  1  -0.18893356  0.98088577  0.61081037  1.0
  Br  Br15  1  0.18893356  0.01911423  0.38918963  1.0
  Br  Br16  1  -0.06463804  0.26547443  0.65690169  1.0
  Br  Br17  1  0.06463804  0.73452557  0.34309831  1.0
  Br  Br18  1  0.16948987  0.97047810  0.93670936  1.0
  Br  Br19  1  -0.16948987  0.02952190  0.06329064  1.0
  Br  Br20  1  0.18909936  0.50804119  0.87281187  1.0
  Br  Br21  1  -0.18909937  0.49195881  0.12718813  1.0
  Br  Br22  1  -0.37078849  0.75580869  0.22910673  1.0
  Br  Br23  1  0.37078849  0.24419131  0.77089327  1.0
  Br  Br24  1  0.07054121  0.74302356  0.69297878  1.0
  Br  Br25  1  -0.07054121  0.25697644  0.30702122  1.0
  Br  Br26  1  0.60537872  0.79592826  0.91611087  1.0
  Br  Br27  1  -0.60537872  0.20407174  0.08388913  1.0
  Br  Br28  1  0.47435382  0.96401600  0.69980029  1.0
  Br  Br29  1  -0.47435382  0.03598400  0.30019971  1.0
  Br  Br30  1  0.52962585  0.46703963  0.77166715  1.0
  Br  Br31  1  -0.52962585  0.53296037  0.22833285  1.0
