# generated using pymatgen
data_RbBa2Br5
_symmetry_space_group_name_H-M   'P 1'
_cell_length_a   9.89818762
_cell_length_b   8.75085537
_cell_length_c   14.16446534
_cell_angle_alpha   90.00000000
_cell_angle_beta   90.02973211
_cell_angle_gamma   90.00000000
_symmetry_Int_Tables_number   1
_chemical_formula_structural   RbBa2Br5
_chemical_formula_sum   'Rb4 Ba8 Br20'
_cell_volume   1226.89194513
_cell_formula_units_Z   4
loop_
 _symmetry_equiv_pos_site_id
 _symmetry_equiv_pos_as_xyz
  1  'x, y, z'
loop_
 _atom_site_type_symbol
 _atom_site_label
 _atom_site_symmetry_multiplicity
 _atom_site_fract_x
 _atom_site_fract_y
 _atom_site_fract_z
 _atom_site_occupancy
  Rb  Rb0  1  0.49073427  0.46145108  0.17089313  1.0
  Rb  Rb1  1  0.49073427  0.03854892  0.67089313  1.0
  Rb  Rb2  1  0.50926573  0.96145108  0.32910687  1.0
  Rb  Rb3  1  0.50926573  0.53854892  0.82910687  1.0
  Ba  Ba4  1  0.99855881  0.47845370  0.17729074  1.0
  Ba  Ba5  1  0.99855881  0.02154630  0.67729074  1.0
  Ba  Ba6  1  0.00144119  0.97845370  0.32270926  1.0
  Ba  Ba7  1  0.00144119  0.52154630  0.82270926  1.0
  Ba  Ba8  1  0.74938661  0.43168478  0.49372387  1.0
  Ba  Ba9  1  0.74938661  0.06831522  0.99372387  1.0
  Ba  Ba10  1  0.25061339  0.93168478  0.00627613  1.0
  Ba  Ba11  1  0.25061339  0.56831522  0.50627613  1.0
  Br  Br12  1  0.96195620  0.84038645  0.10224260  1.0
  Br  Br13  1  0.96195620  0.65961355  0.60224260  1.0
  Br  Br14  1  0.03804380  0.34038645  0.39775740  1.0
  Br  Br15  1  0.03804380  0.15961355  0.89775740  1.0
  Br  Br16  1  0.78051481  0.04785781  0.49728569  1.0
  Br  Br17  1  0.78051481  0.45214219  0.99728569  1.0
  Br  Br18  1  0.21948519  0.54785781  0.00271431  1.0
  Br  Br19  1  0.21948519  0.95214219  0.50271431  1.0
  Br  Br20  1  0.78416014  0.67263315  0.31674816  1.0
  Br  Br21  1  0.78416014  0.82736685  0.81674816  1.0
  Br  Br22  1  0.21583986  0.17263315  0.18325184  1.0
  Br  Br23  1  0.21583986  0.32736685  0.68325184  1.0
  Br  Br24  1  0.76938544  0.19641283  0.21630685  1.0
  Br  Br25  1  0.76938544  0.30358717  0.71630685  1.0
  Br  Br26  1  0.23061456  0.69641283  0.28369315  1.0
  Br  Br27  1  0.23061456  0.80358717  0.78369315  1.0
  Br  Br28  1  0.46404954  0.33348309  0.40685856  1.0
  Br  Br29  1  0.46404954  0.16651691  0.90685856  1.0
  Br  Br30  1  0.53595046  0.83348309  0.09314144  1.0
  Br  Br31  1  0.53595046  0.66651691  0.59314144  1.0
