# generated using pymatgen
data_Na3B5Pt9
_symmetry_space_group_name_H-M   'P 1'
_cell_length_a   6.39101642
_cell_length_b   6.39101642
_cell_length_c   15.23251586
_cell_angle_alpha   90.00000000
_cell_angle_beta   90.00000000
_cell_angle_gamma   127.99782245
_symmetry_Int_Tables_number   1
_chemical_formula_structural   Na3B5Pt9
_chemical_formula_sum   'Na6 B10 Pt18'
_cell_volume   490.29396128
_cell_formula_units_Z   2
loop_
 _symmetry_equiv_pos_site_id
 _symmetry_equiv_pos_as_xyz
  1  'x, y, z'
loop_
 _atom_site_type_symbol
 _atom_site_label
 _atom_site_symmetry_multiplicity
 _atom_site_fract_x
 _atom_site_fract_y
 _atom_site_fract_z
 _atom_site_occupancy
  Na  Na0  1  -0.44134184  0.44134184  0.91448856  1.0
  Na  Na1  1  -0.44134184  0.44134184  0.58551144  1.0
  Na  Na2  1  0.44134184  0.55865816  0.41448856  1.0
  Na  Na3  1  0.44134184  0.55865816  0.08551144  1.0
  Na  Na4  1  -0.31624242  0.31624242  0.75000000  1.0
  Na  Na5  1  0.31624242  0.68375758  0.25000000  1.0
  B  B6  1  0.05657542  0.94342458  0.35316684  1.0
  B  B7  1  0.05657542  0.94342458  0.14683316  1.0
  B  B8  1  -0.05657542  0.05657542  0.85316684  1.0
  B  B9  1  -0.05657542  0.05657542  0.64683316  1.0
  B  B10  1  0.18939334  0.81060666  0.97227073  1.0
  B  B11  1  0.18939334  0.81060666  0.52772927  1.0
  B  B12  1  -0.18939334  0.18939334  0.47227073  1.0
  B  B13  1  -0.18939334  0.18939334  0.02772927  1.0
  B  B14  1  0.27084645  0.72915355  0.75000000  1.0
  B  B15  1  -0.27084645  0.27084645  0.25000000  1.0
  Pt  Pt16  1  0.06340590  0.43208521  0.92103256  1.0
  Pt  Pt17  1  0.06340590  0.43208521  0.57896744  1.0
  Pt  Pt18  1  0.43208521  1.06340590  0.42103256  1.0
  Pt  Pt19  1  0.43208521  1.06340590  0.07896744  1.0
  Pt  Pt20  1  0.56791479  0.93659410  0.92103256  1.0
  Pt  Pt21  1  0.56791479  0.93659410  0.57896744  1.0
  Pt  Pt22  1  -0.06340590  0.56791479  0.42103256  1.0
  Pt  Pt23  1  -0.06340590  0.56791479  0.07896744  1.0
  Pt  Pt24  1  0.16483841  0.34266725  0.75000000  1.0
  Pt  Pt25  1  0.34266725  1.16483841  0.25000000  1.0
  Pt  Pt26  1  0.65733275  0.83516159  0.75000000  1.0
  Pt  Pt27  1  -0.16483841  0.65733275  0.25000000  1.0
  Pt  Pt28  1  0.12669677  0.87330323  0.84314770  1.0
  Pt  Pt29  1  0.12669677  0.87330323  0.65685230  1.0
  Pt  Pt30  1  -0.12669677  0.12669677  0.34314770  1.0
  Pt  Pt31  1  -0.12669677  0.12669677  0.15685230  1.0
  Pt  Pt32  1  0.00000000  0.00000000  0.00000000  1.0
  Pt  Pt33  1  0.00000000  0.00000000  0.50000000  1.0
