# generated using pymatgen
data_CoPSe
_symmetry_space_group_name_H-M   'P 1'
_cell_length_a   5.59275669
_cell_length_b   5.63747103
_cell_length_c   11.28653672
_cell_angle_alpha   90.00000000
_cell_angle_beta   90.00000000
_cell_angle_gamma   90.00000000
_symmetry_Int_Tables_number   1
_chemical_formula_structural   CoPSe
_chemical_formula_sum   'Co8 P8 Se8'
_cell_volume   355.85325939
_cell_formula_units_Z   8
loop_
 _symmetry_equiv_pos_site_id
 _symmetry_equiv_pos_as_xyz
  1  'x, y, z'
loop_
 _atom_site_type_symbol
 _atom_site_label
 _atom_site_symmetry_multiplicity
 _atom_site_fract_x
 _atom_site_fract_y
 _atom_site_fract_z
 _atom_site_occupancy
  Co  Co0  1  0.51357254  0.82733880  0.63568954  1.0
  Co  Co1  1  0.51357254  0.67266120  0.13568954  1.0
  Co  Co2  1  1.01357254  0.82733880  0.86431046  1.0
  Co  Co3  1  1.01357254  0.67266120  0.36431046  1.0
  Co  Co4  1  0.48642746  0.32733880  0.86431046  1.0
  Co  Co5  1  0.48642746  0.17266120  0.36431046  1.0
  Co  Co6  1  -0.01357254  0.32733880  0.63568954  1.0
  Co  Co7  1  -0.01357254  0.17266120  0.13568954  1.0
  P  P8  1  0.37817534  0.95235525  0.81334646  1.0
  P  P9  1  0.37817534  0.54764475  0.31334646  1.0
  P  P10  1  0.87817534  0.95235525  0.68665354  1.0
  P  P11  1  0.87817534  0.54764475  0.18665354  1.0
  P  P12  1  0.62182466  0.45235525  0.68665354  1.0
  P  P13  1  0.62182466  0.04764475  0.18665354  1.0
  P  P14  1  0.12182466  0.45235525  0.81334646  1.0
  P  P15  1  0.12182466  0.04764475  0.31334646  1.0
  Se  Se16  1  0.12513340  0.70424290  0.57153932  1.0
  Se  Se17  1  0.12513340  0.79575710  0.07153932  1.0
  Se  Se18  1  0.62513340  0.70424290  0.92846068  1.0
  Se  Se19  1  0.62513340  0.79575710  0.42846068  1.0
  Se  Se20  1  0.87486660  0.20424290  0.92846068  1.0
  Se  Se21  1  0.87486660  0.29575710  0.42846068  1.0
  Se  Se22  1  0.37486660  0.20424290  0.57153932  1.0
  Se  Se23  1  0.37486660  0.29575710  0.07153932  1.0
