# generated using pymatgen
data_Ba2Tl2CuO6
_symmetry_space_group_name_H-M   'P 1'
_cell_length_a   12.23185728
_cell_length_b   12.23185728
_cell_length_c   12.23185728
_cell_angle_alpha   161.62961292
_cell_angle_beta   161.62961292
_cell_angle_gamma   26.09342545
_symmetry_Int_Tables_number   1
_chemical_formula_structural   Ba2Tl2CuO6
_chemical_formula_sum   'Ba2 Tl2 Cu1 O6'
_cell_volume   181.71340574
_cell_formula_units_Z   1
loop_
 _symmetry_equiv_pos_site_id
 _symmetry_equiv_pos_as_xyz
  1  'x, y, z'
loop_
 _atom_site_type_symbol
 _atom_site_label
 _atom_site_symmetry_multiplicity
 _atom_site_fract_x
 _atom_site_fract_y
 _atom_site_fract_z
 _atom_site_occupancy
  Ba  Ba0  1  0.58111283  0.58111283  1.00000000  1.0
  Ba  Ba1  1  0.41888717  0.41888717  0.00000000  1.0
  Tl  Tl2  1  0.79789703  0.79789703  1.00000000  1.0
  Tl  Tl3  1  0.20210297  0.20210297  0.00000000  1.0
  Cu  Cu4  1  0.00000000  0.00000000  0.00000000  1.0
  O  O5  1  0.88269759  0.88269759  1.00000000  1.0
  O  O6  1  0.11730241  0.11730241  0.00000000  1.0
  O  O7  1  0.71117787  0.71117787  1.00000000  1.0
  O  O8  1  0.28882213  0.28882213  0.00000000  1.0
  O  O9  1  0.50000000  0.00000000  0.50000000  1.0
  O  O10  1  0.00000000  0.50000000  0.50000000  1.0
