# generated using pymatgen
data_Sr(H2N)2
_symmetry_space_group_name_H-M   'P 1'
_cell_length_a   6.80238324
_cell_length_b   7.79749198
_cell_length_c   6.74697458
_cell_angle_alpha   90.00000000
_cell_angle_beta   109.80350516
_cell_angle_gamma   90.00000000
_symmetry_Int_Tables_number   1
_chemical_formula_structural   Sr(H2N)2
_chemical_formula_sum   'Sr4 H16 N8'
_cell_volume   336.70543931
_cell_formula_units_Z   4
loop_
 _symmetry_equiv_pos_site_id
 _symmetry_equiv_pos_as_xyz
  1  'x, y, z'
loop_
 _atom_site_type_symbol
 _atom_site_label
 _atom_site_symmetry_multiplicity
 _atom_site_fract_x
 _atom_site_fract_y
 _atom_site_fract_z
 _atom_site_occupancy
  Sr  Sr0  1  0.74989253  0.87731972  0.99965766  1.0
  Sr  Sr1  1  0.74989253  0.62268028  0.49965766  1.0
  Sr  Sr2  1  0.25010747  0.37731972  0.50034234  1.0
  Sr  Sr3  1  0.25010747  0.12268028  0.00034234  1.0
  H  H4  1  0.99850103  0.42508363  0.85988123  1.0
  H  H5  1  0.99850103  0.07491637  0.35988123  1.0
  H  H6  1  0.00149897  0.92508363  0.64011877  1.0
  H  H7  1  0.00149897  0.57491637  0.14011877  1.0
  H  H8  1  0.87881707  0.28144760  0.68878998  1.0
  H  H9  1  0.87881707  0.21855240  0.18878998  1.0
  H  H10  1  0.12118293  0.78144760  0.81121002  1.0
  H  H11  1  0.12118293  0.71855240  0.31121002  1.0
  H  H12  1  0.54719835  0.54383839  0.87323647  1.0
  H  H13  1  0.54719835  0.95616161  0.37323647  1.0
  H  H14  1  0.45280165  0.04383839  0.62676353  1.0
  H  H15  1  0.45280165  0.45616161  0.12676353  1.0
  H  H16  1  0.38985788  0.69045535  0.73782106  1.0
  H  H17  1  0.38985788  0.80954465  0.23782106  1.0
  H  H18  1  0.61014212  0.19045535  0.76217894  1.0
  H  H19  1  0.61014212  0.30954465  0.26217894  1.0
  N  N20  1  -0.00428855  0.86402226  0.77327017  1.0
  N  N21  1  -0.00428855  0.63597774  0.27327017  1.0
  N  N22  1  1.00428855  0.36402226  0.72672983  1.0
  N  N23  1  1.00428855  0.13597774  0.22672983  1.0
  N  N24  1  0.51983550  0.62066156  0.74250555  1.0
  N  N25  1  0.51983550  0.87933844  0.24250555  1.0
  N  N26  1  0.48016450  0.12066156  0.75749445  1.0
  N  N27  1  0.48016450  0.37933844  0.25749445  1.0
