# generated using pymatgen
data_ZnH3CNO3
_symmetry_space_group_name_H-M   'P 1'
_cell_length_a   9.60622053
_cell_length_b   7.56897029
_cell_length_c   5.48310490
_cell_angle_alpha   90.00000000
_cell_angle_beta   90.00000000
_cell_angle_gamma   90.00000000
_symmetry_Int_Tables_number   1
_chemical_formula_structural   ZnH3CNO3
_chemical_formula_sum   'Zn4 H12 C4 N4 O12'
_cell_volume   398.67215898
_cell_formula_units_Z   4
loop_
 _symmetry_equiv_pos_site_id
 _symmetry_equiv_pos_as_xyz
  1  'x, y, z'
loop_
 _atom_site_type_symbol
 _atom_site_label
 _atom_site_symmetry_multiplicity
 _atom_site_fract_x
 _atom_site_fract_y
 _atom_site_fract_z
 _atom_site_occupancy
  Zn  Zn0  1  0.35185053  0.67154977  0.70683422  1.0
  Zn  Zn1  1  0.64814947  0.32845023  0.20683422  1.0
  Zn  Zn2  1  0.14814947  0.17154977  0.20683422  1.0
  Zn  Zn3  1  0.85185053  0.82845023  0.70683422  1.0
  H  H4  1  0.53519172  0.85254506  0.51286619  1.0
  H  H5  1  0.46480828  0.14745494  1.01286619  1.0
  H  H6  1  0.96480828  0.35254506  1.01286619  1.0
  H  H7  1  0.03519172  0.64745494  0.51286619  1.0
  H  H8  1  0.44096210  0.76532081  0.28693176  1.0
  H  H9  1  0.55903790  0.23467919  0.78693176  1.0
  H  H10  1  0.05903790  0.26532081  0.78693176  1.0
  H  H11  1  0.94096210  0.73467919  0.28693176  1.0
  H  H12  1  0.39000784  0.95097333  0.41973727  1.0
  H  H13  1  0.60999216  0.04902667  0.91973727  1.0
  H  H14  1  0.10999216  0.45097333  0.91973727  1.0
  H  H15  1  0.89000784  0.54902667  0.41973727  1.0
  C  C16  1  0.11826669  0.84609673  0.94507565  1.0
  C  C17  1  0.88173331  0.15390327  0.44507565  1.0
  C  C18  1  0.38173331  0.34609673  0.44507565  1.0
  C  C19  1  0.61826669  0.65390327  0.94507565  1.0
  N  N20  1  0.43574682  0.83048867  0.45146355  1.0
  N  N21  1  0.56425318  0.16951133  0.95146355  1.0
  N  N22  1  0.06425318  0.33048867  0.95146355  1.0
  N  N23  1  0.93574682  0.66951133  0.45146355  1.0
  O  O24  1  0.98579575  0.87637054  0.97417350  1.0
  O  O25  1  0.01420425  0.12362946  0.47417350  1.0
  O  O26  1  0.51420425  0.37637054  0.47417350  1.0
  O  O27  1  0.48579575  0.62362946  0.97417350  1.0
  O  O28  1  0.15821814  0.71068181  0.81638214  1.0
  O  O29  1  0.84178186  0.28931819  0.31638214  1.0
  O  O30  1  0.34178186  0.21068181  0.31638214  1.0
  O  O31  1  0.65821814  0.78931819  0.81638214  1.0
  O  O32  1  0.20926391  0.94620728  0.04662572  1.0
  O  O33  1  0.79073609  0.05379272  0.54662572  1.0
  O  O34  1  0.29073609  0.44620728  0.54662572  1.0
  O  O35  1  0.70926391  0.55379272  0.04662572  1.0
