# generated using pymatgen
data_Ba3Cd(SiO4)2
_symmetry_space_group_name_H-M   'P 1'
_cell_length_a   5.80261084
_cell_length_b   5.80261084
_cell_length_c   7.45666210
_cell_angle_alpha   90.00000000
_cell_angle_beta   90.00000000
_cell_angle_gamma   120.00000000
_symmetry_Int_Tables_number   1
_chemical_formula_structural   Ba3Cd(SiO4)2
_chemical_formula_sum   'Ba3 Cd1 Si2 O8'
_cell_volume   217.43126119
_cell_formula_units_Z   1
loop_
 _symmetry_equiv_pos_site_id
 _symmetry_equiv_pos_as_xyz
  1  'x, y, z'
loop_
 _atom_site_type_symbol
 _atom_site_label
 _atom_site_symmetry_multiplicity
 _atom_site_fract_x
 _atom_site_fract_y
 _atom_site_fract_z
 _atom_site_occupancy
  Ba  Ba0  1  0.33333333  0.66666667  0.67182526  1.0
  Ba  Ba1  1  0.66666667  0.33333333  0.32817474  1.0
  Ba  Ba2  1  0.00000000  0.00000000  0.00000000  1.0
  Cd  Cd3  1  0.00000000  0.00000000  0.50000000  1.0
  Si  Si4  1  0.33333333  0.66666667  0.22222681  1.0
  Si  Si5  1  0.66666667  0.33333333  0.77777319  1.0
  O  O6  1  0.64144349  0.82072175  0.30468171  1.0
  O  O7  1  0.82072175  0.64144349  0.69531829  1.0
  O  O8  1  0.82072175  0.17927825  0.69531829  1.0
  O  O9  1  0.17927825  0.82072175  0.30468171  1.0
  O  O10  1  0.17927825  0.35855651  0.30468171  1.0
  O  O11  1  0.35855651  0.17927825  0.69531829  1.0
  O  O12  1  0.33333333  0.66666667  0.00538237  1.0
  O  O13  1  0.66666667  0.33333333  0.99461763  1.0
