# generated using pymatgen
data_Mn2SnSe4
_symmetry_space_group_name_H-M   'P 1'
_cell_length_a   12.35578656
_cell_length_b   7.67658227
_cell_length_c   6.89918148
_cell_angle_alpha   90.00000000
_cell_angle_beta   90.00000000
_cell_angle_gamma   90.00000000
_symmetry_Int_Tables_number   1
_chemical_formula_structural   Mn2SnSe4
_chemical_formula_sum   'Mn8 Sn4 Se16'
_cell_volume   654.38882665
_cell_formula_units_Z   4
loop_
 _symmetry_equiv_pos_site_id
 _symmetry_equiv_pos_as_xyz
  1  'x, y, z'
loop_
 _atom_site_type_symbol
 _atom_site_label
 _atom_site_symmetry_multiplicity
 _atom_site_fract_x
 _atom_site_fract_y
 _atom_site_fract_z
 _atom_site_occupancy
  Mn  Mn0  1  0.22714454  0.75000000  0.47239073  1.0
  Mn  Mn1  1  0.72714454  0.75000000  1.02760927  1.0
  Mn  Mn2  1  0.77285546  0.25000000  0.52760927  1.0
  Mn  Mn3  1  0.27285546  0.25000000  -0.02760927  1.0
  Mn  Mn4  1  0.00000000  0.50000000  0.00000000  1.0
  Mn  Mn5  1  0.50000000  0.00000000  0.50000000  1.0
  Mn  Mn6  1  0.00000000  0.00000000  0.00000000  1.0
  Mn  Mn7  1  0.50000000  0.50000000  0.50000000  1.0
  Se  Se8  1  0.41832895  0.75000000  0.33277617  1.0
  Se  Se9  1  0.91832895  0.75000000  0.16722383  1.0
  Se  Se10  1  0.58167105  0.25000000  0.66722383  1.0
  Se  Se11  1  0.08167105  0.25000000  0.83277617  1.0
  Se  Se12  1  0.57238696  0.75000000  0.77677198  1.0
  Se  Se13  1  0.07238696  0.75000000  0.72322802  1.0
  Se  Se14  1  0.42761304  0.25000000  0.22322802  1.0
  Se  Se15  1  0.92761304  0.25000000  0.27677198  1.0
  Se  Se16  1  0.31953061  0.47719832  0.67574906  1.0
  Se  Se17  1  0.81953061  1.02280168  0.82425094  1.0
  Se  Se18  1  0.68046939  -0.02280168  0.32425094  1.0
  Se  Se19  1  0.18046939  0.52280168  0.17574906  1.0
  Se  Se20  1  0.68046939  0.52280168  0.32425094  1.0
  Se  Se21  1  0.18046939  -0.02280168  0.17574906  1.0
  Se  Se22  1  0.31953061  1.02280168  0.67574906  1.0
  Se  Se23  1  0.81953061  0.47719832  0.82425094  1.0
  Sn  Sn24  1  0.36636972  0.75000000  0.92537783  1.0
  Sn  Sn25  1  0.86636972  0.75000000  0.57462217  1.0
  Sn  Sn26  1  0.63363028  0.25000000  0.07462217  1.0
  Sn  Sn27  1  0.13363028  0.25000000  0.42537783  1.0
