# generated using pymatgen
data_SrRuO3
_symmetry_space_group_name_H-M   'P 1'
_cell_length_a   5.59363993
_cell_length_b   7.88084537
_cell_length_c   5.59465836
_cell_angle_alpha   90.00000000
_cell_angle_beta   90.00000000
_cell_angle_gamma   90.00000000
_symmetry_Int_Tables_number   1
_chemical_formula_structural   SrRuO3
_chemical_formula_sum   'Sr4 Ru4 O12'
_cell_volume   246.62715034
_cell_formula_units_Z   4
loop_
 _symmetry_equiv_pos_site_id
 _symmetry_equiv_pos_as_xyz
  1  'x, y, z'
loop_
 _atom_site_type_symbol
 _atom_site_label
 _atom_site_symmetry_multiplicity
 _atom_site_fract_x
 _atom_site_fract_y
 _atom_site_fract_z
 _atom_site_occupancy
  Sr  Sr0  1  1.02933358  0.25000000  0.50490092  1.0
  Sr  Sr1  1  0.52933358  0.25000000  -0.00490092  1.0
  Sr  Sr2  1  -0.02933358  0.75000000  0.49509908  1.0
  Sr  Sr3  1  0.47066642  0.75000000  1.00490092  1.0
  Ru  Ru4  1  0.50000000  0.50000000  0.50000000  1.0
  Ru  Ru5  1  0.50000000  0.00000000  0.50000000  1.0
  Ru  Ru6  1  0.00000000  0.50000000  0.00000000  1.0
  Ru  Ru7  1  0.00000000  0.00000000  0.00000000  1.0
  O  O8  1  0.28448680  0.46614649  0.78474782  1.0
  O  O9  1  0.28448680  1.03385351  0.78474782  1.0
  O  O10  1  0.78448680  0.46614649  0.71525218  1.0
  O  O11  1  0.78448680  1.03385351  0.71525218  1.0
  O  O12  1  0.71551320  -0.03385351  0.21525218  1.0
  O  O13  1  0.71551320  0.53385351  0.21525218  1.0
  O  O14  1  0.21551320  -0.03385351  0.28474782  1.0
  O  O15  1  0.21551320  0.53385351  0.28474782  1.0
  O  O16  1  -0.00482053  0.25000000  0.06393323  1.0
  O  O17  1  0.49517947  0.25000000  0.43606677  1.0
  O  O18  1  1.00482053  0.75000000  0.93606677  1.0
  O  O19  1  0.50482053  0.75000000  0.56393323  1.0
