# generated using pymatgen
data_Zn(GaS2)2
_symmetry_space_group_name_H-M   'P 1'
_cell_length_a   6.47645306
_cell_length_b   6.47645306
_cell_length_c   6.47645306
_cell_angle_alpha   131.09255584
_cell_angle_beta   131.09255584
_cell_angle_gamma   71.66606846
_symmetry_Int_Tables_number   1
_chemical_formula_structural   Zn(GaS2)2
_chemical_formula_sum   'Zn1 Ga2 S4'
_cell_volume   150.95893350
_cell_formula_units_Z   1
loop_
 _symmetry_equiv_pos_site_id
 _symmetry_equiv_pos_as_xyz
  1  'x, y, z'
loop_
 _atom_site_type_symbol
 _atom_site_label
 _atom_site_symmetry_multiplicity
 _atom_site_fract_x
 _atom_site_fract_y
 _atom_site_fract_z
 _atom_site_occupancy
  Zn  Zn0  1  0.50000000  0.50000000  1.00000000  1.0
  Ga  Ga1  1  0.25000000  0.75000000  0.50000000  1.0
  Ga  Ga2  1  0.00000000  0.00000000  0.00000000  1.0
  S  S3  1  0.38156382  0.89001682  1.01082354  1.0
  S  S4  1  1.10998318  1.12080672  1.49154700  1.0
  S  S5  1  0.87919328  0.37074028  0.98917646  1.0
  S  S6  1  0.62925972  0.61843618  0.50845300  1.0
