# generated using pymatgen
data_K2Ti(Si2O5)3
_symmetry_space_group_name_H-M   'P 1'
_cell_length_a   7.04298576
_cell_length_b   12.90581954
_cell_length_c   7.75659718
_cell_angle_alpha   90.00000000
_cell_angle_beta   106.27085617
_cell_angle_gamma   90.00000000
_symmetry_Int_Tables_number   1
_chemical_formula_structural   K2Ti(Si2O5)3
_chemical_formula_sum   'K4 Ti2 Si12 O30'
_cell_volume   676.80150118
_cell_formula_units_Z   2
loop_
 _symmetry_equiv_pos_site_id
 _symmetry_equiv_pos_as_xyz
  1  'x, y, z'
loop_
 _atom_site_type_symbol
 _atom_site_label
 _atom_site_symmetry_multiplicity
 _atom_site_fract_x
 _atom_site_fract_y
 _atom_site_fract_z
 _atom_site_occupancy
  K  K0  1  0.68186863  0.38670257  0.42695836  1.0
  K  K1  1  0.31813137  0.88670257  0.57304164  1.0
  K  K2  1  0.30370329  0.18328630  0.84331656  1.0
  K  K3  1  0.69629671  0.68328630  0.15668344  1.0
  Ti  Ti4  1  0.74444263  0.04354794  0.75069527  1.0
  Ti  Ti5  1  0.25555737  0.54354794  0.24930473  1.0
  Si  Si6  1  0.94663771  0.12670117  0.44306312  1.0
  Si  Si7  1  0.05336229  0.62670117  0.55693688  1.0
  Si  Si8  1  0.83010975  0.78259551  0.70883670  1.0
  Si  Si9  1  0.16989025  0.28259551  0.29116330  1.0
  Si  Si10  1  0.80706424  0.28666350  0.93095143  1.0
  Si  Si11  1  0.19293576  0.78666350  0.06904857  1.0
  Si  Si12  1  0.50867619  0.11526539  0.33059373  1.0
  Si  Si13  1  0.49132381  0.61526539  0.66940627  1.0
  Si  Si14  1  0.48770847  0.45020093  0.95890300  1.0
  Si  Si15  1  0.51229153  0.95020093  0.04109700  1.0
  Si  Si16  1  0.04929237  0.45757248  0.83683121  1.0
  Si  Si17  1  0.95070763  0.95757248  0.16316879  1.0
  O  O18  1  0.99882146  0.26273096  0.10161672  1.0
  O  O19  1  0.00117854  0.76273096  0.89838328  1.0
  O  O20  1  0.97082062  0.53191399  0.65870602  1.0
  O  O21  1  0.02917938  0.03191399  0.34129398  1.0
  O  O22  1  0.94920050  0.09357309  0.64370040  1.0
  O  O23  1  0.05079950  0.59357309  0.35629960  1.0
  O  O24  1  0.93505756  0.01519277  0.97602594  1.0
  O  O25  1  0.06494244  0.51519277  0.02397406  1.0
  O  O26  1  0.91000164  0.72920465  0.54727031  1.0
  O  O27  1  0.08999836  0.22920465  0.45272969  1.0
  O  O28  1  0.88846126  0.36149637  0.79296136  1.0
  O  O29  1  0.11153874  0.86149637  0.20703864  1.0
  O  O30  1  0.76940670  0.90133485  0.66790249  1.0
  O  O31  1  0.23059330  0.40133485  0.33209751  1.0
  O  O32  1  0.72503851  0.16110618  0.32097707  1.0
  O  O33  1  0.27496149  0.66110618  0.67902293  1.0
  O  O34  1  0.70505103  0.18528466  0.82639670  1.0
  O  O35  1  0.29494897  0.68528466  0.17360330  1.0
  O  O36  1  0.63861887  0.35056539  0.99977884  1.0
  O  O37  1  0.36138113  0.85056539  0.00022116  1.0
  O  O38  1  0.63414008  0.71741116  0.72191103  1.0
  O  O39  1  0.36585992  0.21741116  0.27808897  1.0
  O  O40  1  0.57125554  0.53398261  0.83792778  1.0
  O  O41  1  0.42874446  0.03398261  0.16207222  1.0
  O  O42  1  0.52721182  0.06526867  0.52383514  1.0
  O  O43  1  0.47278818  0.56526867  0.47616486  1.0
  O  O44  1  0.52294495  -0.00016697  0.85390517  1.0
  O  O45  1  0.47705505  0.49983303  0.14609483  1.0
  O  O46  1  0.26782229  0.40746585  0.84000997  1.0
  O  O47  1  0.73217771  0.90746585  0.15999003  1.0
