# generated using pymatgen
data_Cu2P7
_symmetry_space_group_name_H-M   'P 1'
_cell_length_a   7.34219505
_cell_length_b   7.34219505
_cell_length_c   14.72196160
_cell_angle_alpha   74.79743608
_cell_angle_beta   105.20256392
_cell_angle_gamma   120.33272334
_symmetry_Int_Tables_number   1
_chemical_formula_structural   Cu2P7
_chemical_formula_sum   'Cu8 P28'
_cell_volume   652.93955711
_cell_formula_units_Z   4
loop_
 _symmetry_equiv_pos_site_id
 _symmetry_equiv_pos_as_xyz
  1  'x, y, z'
loop_
 _atom_site_type_symbol
 _atom_site_label
 _atom_site_symmetry_multiplicity
 _atom_site_fract_x
 _atom_site_fract_y
 _atom_site_fract_z
 _atom_site_occupancy
  Cu  Cu0  1  0.88287411  -0.88287411  0.20626511  1.0
  Cu  Cu1  1  0.11712589  -0.11712589  0.79373489  1.0
  Cu  Cu2  1  0.78193742  0.21806258  0.57329390  1.0
  Cu  Cu3  1  1.21806258  -0.21806258  0.42670610  1.0
  Cu  Cu4  1  0.65638669  0.34361331  0.96655497  1.0
  Cu  Cu5  1  1.34361331  -0.34361331  0.03344503  1.0
  Cu  Cu6  1  1.46589975  -0.46589975  0.64531771  1.0
  Cu  Cu7  1  0.53410025  0.46589975  0.35468229  1.0
  P  P8  1  0.15370152  -0.15370152  0.95603410  1.0
  P  P9  1  0.84629848  -0.84629848  0.04396590  1.0
  P  P10  1  1.73477886  -0.22741531  0.42154564  1.0
  P  P11  1  1.22741531  -0.73477886  0.42154564  1.0
  P  P12  1  0.77258469  0.73477886  0.57845436  1.0
  P  P13  1  0.26522114  0.22741531  0.57845436  1.0
  P  P14  1  0.67243870  -0.14266111  0.98180124  1.0
  P  P15  1  1.14266111  0.32756130  0.98180124  1.0
  P  P16  1  0.85733889  -0.32756130  0.01819876  1.0
  P  P17  1  1.32756130  0.14266111  0.01819876  1.0
  P  P18  1  0.72441279  -0.03757090  0.83017935  1.0
  P  P19  1  1.03757090  0.27558721  0.83017935  1.0
  P  P20  1  0.96242910  -0.27558721  0.16982065  1.0
  P  P21  1  1.27558721  0.03757090  0.16982065  1.0
  P  P22  1  0.47038971  0.06000111  0.77620676  1.0
  P  P23  1  0.93999889  0.52961029  0.77620676  1.0
  P  P24  1  1.06000111  -0.52961029  0.22379324  1.0
  P  P25  1  1.52961029  -0.06000111  0.22379324  1.0
  P  P26  1  0.45941214  0.05624414  0.62263730  1.0
  P  P27  1  0.94375586  0.54058786  0.62263730  1.0
  P  P28  1  1.05624414  -0.54058786  0.37736270  1.0
  P  P29  1  1.54058786  -0.05624414  0.37736270  1.0
  P  P30  1  0.97223580  -0.97223580  0.64510673  1.0
  P  P31  1  0.02776420  -0.02776420  0.35489327  1.0
  P  P32  1  0.72367203  -0.72367203  0.40736177  1.0
  P  P33  1  0.27632797  -0.27632797  0.59263823  1.0
  P  P34  1  0.60462950  0.39537050  0.79588021  1.0
  P  P35  1  1.39537050  -0.39537050  0.20411979  1.0
