# generated using pymatgen
data_RbTi5Se8
_symmetry_space_group_name_H-M   'P 1'
_cell_length_a   9.67159073
_cell_length_b   9.67159073
_cell_length_c   9.25657984
_cell_angle_alpha   75.48186253
_cell_angle_beta   104.51813747
_cell_angle_gamma   158.47749694
_symmetry_Int_Tables_number   1
_chemical_formula_structural   RbTi5Se8
_chemical_formula_sum   'Rb1 Ti5 Se8'
_cell_volume   307.13828346
_cell_formula_units_Z   1
loop_
 _symmetry_equiv_pos_site_id
 _symmetry_equiv_pos_as_xyz
  1  'x, y, z'
loop_
 _atom_site_type_symbol
 _atom_site_label
 _atom_site_symmetry_multiplicity
 _atom_site_fract_x
 _atom_site_fract_y
 _atom_site_fract_z
 _atom_site_occupancy
  Rb  Rb0  1  0.50000000  0.50000000  0.00000000  1.0
  Se  Se1  1  0.91215656  -0.91215656  0.67454465  1.0
  Se  Se2  1  1.08784344  -0.08784344  0.32545535  1.0
  Se  Se3  1  0.83786365  -0.83786365  1.00276405  1.0
  Se  Se4  1  1.16213635  -0.16213635  -0.00276405  1.0
  Se  Se5  1  0.75626399  -0.75626399  0.33497270  1.0
  Se  Se6  1  1.24373601  -0.24373601  0.66502730  1.0
  Se  Se7  1  0.57364650  -0.57364650  0.67552146  1.0
  Se  Se8  1  1.42635350  -0.42635350  0.32447854  1.0
  Ti  Ti9  1  0.65591775  -0.65591775  0.50284910  1.0
  Ti  Ti10  1  1.34408225  -0.34408225  0.49715090  1.0
  Ti  Ti11  1  0.00000000  -0.00000000  0.50000000  1.0
  Ti  Ti12  1  0.70835189  -0.70835189  0.84671342  1.0
  Ti  Ti13  1  1.29164811  -0.29164811  0.15328658  1.0
