# generated using pymatgen
data_Na2HfSi2O7
_symmetry_space_group_name_H-M   'P 1'
_cell_length_a   5.50132529
_cell_length_b   9.00316815
_cell_length_c   6.64562575
_cell_angle_alpha   70.36860764
_cell_angle_beta   86.75805145
_cell_angle_gamma   88.56876042
_symmetry_Int_Tables_number   1
_chemical_formula_structural   Na2HfSi2O7
_chemical_formula_sum   'Na4 Hf2 Si4 O14'
_cell_volume   309.51862613
_cell_formula_units_Z   2
loop_
 _symmetry_equiv_pos_site_id
 _symmetry_equiv_pos_as_xyz
  1  'x, y, z'
loop_
 _atom_site_type_symbol
 _atom_site_label
 _atom_site_symmetry_multiplicity
 _atom_site_fract_x
 _atom_site_fract_y
 _atom_site_fract_z
 _atom_site_occupancy
  Na  Na0  1  -0.73609128  -0.11115540  -0.89289820  1.0
  Na  Na1  1  -0.26390872  -0.88884460  -0.10710180  1.0
  Na  Na2  1  -0.23977523  -0.48920395  -0.34108386  1.0
  Na  Na3  1  -0.76022477  -0.51079605  -0.65891614  1.0
  Hf  Hf4  1  -0.77083413  -0.27211536  -0.29248246  1.0
  Hf  Hf5  1  -0.22916587  -0.72788464  -0.70751754  1.0
  Si  Si6  1  -0.22765261  -0.14410653  -0.64572069  1.0
  Si  Si7  1  -0.77234739  -0.85589347  -0.35427931  1.0
  Si  Si8  1  -0.30267083  -0.33496180  -0.93798826  1.0
  Si  Si9  1  -0.69732917  -0.66503820  -0.06201174  1.0
  O  O10  1  -0.79452569  -0.04570472  -0.28920010  1.0
  O  O11  1  -0.20547431  -0.95429528  -0.71079990  1.0
  O  O12  1  -0.27485455  -0.16531278  -0.88398059  1.0
  O  O13  1  -0.72514545  -0.83468722  -0.11601941  1.0
  O  O14  1  -0.45751639  -0.22527872  -0.48704153  1.0
  O  O15  1  -0.54248361  -0.77472128  -0.51295847  1.0
  O  O16  1  -0.96848025  -0.23366818  -0.56939575  1.0
  O  O17  1  -0.03151975  -0.76633182  -0.43060425  1.0
  O  O18  1  -0.58592499  -0.32871674  -1.00744913  1.0
  O  O19  1  -0.41407501  -0.67128326  0.00744913  1.0
  O  O20  1  -0.09978367  -0.33056905  -0.12554750  1.0
  O  O21  1  -0.90021633  -0.66943095  -0.87445250  1.0
  O  O22  1  -0.73223935  -0.51277925  -0.27982671  1.0
  O  O23  1  -0.26776065  -0.48722075  -0.72017329  1.0
