# generated using pymatgen
data_TcF4
_symmetry_space_group_name_H-M   'P 1'
_cell_length_a   5.49180475
_cell_length_b   10.60561326
_cell_length_c   12.08256629
_cell_angle_alpha   90.00000000
_cell_angle_beta   90.00000000
_cell_angle_gamma   90.00000000
_symmetry_Int_Tables_number   1
_chemical_formula_structural   TcF4
_chemical_formula_sum   'Tc8 F32'
_cell_volume   703.73647490
_cell_formula_units_Z   8
loop_
 _symmetry_equiv_pos_site_id
 _symmetry_equiv_pos_as_xyz
  1  'x, y, z'
loop_
 _atom_site_type_symbol
 _atom_site_label
 _atom_site_symmetry_multiplicity
 _atom_site_fract_x
 _atom_site_fract_y
 _atom_site_fract_z
 _atom_site_occupancy
  F  F0  1  0.40576574  0.72671413  0.30431286  1.0
  F  F1  1  0.59423426  0.22671413  0.19568714  1.0
  F  F2  1  0.09423426  0.27328587  0.80431286  1.0
  F  F3  1  0.90576574  0.77328587  0.69568714  1.0
  F  F4  1  0.59423426  0.27328587  0.69568714  1.0
  F  F5  1  0.40576574  0.77328587  0.80431286  1.0
  F  F6  1  0.90576574  0.72671413  0.19568714  1.0
  F  F7  1  0.09423426  0.22671413  0.30431286  1.0
  F  F8  1  0.28380741  0.53007977  0.19586076  1.0
  F  F9  1  0.71619259  0.03007977  0.30413924  1.0
  F  F10  1  0.21619259  0.46992023  0.69586076  1.0
  F  F11  1  0.78380741  0.96992023  0.80413924  1.0
  F  F12  1  0.71619259  0.46992023  0.80413924  1.0
  F  F13  1  0.28380741  0.96992023  0.69586076  1.0
  F  F14  1  0.78380741  0.53007977  0.30413924  1.0
  F  F15  1  0.21619259  0.03007977  0.19586076  1.0
  F  F16  1  0.45236157  0.73614651  0.07706600  1.0
  F  F17  1  0.54763843  0.23614651  0.42293400  1.0
  F  F18  1  0.04763843  0.26385349  0.57706600  1.0
  F  F19  1  0.95236157  0.76385349  0.92293400  1.0
  F  F20  1  0.54763843  0.26385349  0.92293400  1.0
  F  F21  1  0.45236157  0.76385349  0.57706600  1.0
  F  F22  1  0.95236157  0.73614651  0.42293400  1.0
  F  F23  1  0.04763843  0.23614651  0.07706600  1.0
  F  F24  1  0.73584256  0.52013110  0.07714413  1.0
  F  F25  1  0.26415744  0.02013110  0.42285587  1.0
  F  F26  1  0.76415744  0.47986890  0.57714413  1.0
  F  F27  1  0.23584256  0.97986890  0.92285587  1.0
  F  F28  1  0.26415744  0.47986890  0.92285587  1.0
  F  F29  1  0.73584256  0.97986890  0.57714413  1.0
  F  F30  1  0.23584256  0.52013110  0.42285587  1.0
  F  F31  1  0.76415744  0.02013110  0.07714413  1.0
  Tc  Tc32  1  0.59461869  0.62840672  0.17893760  1.0
  Tc  Tc33  1  0.40538131  0.12840672  0.32106240  1.0
  Tc  Tc34  1  0.90538131  0.37159328  0.67893760  1.0
  Tc  Tc35  1  0.09461869  0.87159328  0.82106240  1.0
  Tc  Tc36  1  0.40538131  0.37159328  0.82106240  1.0
  Tc  Tc37  1  0.59461869  0.87159328  0.67893760  1.0
  Tc  Tc38  1  0.09461869  0.62840672  0.32106240  1.0
  Tc  Tc39  1  0.90538131  0.12840672  0.17893760  1.0
