# generated using pymatgen
data_CuGe5Pb3O14
_symmetry_space_group_name_H-M   'P 1'
_cell_length_a   9.99972630
_cell_length_b   9.99972630
_cell_length_c   10.56070828
_cell_angle_alpha   59.22141332
_cell_angle_beta   120.77858668
_cell_angle_gamma   131.23953412
_symmetry_Int_Tables_number   1
_chemical_formula_structural   CuGe5Pb3O14
_chemical_formula_sum   'Cu2 Ge10 Pb6 O28'
_cell_volume   656.90918722
_cell_formula_units_Z   2
loop_
 _symmetry_equiv_pos_site_id
 _symmetry_equiv_pos_as_xyz
  1  'x, y, z'
loop_
 _atom_site_type_symbol
 _atom_site_label
 _atom_site_symmetry_multiplicity
 _atom_site_fract_x
 _atom_site_fract_y
 _atom_site_fract_z
 _atom_site_occupancy
  Cu  Cu0  1  -0.00000000  0.00000000  0.50000000  1.0
  Cu  Cu1  1  0.00000000  0.00000000  0.00000000  1.0
  Ge  Ge2  1  0.48251103  0.15694583  0.13342254  1.0
  Ge  Ge3  1  0.84305417  -0.48251103  0.63342254  1.0
  Ge  Ge4  1  1.15694583  0.48251103  0.36657746  1.0
  Ge  Ge5  1  1.51748897  -0.15694583  0.86657746  1.0
  Ge  Ge6  1  0.78119629  0.78119629  0.25000000  1.0
  Ge  Ge7  1  0.21880371  0.21880371  0.75000000  1.0
  Ge  Ge8  1  0.58408513  -0.16972941  0.34584130  1.0
  Ge  Ge9  1  1.16972941  -0.58408513  0.84584130  1.0
  Ge  Ge10  1  0.83027059  0.58408513  0.15415870  1.0
  Ge  Ge11  1  1.41591487  0.16972941  0.65415870  1.0
  Pb  Pb12  1  0.21677879  -0.15738868  0.43766429  1.0
  Pb  Pb13  1  1.15738868  0.78322121  0.93766429  1.0
  Pb  Pb14  1  0.84261132  -0.78322121  0.06233571  1.0
  Pb  Pb15  1  1.78322121  0.15738868  0.56233571  1.0
  Pb  Pb16  1  0.35006954  0.35006954  0.25000000  1.0
  Pb  Pb17  1  0.64993046  0.64993046  0.75000000  1.0
  O  O18  1  0.55065656  0.00357057  0.18012812  1.0
  O  O19  1  0.99642943  -0.55065656  0.68012812  1.0
  O  O20  1  1.00357057  0.55065656  0.31987188  1.0
  O  O21  1  1.44934344  -0.00357057  0.81987188  1.0
  O  O22  1  0.42754089  0.12275505  0.28382422  1.0
  O  O23  1  0.87724495  -0.42754089  0.78382422  1.0
  O  O24  1  1.12275505  0.42754089  0.21617578  1.0
  O  O25  1  1.57245911  -0.12275505  0.71617578  1.0
  O  O26  1  0.68596866  0.37717915  0.08712347  1.0
  O  O27  1  1.62282085  0.31403134  0.58712347  1.0
  O  O28  1  0.37717915  -0.31403134  0.41287653  1.0
  O  O29  1  1.31403134  -0.37717915  0.91287653  1.0
  O  O30  1  0.24737393  0.09426164  0.48593952  1.0
  O  O31  1  0.90573836  0.75262607  0.98593952  1.0
  O  O32  1  1.09426164  -0.75262607  0.01406048  1.0
  O  O33  1  1.75262607  -0.09426164  0.51406048  1.0
  O  O34  1  1.56100133  -0.33057464  0.29581486  1.0
  O  O35  1  1.33057464  -0.56100133  0.79581486  1.0
  O  O36  1  0.66942536  0.56100133  0.20418514  1.0
  O  O37  1  0.43899867  0.33057464  0.70418514  1.0
  O  O38  1  1.86458748  -0.00747393  0.28868285  1.0
  O  O39  1  1.00747393  -0.86458748  0.78868285  1.0
  O  O40  1  0.99252607  0.86458748  0.21131715  1.0
  O  O41  1  0.13541252  0.00747393  0.71131715  1.0
  O  O42  1  1.70337872  -0.09864871  0.03157654  1.0
  O  O43  1  1.09864871  -0.70337872  0.53157654  1.0
  O  O44  1  0.90135129  0.70337872  0.46842346  1.0
  O  O45  1  0.29662128  0.09864871  0.96842346  1.0
