# generated using pymatgen
data_CsP(HO2)2
_symmetry_space_group_name_H-M   'P 1'
_cell_length_a   4.96310591
_cell_length_b   6.46396894
_cell_length_c   8.02126244
_cell_angle_alpha   90.00000000
_cell_angle_beta   105.79487915
_cell_angle_gamma   90.00000000
_symmetry_Int_Tables_number   1
_chemical_formula_structural   CsP(HO2)2
_chemical_formula_sum   'Cs2 P2 H4 O8'
_cell_volume   247.61673090
_cell_formula_units_Z   2
loop_
 _symmetry_equiv_pos_site_id
 _symmetry_equiv_pos_as_xyz
  1  'x, y, z'
loop_
 _atom_site_type_symbol
 _atom_site_label
 _atom_site_symmetry_multiplicity
 _atom_site_fract_x
 _atom_site_fract_y
 _atom_site_fract_z
 _atom_site_occupancy
  Cs  Cs0  1  0.72230234  0.69815543  0.26726195  1.0
  Cs  Cs1  1  0.27769766  0.19815543  0.73273805  1.0
  P  P2  1  0.80033961  0.71187614  0.76490290  1.0
  P  P3  1  0.19966039  0.21187614  0.23509710  1.0
  H  H4  1  0.96410848  0.46427655  0.97140225  1.0
  H  H5  1  0.03589152  0.96427655  0.02859775  1.0
  H  H6  1  0.33235624  0.70645826  0.65249634  1.0
  H  H7  1  0.66764376  0.20645826  0.34750366  1.0
  O  O8  1  0.96809598  0.20998700  0.32628803  1.0
  O  O9  1  0.03190402  0.70998700  0.67371197  1.0
  O  O10  1  0.79847448  0.89840209  0.88293064  1.0
  O  O11  1  0.20152552  0.39840209  0.11706936  1.0
  O  O12  1  0.79257345  0.50004218  0.86719884  1.0
  O  O13  1  0.20742655  0.00004218  0.13280116  1.0
  O  O14  1  0.51242718  0.70330236  0.61497194  1.0
  O  O15  1  0.48757282  0.20330236  0.38502806  1.0
