# generated using pymatgen
data_PtN2(ClO3)2
_symmetry_space_group_name_H-M   'P 1'
_cell_length_a   6.08430085
_cell_length_b   6.08430085
_cell_length_c   7.59465062
_cell_angle_alpha   67.65075344
_cell_angle_beta   112.34924656
_cell_angle_gamma   92.34865013
_symmetry_Int_Tables_number   1
_chemical_formula_structural   PtN2(ClO3)2
_chemical_formula_sum   'Pt1 N2 Cl2 O6'
_cell_volume   238.72262415
_cell_formula_units_Z   1
loop_
 _symmetry_equiv_pos_site_id
 _symmetry_equiv_pos_as_xyz
  1  'x, y, z'
loop_
 _atom_site_type_symbol
 _atom_site_label
 _atom_site_symmetry_multiplicity
 _atom_site_fract_x
 _atom_site_fract_y
 _atom_site_fract_z
 _atom_site_occupancy
  Pt  Pt0  1  0.00000000  0.00000000  0.00000000  1.0
  N  N1  1  0.74238568  -0.74238568  0.94909669  1.0
  N  N2  1  1.25761432  -0.25761432  0.05090331  1.0
  Cl  Cl3  1  0.71923799  0.71923799  0.00000000  1.0
  Cl  Cl4  1  0.28076201  0.28076201  -0.00000000  1.0
  O  O5  1  1.32780840  0.19236173  0.49777084  1.0
  O  O6  1  0.80763827  0.67219160  0.49777084  1.0
  O  O7  1  1.19236173  0.32780840  0.50222916  1.0
  O  O8  1  1.67219160  -0.19236173  0.50222916  1.0
  O  O9  1  0.90696310  0.09303690  0.72112631  1.0
  O  O10  1  0.09303690  -0.09303690  0.27887369  1.0
