# generated using pymatgen
data_Nb3Se4
_symmetry_space_group_name_H-M   'P 1'
_cell_length_a   10.13553132
_cell_length_b   10.13553132
_cell_length_c   3.46690176
_cell_angle_alpha   90.00000000
_cell_angle_beta   90.00000000
_cell_angle_gamma   120.00000000
_symmetry_Int_Tables_number   1
_chemical_formula_structural   Nb3Se4
_chemical_formula_sum   'Nb6 Se8'
_cell_volume   308.43610229
_cell_formula_units_Z   2
loop_
 _symmetry_equiv_pos_site_id
 _symmetry_equiv_pos_as_xyz
  1  'x, y, z'
loop_
 _atom_site_type_symbol
 _atom_site_label
 _atom_site_symmetry_multiplicity
 _atom_site_fract_x
 _atom_site_fract_y
 _atom_site_fract_z
 _atom_site_occupancy
  Nb  Nb0  1  0.37963608  0.89186035  0.25000000  1.0
  Nb  Nb1  1  0.89186035  0.51222427  0.75000000  1.0
  Nb  Nb2  1  0.51222427  0.62036392  0.25000000  1.0
  Nb  Nb3  1  0.10813965  0.48777573  0.25000000  1.0
  Nb  Nb4  1  0.62036392  0.10813965  0.75000000  1.0
  Nb  Nb5  1  0.48777573  0.37963608  0.75000000  1.0
  Se  Se6  1  0.06179329  0.71949007  0.25000000  1.0
  Se  Se7  1  0.71949007  0.65769678  0.75000000  1.0
  Se  Se8  1  0.65769678  0.93820671  0.25000000  1.0
  Se  Se9  1  0.28050993  0.34230322  0.25000000  1.0
  Se  Se10  1  0.93820671  0.28050993  0.75000000  1.0
  Se  Se11  1  0.34230322  0.06179329  0.75000000  1.0
  Se  Se12  1  0.66666667  0.33333333  0.25000000  1.0
  Se  Se13  1  0.33333333  0.66666667  0.75000000  1.0
