# generated using pymatgen
data_Co(SiSe2)2
_symmetry_space_group_name_H-M   'P 1'
_cell_length_a   6.88295572
_cell_length_b   6.88295572
_cell_length_c   6.26320157
_cell_angle_alpha   64.37584601
_cell_angle_beta   115.62415399
_cell_angle_gamma   149.70926175
_symmetry_Int_Tables_number   1
_chemical_formula_structural   Co(SiSe2)2
_chemical_formula_sum   'Co1 Si2 Se4'
_cell_volume   133.80064764
_cell_formula_units_Z   1
loop_
 _symmetry_equiv_pos_site_id
 _symmetry_equiv_pos_as_xyz
  1  'x, y, z'
loop_
 _atom_site_type_symbol
 _atom_site_label
 _atom_site_symmetry_multiplicity
 _atom_site_fract_x
 _atom_site_fract_y
 _atom_site_fract_z
 _atom_site_occupancy
  Co  Co0  1  0.00000000  0.00000000  0.00000000  1.0
  Si  Si1  1  0.73374664  -0.73374664  0.71210024  1.0
  Si  Si2  1  1.26625336  -0.26625336  0.28789976  1.0
  Se  Se3  1  0.88446595  -0.88446595  0.56458535  1.0
  Se  Se4  1  1.11553405  -0.11553405  0.43541465  1.0
  Se  Se5  1  0.61868680  -0.61868680  0.97320525  1.0
  Se  Se6  1  1.38131320  -0.38131320  0.02679475  1.0
