# generated using pymatgen
data_LuAlPt
_symmetry_space_group_name_H-M   'P 1'
_cell_length_a   6.75860001
_cell_length_b   4.37888030
_cell_length_c   7.71583675
_cell_angle_alpha   90.00000000
_cell_angle_beta   90.00000000
_cell_angle_gamma   90.00000000
_symmetry_Int_Tables_number   1
_chemical_formula_structural   LuAlPt
_chemical_formula_sum   'Lu4 Al4 Pt4'
_cell_volume   228.35096367
_cell_formula_units_Z   4
loop_
 _symmetry_equiv_pos_site_id
 _symmetry_equiv_pos_as_xyz
  1  'x, y, z'
loop_
 _atom_site_type_symbol
 _atom_site_label
 _atom_site_symmetry_multiplicity
 _atom_site_fract_x
 _atom_site_fract_y
 _atom_site_fract_z
 _atom_site_occupancy
  Lu  Lu0  1  1.02724264  0.75000000  0.68180785  1.0
  Lu  Lu1  1  0.52724264  0.75000000  0.81819215  1.0
  Lu  Lu2  1  -0.02724264  0.25000000  0.31819215  1.0
  Lu  Lu3  1  0.47275736  0.25000000  0.18180785  1.0
  Al  Al4  1  0.64764242  0.75000000  0.43705690  1.0
  Al  Al5  1  0.14764242  0.75000000  0.06294310  1.0
  Al  Al6  1  0.35235758  0.25000000  0.56294310  1.0
  Al  Al7  1  0.85235758  0.25000000  0.93705690  1.0
  Pt  Pt8  1  0.76996243  0.75000000  0.11729601  1.0
  Pt  Pt9  1  0.26996243  0.75000000  0.38270399  1.0
  Pt  Pt10  1  0.23003757  0.25000000  0.88270399  1.0
  Pt  Pt11  1  0.73003757  0.25000000  0.61729601  1.0
