# generated using pymatgen
data_Na2GdCl5
_symmetry_space_group_name_H-M   'P 1'
_cell_length_a   12.16653055
_cell_length_b   8.33687883
_cell_length_c   7.83832867
_cell_angle_alpha   90.00000000
_cell_angle_beta   90.00000000
_cell_angle_gamma   90.00000000
_symmetry_Int_Tables_number   1
_chemical_formula_structural   Na2GdCl5
_chemical_formula_sum   'Na8 Gd4 Cl20'
_cell_volume   795.04866135
_cell_formula_units_Z   4
loop_
 _symmetry_equiv_pos_site_id
 _symmetry_equiv_pos_as_xyz
  1  'x, y, z'
loop_
 _atom_site_type_symbol
 _atom_site_label
 _atom_site_symmetry_multiplicity
 _atom_site_fract_x
 _atom_site_fract_y
 _atom_site_fract_z
 _atom_site_occupancy
  Na  Na0  1  0.67569418  1.00584294  0.48192163  1.0
  Na  Na1  1  0.67569418  0.49415706  0.48192163  1.0
  Na  Na2  1  0.17569418  1.00584294  0.01807837  1.0
  Na  Na3  1  0.17569418  0.49415706  0.01807837  1.0
  Na  Na4  1  0.32430582  0.50584294  0.51807837  1.0
  Na  Na5  1  0.32430582  -0.00584294  0.51807837  1.0
  Na  Na6  1  0.82430582  0.50584294  0.98192163  1.0
  Na  Na7  1  0.82430582  -0.00584294  0.98192163  1.0
  Gd  Gd8  1  0.99422471  0.25000000  0.41635925  1.0
  Gd  Gd9  1  0.49422471  0.25000000  0.08364075  1.0
  Gd  Gd10  1  0.00577529  0.75000000  0.58364075  1.0
  Gd  Gd11  1  0.50577529  0.75000000  0.91635925  1.0
  Cl  Cl12  1  0.91281858  0.95502158  0.33865170  1.0
  Cl  Cl13  1  0.91281858  0.54497842  0.33865170  1.0
  Cl  Cl14  1  0.41281858  0.95502158  0.16134830  1.0
  Cl  Cl15  1  0.41281858  0.54497842  0.16134830  1.0
  Cl  Cl16  1  0.08718142  0.45502158  0.66134830  1.0
  Cl  Cl17  1  0.08718142  0.04497842  0.66134830  1.0
  Cl  Cl18  1  0.58718142  0.45502158  0.83865170  1.0
  Cl  Cl19  1  0.58718142  0.04497842  0.83865170  1.0
  Cl  Cl20  1  0.99228858  0.25000000  0.06243969  1.0
  Cl  Cl21  1  0.49228858  0.25000000  0.43756031  1.0
  Cl  Cl22  1  0.00771142  0.75000000  0.93756031  1.0
  Cl  Cl23  1  0.50771142  0.75000000  0.56243969  1.0
  Cl  Cl24  1  0.81899467  0.25000000  0.63316989  1.0
  Cl  Cl25  1  0.31899467  0.25000000  0.86683011  1.0
  Cl  Cl26  1  0.18100533  0.75000000  0.36683011  1.0
  Cl  Cl27  1  0.68100533  0.75000000  0.13316989  1.0
  Cl  Cl28  1  0.71012062  0.25000000  0.17816841  1.0
  Cl  Cl29  1  0.21012062  0.25000000  0.32183159  1.0
  Cl  Cl30  1  0.28987938  0.75000000  0.82183159  1.0
  Cl  Cl31  1  0.78987938  0.75000000  0.67816841  1.0
