# generated using pymatgen
data_Nb2Se9
_symmetry_space_group_name_H-M   'P 1'
_cell_length_a   8.82355405
_cell_length_b   8.56146141
_cell_length_c   8.87491059
_cell_angle_alpha   97.56854641
_cell_angle_beta   99.60852348
_cell_angle_gamma   94.85222824
_symmetry_Int_Tables_number   1
_chemical_formula_structural   Nb2Se9
_chemical_formula_sum   'Nb4 Se18'
_cell_volume   651.36191962
_cell_formula_units_Z   2
loop_
 _symmetry_equiv_pos_site_id
 _symmetry_equiv_pos_as_xyz
  1  'x, y, z'
loop_
 _atom_site_type_symbol
 _atom_site_label
 _atom_site_symmetry_multiplicity
 _atom_site_fract_x
 _atom_site_fract_y
 _atom_site_fract_z
 _atom_site_occupancy
  Nb  Nb0  1  -0.86057732  -0.91677026  -0.89956592  1.0
  Nb  Nb1  1  -0.13942268  -0.08322974  -0.10043408  1.0
  Nb  Nb2  1  -0.59380712  -0.59194067  -0.63971222  1.0
  Nb  Nb3  1  -0.40619288  -0.40805933  -0.36028778  1.0
  Se  Se4  1  -0.38745582  -0.95245957  -0.21222859  1.0
  Se  Se5  1  -0.61254418  -0.04754043  -0.78777141  1.0
  Se  Se6  1  -0.14383112  -0.91255867  -0.83121082  1.0
  Se  Se7  1  -0.85616888  -0.08744133  -0.16878918  1.0
  Se  Se8  1  -0.71449783  -0.88266588  -0.59678094  1.0
  Se  Se9  1  -0.28550217  -0.11733412  -0.40321906  1.0
  Se  Se10  1  -0.96667665  -0.85018936  -0.18048680  1.0
  Se  Se11  1  -0.03332335  -0.14981064  -0.81951320  1.0
  Se  Se12  1  -0.57456323  -0.78002027  -0.90388960  1.0
  Se  Se13  1  -0.42543677  -0.21997973  -0.09611040  1.0
  Se  Se14  1  -0.33460877  -0.68145477  -0.49159792  1.0
  Se  Se15  1  -0.66539123  -0.31854523  -0.50840208  1.0
  Se  Se16  1  -0.88235935  -0.60299458  -0.81731093  1.0
  Se  Se17  1  -0.11764065  -0.39700542  -0.18268907  1.0
  Se  Se18  1  -0.69334797  -0.53205752  -0.37207032  1.0
  Se  Se19  1  -0.30665203  -0.46794248  -0.62792968  1.0
  Se  Se20  1  -0.66317607  -0.48868843  -0.90812882  1.0
  Se  Se21  1  -0.33682393  -0.51131157  -0.09187118  1.0
