# generated using pymatgen
data_Cr2PIO4
_symmetry_space_group_name_H-M   'P 1'
_cell_length_a   6.46276321
_cell_length_b   6.38454086
_cell_length_c   12.65415227
_cell_angle_alpha   90.00000000
_cell_angle_beta   104.86996471
_cell_angle_gamma   90.00000000
_symmetry_Int_Tables_number   1
_chemical_formula_structural   Cr2PIO4
_chemical_formula_sum   'Cr8 P4 I4 O16'
_cell_volume   504.64695246
_cell_formula_units_Z   4
loop_
 _symmetry_equiv_pos_site_id
 _symmetry_equiv_pos_as_xyz
  1  'x, y, z'
loop_
 _atom_site_type_symbol
 _atom_site_label
 _atom_site_symmetry_multiplicity
 _atom_site_fract_x
 _atom_site_fract_y
 _atom_site_fract_z
 _atom_site_occupancy
  Cr  Cr0  1  0.95971999  0.34987232  0.39757548  1.0
  Cr  Cr1  1  0.95971999  0.15012768  0.89757548  1.0
  Cr  Cr2  1  0.04028001  0.84987232  0.10242452  1.0
  Cr  Cr3  1  0.04028001  0.65012768  0.60242452  1.0
  Cr  Cr4  1  0.59061257  0.98920602  0.39296586  1.0
  Cr  Cr5  1  0.59061257  0.51079398  0.89296586  1.0
  Cr  Cr6  1  0.40938743  0.48920602  0.10703414  1.0
  Cr  Cr7  1  0.40938743  0.01079398  0.60703414  1.0
  P  P8  1  0.92671488  0.36840876  0.12259861  1.0
  P  P9  1  0.92671488  0.13159124  0.62259861  1.0
  P  P10  1  0.07328512  0.86840876  0.37740139  1.0
  P  P11  1  0.07328512  0.63159124  0.87740139  1.0
  I  I12  1  0.49867284  0.45948286  0.33723256  1.0
  I  I13  1  0.49867284  0.04051714  0.83723256  1.0
  I  I14  1  0.50132716  0.95948286  0.16276744  1.0
  I  I15  1  0.50132716  0.54051714  0.66276744  1.0
  O  O16  1  0.96872037  0.16301838  0.06188756  1.0
  O  O17  1  0.96872037  0.33698162  0.56188756  1.0
  O  O18  1  0.03127963  0.66301838  0.43811244  1.0
  O  O19  1  0.03127963  0.83698162  0.93811244  1.0
  O  O20  1  0.94706986  0.32677311  0.24178713  1.0
  O  O21  1  0.94706986  0.17322689  0.74178713  1.0
  O  O22  1  0.05293014  0.82677311  0.25821287  1.0
  O  O23  1  0.05293014  0.67322689  0.75821287  1.0
  O  O24  1  0.90120931  0.03501883  0.39225370  1.0
  O  O25  1  0.90120931  0.46498117  0.89225370  1.0
  O  O26  1  0.09879069  0.53501883  0.10774630  1.0
  O  O27  1  0.09879069  0.96498117  0.60774630  1.0
  O  O28  1  0.69825362  0.45944370  0.06330701  1.0
  O  O29  1  0.69825362  0.04055630  0.56330701  1.0
  O  O30  1  0.30174638  0.95944370  0.43669299  1.0
  O  O31  1  0.30174638  0.54055630  0.93669299  1.0
