# generated using pymatgen
data_Mg2Au
_symmetry_space_group_name_H-M   'P 1'
_cell_length_a   6.04057474
_cell_length_b   4.51683235
_cell_length_c   8.48452547
_cell_angle_alpha   90.00000000
_cell_angle_beta   90.00000000
_cell_angle_gamma   90.00000000
_symmetry_Int_Tables_number   1
_chemical_formula_structural   Mg2Au
_chemical_formula_sum   'Mg8 Au4'
_cell_volume   231.49402765
_cell_formula_units_Z   4
loop_
 _symmetry_equiv_pos_site_id
 _symmetry_equiv_pos_as_xyz
  1  'x, y, z'
loop_
 _atom_site_type_symbol
 _atom_site_label
 _atom_site_symmetry_multiplicity
 _atom_site_fract_x
 _atom_site_fract_y
 _atom_site_fract_z
 _atom_site_occupancy
  Mg  Mg0  1  0.82413746  0.25000000  0.93858745  1.0
  Mg  Mg1  1  0.32413746  0.25000000  0.56141255  1.0
  Mg  Mg2  1  0.17586254  0.75000000  0.06141255  1.0
  Mg  Mg3  1  0.67586254  0.75000000  0.43858745  1.0
  Mg  Mg4  1  0.45942534  0.25000000  0.20274284  1.0
  Mg  Mg5  1  0.95942534  0.25000000  0.29725716  1.0
  Mg  Mg6  1  0.54057466  0.75000000  0.79725716  1.0
  Mg  Mg7  1  0.04057466  0.75000000  0.70274284  1.0
  Au  Au8  1  0.27655382  0.25000000  0.88425338  1.0
  Au  Au9  1  0.77655382  0.25000000  0.61574662  1.0
  Au  Au10  1  0.72344618  0.75000000  0.11574662  1.0
  Au  Au11  1  0.22344618  0.75000000  0.38425338  1.0
