# generated using pymatgen
data_H6C2(N3O)3
_symmetry_space_group_name_H-M   'P 1'
_cell_length_a   7.66408859
_cell_length_b   7.23400466
_cell_length_c   8.20107995
_cell_angle_alpha   73.74380422
_cell_angle_beta   70.04302459
_cell_angle_gamma   72.95337075
_symmetry_Int_Tables_number   1
_chemical_formula_structural   H6C2(N3O)3
_chemical_formula_sum   'H12 C4 N18 O6'
_cell_volume   400.33517961
_cell_formula_units_Z   2
loop_
 _symmetry_equiv_pos_site_id
 _symmetry_equiv_pos_as_xyz
  1  'x, y, z'
loop_
 _atom_site_type_symbol
 _atom_site_label
 _atom_site_symmetry_multiplicity
 _atom_site_fract_x
 _atom_site_fract_y
 _atom_site_fract_z
 _atom_site_occupancy
  H  H0  1  -0.72344198  -0.20489843  -0.96579767  1.0
  H  H1  1  -0.27655802  -0.79510157  -0.03420233  1.0
  H  H2  1  -0.80341461  -0.20534466  -0.62246946  1.0
  H  H3  1  -0.19658539  -0.79465534  -0.37753054  1.0
  H  H4  1  -0.30458982  -0.30085734  -0.89402980  1.0
  H  H5  1  -0.69541018  -0.69914266  -0.10597020  1.0
  H  H6  1  -0.89775878  -0.34195146  -0.69942557  1.0
  H  H7  1  -0.10224122  -0.65804854  -0.30057443  1.0
  H  H8  1  -0.68966113  -0.90678858  -0.18758317  1.0
  H  H9  1  -0.31033887  -0.09321142  -0.81241683  1.0
  H  H10  1  -0.97259045  -0.88359505  -0.34078795  1.0
  H  H11  1  -0.02740955  -0.11640495  -0.65921205  1.0
  C  C12  1  -0.46920723  -0.57549664  -0.55221542  1.0
  C  C13  1  -0.53079277  -0.42450336  -0.44778458  1.0
  C  C14  1  -0.79016786  -0.91929980  -0.91827794  1.0
  C  C15  1  -0.20983214  -0.08070020  -0.08172206  1.0
  N  N16  1  -0.88670759  -0.19827887  -0.70438832  1.0
  N  N17  1  -0.11329241  -0.80172113  -0.29561168  1.0
  N  N18  1  -0.80613442  -0.11060323  -0.88176329  1.0
  N  N19  1  -0.19386558  -0.88939677  -0.11823671  1.0
  N  N20  1  -0.50845599  -0.55211260  -0.70546563  1.0
  N  N21  1  -0.49154401  -0.44788740  -0.29453437  1.0
  N  N22  1  -0.87428048  -0.64203095  -0.79545539  1.0
  N  N23  1  -0.12571952  -0.35796905  -0.20454461  1.0
  N  N24  1  -0.42900452  -0.72364789  -0.75868024  1.0
  N  N25  1  -0.57099548  -0.27635211  -0.24131976  1.0
  N  N26  1  -0.36571280  -0.75719523  -0.50440335  1.0
  N  N27  1  -0.63428720  -0.24280477  -0.49559665  1.0
  N  N28  1  -0.86750373  -0.83366760  -0.77496589  1.0
  N  N29  1  -0.13249627  -0.16633240  -0.22503411  1.0
  N  N30  1  -0.70589136  -0.84204273  -0.08369299  1.0
  N  N31  1  -0.29410864  -0.15795727  -0.91630701  1.0
  N  N32  1  -0.34625330  -0.84268452  -0.63592620  1.0
  N  N33  1  -0.65374670  -0.15731548  -0.36407380  1.0
  O  O34  1  -0.80268628  -0.53492622  -0.93796650  1.0
  O  O35  1  -0.19731372  -0.46507378  -0.06203350  1.0
  O  O36  1  -0.95852958  -0.57171937  -0.65763833  1.0
  O  O37  1  -0.04147042  -0.42828063  -0.34236167  1.0
  O  O38  1  -0.73914698  -0.97666571  -0.35610312  1.0
  O  O39  1  -0.26085302  -0.02333429  -0.64389688  1.0
