# generated using pymatgen
data_SrHgO2
_symmetry_space_group_name_H-M   'P 1'
_cell_length_a   6.75496627
_cell_length_b   6.75496627
_cell_length_c   6.75496627
_cell_angle_alpha   33.47261509
_cell_angle_beta   33.47261509
_cell_angle_gamma   33.47261509
_symmetry_Int_Tables_number   1
_chemical_formula_structural   SrHgO2
_chemical_formula_sum   'Sr1 Hg1 O2'
_cell_volume   83.50327639
_cell_formula_units_Z   1
loop_
 _symmetry_equiv_pos_site_id
 _symmetry_equiv_pos_as_xyz
  1  'x, y, z'
loop_
 _atom_site_type_symbol
 _atom_site_label
 _atom_site_symmetry_multiplicity
 _atom_site_fract_x
 _atom_site_fract_y
 _atom_site_fract_z
 _atom_site_occupancy
  Sr  Sr0  1  1.50000000  0.50000000  0.50000000  1.0
  Hg  Hg1  1  0.00000000  0.00000000  0.00000000  1.0
  O  O2  1  0.89638380  0.89638380  0.89638380  1.0
  O  O3  1  1.10361620  1.10361620  0.10361620  1.0
