# generated using pymatgen
data_AlBiS
_symmetry_space_group_name_H-M   'P 1'
_cell_length_a   11.01906000
_cell_length_b   11.01906000
_cell_length_c   14.02367323
_cell_angle_alpha   90.00000000
_cell_angle_beta   90.00000000
_cell_angle_gamma   90.00000000
_symmetry_Int_Tables_number   1
_chemical_formula_structural   AlBiS
_chemical_formula_sum   'Al16 Bi16 S16'
_cell_volume   1702.74996244
_cell_formula_units_Z   16
loop_
 _symmetry_equiv_pos_site_id
 _symmetry_equiv_pos_as_xyz
  1  'x, y, z'
loop_
 _atom_site_type_symbol
 _atom_site_label
 _atom_site_symmetry_multiplicity
 _atom_site_fract_x
 _atom_site_fract_y
 _atom_site_fract_z
 _atom_site_occupancy
  Al  Al0  1  0.29714788  0.70285212  0.50000000  1.0
  Al  Al1  1  0.29714788  0.29714788  0.50000000  1.0
  Al  Al2  1  0.79714788  0.20285212  0.00000000  1.0
  Al  Al3  1  0.79714788  0.79714788  0.00000000  1.0
  Al  Al4  1  0.70285212  0.29714788  0.50000000  1.0
  Al  Al5  1  0.70285212  0.70285212  0.50000000  1.0
  Al  Al6  1  0.20285212  0.79714788  0.00000000  1.0
  Al  Al7  1  0.20285212  0.20285212  0.00000000  1.0
  Al  Al8  1  0.25000000  0.75000000  0.75000000  1.0
  Al  Al9  1  0.25000000  0.25000000  0.25000000  1.0
  Al  Al10  1  0.75000000  0.25000000  0.75000000  1.0
  Al  Al11  1  0.75000000  0.75000000  0.25000000  1.0
  Al  Al12  1  0.75000000  0.25000000  0.25000000  1.0
  Al  Al13  1  0.75000000  0.75000000  0.75000000  1.0
  Al  Al14  1  0.25000000  0.75000000  0.25000000  1.0
  Al  Al15  1  0.25000000  0.25000000  0.75000000  1.0
  Bi  Bi16  1  0.39212346  0.11852217  0.37857318  1.0
  Bi  Bi17  1  0.39212346  0.88147783  0.62142682  1.0
  Bi  Bi18  1  0.89212346  0.61852217  0.12142682  1.0
  Bi  Bi19  1  0.89212346  0.38147783  0.87857318  1.0
  Bi  Bi20  1  0.11852217  0.39212346  0.62142682  1.0
  Bi  Bi21  1  0.11852217  0.60787654  0.37857318  1.0
  Bi  Bi22  1  0.61852217  0.89212346  0.87857318  1.0
  Bi  Bi23  1  0.61852217  0.10787654  0.12142682  1.0
  Bi  Bi24  1  0.60787654  0.11852217  0.62142682  1.0
  Bi  Bi25  1  0.60787654  0.88147783  0.37857318  1.0
  Bi  Bi26  1  0.10787654  0.61852217  0.87857318  1.0
  Bi  Bi27  1  0.10787654  0.38147783  0.12142682  1.0
  Bi  Bi28  1  0.88147783  0.39212346  0.37857318  1.0
  Bi  Bi29  1  0.88147783  0.60787654  0.62142682  1.0
  Bi  Bi30  1  0.38147783  0.89212346  0.12142682  1.0
  Bi  Bi31  1  0.38147783  0.10787654  0.87857318  1.0
  S  S32  1  0.41814720  0.73057911  0.36485851  1.0
  S  S33  1  0.41814720  0.26942089  0.63514149  1.0
  S  S34  1  0.91814720  0.23057911  0.13514149  1.0
  S  S35  1  0.91814720  0.76942089  0.86485851  1.0
  S  S36  1  0.73057911  0.41814720  0.63514149  1.0
  S  S37  1  0.73057911  0.58185280  0.36485851  1.0
  S  S38  1  0.23057911  0.91814720  0.86485851  1.0
  S  S39  1  0.23057911  0.08185280  0.13514149  1.0
  S  S40  1  0.58185280  0.73057911  0.63514149  1.0
  S  S41  1  0.58185280  0.26942089  0.36485851  1.0
  S  S42  1  0.08185280  0.23057911  0.86485851  1.0
  S  S43  1  0.08185280  0.76942089  0.13514149  1.0
  S  S44  1  0.26942089  0.41814720  0.36485851  1.0
  S  S45  1  0.26942089  0.58185280  0.63514149  1.0
  S  S46  1  0.76942089  0.91814720  0.13514149  1.0
  S  S47  1  0.76942089  0.08185280  0.86485851  1.0
