# generated using pymatgen
data_H2O2
_symmetry_space_group_name_H-M   'P 1'
_cell_length_a   4.21445057
_cell_length_b   4.21445057
_cell_length_c   7.66828202
_cell_angle_alpha   90.00000000
_cell_angle_beta   90.00000000
_cell_angle_gamma   90.00000000
_symmetry_Int_Tables_number   1
_chemical_formula_structural   H2O2
_chemical_formula_sum   'H8 O8'
_cell_volume   136.20090855
_cell_formula_units_Z   4
loop_
 _symmetry_equiv_pos_site_id
 _symmetry_equiv_pos_as_xyz
  1  'x, y, z'
loop_
 _atom_site_type_symbol
 _atom_site_label
 _atom_site_symmetry_multiplicity
 _atom_site_fract_x
 _atom_site_fract_y
 _atom_site_fract_z
 _atom_site_occupancy
  H  H0  1  0.07993525  0.69417056  0.12537462  1.0
  H  H1  1  0.57993525  0.80582944  0.62462538  1.0
  H  H2  1  0.30582944  0.92006475  0.37462538  1.0
  H  H3  1  0.80582944  0.57993525  0.37537462  1.0
  H  H4  1  0.92006475  0.30582944  0.62537462  1.0
  H  H5  1  0.42006475  0.19417056  0.12462538  1.0
  H  H6  1  0.69417056  0.07993525  0.87462538  1.0
  H  H7  1  0.19417056  0.42006475  0.87537462  1.0
  O  O8  1  0.31133955  0.54228345  0.96840704  1.0
  O  O9  1  0.81133955  0.95771655  0.78159296  1.0
  O  O10  1  0.45771655  0.68866045  0.53159296  1.0
  O  O11  1  0.95771655  0.81133955  0.21840704  1.0
  O  O12  1  0.68866045  0.45771655  0.46840704  1.0
  O  O13  1  0.18866045  0.04228345  0.28159296  1.0
  O  O14  1  0.54228345  0.31133955  0.03159296  1.0
  O  O15  1  0.04228345  0.18866045  0.71840704  1.0
