# generated using pymatgen
data_NaNO
_symmetry_space_group_name_H-M   'P 1'
_cell_length_a   5.13474145
_cell_length_b   9.32717270
_cell_length_c   6.24378520
_cell_angle_alpha   90.00000000
_cell_angle_beta   98.94063711
_cell_angle_gamma   90.00000000
_symmetry_Int_Tables_number   1
_chemical_formula_structural   NaNO
_chemical_formula_sum   'Na8 N8 O8'
_cell_volume   295.39797087
_cell_formula_units_Z   8
loop_
 _symmetry_equiv_pos_site_id
 _symmetry_equiv_pos_as_xyz
  1  'x, y, z'
loop_
 _atom_site_type_symbol
 _atom_site_label
 _atom_site_symmetry_multiplicity
 _atom_site_fract_x
 _atom_site_fract_y
 _atom_site_fract_z
 _atom_site_occupancy
  Na  Na0  1  0.79118319  0.75335730  0.44001405  1.0
  Na  Na1  1  0.79118319  0.74664270  0.94001405  1.0
  Na  Na2  1  0.20881681  0.25335730  0.05998595  1.0
  Na  Na3  1  0.20881681  0.24664270  0.55998595  1.0
  Na  Na4  1  0.68358111  0.06460157  0.27471591  1.0
  Na  Na5  1  0.68358111  0.43539843  0.77471591  1.0
  Na  Na6  1  0.31641889  0.56460157  0.22528409  1.0
  Na  Na7  1  0.31641889  0.93539843  0.72528409  1.0
  N  N8  1  0.89769126  0.42841376  0.24662642  1.0
  N  N9  1  0.89769126  0.07158624  0.74662642  1.0
  N  N10  1  0.10230874  0.92841376  0.25337358  1.0
  N  N11  1  0.10230874  0.57158624  0.75337358  1.0
  N  N12  1  0.77747268  0.32900831  0.33422649  1.0
  N  N13  1  0.77747268  0.17099169  0.83422649  1.0
  N  N14  1  0.22252732  0.82900831  0.16577351  1.0
  N  N15  1  0.22252732  0.67099169  0.66577351  1.0
  O  O16  1  0.52487518  0.34952470  0.36070702  1.0
  O  O17  1  0.52487518  0.15047530  0.86070702  1.0
  O  O18  1  0.47512482  0.84952470  0.13929298  1.0
  O  O19  1  0.47512482  0.65047530  0.63929298  1.0
  O  O20  1  0.23203865  0.05070201  0.31617855  1.0
  O  O21  1  0.23203865  0.44929799  0.81617855  1.0
  O  O22  1  0.76796135  0.55070201  0.18382145  1.0
  O  O23  1  0.76796135  0.94929799  0.68382145  1.0
