# generated using pymatgen
data_CdI2
_symmetry_space_group_name_H-M   'P 1'
_cell_length_a   4.32838147
_cell_length_b   4.32838147
_cell_length_c   68.28166732
_cell_angle_alpha   90.00000000
_cell_angle_beta   90.00000000
_cell_angle_gamma   120.00000000
_symmetry_Int_Tables_number   1
_chemical_formula_structural   CdI2
_chemical_formula_sum   'Cd9 I18'
_cell_volume   1107.86236151
_cell_formula_units_Z   9
loop_
 _symmetry_equiv_pos_site_id
 _symmetry_equiv_pos_as_xyz
  1  'x, y, z'
loop_
 _atom_site_type_symbol
 _atom_site_label
 _atom_site_symmetry_multiplicity
 _atom_site_fract_x
 _atom_site_fract_y
 _atom_site_fract_z
 _atom_site_occupancy
  Cd  Cd0  1  0.00000000  0.00000000  0.02779103  1.0
  Cd  Cd1  1  0.00000000  0.00000000  0.25000041  1.0
  Cd  Cd2  1  0.00000000  0.00000000  0.58334665  1.0
  Cd  Cd3  1  0.00000000  0.00000000  0.69444038  1.0
  Cd  Cd4  1  0.00000000  0.00000000  0.80554399  1.0
  Cd  Cd5  1  0.66666667  0.33333333  0.13890187  1.0
  Cd  Cd6  1  0.66666667  0.33333333  0.36111620  1.0
  Cd  Cd7  1  0.66666667  0.33333333  0.47219213  1.0
  Cd  Cd8  1  0.33333333  0.66666667  0.91666689  1.0
  I  I9  1  0.00000000  0.00000000  0.16407914  1.0
  I  I10  1  0.00000000  0.00000000  0.38629309  1.0
  I  I11  1  0.00000000  0.00000000  0.49737045  1.0
  I  I12  1  0.00000000  0.00000000  0.89149810  1.0
  I  I13  1  0.66666667  0.33333333  0.05296962  1.0
  I  I14  1  0.66666667  0.33333333  0.27517756  1.0
  I  I15  1  0.66666667  0.33333333  0.60851543  1.0
  I  I16  1  0.66666667  0.33333333  0.71961008  1.0
  I  I17  1  0.66666667  0.33333333  0.83071151  1.0
  I  I18  1  0.66666667  0.33333333  0.94183483  1.0
  I  I19  1  0.33333333  0.66666667  0.00261246  1.0
  I  I20  1  0.33333333  0.66666667  0.11372533  1.0
  I  I21  1  0.33333333  0.66666667  0.22482387  1.0
  I  I22  1  0.33333333  0.66666667  0.33593984  1.0
  I  I23  1  0.33333333  0.66666667  0.44701379  1.0
  I  I24  1  0.33333333  0.66666667  0.55817877  1.0
  I  I25  1  0.33333333  0.66666667  0.66927093  1.0
  I  I26  1  0.33333333  0.66666667  0.78037566  1.0
