# generated using pymatgen
data_Sr3YRhO6
_symmetry_space_group_name_H-M   'P 1'
_cell_length_a   6.83911481
_cell_length_b   6.83911481
_cell_length_c   6.83911481
_cell_angle_alpha   92.13676992
_cell_angle_beta   92.13676992
_cell_angle_gamma   92.13676992
_symmetry_Int_Tables_number   1
_chemical_formula_structural   Sr3YRhO6
_chemical_formula_sum   'Sr6 Y2 Rh2 O12'
_cell_volume   319.20491253
_cell_formula_units_Z   2
loop_
 _symmetry_equiv_pos_site_id
 _symmetry_equiv_pos_as_xyz
  1  'x, y, z'
loop_
 _atom_site_type_symbol
 _atom_site_label
 _atom_site_symmetry_multiplicity
 _atom_site_fract_x
 _atom_site_fract_y
 _atom_site_fract_z
 _atom_site_occupancy
  Sr  Sr0  1  0.88146479  1.25000000  -0.38146479  1.0
  Sr  Sr1  1  1.38146479  0.11853521  -0.25000000  1.0
  Sr  Sr2  1  0.75000000  0.38146479  0.11853521  1.0
  Sr  Sr3  1  1.25000000  0.61853521  -0.11853521  1.0
  Sr  Sr4  1  1.11853521  -0.25000000  0.38146479  1.0
  Sr  Sr5  1  0.61853521  0.88146479  0.25000000  1.0
  Y  Y6  1  0.25000000  0.25000000  0.25000000  1.0
  Y  Y7  1  0.75000000  0.75000000  0.75000000  1.0
  Rh  Rh8  1  0.50000000  0.50000000  0.50000000  1.0
  Rh  Rh9  1  0.00000000  0.00000000  0.00000000  1.0
  O  O10  1  1.20846207  0.40985456  -0.45629541  1.0
  O  O11  1  0.70846207  1.04370459  -0.09014544  1.0
  O  O12  1  0.95629541  0.09014544  0.29153793  1.0
  O  O13  1  1.45629541  -0.20846207  0.59014544  1.0
  O  O14  1  1.59014544  0.45629541  -0.20846207  1.0
  O  O15  1  1.09014544  0.29153793  -0.04370459  1.0
  O  O16  1  0.79153793  0.59014544  0.45629541  1.0
  O  O17  1  1.29153793  -0.04370459  0.09014544  1.0
  O  O18  1  0.54370459  1.20846207  -0.59014544  1.0
  O  O19  1  1.04370459  0.90985456  -0.29153793  1.0
  O  O20  1  0.90985456  0.70846207  0.04370459  1.0
  O  O21  1  0.40985456  0.54370459  0.20846207  1.0
