# generated using pymatgen
data_La5Si3
_symmetry_space_group_name_H-M   'P 1'
_cell_length_a   8.98372296
_cell_length_b   8.98372296
_cell_length_c   8.98372296
_cell_angle_alpha   126.98732639
_cell_angle_beta   126.98732639
_cell_angle_gamma   78.27136235
_symmetry_Int_Tables_number   1
_chemical_formula_structural   La5Si3
_chemical_formula_sum   'La10 Si6'
_cell_volume   448.06840736
_cell_formula_units_Z   2
loop_
 _symmetry_equiv_pos_site_id
 _symmetry_equiv_pos_as_xyz
  1  'x, y, z'
loop_
 _atom_site_type_symbol
 _atom_site_label
 _atom_site_symmetry_multiplicity
 _atom_site_fract_x
 _atom_site_fract_y
 _atom_site_fract_z
 _atom_site_occupancy
  La  La0  1  1.17412149  0.67412149  1.14225638  1.0
  La  La1  1  0.46813489  0.96813489  1.14225638  1.0
  La  La2  1  1.03186511  1.17412149  1.50000000  1.0
  La  La3  1  0.32587851  0.46813489  0.50000000  1.0
  La  La4  1  0.67412149  0.53186511  0.50000000  1.0
  La  La5  1  0.96813489  0.82587851  1.50000000  1.0
  La  La6  1  0.53186511  1.03186511  0.85774362  1.0
  La  La7  1  0.82587851  0.32587851  0.85774362  1.0
  La  La8  1  0.00000000  0.00000000  0.00000000  1.0
  La  La9  1  0.50000000  0.50000000  1.00000000  1.0
  Si  Si10  1  0.88711402  0.38711402  1.27422804  1.0
  Si  Si11  1  0.61288598  0.88711402  1.50000000  1.0
  Si  Si12  1  0.38711402  0.11288598  0.50000000  1.0
  Si  Si13  1  0.11288598  0.61288598  0.72577196  1.0
  Si  Si14  1  0.75000000  0.75000000  1.00000000  1.0
  Si  Si15  1  0.25000000  0.25000000  0.00000000  1.0
