# generated using pymatgen
data_PbI2
_symmetry_space_group_name_H-M   'P 1'
_cell_length_a   4.66068217
_cell_length_b   4.66068217
_cell_length_c   52.57189725
_cell_angle_alpha   90.00000000
_cell_angle_beta   90.00000000
_cell_angle_gamma   120.00000000
_symmetry_Int_Tables_number   1
_chemical_formula_structural   PbI2
_chemical_formula_sum   'Pb7 I14'
_cell_volume   988.97031836
_cell_formula_units_Z   7
loop_
 _symmetry_equiv_pos_site_id
 _symmetry_equiv_pos_as_xyz
  1  'x, y, z'
loop_
 _atom_site_type_symbol
 _atom_site_label
 _atom_site_symmetry_multiplicity
 _atom_site_fract_x
 _atom_site_fract_y
 _atom_site_fract_z
 _atom_site_occupancy
  Pb  Pb0  1  0.00000000  0.00000000  0.03514476  1.0
  Pb  Pb1  1  0.66666667  0.33333333  0.17813131  1.0
  Pb  Pb2  1  0.66666667  0.33333333  0.32094999  1.0
  Pb  Pb3  1  0.66666667  0.33333333  0.46379608  1.0
  Pb  Pb4  1  0.66666667  0.33333333  0.60650574  1.0
  Pb  Pb5  1  0.66666667  0.33333333  0.74933583  1.0
  Pb  Pb6  1  0.66666667  0.33333333  0.89216136  1.0
  I  I7  1  0.00000000  0.00000000  0.21355422  1.0
  I  I8  1  0.00000000  0.00000000  0.35636871  1.0
  I  I9  1  0.00000000  0.00000000  0.49921645  1.0
  I  I10  1  0.00000000  0.00000000  0.64191982  1.0
  I  I11  1  0.00000000  0.00000000  0.78475767  1.0
  I  I12  1  0.00000000  0.00000000  0.92756945  1.0
  I  I13  1  0.66666667  0.33333333  0.07056184  1.0
  I  I14  1  0.33333333  0.66666667  -0.00028542  1.0
  I  I15  1  0.33333333  0.66666667  0.14270543  1.0
  I  I16  1  0.33333333  0.66666667  0.28551914  1.0
  I  I17  1  0.33333333  0.66666667  0.42836764  1.0
  I  I18  1  0.33333333  0.66666667  0.57108287  1.0
  I  I19  1  0.33333333  0.66666667  0.71390548  1.0
  I  I20  1  0.33333333  0.66666667  0.85673162  1.0
