# generated using pymatgen
data_Y(Ni2As)2
_symmetry_space_group_name_H-M   'P 1'
_cell_length_a   7.26541827
_cell_length_b   7.26541827
_cell_length_c   3.78807552
_cell_angle_alpha   90.00000000
_cell_angle_beta   90.00000000
_cell_angle_gamma   90.00000000
_symmetry_Int_Tables_number   1
_chemical_formula_structural   Y(Ni2As)2
_chemical_formula_sum   'Y2 Ni8 As4'
_cell_volume   199.95850091
_cell_formula_units_Z   2
loop_
 _symmetry_equiv_pos_site_id
 _symmetry_equiv_pos_as_xyz
  1  'x, y, z'
loop_
 _atom_site_type_symbol
 _atom_site_label
 _atom_site_symmetry_multiplicity
 _atom_site_fract_x
 _atom_site_fract_y
 _atom_site_fract_z
 _atom_site_occupancy
  Y  Y0  1  0.50000000  0.50000000  0.50000000  1.0
  Y  Y1  1  0.00000000  0.00000000  0.00000000  1.0
  Ni  Ni2  1  0.34711941  0.08867780  0.50000000  1.0
  Ni  Ni3  1  0.84711941  0.41132220  0.00000000  1.0
  Ni  Ni4  1  0.91132220  0.65288059  0.50000000  1.0
  Ni  Ni5  1  0.41132220  0.84711941  0.00000000  1.0
  Ni  Ni6  1  0.65288059  0.91132220  0.50000000  1.0
  Ni  Ni7  1  0.15288059  0.58867780  0.00000000  1.0
  Ni  Ni8  1  0.08867780  0.34711941  0.50000000  1.0
  Ni  Ni9  1  0.58867780  0.15288059  0.00000000  1.0
  As  As10  1  0.21797002  0.78202998  0.50000000  1.0
  As  As11  1  0.71797002  0.71797002  0.00000000  1.0
  As  As12  1  0.78202998  0.21797002  0.50000000  1.0
  As  As13  1  0.28202998  0.28202998  0.00000000  1.0
