# generated using pymatgen
data_MgCrO4
_symmetry_space_group_name_H-M   'P 1'
_cell_length_a   5.05153827
_cell_length_b   5.05153827
_cell_length_c   6.47165152
_cell_angle_alpha   90.00000000
_cell_angle_beta   90.00000000
_cell_angle_gamma   113.67938355
_symmetry_Int_Tables_number   1
_chemical_formula_structural   MgCrO4
_chemical_formula_sum   'Mg2 Cr2 O8'
_cell_volume   151.23992587
_cell_formula_units_Z   2
loop_
 _symmetry_equiv_pos_site_id
 _symmetry_equiv_pos_as_xyz
  1  'x, y, z'
loop_
 _atom_site_type_symbol
 _atom_site_label
 _atom_site_symmetry_multiplicity
 _atom_site_fract_x
 _atom_site_fract_y
 _atom_site_fract_z
 _atom_site_occupancy
  Mg  Mg0  1  0.00000000  0.00000000  0.50000000  1.0
  Mg  Mg1  1  0.00000000  0.00000000  0.00000000  1.0
  Cr  Cr2  1  0.35611185  0.64388815  0.25000000  1.0
  Cr  Cr3  1  -0.35611185  1.35611185  0.75000000  1.0
  O  O4  1  0.21672885  0.27800987  0.25000000  1.0
  O  O5  1  -0.72199013  1.21672885  0.75000000  1.0
  O  O6  1  0.72199013  0.78327115  0.25000000  1.0
  O  O7  1  -0.21672885  1.72199013  0.75000000  1.0
  O  O8  1  0.24428316  0.75571684  0.45314688  1.0
  O  O9  1  0.24428316  0.75571684  0.04685312  1.0
  O  O10  1  -0.24428316  1.24428316  0.95314688  1.0
  O  O11  1  -0.24428316  1.24428316  0.54685312  1.0
