# generated using pymatgen
data_LaCrSb3
_symmetry_space_group_name_H-M   'P 1'
_cell_length_a   13.37369905
_cell_length_b   6.28363941
_cell_length_c   6.19965108
_cell_angle_alpha   90.00000000
_cell_angle_beta   90.00000000
_cell_angle_gamma   90.00000000
_symmetry_Int_Tables_number   1
_chemical_formula_structural   LaCrSb3
_chemical_formula_sum   'La4 Cr4 Sb12'
_cell_volume   520.99079306
_cell_formula_units_Z   4
loop_
 _symmetry_equiv_pos_site_id
 _symmetry_equiv_pos_as_xyz
  1  'x, y, z'
loop_
 _atom_site_type_symbol
 _atom_site_label
 _atom_site_symmetry_multiplicity
 _atom_site_fract_x
 _atom_site_fract_y
 _atom_site_fract_z
 _atom_site_occupancy
  La  La0  1  0.69196850  0.49576536  0.75000000  1.0
  La  La1  1  0.69196850  0.00423464  0.25000000  1.0
  La  La2  1  0.30803150  0.99576536  0.75000000  1.0
  La  La3  1  0.30803150  0.50423464  0.25000000  1.0
  Cr  Cr4  1  0.09100897  0.25000000  0.00000000  1.0
  Cr  Cr5  1  0.09100897  0.25000000  0.50000000  1.0
  Cr  Cr6  1  0.90899103  0.75000000  0.00000000  1.0
  Cr  Cr7  1  0.90899103  0.75000000  0.50000000  1.0
  Sb  Sb8  1  0.93815885  0.39905891  0.75000000  1.0
  Sb  Sb9  1  0.93815885  0.10094109  0.25000000  1.0
  Sb  Sb10  1  0.06184115  0.89905891  0.75000000  1.0
  Sb  Sb11  1  0.06184115  0.60094109  0.25000000  1.0
  Sb  Sb12  1  0.78429884  0.99759852  0.75000000  1.0
  Sb  Sb13  1  0.78429884  0.50240148  0.25000000  1.0
  Sb  Sb14  1  0.21570116  0.49759852  0.75000000  1.0
  Sb  Sb15  1  0.21570116  0.00240148  0.25000000  1.0
  Sb  Sb16  1  0.49838270  0.25000000  0.00000000  1.0
  Sb  Sb17  1  0.49838270  0.25000000  0.50000000  1.0
  Sb  Sb18  1  0.50161730  0.75000000  0.00000000  1.0
  Sb  Sb19  1  0.50161730  0.75000000  0.50000000  1.0
