# generated using pymatgen
data_CaMg(SiO3)2
_symmetry_space_group_name_H-M   'P 1'
_cell_length_a   9.88222735
_cell_length_b   8.32648416
_cell_length_c   5.43430077
_cell_angle_alpha   90.00000000
_cell_angle_beta   88.40151799
_cell_angle_gamma   90.00000000
_symmetry_Int_Tables_number   1
_chemical_formula_structural   CaMg(SiO3)2
_chemical_formula_sum   'Ca4 Mg4 Si8 O24'
_cell_volume   446.98313368
_cell_formula_units_Z   4
loop_
 _symmetry_equiv_pos_site_id
 _symmetry_equiv_pos_as_xyz
  1  'x, y, z'
loop_
 _atom_site_type_symbol
 _atom_site_label
 _atom_site_symmetry_multiplicity
 _atom_site_fract_x
 _atom_site_fract_y
 _atom_site_fract_z
 _atom_site_occupancy
  Ca  Ca0  1  0.72767446  0.94918327  0.09624507  1.0
  Ca  Ca1  1  0.27232554  0.44918327  0.40375493  1.0
  Ca  Ca2  1  0.27232554  0.05081673  0.90375493  1.0
  Ca  Ca3  1  0.72767446  0.55081673  0.59624507  1.0
  Mg  Mg4  1  0.23209117  0.83418166  0.38301963  1.0
  Mg  Mg5  1  0.76790883  0.33418166  0.11698037  1.0
  Mg  Mg6  1  0.76790883  0.16581834  0.61698037  1.0
  Mg  Mg7  1  0.23209117  0.66581834  0.88301963  1.0
  Si  Si8  1  0.49688822  0.82940241  0.53239352  1.0
  Si  Si9  1  0.50311178  0.32940241  -0.03239352  1.0
  Si  Si10  1  0.50311178  0.17059759  0.46760648  1.0
  Si  Si11  1  0.49688822  0.67059759  1.03239352  1.0
  Si  Si12  1  0.03561525  0.15275218  0.26130378  1.0
  Si  Si13  1  0.96438475  0.65275218  0.23869622  1.0
  Si  Si14  1  0.96438475  0.84724782  0.73869622  1.0
  Si  Si15  1  0.03561525  0.34724782  0.76130378  1.0
  O  O16  1  0.12000211  0.99070387  0.22072927  1.0
  O  O17  1  0.87999789  0.49070387  0.27927073  1.0
  O  O18  1  0.87999789  0.00929613  0.77927073  1.0
  O  O19  1  0.12000211  0.50929613  0.72072927  1.0
  O  O20  1  0.58264468  0.73068575  0.28889820  1.0
  O  O21  1  0.41735532  0.23068575  0.21110180  1.0
  O  O22  1  0.41735532  0.26931425  0.71110180  1.0
  O  O23  1  0.58264468  0.76931425  0.78889820  1.0
  O  O24  1  0.38603923  0.50912535  0.02738995  1.0
  O  O25  1  0.61396077  0.00912535  0.47261005  1.0
  O  O26  1  0.61396077  0.49087465  0.97261005  1.0
  O  O27  1  0.38603923  0.99087465  0.52738995  1.0
  O  O28  1  0.36736250  0.80879376  0.05857786  1.0
  O  O29  1  0.63263750  0.30879376  0.44142214  1.0
  O  O30  1  0.63263750  0.19120624  0.94142214  1.0
  O  O31  1  0.36736250  0.69120624  0.55857786  1.0
  O  O32  1  0.12832536  0.64533006  0.22287270  1.0
  O  O33  1  0.87167464  0.14533006  0.27712730  1.0
  O  O34  1  0.87167464  0.35466994  0.77712730  1.0
  O  O35  1  0.12832536  0.85466994  0.72287270  1.0
  O  O36  1  0.09432357  0.26059268  0.01675469  1.0
  O  O37  1  0.90567643  0.76059268  0.48324531  1.0
  O  O38  1  0.90567643  0.73940732  0.98324531  1.0
  O  O39  1  0.09432357  0.23940732  0.51675469  1.0
