# generated using pymatgen
data_ZnS
_symmetry_space_group_name_H-M   'P 1'
_cell_length_a   3.84972472
_cell_length_b   3.84972472
_cell_length_c   44.05903268
_cell_angle_alpha   90.00000000
_cell_angle_beta   90.00000000
_cell_angle_gamma   120.00000000
_symmetry_Int_Tables_number   1
_chemical_formula_structural   ZnS
_chemical_formula_sum   'Zn14 S14'
_cell_volume   565.49001563
_cell_formula_units_Z   14
loop_
 _symmetry_equiv_pos_site_id
 _symmetry_equiv_pos_as_xyz
  1  'x, y, z'
loop_
 _atom_site_type_symbol
 _atom_site_label
 _atom_site_symmetry_multiplicity
 _atom_site_fract_x
 _atom_site_fract_y
 _atom_site_fract_z
 _atom_site_occupancy
  Zn  Zn0  1  0.00000000  0.00000000  0.07141671  1.0
  Zn  Zn1  1  0.00000000  0.00000000  0.35713289  1.0
  Zn  Zn2  1  0.00000000  0.00000000  0.64286319  1.0
  Zn  Zn3  1  0.00000000  0.00000000  0.85712784  1.0
  Zn  Zn4  1  0.66666667  0.33333333  0.21429004  1.0
  Zn  Zn5  1  0.66666667  0.33333333  0.42850541  1.0
  Zn  Zn6  1  0.66666667  0.33333333  0.57147713  1.0
  Zn  Zn7  1  0.66666667  0.33333333  0.78564280  1.0
  Zn  Zn8  1  0.66666667  0.33333333  0.92860399  1.0
  Zn  Zn9  1  0.33333333  0.66666667  -0.00005218  1.0
  Zn  Zn10  1  0.33333333  0.66666667  0.14284641  1.0
  Zn  Zn11  1  0.33333333  0.66666667  0.28575506  1.0
  Zn  Zn12  1  0.33333333  0.66666667  0.49999495  1.0
  Zn  Zn13  1  0.33333333  0.66666667  0.71426855  1.0
  S  S14  1  0.00000000  0.00000000  0.01780047  1.0
  S  S15  1  0.00000000  0.00000000  0.30359778  1.0
  S  S16  1  0.00000000  0.00000000  0.58932372  1.0
  S  S17  1  0.00000000  0.00000000  0.80350377  1.0
  S  S18  1  0.66666667  0.33333333  0.16067826  1.0
  S  S19  1  0.66666667  0.33333333  0.37498244  1.0
  S  S20  1  0.66666667  0.33333333  0.51794528  1.0
  S  S21  1  0.66666667  0.33333333  0.73212051  1.0
  S  S22  1  0.66666667  0.33333333  0.87507535  1.0
  S  S23  1  0.33333333  0.66666667  0.08934502  1.0
  S  S24  1  0.33333333  0.66666667  0.23222751  1.0
  S  S25  1  0.33333333  0.66666667  0.44636712  1.0
  S  S26  1  0.33333333  0.66666667  0.66072479  1.0
  S  S27  1  0.33333333  0.66666667  0.94643522  1.0
