# generated using pymatgen
data_Sr(AlS2)2
_symmetry_space_group_name_H-M   'P 1'
_cell_length_a   6.07919710
_cell_length_b   6.07919710
_cell_length_c   10.65082594
_cell_angle_alpha   90.00000000
_cell_angle_beta   90.00000000
_cell_angle_gamma   121.18022150
_symmetry_Int_Tables_number   1
_chemical_formula_structural   Sr(AlS2)2
_chemical_formula_sum   'Sr2 Al4 S8'
_cell_volume   336.75774661
_cell_formula_units_Z   2
loop_
 _symmetry_equiv_pos_site_id
 _symmetry_equiv_pos_as_xyz
  1  'x, y, z'
loop_
 _atom_site_type_symbol
 _atom_site_label
 _atom_site_symmetry_multiplicity
 _atom_site_fract_x
 _atom_site_fract_y
 _atom_site_fract_z
 _atom_site_occupancy
  Sr  Sr0  1  0.50000000  0.50000000  0.75000000  1.0
  Sr  Sr1  1  0.50000000  0.50000000  0.25000000  1.0
  Al  Al2  1  -0.23758379  1.24013930  0.50000000  1.0
  Al  Al3  1  0.23758379  0.75986070  0.50000000  1.0
  Al  Al4  1  -0.24013930  1.23758379  0.00000000  1.0
  Al  Al5  1  0.24013930  0.76241621  0.00000000  1.0
  S  S6  1  -0.64370939  1.17902149  0.50000000  1.0
  S  S7  1  0.64370939  0.82097851  0.50000000  1.0
  S  S8  1  -0.17902149  1.64370939  0.00000000  1.0
  S  S9  1  0.17902149  0.35629061  0.00000000  1.0
  S  S10  1  0.50000000  1.00000000  0.83830928  1.0
  S  S11  1  -0.00000000  1.50000000  0.66169072  1.0
  S  S12  1  0.50000000  1.00000000  0.16169072  1.0
  S  S13  1  -0.00000000  1.50000000  0.33830928  1.0
