# generated using pymatgen
data_Rb2Sb4O11
_symmetry_space_group_name_H-M   'P 1'
_cell_length_a   10.69428146
_cell_length_b   10.69428146
_cell_length_c   7.36152571
_cell_angle_alpha   84.59195723
_cell_angle_beta   95.40804277
_cell_angle_gamma   137.67191365
_symmetry_Int_Tables_number   1
_chemical_formula_structural   Rb2Sb4O11
_chemical_formula_sum   'Rb4 Sb8 O22'
_cell_volume   564.02541437
_cell_formula_units_Z   2
loop_
 _symmetry_equiv_pos_site_id
 _symmetry_equiv_pos_as_xyz
  1  'x, y, z'
loop_
 _atom_site_type_symbol
 _atom_site_label
 _atom_site_symmetry_multiplicity
 _atom_site_fract_x
 _atom_site_fract_y
 _atom_site_fract_z
 _atom_site_occupancy
  Rb  Rb0  1  0.73512369  0.26487631  0.50719646  1.0
  Rb  Rb1  1  0.26487631  -0.26487631  0.49280354  1.0
  Rb  Rb2  1  0.50778432  0.49221568  0.75519447  1.0
  Rb  Rb3  1  0.49221568  -0.49221568  0.24480553  1.0
  Sb  Sb4  1  0.43129027  0.08281574  0.93787417  1.0
  Sb  Sb5  1  0.91718426  0.56870973  0.93787417  1.0
  Sb  Sb6  1  1.08281574  0.43129027  0.06212583  1.0
  Sb  Sb7  1  0.56870973  -0.08281574  0.06212583  1.0
  Sb  Sb8  1  0.92857519  0.07142481  0.40072811  1.0
  Sb  Sb9  1  0.07142481  -0.07142481  0.59927189  1.0
  Sb  Sb10  1  0.92397216  0.07602784  0.88128138  1.0
  Sb  Sb11  1  0.07602784  -0.07602784  0.11871862  1.0
  O  O12  1  0.65622931  -0.16531101  0.92756338  1.0
  O  O13  1  1.16531101  0.34377069  0.92756338  1.0
  O  O14  1  0.83468899  0.65622931  0.07243662  1.0
  O  O15  1  0.34377069  0.16531101  0.07243662  1.0
  O  O16  1  0.47495851  -0.05002121  0.83297265  1.0
  O  O17  1  1.05002121  0.52504149  0.83297265  1.0
  O  O18  1  0.94997879  0.47495851  0.16702735  1.0
  O  O19  1  0.52504149  0.05002121  0.16702735  1.0
  O  O20  1  0.32677436  0.07065633  0.69088169  1.0
  O  O21  1  0.92934367  0.67322564  0.69088169  1.0
  O  O22  1  1.07065633  0.32677436  0.30911831  1.0
  O  O23  1  0.67322564  -0.07065633  0.30911831  1.0
  O  O24  1  0.97702906  0.02297094  0.15391554  1.0
  O  O25  1  0.02297094  -0.02297094  0.84608446  1.0
  O  O26  1  0.88244635  0.11755365  0.62943864  1.0
  O  O27  1  0.11755365  -0.11755365  0.37056136  1.0
  O  O28  1  0.83341740  0.16658260  0.98740730  1.0
  O  O29  1  0.16658260  -0.16658260  0.01259270  1.0
  O  O30  1  0.65911951  0.34088049  0.85892046  1.0
  O  O31  1  0.34088049  -0.34088049  0.14107954  1.0
  O  O32  1  0.82881245  0.82881245  0.50000000  1.0
  O  O33  1  0.17118755  0.17118755  0.50000000  1.0
