# generated using pymatgen
data_Cs2AuCl3
_symmetry_space_group_name_H-M   'P 1'
_cell_length_a   7.58535099
_cell_length_b   7.58535099
_cell_length_c   11.76252348
_cell_angle_alpha   90.00000000
_cell_angle_beta   90.00000000
_cell_angle_gamma   90.00000000
_symmetry_Int_Tables_number   1
_chemical_formula_structural   Cs2AuCl3
_chemical_formula_sum   'Cs4 Au2 Cl6'
_cell_volume   676.78677806
_cell_formula_units_Z   2
loop_
 _symmetry_equiv_pos_site_id
 _symmetry_equiv_pos_as_xyz
  1  'x, y, z'
loop_
 _atom_site_type_symbol
 _atom_site_label
 _atom_site_symmetry_multiplicity
 _atom_site_fract_x
 _atom_site_fract_y
 _atom_site_fract_z
 _atom_site_occupancy
  Cs  Cs0  1  0.00000000  0.50000000  0.82201984  1.0
  Cs  Cs1  1  0.00000000  0.50000000  0.17798016  1.0
  Cs  Cs2  1  0.50000000  0.00000000  0.82201984  1.0
  Cs  Cs3  1  0.50000000  0.00000000  0.17798016  1.0
  Au  Au4  1  0.00000000  0.00000000  0.50000000  1.0
  Au  Au5  1  0.00000000  0.00000000  0.00000000  1.0
  Cl  Cl6  1  0.75303456  0.75303456  0.00000000  1.0
  Cl  Cl7  1  0.75303456  0.24696544  0.00000000  1.0
  Cl  Cl8  1  0.24696544  0.75303456  0.00000000  1.0
  Cl  Cl9  1  0.24696544  0.24696544  0.00000000  1.0
  Cl  Cl10  1  0.00000000  0.00000000  0.69398737  1.0
  Cl  Cl11  1  0.00000000  0.00000000  0.30601263  1.0
