# generated using pymatgen
data_Lu2Cu(B2O5)2
_symmetry_space_group_name_H-M   'P 1'
_cell_length_a   4.57677432
_cell_length_b   7.24312102
_cell_length_c   9.31987950
_cell_angle_alpha   90.00000000
_cell_angle_beta   90.23321601
_cell_angle_gamma   90.00000000
_symmetry_Int_Tables_number   1
_chemical_formula_structural   Lu2Cu(B2O5)2
_chemical_formula_sum   'Lu4 Cu2 B8 O20'
_cell_volume   308.95266045
_cell_formula_units_Z   2
loop_
 _symmetry_equiv_pos_site_id
 _symmetry_equiv_pos_as_xyz
  1  'x, y, z'
loop_
 _atom_site_type_symbol
 _atom_site_label
 _atom_site_symmetry_multiplicity
 _atom_site_fract_x
 _atom_site_fract_y
 _atom_site_fract_z
 _atom_site_occupancy
  Lu  Lu0  1  0.99653747  0.60306648  0.83561556  1.0
  Lu  Lu1  1  0.99653747  0.89693352  0.33561556  1.0
  Lu  Lu2  1  0.00346253  0.10306648  0.66438444  1.0
  Lu  Lu3  1  0.00346253  0.39693352  0.16438444  1.0
  Cu  Cu4  1  0.00000000  0.00000000  0.00000000  1.0
  Cu  Cu5  1  -0.00000000  0.50000000  0.50000000  1.0
  B  B6  1  0.52877278  0.90238757  0.83651720  1.0
  B  B7  1  0.52877278  0.59761243  0.33651720  1.0
  B  B8  1  0.47122722  0.40238757  0.66348280  1.0
  B  B9  1  0.47122722  0.09761243  0.16348280  1.0
  B  B10  1  0.46168354  0.76859373  0.58011306  1.0
  B  B11  1  0.46168354  0.73140627  0.08011306  1.0
  B  B12  1  0.53831646  0.26859373  0.91988694  1.0
  B  B13  1  0.53831646  0.23140627  0.41988694  1.0
  O  O14  1  0.78576950  0.41016129  0.66743989  1.0
  O  O15  1  0.78576950  0.08983871  0.16743989  1.0
  O  O16  1  0.21423050  0.91016129  0.83256011  1.0
  O  O17  1  0.21423050  0.58983871  0.33256011  1.0
  O  O18  1  0.76968634  0.38991388  0.95945765  1.0
  O  O19  1  0.76968634  0.11008612  0.45945765  1.0
  O  O20  1  0.23031366  0.88991388  0.54054235  1.0
  O  O21  1  0.23031366  0.61008612  0.04054235  1.0
  O  O22  1  0.66003865  0.83588426  0.69831126  1.0
  O  O23  1  0.66003865  0.66411574  0.19831126  1.0
  O  O24  1  0.33996135  0.33588426  0.80168874  1.0
  O  O25  1  0.33996135  0.16411574  0.30168874  1.0
  O  O26  1  0.64337729  0.77865410  0.95176275  1.0
  O  O27  1  0.64337729  0.72134590  0.45176275  1.0
  O  O28  1  0.35662271  0.27865410  0.54823725  1.0
  O  O29  1  0.35662271  0.22134590  0.04823725  1.0
  O  O30  1  0.32293817  0.58916137  0.63959089  1.0
  O  O31  1  0.32293817  0.91083863  0.13959089  1.0
  O  O32  1  0.67706183  0.08916137  0.86040911  1.0
  O  O33  1  0.67706183  0.41083863  0.36040911  1.0
