# generated using pymatgen
data_PtCl2
_symmetry_space_group_name_H-M   'P 1'
_cell_length_a   4.07209994
_cell_length_b   12.10399802
_cell_length_c   3.44746744
_cell_angle_alpha   90.00000000
_cell_angle_beta   90.00000000
_cell_angle_gamma   90.00000000
_symmetry_Int_Tables_number   1
_chemical_formula_structural   PtCl2
_chemical_formula_sum   'Pt2 Cl4'
_cell_volume   169.92115262
_cell_formula_units_Z   2
loop_
 _symmetry_equiv_pos_site_id
 _symmetry_equiv_pos_as_xyz
  1  'x, y, z'
loop_
 _atom_site_type_symbol
 _atom_site_label
 _atom_site_symmetry_multiplicity
 _atom_site_fract_x
 _atom_site_fract_y
 _atom_site_fract_z
 _atom_site_occupancy
  Pt  Pt0  1  0.50000000  0.50000000  0.50000000  1.0
  Pt  Pt1  1  0.00000000  0.00000000  0.00000000  1.0
  Cl  Cl2  1  -0.00240905  0.87181360  0.50000000  1.0
  Cl  Cl3  1  0.49759095  0.62818640  0.00000000  1.0
  Cl  Cl4  1  1.00240905  0.12818640  0.50000000  1.0
  Cl  Cl5  1  0.50240905  0.37181360  0.00000000  1.0
