# generated using pymatgen
data_Na2CeF6
_symmetry_space_group_name_H-M   'P 1'
_cell_length_a   6.06465378
_cell_length_b   6.06465378
_cell_length_c   3.76377074
_cell_angle_alpha   90.00000000
_cell_angle_beta   90.00000000
_cell_angle_gamma   120.00000000
_symmetry_Int_Tables_number   1
_chemical_formula_structural   Na2CeF6
_chemical_formula_sum   'Na2 Ce1 F6'
_cell_volume   119.88526817
_cell_formula_units_Z   1
loop_
 _symmetry_equiv_pos_site_id
 _symmetry_equiv_pos_as_xyz
  1  'x, y, z'
loop_
 _atom_site_type_symbol
 _atom_site_label
 _atom_site_symmetry_multiplicity
 _atom_site_fract_x
 _atom_site_fract_y
 _atom_site_fract_z
 _atom_site_occupancy
  Na  Na0  1  0.33333333  0.66666667  0.42834889  1.0
  Na  Na1  1  0.66666667  0.33333333  0.57165111  1.0
  Ce  Ce2  1  0.00000000  0.00000000  0.00000000  1.0
  F  F3  1  0.36472286  0.36472286  -0.00000000  1.0
  F  F4  1  0.00000000  0.63527714  -0.00000000  1.0
  F  F5  1  0.63527714  -0.00000000  0.00000000  1.0
  F  F6  1  0.74999704  0.74999704  0.50000000  1.0
  F  F7  1  0.00000000  0.25000296  0.50000000  1.0
  F  F8  1  0.25000296  0.00000000  0.50000000  1.0
