# generated using pymatgen
data_Rb3Os2Br9
_symmetry_space_group_name_H-M   'P 1'
_cell_length_a   7.63583390
_cell_length_b   7.63583390
_cell_length_c   18.60686914
_cell_angle_alpha   90.00000000
_cell_angle_beta   90.00000000
_cell_angle_gamma   120.00000000
_symmetry_Int_Tables_number   1
_chemical_formula_structural   Rb3Os2Br9
_chemical_formula_sum   'Rb6 Os4 Br18'
_cell_volume   939.54347490
_cell_formula_units_Z   2
loop_
 _symmetry_equiv_pos_site_id
 _symmetry_equiv_pos_as_xyz
  1  'x, y, z'
loop_
 _atom_site_type_symbol
 _atom_site_label
 _atom_site_symmetry_multiplicity
 _atom_site_fract_x
 _atom_site_fract_y
 _atom_site_fract_z
 _atom_site_occupancy
  Rb  Rb0  1  0.00000000  0.00000000  0.25000000  1.0
  Rb  Rb1  1  0.00000000  0.00000000  0.75000000  1.0
  Rb  Rb2  1  0.33333333  0.66666667  0.93896576  1.0
  Rb  Rb3  1  0.33333333  0.66666667  0.56103424  1.0
  Rb  Rb4  1  0.66666667  0.33333333  0.43896576  1.0
  Rb  Rb5  1  0.66666667  0.33333333  0.06103424  1.0
  Os  Os6  1  0.33333333  0.66666667  0.32298972  1.0
  Os  Os7  1  0.33333333  0.66666667  0.17701028  1.0
  Os  Os8  1  0.66666667  0.33333333  0.82298972  1.0
  Os  Os9  1  0.66666667  0.33333333  0.67701028  1.0
  Br  Br10  1  0.49662101  0.50467058  0.25000000  1.0
  Br  Br11  1  0.50467058  0.00804958  0.75000000  1.0
  Br  Br12  1  0.00804958  0.50337899  0.25000000  1.0
  Br  Br13  1  0.49532942  0.99195042  0.25000000  1.0
  Br  Br14  1  0.50337899  0.49532942  0.75000000  1.0
  Br  Br15  1  0.99195042  0.49662101  0.75000000  1.0
  Br  Br16  1  0.17785484  0.82096252  0.40228756  1.0
  Br  Br17  1  0.17785484  0.82096252  0.09771244  1.0
  Br  Br18  1  0.82096252  0.64310768  0.90228756  1.0
  Br  Br19  1  0.82096252  0.64310768  0.59771244  1.0
  Br  Br20  1  0.64310768  0.82214516  0.40228756  1.0
  Br  Br21  1  0.64310768  0.82214516  0.09771244  1.0
  Br  Br22  1  0.17903748  0.35689232  0.40228756  1.0
  Br  Br23  1  0.17903748  0.35689232  0.09771244  1.0
  Br  Br24  1  0.82214516  0.17903748  0.90228756  1.0
  Br  Br25  1  0.82214516  0.17903748  0.59771244  1.0
  Br  Br26  1  0.35689232  0.17785484  0.90228756  1.0
  Br  Br27  1  0.35689232  0.17785484  0.59771244  1.0
