# generated using pymatgen
data_Cs3BS3
_symmetry_space_group_name_H-M   'P 1'
_cell_length_a   10.92915611
_cell_length_b   6.73459279
_cell_length_c   13.80517561
_cell_angle_alpha   90.00000000
_cell_angle_beta   103.45691417
_cell_angle_gamma   90.00000000
_symmetry_Int_Tables_number   1
_chemical_formula_structural   Cs3BS3
_chemical_formula_sum   'Cs12 B4 S12'
_cell_volume   988.21103161
_cell_formula_units_Z   4
loop_
 _symmetry_equiv_pos_site_id
 _symmetry_equiv_pos_as_xyz
  1  'x, y, z'
loop_
 _atom_site_type_symbol
 _atom_site_label
 _atom_site_symmetry_multiplicity
 _atom_site_fract_x
 _atom_site_fract_y
 _atom_site_fract_z
 _atom_site_occupancy
  Cs  Cs0  1  0.97116427  0.29058590  0.14243210  1.0
  Cs  Cs1  1  0.97116427  0.20941410  0.64243210  1.0
  Cs  Cs2  1  0.02883573  0.79058590  0.35756790  1.0
  Cs  Cs3  1  0.02883573  0.70941410  0.85756790  1.0
  Cs  Cs4  1  0.59501977  0.44523818  0.19512754  1.0
  Cs  Cs5  1  0.59501977  0.05476182  0.69512754  1.0
  Cs  Cs6  1  0.40498023  0.94523818  0.30487246  1.0
  Cs  Cs7  1  0.40498023  0.55476182  0.80487246  1.0
  Cs  Cs8  1  0.25016064  0.35842758  0.49163874  1.0
  Cs  Cs9  1  0.25016064  0.14157242  0.99163874  1.0
  Cs  Cs10  1  0.74983936  0.85842758  0.00836126  1.0
  Cs  Cs11  1  0.74983936  0.64157242  0.50836126  1.0
  B  B12  1  0.76498304  0.12275712  0.37309546  1.0
  B  B13  1  0.76498304  0.37724288  0.87309546  1.0
  B  B14  1  0.23501696  0.62275712  0.12690454  1.0
  B  B15  1  0.23501696  0.87724288  0.62690454  1.0
  S  S16  1  0.90294017  0.28474669  0.37979114  1.0
  S  S17  1  0.90294017  0.21525331  0.87979114  1.0
  S  S18  1  0.09705983  0.78474669  0.12020886  1.0
  S  S19  1  0.09705983  0.71525331  0.62020886  1.0
  S  S20  1  0.71802361  0.94110067  0.27099911  1.0
  S  S21  1  0.71802361  0.55889933  0.77099911  1.0
  S  S22  1  0.28197639  0.44110067  0.22900089  1.0
  S  S23  1  0.28197639  0.05889933  0.72900089  1.0
  S  S24  1  0.67127913  0.14635545  0.46723778  1.0
  S  S25  1  0.67127913  0.35364455  0.96723778  1.0
  S  S26  1  0.32872087  0.64635545  0.03276222  1.0
  S  S27  1  0.32872087  0.85364455  0.53276222  1.0
