# generated using pymatgen
data_Na2CS3
_symmetry_space_group_name_H-M   'P 1'
_cell_length_a   6.01625164
_cell_length_b   6.01625164
_cell_length_c   8.67116394
_cell_angle_alpha   75.85049199
_cell_angle_beta   104.14950801
_cell_angle_gamma   115.39958122
_symmetry_Int_Tables_number   1
_chemical_formula_structural   Na2CS3
_chemical_formula_sum   'Na4 C2 S6'
_cell_volume   271.40204104
_cell_formula_units_Z   2
loop_
 _symmetry_equiv_pos_site_id
 _symmetry_equiv_pos_as_xyz
  1  'x, y, z'
loop_
 _atom_site_type_symbol
 _atom_site_label
 _atom_site_symmetry_multiplicity
 _atom_site_fract_x
 _atom_site_fract_y
 _atom_site_fract_z
 _atom_site_occupancy
  Na  Na0  1  1.33427194  0.07542964  0.10824620  1.0
  Na  Na1  1  0.92457036  -0.33427194  0.60824620  1.0
  Na  Na2  1  1.07542964  0.33427194  0.39175380  1.0
  Na  Na3  1  0.66572806  -0.07542964  0.89175380  1.0
  C  C4  1  0.59688364  -0.40311636  0.25000000  1.0
  C  C5  1  1.40311636  0.40311636  0.75000000  1.0
  S  S6  1  1.59147783  0.32910268  0.38240091  1.0
  S  S7  1  0.67089732  -0.59147783  0.88240091  1.0
  S  S8  1  1.32910268  0.59147783  0.11759909  1.0
  S  S9  1  0.40852217  -0.32910268  0.61759909  1.0
  S  S10  1  0.86575549  -0.13424451  0.25000000  1.0
  S  S11  1  1.13424451  0.13424451  0.75000000  1.0
