# generated using pymatgen
data_Bi4Se3
_symmetry_space_group_name_H-M   'P 1'
_cell_length_a   13.94149842
_cell_length_b   13.94149842
_cell_length_c   13.94149842
_cell_angle_alpha   17.80282257
_cell_angle_beta   17.80282257
_cell_angle_gamma   17.80282257
_symmetry_Int_Tables_number   1
_chemical_formula_structural   Bi4Se3
_chemical_formula_sum   'Bi4 Se3'
_cell_volume   221.13083960
_cell_formula_units_Z   1
loop_
 _symmetry_equiv_pos_site_id
 _symmetry_equiv_pos_as_xyz
  1  'x, y, z'
loop_
 _atom_site_type_symbol
 _atom_site_label
 _atom_site_symmetry_multiplicity
 _atom_site_fract_x
 _atom_site_fract_y
 _atom_site_fract_z
 _atom_site_occupancy
  Bi  Bi0  1  0.85461126  0.85461126  0.85461126  1.0
  Bi  Bi1  1  1.14538874  1.14538874  0.14538874  1.0
  Bi  Bi2  1  0.71191475  0.71191475  0.71191475  1.0
  Bi  Bi3  1  1.28808525  1.28808525  0.28808525  1.0
  Se  Se4  1  1.58443286  0.58443286  0.58443286  1.0
  Se  Se5  1  1.41556714  0.41556714  0.41556714  1.0
  Se  Se6  1  -0.00000000  -0.00000000  0.00000000  1.0
