# generated using pymatgen
data_FeH6SO6
_symmetry_space_group_name_H-M   'P 1'
_cell_length_a   7.54980081
_cell_length_b   8.02279440
_cell_length_c   9.21551371
_cell_angle_alpha   90.00000000
_cell_angle_beta   105.19221592
_cell_angle_gamma   90.00000000
_symmetry_Int_Tables_number   1
_chemical_formula_structural   FeH6SO6
_chemical_formula_sum   'Fe4 H24 S4 O24'
_cell_volume   538.68076566
_cell_formula_units_Z   4
loop_
 _symmetry_equiv_pos_site_id
 _symmetry_equiv_pos_as_xyz
  1  'x, y, z'
loop_
 _atom_site_type_symbol
 _atom_site_label
 _atom_site_symmetry_multiplicity
 _atom_site_fract_x
 _atom_site_fract_y
 _atom_site_fract_z
 _atom_site_occupancy
  S  S0  1  0.35668997  0.71118128  0.68734804  1.0
  S  S1  1  0.35668997  0.78881872  0.18734804  1.0
  S  S2  1  0.64331003  0.21118128  0.81265196  1.0
  S  S3  1  0.64331003  0.28881872  0.31265196  1.0
  Fe  Fe4  1  0.66040979  0.86056628  0.97957618  1.0
  Fe  Fe5  1  0.66040979  0.63943372  0.47957618  1.0
  Fe  Fe6  1  0.33959021  0.36056628  0.52042382  1.0
  Fe  Fe7  1  0.33959021  0.13943372  0.02042382  1.0
  H  H8  1  0.97434895  0.26560389  0.51787522  1.0
  H  H9  1  0.97434895  0.23439611  0.01787522  1.0
  H  H10  1  0.02565105  0.76560389  0.98212478  1.0
  H  H11  1  0.02565105  0.73439611  0.48212478  1.0
  H  H12  1  0.98597136  0.91650546  0.86709892  1.0
  H  H13  1  0.98597136  0.58349454  0.36709892  1.0
  H  H14  1  0.01402864  0.41650546  0.63290108  1.0
  H  H15  1  0.01402864  0.08349454  0.13290108  1.0
  H  H16  1  0.88698581  0.66616851  0.75680255  1.0
  H  H17  1  0.88698581  0.83383149  0.25680255  1.0
  H  H18  1  0.11301419  0.16616851  0.74319745  1.0
  H  H19  1  0.11301419  0.33383149  0.24319745  1.0
  H  H20  1  0.81767441  0.48085839  0.75642731  1.0
  H  H21  1  0.81767441  0.01914161  0.25642731  1.0
  H  H22  1  0.18232559  0.98085839  0.74357269  1.0
  H  H23  1  0.18232559  0.51914161  0.24357269  1.0
  H  H24  1  0.73248743  0.99263393  0.49384115  1.0
  H  H25  1  0.73248743  0.50736607  -0.00615885  1.0
  H  H26  1  0.26751257  0.49263393  1.00615885  1.0
  H  H27  1  0.26751257  0.00736607  0.50615885  1.0
  H  H28  1  0.64644081  0.91658374  0.62357965  1.0
  H  H29  1  0.64644081  0.58341626  0.12357965  1.0
  H  H30  1  0.35355919  0.41658374  0.87642035  1.0
  H  H31  1  0.35355919  0.08341626  0.37642035  1.0
  O  O32  1  0.92700990  0.82014088  0.90232739  1.0
  O  O33  1  0.92700990  0.67985912  0.40232739  1.0
  O  O34  1  0.07299010  0.32014088  0.59767261  1.0
  O  O35  1  0.07299010  0.17985912  0.09767261  1.0
  O  O36  1  0.85259692  0.56697489  0.68999452  1.0
  O  O37  1  0.85259692  0.93302511  0.18999452  1.0
  O  O38  1  0.14740308  0.06697489  0.81000548  1.0
  O  O39  1  0.14740308  0.43302511  0.31000548  1.0
  O  O40  1  0.79182505  0.34000955  0.89052043  1.0
  O  O41  1  0.79182505  0.15999045  0.39052043  1.0
  O  O42  1  0.20817495  0.84000955  0.60947957  1.0
  O  O43  1  0.20817495  0.65999045  0.10947957  1.0
  O  O44  1  0.71310681  0.88982940  0.54808091  1.0
  O  O45  1  0.71310681  0.61017060  0.04808091  1.0
  O  O46  1  0.28689319  0.38982940  0.95191909  1.0
  O  O47  1  0.28689319  0.11017060  0.45191909  1.0
  O  O48  1  0.52781004  0.81900092  0.75845664  1.0
  O  O49  1  0.52781004  0.68099908  0.25845664  1.0
  O  O50  1  0.47218996  0.31900092  0.74154336  1.0
  O  O51  1  0.47218996  0.18099908  0.24154336  1.0
  O  O52  1  0.40899811  0.62050886  0.55260443  1.0
  O  O53  1  0.40899811  0.87949114  0.05260443  1.0
  O  O54  1  0.59100189  0.12050886  0.94739557  1.0
  O  O55  1  0.59100189  0.37949114  0.44739557  1.0
