# generated using pymatgen
data_AsHPbO4
_symmetry_space_group_name_H-M   'P 1'
_cell_length_a   4.97377403
_cell_length_b   6.80097469
_cell_length_c   5.98442336
_cell_angle_alpha   90.00000000
_cell_angle_beta   94.73377183
_cell_angle_gamma   90.00000000
_symmetry_Int_Tables_number   1
_chemical_formula_structural   AsHPbO4
_chemical_formula_sum   'As2 H2 Pb2 O8'
_cell_volume   201.74165138
_cell_formula_units_Z   2
loop_
 _symmetry_equiv_pos_site_id
 _symmetry_equiv_pos_as_xyz
  1  'x, y, z'
loop_
 _atom_site_type_symbol
 _atom_site_label
 _atom_site_symmetry_multiplicity
 _atom_site_fract_x
 _atom_site_fract_y
 _atom_site_fract_z
 _atom_site_occupancy
  As  As0  1  0.50000000  0.21181120  0.25000000  1.0
  As  As1  1  0.50000000  0.78818880  0.75000000  1.0
  H  H2  1  0.50000000  0.50000000  0.50000000  1.0
  H  H3  1  0.50000000  0.50000000  -0.00000000  1.0
  Pb  Pb4  1  -0.00000000  0.79984341  0.25000000  1.0
  Pb  Pb5  1  0.00000000  0.20015659  0.75000000  1.0
  O  O6  1  0.35374295  0.36267358  0.44414620  1.0
  O  O7  1  0.64625705  0.36267358  0.05585380  1.0
  O  O8  1  0.64625705  0.63732642  0.55585380  1.0
  O  O9  1  0.35374295  0.63732642  0.94414620  1.0
  O  O10  1  0.24840523  0.07267182  0.10820690  1.0
  O  O11  1  0.75159477  0.07267182  0.39179310  1.0
  O  O12  1  0.75159477  0.92732818  0.89179310  1.0
  O  O13  1  0.24840523  0.92732818  0.60820690  1.0
