# generated using pymatgen
data_CaRe2H6C(NO5)2
_symmetry_space_group_name_H-M   'P 1'
_cell_length_a   7.34138709
_cell_length_b   9.72724086
_cell_length_c   9.26226867
_cell_angle_alpha   113.69825905
_cell_angle_beta   105.38623525
_cell_angle_gamma   91.90802717
_symmetry_Int_Tables_number   1
_chemical_formula_structural   CaRe2H6C(NO5)2
_chemical_formula_sum   'Ca2 Re4 H12 C2 N4 O20'
_cell_volume   576.56744242
_cell_formula_units_Z   2
loop_
 _symmetry_equiv_pos_site_id
 _symmetry_equiv_pos_as_xyz
  1  'x, y, z'
loop_
 _atom_site_type_symbol
 _atom_site_label
 _atom_site_symmetry_multiplicity
 _atom_site_fract_x
 _atom_site_fract_y
 _atom_site_fract_z
 _atom_site_occupancy
  Ca  Ca0  1  -0.58053520  -0.47544943  -0.71031694  1.0
  Ca  Ca1  1  -0.41946480  -0.52455057  -0.28968306  1.0
  Re  Re2  1  -0.72496379  -0.83161504  -0.18780170  1.0
  Re  Re3  1  -0.27503621  -0.16838496  -0.81219830  1.0
  Re  Re4  1  -0.16936950  -0.63151834  -0.88790618  1.0
  Re  Re5  1  -0.83063050  -0.36848166  -0.11209382  1.0
  H  H6  1  -0.97287647  -0.17870738  -0.36520147  1.0
  H  H7  1  -0.02712353  -0.82129262  -0.63479853  1.0
  H  H8  1  -0.91431071  -0.63648181  -0.49490260  1.0
  H  H9  1  -0.08568929  -0.36351819  -0.50509740  1.0
  H  H10  1  -0.84288541  -0.98431401  -0.79193043  1.0
  H  H11  1  -0.15711459  -0.01568599  -0.20806957  1.0
  H  H12  1  -0.82857124  -0.22565593  -0.65104122  1.0
  H  H13  1  -0.17142876  -0.77434407  -0.34895878  1.0
  H  H14  1  -0.62555908  -0.90390872  -0.78665743  1.0
  H  H15  1  -0.37444092  -0.09609128  -0.21334257  1.0
  H  H16  1  -0.31623434  -0.82255625  -0.52565331  1.0
  H  H17  1  -0.68376566  -0.17744375  -0.47434669  1.0
  C  C18  1  -0.75700672  -0.75390277  -0.63814400  1.0
  C  C19  1  -0.24299328  -0.24609723  -0.36185600  1.0
  N  N20  1  -0.91871293  -0.73440177  -0.59411488  1.0
  N  N21  1  -0.08128707  -0.26559823  -0.40588512  1.0
  N  N22  1  -0.74184591  -0.89112494  -0.74584698  1.0
  N  N23  1  -0.25815409  -0.10887506  -0.25415302  1.0
  O  O24  1  -0.97349183  -0.83964875  -0.23962486  1.0
  O  O25  1  -0.02650817  -0.16035125  -0.76037514  1.0
  O  O26  1  -0.92392872  -0.56796635  -0.81965402  1.0
  O  O27  1  -0.07607128  -0.43203365  -0.18034598  1.0
  O  O28  1  -0.72032659  -0.43096492  -0.96303635  1.0
  O  O29  1  -0.27967341  -0.56903508  -0.03696365  1.0
  O  O30  1  -0.72774579  -0.26026800  -0.58598841  1.0
  O  O31  1  -0.27225421  -0.73973200  -0.41401159  1.0
  O  O32  1  -0.62359547  -0.73747592  -0.97340251  1.0
  O  O33  1  -0.37640453  -0.26252408  -0.02659749  1.0
  O  O34  1  -0.62167202  -0.64151529  -0.57940417  1.0
  O  O35  1  -0.37832798  -0.35848471  -0.42059583  1.0
  O  O36  1  -0.63228551  -0.73466368  -0.28113801  1.0
  O  O37  1  -0.36771449  -0.26533632  -0.71886199  1.0
  O  O38  1  -0.32365713  -0.98215228  -0.73772930  1.0
  O  O39  1  -0.67634287  -0.01784772  -0.26227070  1.0
  O  O40  1  -0.26222904  -0.55457801  -0.72066646  1.0
  O  O41  1  -0.73777096  -0.44542199  -0.27933354  1.0
  O  O42  1  -0.21174947  -0.82803879  -0.97346162  1.0
  O  O43  1  -0.78825053  -0.17196121  -0.02653838  1.0
