# generated using pymatgen
data_K2Te2O5
_symmetry_space_group_name_H-M   'P 1'
_cell_length_a   7.93773050
_cell_length_b   15.42981212
_cell_length_c   5.64027479
_cell_angle_alpha   90.00000000
_cell_angle_beta   93.49951006
_cell_angle_gamma   90.00000000
_symmetry_Int_Tables_number   1
_chemical_formula_structural   K2Te2O5
_chemical_formula_sum   'K8 Te8 O20'
_cell_volume   689.51969393
_cell_formula_units_Z   4
loop_
 _symmetry_equiv_pos_site_id
 _symmetry_equiv_pos_as_xyz
  1  'x, y, z'
loop_
 _atom_site_type_symbol
 _atom_site_label
 _atom_site_symmetry_multiplicity
 _atom_site_fract_x
 _atom_site_fract_y
 _atom_site_fract_z
 _atom_site_occupancy
  K  K0  1  0.88131161  0.93156292  0.76729289  1.0
  K  K1  1  0.88131161  0.56843708  0.26729289  1.0
  K  K2  1  0.11868839  0.43156292  0.73270711  1.0
  K  K3  1  0.11868839  0.06843708  0.23270711  1.0
  K  K4  1  0.62814015  0.67987995  0.74231997  1.0
  K  K5  1  0.62814015  0.82012005  0.24231997  1.0
  K  K6  1  0.37185985  0.17987995  0.75768003  1.0
  K  K7  1  0.37185985  0.32012005  0.25768003  1.0
  Te  Te8  1  0.91234402  0.18390718  0.70263465  1.0
  Te  Te9  1  0.91234402  0.31609282  0.20263465  1.0
  Te  Te10  1  0.08765598  0.68390718  0.79736535  1.0
  Te  Te11  1  0.08765598  0.81609282  0.29736535  1.0
  Te  Te12  1  0.38666816  0.93281028  0.75733615  1.0
  Te  Te13  1  0.38666816  0.56718972  0.25733615  1.0
  Te  Te14  1  0.61333184  0.43281028  0.74266385  1.0
  Te  Te15  1  0.61333184  0.06718972  0.24266385  1.0
  O  O16  1  0.94697331  0.75953238  0.99701186  1.0
  O  O17  1  0.94697331  0.74046762  0.49701186  1.0
  O  O18  1  0.05302669  0.25953238  0.50298814  1.0
  O  O19  1  0.05302669  0.24046762  0.00298814  1.0
  O  O20  1  0.93652492  0.58734237  0.77283055  1.0
  O  O21  1  0.93652492  0.91265763  0.27283055  1.0
  O  O22  1  0.06347508  0.08734237  0.72716945  1.0
  O  O23  1  0.06347508  0.41265763  0.22716945  1.0
  O  O24  1  0.80738014  0.35543808  0.83462423  1.0
  O  O25  1  0.80738014  0.14456192  0.33462423  1.0
  O  O26  1  0.19261986  0.85543808  0.66537577  1.0
  O  O27  1  0.19261986  0.64456192  0.16537577  1.0
  O  O28  1  0.56884109  0.85223919  0.72911125  1.0
  O  O29  1  0.56884109  0.64776081  0.22911125  1.0
  O  O30  1  0.43115891  0.35223919  0.77088875  1.0
  O  O31  1  0.43115891  0.14776081  0.27088875  1.0
  O  O32  1  0.35951560  0.56534094  0.59562582  1.0
  O  O33  1  0.35951560  0.93465906  0.09562582  1.0
  O  O34  1  0.64048440  0.06534094  0.90437418  1.0
  O  O35  1  0.64048440  0.43465906  0.40437418  1.0
