# generated using pymatgen
data_BH6N
_symmetry_space_group_name_H-M   'P 1'
_cell_length_a   5.21317340
_cell_length_b   4.93172836
_cell_length_c   5.52320489
_cell_angle_alpha   90.00000000
_cell_angle_beta   90.00000000
_cell_angle_gamma   90.00000000
_symmetry_Int_Tables_number   1
_chemical_formula_structural   BH6N
_chemical_formula_sum   'B2 H12 N2'
_cell_volume   142.00134963
_cell_formula_units_Z   2
loop_
 _symmetry_equiv_pos_site_id
 _symmetry_equiv_pos_as_xyz
  1  'x, y, z'
loop_
 _atom_site_type_symbol
 _atom_site_label
 _atom_site_symmetry_multiplicity
 _atom_site_fract_x
 _atom_site_fract_y
 _atom_site_fract_z
 _atom_site_occupancy
  B  B0  1  0.50000000  0.82846396  0.51394148  1.0
  B  B1  1  0.00000000  0.17153604  0.01394148  1.0
  H  H2  1  0.34085277  0.85684020  0.88031805  1.0
  H  H3  1  0.84085277  0.14315980  0.38031805  1.0
  H  H4  1  0.65914723  0.85684020  0.88031805  1.0
  H  H5  1  0.15914723  0.14315980  0.38031805  1.0
  H  H6  1  0.19275926  0.27146058  0.92600894  1.0
  H  H7  1  0.69275926  0.72853942  0.42600894  1.0
  H  H8  1  0.80724074  0.27146058  0.92600894  1.0
  H  H9  1  0.30724074  0.72853942  0.42600894  1.0
  H  H10  1  0.50000000  0.56994960  0.83920660  1.0
  H  H11  1  0.00000000  0.43005040  0.33920660  1.0
  H  H12  1  0.50000000  0.07563573  0.48672092  1.0
  H  H13  1  0.00000000  0.92436427  0.98672092  1.0
  N  N14  1  0.50000000  0.77287002  0.79857701  1.0
  N  N15  1  0.00000000  0.22712998  0.29857701  1.0
