# generated using pymatgen
data_YCo(CN)6
_symmetry_space_group_name_H-M   'P 1'
_cell_length_a   7.42979012
_cell_length_b   7.42979012
_cell_length_c   13.05093120
_cell_angle_alpha   90.00000000
_cell_angle_beta   90.00000000
_cell_angle_gamma   120.00000000
_symmetry_Int_Tables_number   1
_chemical_formula_structural   YCo(CN)6
_chemical_formula_sum   'Y2 Co2 C12 N12'
_cell_volume   623.91470807
_cell_formula_units_Z   2
loop_
 _symmetry_equiv_pos_site_id
 _symmetry_equiv_pos_as_xyz
  1  'x, y, z'
loop_
 _atom_site_type_symbol
 _atom_site_label
 _atom_site_symmetry_multiplicity
 _atom_site_fract_x
 _atom_site_fract_y
 _atom_site_fract_z
 _atom_site_occupancy
  Y  Y0  1  0.33333333  0.66666667  0.25000000  1.0
  Y  Y1  1  0.66666667  0.33333333  0.75000000  1.0
  Co  Co2  1  0.00000000  0.00000000  0.50000000  1.0
  Co  Co3  1  0.00000000  0.00000000  0.00000000  1.0
  C  C4  1  0.11810573  0.88189427  0.41674444  1.0
  C  C5  1  0.11810573  0.88189427  0.08325556  1.0
  C  C6  1  0.11810573  0.23621146  0.41674444  1.0
  C  C7  1  0.11810573  0.23621146  0.08325556  1.0
  C  C8  1  0.88189427  0.11810573  0.91674444  1.0
  C  C9  1  0.88189427  0.11810573  0.58325556  1.0
  C  C10  1  0.88189427  0.76378854  0.91674444  1.0
  C  C11  1  0.88189427  0.76378854  0.58325556  1.0
  C  C12  1  0.76378854  0.88189427  0.41674444  1.0
  C  C13  1  0.76378854  0.88189427  0.08325556  1.0
  C  C14  1  0.23621146  0.11810573  0.91674444  1.0
  C  C15  1  0.23621146  0.11810573  0.58325556  1.0
  N  N16  1  0.19109662  0.80890338  0.36359008  1.0
  N  N17  1  0.19109662  0.80890338  0.13640992  1.0
  N  N18  1  0.19109662  0.38219323  0.36359008  1.0
  N  N19  1  0.19109662  0.38219323  0.13640992  1.0
  N  N20  1  0.80890338  0.19109662  0.86359008  1.0
  N  N21  1  0.80890338  0.19109662  0.63640992  1.0
  N  N22  1  0.80890338  0.61780677  0.86359008  1.0
  N  N23  1  0.80890338  0.61780677  0.63640992  1.0
  N  N24  1  0.61780677  0.80890338  0.36359008  1.0
  N  N25  1  0.61780677  0.80890338  0.13640992  1.0
  N  N26  1  0.38219323  0.19109662  0.86359008  1.0
  N  N27  1  0.38219323  0.19109662  0.63640992  1.0
