# generated using pymatgen
data_Tl2Cu2Te7O18
_symmetry_space_group_name_H-M   'P 1'
_cell_length_a   7.66225707
_cell_length_b   12.14383247
_cell_length_c   12.59803189
_cell_angle_alpha   90.00000000
_cell_angle_beta   126.50212696
_cell_angle_gamma   90.00000000
_symmetry_Int_Tables_number   1
_chemical_formula_structural   Tl2Cu2Te7O18
_chemical_formula_sum   'Tl4 Cu4 Te14 O36'
_cell_volume   942.28435722
_cell_formula_units_Z   2
loop_
 _symmetry_equiv_pos_site_id
 _symmetry_equiv_pos_as_xyz
  1  'x, y, z'
loop_
 _atom_site_type_symbol
 _atom_site_label
 _atom_site_symmetry_multiplicity
 _atom_site_fract_x
 _atom_site_fract_y
 _atom_site_fract_z
 _atom_site_occupancy
  Tl  Tl0  1  0.19755083  0.98034022  0.72456162  1.0
  Tl  Tl1  1  0.19755083  0.51965978  0.22456162  1.0
  Tl  Tl2  1  0.80244917  0.01965978  0.27543838  1.0
  Tl  Tl3  1  0.80244917  0.48034022  0.77543838  1.0
  Cu  Cu4  1  0.40873121  0.24635989  0.25603801  1.0
  Cu  Cu5  1  0.40873121  0.25364011  0.75603801  1.0
  Cu  Cu6  1  0.59126879  0.75364011  0.74396199  1.0
  Cu  Cu7  1  0.59126879  0.74635989  0.24396199  1.0
  Te  Te8  1  0.81338223  0.46416134  0.34337222  1.0
  Te  Te9  1  0.81338223  0.03583866  0.84337222  1.0
  Te  Te10  1  0.18661777  0.53583866  0.65662778  1.0
  Te  Te11  1  0.18661777  0.96416134  0.15662778  1.0
  Te  Te12  1  0.83423708  0.23418544  0.55169999  1.0
  Te  Te13  1  0.83423708  0.26581456  0.05169999  1.0
  Te  Te14  1  0.16576292  0.76581456  0.44830001  1.0
  Te  Te15  1  0.16576292  0.73418544  0.94830001  1.0
  Te  Te16  1  0.24966480  0.25513566  0.46206579  1.0
  Te  Te17  1  0.24966480  0.24486434  0.96206579  1.0
  Te  Te18  1  0.75033520  0.74486434  0.53793421  1.0
  Te  Te19  1  0.75033520  0.75513566  0.03793421  1.0
  Te  Te20  1  0.50000000  0.00000000  0.50000000  1.0
  Te  Te21  1  0.50000000  0.50000000  -0.00000000  1.0
  O  O22  1  0.72703537  0.25527496  0.36771996  1.0
  O  O23  1  0.72703537  0.24472504  0.86771996  1.0
  O  O24  1  0.27296463  0.74472504  0.63228004  1.0
  O  O25  1  0.27296463  0.75527496  0.13228004  1.0
  O  O26  1  0.12839531  0.18754071  0.61371609  1.0
  O  O27  1  0.12839531  0.31245929  0.11371609  1.0
  O  O28  1  0.87160469  0.81245929  0.38628391  1.0
  O  O29  1  0.87160469  0.68754071  0.88628391  1.0
  O  O30  1  0.96388840  0.41585549  0.54797073  1.0
  O  O31  1  0.96388840  0.08414451  0.04797073  1.0
  O  O32  1  0.03611160  0.58414451  0.45202927  1.0
  O  O33  1  0.03611160  0.91585549  0.95202927  1.0
  O  O34  1  0.02071456  0.38589077  0.32695489  1.0
  O  O35  1  0.02071456  0.11410923  0.82695489  1.0
  O  O36  1  0.97928544  0.61410923  0.67304511  1.0
  O  O37  1  0.97928544  0.88589077  0.17304511  1.0
  O  O38  1  0.39985895  0.34296835  0.62324451  1.0
  O  O39  1  0.39985895  0.15703165  0.12324451  1.0
  O  O40  1  0.60014105  0.65703165  0.37675549  1.0
  O  O41  1  0.60014105  0.84296835  0.87675549  1.0
  O  O42  1  0.49011969  0.12995403  0.59154332  1.0
  O  O43  1  0.49011969  0.37004597  0.09154332  1.0
  O  O44  1  0.50988031  0.87004597  0.40845668  1.0
  O  O45  1  0.50988031  0.62995403  0.90845668  1.0
  O  O46  1  0.74467675  0.07082174  0.50352593  1.0
  O  O47  1  0.74467675  0.42917826  0.00352593  1.0
  O  O48  1  0.25532325  0.92917826  0.49647407  1.0
  O  O49  1  0.25532325  0.57082174  0.99647407  1.0
  O  O50  1  0.72657513  0.56792686  0.17773543  1.0
  O  O51  1  0.72657513  0.93207314  0.67773543  1.0
  O  O52  1  0.27342487  0.43207314  0.82226457  1.0
  O  O53  1  0.27342487  0.06792686  0.32226457  1.0
  O  O54  1  0.43626058  0.30617707  0.41035452  1.0
  O  O55  1  0.43626058  0.19382293  0.91035452  1.0
  O  O56  1  0.56373942  0.69382293  0.58964548  1.0
  O  O57  1  0.56373942  0.80617707  0.08964548  1.0
