# generated using pymatgen
data_CuH5N2Cl3
_symmetry_space_group_name_H-M   'P 1'
_cell_length_a   14.77581192
_cell_length_b   5.67673746
_cell_length_c   7.16788165
_cell_angle_alpha   90.00000000
_cell_angle_beta   90.00000000
_cell_angle_gamma   90.00000000
_symmetry_Int_Tables_number   1
_chemical_formula_structural   CuH5N2Cl3
_chemical_formula_sum   'Cu4 H20 N8 Cl12'
_cell_volume   601.23048015
_cell_formula_units_Z   4
loop_
 _symmetry_equiv_pos_site_id
 _symmetry_equiv_pos_as_xyz
  1  'x, y, z'
loop_
 _atom_site_type_symbol
 _atom_site_label
 _atom_site_symmetry_multiplicity
 _atom_site_fract_x
 _atom_site_fract_y
 _atom_site_fract_z
 _atom_site_occupancy
  Cu  Cu0  1  0.04275665  0.75000000  0.84555940  1.0
  Cu  Cu1  1  0.54275665  0.75000000  0.65444060  1.0
  Cu  Cu2  1  0.95724335  0.25000000  0.15444060  1.0
  Cu  Cu3  1  0.45724335  0.25000000  0.34555940  1.0
  H  H4  1  0.42350753  0.89790234  0.89711853  1.0
  H  H5  1  0.42350753  0.60209766  0.89711853  1.0
  H  H6  1  0.92350753  0.89790234  0.60288147  1.0
  H  H7  1  0.92350753  0.60209766  0.60288147  1.0
  H  H8  1  0.57649247  0.39790234  0.10288147  1.0
  H  H9  1  0.57649247  0.10209766  0.10288147  1.0
  H  H10  1  0.07649247  0.39790234  0.39711853  1.0
  H  H11  1  0.07649247  0.10209766  0.39711853  1.0
  H  H12  1  0.33293266  0.89992556  0.63170757  1.0
  H  H13  1  0.33293266  0.60007444  0.63170757  1.0
  H  H14  1  0.83293266  0.89992556  0.86829243  1.0
  H  H15  1  0.83293266  0.60007444  0.86829243  1.0
  H  H16  1  0.66706734  0.39992556  0.36829243  1.0
  H  H17  1  0.66706734  0.10007444  0.36829243  1.0
  H  H18  1  0.16706734  0.39992556  0.13170757  1.0
  H  H19  1  0.16706734  0.10007444  0.13170757  1.0
  H  H20  1  0.28196327  0.75000000  0.81030623  1.0
  H  H21  1  0.78196327  0.75000000  0.68969377  1.0
  H  H22  1  0.71803673  0.25000000  0.18969377  1.0
  H  H23  1  0.21803673  0.25000000  0.31030623  1.0
  N  N24  1  0.42302296  0.75000000  0.81213237  1.0
  N  N25  1  0.92302296  0.75000000  0.68786763  1.0
  N  N26  1  0.57697704  0.25000000  0.18786763  1.0
  N  N27  1  0.07697704  0.25000000  0.31213237  1.0
  N  N28  1  0.33696848  0.75000000  0.71615265  1.0
  N  N29  1  0.83696848  0.75000000  0.78384735  1.0
  N  N30  1  0.66303152  0.25000000  0.28384735  1.0
  N  N31  1  0.16303152  0.25000000  0.21615265  1.0
  Cl  Cl32  1  0.18017149  0.75000000  0.00891303  1.0
  Cl  Cl33  1  0.68017149  0.75000000  0.49108697  1.0
  Cl  Cl34  1  0.81982851  0.25000000  0.99108697  1.0
  Cl  Cl35  1  0.31982851  0.25000000  0.50891303  1.0
  Cl  Cl36  1  0.11484775  0.75000000  0.55994033  1.0
  Cl  Cl37  1  0.61484775  0.75000000  0.94005967  1.0
  Cl  Cl38  1  0.88515225  0.25000000  0.44005967  1.0
  Cl  Cl39  1  0.38515225  0.25000000  0.05994033  1.0
  Cl  Cl40  1  0.96528979  0.75000000  0.12427020  1.0
  Cl  Cl41  1  0.46528979  0.75000000  0.37572980  1.0
  Cl  Cl42  1  0.03471021  0.25000000  0.87572980  1.0
  Cl  Cl43  1  0.53471021  0.25000000  0.62427020  1.0
