# generated using pymatgen
data_ZnH8N2(OF2)2
_symmetry_space_group_name_H-M   'P 1'
_cell_length_a   8.41219627
_cell_length_b   5.92486273
_cell_length_c   5.73071525
_cell_angle_alpha   90.00000000
_cell_angle_beta   93.42082603
_cell_angle_gamma   90.00000000
_symmetry_Int_Tables_number   1
_chemical_formula_structural   ZnH8N2(OF2)2
_chemical_formula_sum   'Zn2 H16 N4 O4 F8'
_cell_volume   285.11627316
_cell_formula_units_Z   2
loop_
 _symmetry_equiv_pos_site_id
 _symmetry_equiv_pos_as_xyz
  1  'x, y, z'
loop_
 _atom_site_type_symbol
 _atom_site_label
 _atom_site_symmetry_multiplicity
 _atom_site_fract_x
 _atom_site_fract_y
 _atom_site_fract_z
 _atom_site_occupancy
  Zn  Zn0  1  0.00000000  0.50000000  0.00000000  1.0
  Zn  Zn1  1  0.00000000  0.00000000  0.50000000  1.0
  H  H2  1  0.82857232  0.41460511  0.44594220  1.0
  H  H3  1  0.82857232  0.08539489  0.94594220  1.0
  H  H4  1  0.17142768  0.91460511  0.05405780  1.0
  H  H5  1  0.17142768  0.58539489  0.55405780  1.0
  H  H6  1  0.73520029  0.82859104  0.97559362  1.0
  H  H7  1  0.73520029  0.67140896  0.47559362  1.0
  H  H8  1  0.26479971  0.32859104  0.52440638  1.0
  H  H9  1  0.26479971  0.17140896  0.02440638  1.0
  H  H10  1  0.68195480  0.05093804  0.13968090  1.0
  H  H11  1  0.68195480  0.44906196  0.63968090  1.0
  H  H12  1  0.31804520  0.55093804  0.36031910  1.0
  H  H13  1  0.31804520  0.94906196  0.86031910  1.0
  H  H14  1  0.65303001  0.47416972  0.15557727  1.0
  H  H15  1  0.65303001  0.02583028  0.65557727  1.0
  H  H16  1  0.34696999  0.97416972  0.34442273  1.0
  H  H17  1  0.34696999  0.52583028  0.84442273  1.0
  N  N18  1  0.72036486  0.49459455  0.47843758  1.0
  N  N19  1  0.72036486  0.00540545  0.97843758  1.0
  N  N20  1  0.27963514  0.99459455  0.02156242  1.0
  N  N21  1  0.27963514  0.50540545  0.52156242  1.0
  O  O22  1  0.60291952  0.42680738  0.30471700  1.0
  O  O23  1  0.60291952  0.07319262  0.80471700  1.0
  O  O24  1  0.39708048  0.92680738  0.19528300  1.0
  O  O25  1  0.39708048  0.57319262  0.69528300  1.0
  F  F26  1  0.97077031  0.29153194  0.29360125  1.0
  F  F27  1  0.97077031  0.20846806  0.79360125  1.0
  F  F28  1  0.02922969  0.79153194  0.20639875  1.0
  F  F29  1  0.02922969  0.70846806  0.70639875  1.0
  F  F30  1  0.75921006  0.94510890  0.46329803  1.0
  F  F31  1  0.75921006  0.55489110  0.96329803  1.0
  F  F32  1  0.24078994  0.44510890  0.03670197  1.0
  F  F33  1  0.24078994  0.05489110  0.53670197  1.0
