# generated using pymatgen
data_CoSb3
_symmetry_space_group_name_H-M   'P 1'
_cell_length_a   7.88976875
_cell_length_b   7.88976875
_cell_length_c   7.88976875
_cell_angle_alpha   109.47122063
_cell_angle_beta   109.47122063
_cell_angle_gamma   109.47122063
_symmetry_Int_Tables_number   1
_chemical_formula_structural   CoSb3
_chemical_formula_sum   'Co4 Sb12'
_cell_volume   378.06888040
_cell_formula_units_Z   4
loop_
 _symmetry_equiv_pos_site_id
 _symmetry_equiv_pos_as_xyz
  1  'x, y, z'
loop_
 _atom_site_type_symbol
 _atom_site_label
 _atom_site_symmetry_multiplicity
 _atom_site_fract_x
 _atom_site_fract_y
 _atom_site_fract_z
 _atom_site_occupancy
  Co  Co0  1  0.50000000  1.00000000  1.00000000  1.0
  Co  Co1  1  0.50000000  0.50000000  0.50000000  1.0
  Co  Co2  1  1.00000000  1.00000000  0.50000000  1.0
  Co  Co3  1  1.00000000  0.50000000  1.00000000  1.0
  Sb  Sb4  1  0.84081208  1.33383269  1.17464477  1.0
  Sb  Sb5  1  0.84081208  0.66616731  0.50697940  1.0
  Sb  Sb6  1  0.15918792  0.33383269  0.49302060  1.0
  Sb  Sb7  1  0.15918792  0.66616731  0.82535523  1.0
  Sb  Sb8  1  0.50697940  0.84081208  0.66616731  1.0
  Sb  Sb9  1  1.17464477  0.84081208  1.33383269  1.0
  Sb  Sb10  1  0.66616731  0.82535523  0.15918792  1.0
  Sb  Sb11  1  0.66616731  0.50697940  0.84081208  1.0
  Sb  Sb12  1  0.82535523  0.15918792  0.66616731  1.0
  Sb  Sb13  1  0.49302060  0.15918792  0.33383269  1.0
  Sb  Sb14  1  0.33383269  0.49302060  0.15918792  1.0
  Sb  Sb15  1  1.33383269  1.17464477  0.84081208  1.0
