# generated using pymatgen
data_NaH6AuC2S4(N2O)3
_symmetry_space_group_name_H-M   'P 1'
_cell_length_a   3.94527983
_cell_length_b   14.32524906
_cell_length_c   12.66790275
_cell_angle_alpha   75.99338501
_cell_angle_beta   81.06177975
_cell_angle_gamma   89.06623310
_symmetry_Int_Tables_number   1
_chemical_formula_structural   NaH6AuC2S4(N2O)3
_chemical_formula_sum   'Na2 H12 Au2 C4 S8 N12 O6'
_cell_volume   686.06114058
_cell_formula_units_Z   2
loop_
 _symmetry_equiv_pos_site_id
 _symmetry_equiv_pos_as_xyz
  1  'x, y, z'
loop_
 _atom_site_type_symbol
 _atom_site_label
 _atom_site_symmetry_multiplicity
 _atom_site_fract_x
 _atom_site_fract_y
 _atom_site_fract_z
 _atom_site_occupancy
  Na  Na0  1  -0.07437818  -0.88627611  0.77568557  1.0
  Na  Na1  1  0.07437818  -0.11372389  0.22431443  1.0
  H  H2  1  0.85530464  -0.91981568  0.12211434  1.0
  H  H3  1  -0.85530464  -0.08018432  0.87788566  1.0
  H  H4  1  -0.19541061  -0.09423140  0.83517573  1.0
  H  H5  1  0.19541061  -0.90576860  0.16482427  1.0
  H  H6  1  -0.71786742  -0.89247892  0.97493383  1.0
  H  H7  1  0.71786742  -0.10752108  0.02506617  1.0
  H  H8  1  -0.61424858  -0.79322131  0.89495417  1.0
  H  H9  1  0.61424858  -0.20677869  0.10504583  1.0
  H  H10  1  -0.49862510  -0.98156522  0.64421041  1.0
  H  H11  1  0.49862510  -0.01843478  0.35578959  1.0
  H  H12  1  -0.51300630  -0.87424888  0.58315009  1.0
  H  H13  1  0.51300630  -0.12575112  0.41684991  1.0
  Au  Au14  1  -0.23222792  -0.48101317  0.87791589  1.0
  Au  Au15  1  0.23222792  -0.51898683  0.12208411  1.0
  C  C16  1  -0.00035739  -0.63370954  0.73715380  1.0
  C  C17  1  0.00035739  -0.36629046  0.26284620  1.0
  C  C18  1  0.33289237  -0.74554213  0.23040605  1.0
  C  C19  1  -0.33289237  -0.25445787  0.76959395  1.0
  S  S20  1  0.38765703  -0.71192575  0.34836016  1.0
  S  S21  1  -0.38765703  -0.28807425  0.65163984  1.0
  S  S22  1  -0.22552075  -0.32311467  0.88952404  1.0
  S  S23  1  0.22552075  -0.67688533  0.11047596  1.0
  S  S24  1  -0.22374248  -0.63985169  0.86681287  1.0
  S  S25  1  0.22374248  -0.36014831  0.13318713  1.0
  S  S26  1  0.19380568  -0.53337842  0.64588851  1.0
  S  S27  1  -0.19380568  -0.46662158  0.35411149  1.0
  N  N28  1  0.23671998  -0.68870021  0.59377063  1.0
  N  N29  1  -0.23671998  -0.31129979  0.40622937  1.0
  N  N30  1  0.44439064  -0.88302922  0.34615219  1.0
  N  N31  1  -0.44439064  -0.11697078  0.65384781  1.0
  N  N32  1  0.04900236  -0.71107506  0.69478098  1.0
  N  N33  1  -0.04900236  -0.28892494  0.30521902  1.0
  N  N34  1  0.37399377  -0.84157436  0.24573759  1.0
  N  N35  1  -0.37399377  -0.15842564  0.75426241  1.0
  N  N36  1  0.33553438  -0.60067996  0.55417780  1.0
  N  N37  1  -0.33553438  -0.39932004  0.44582220  1.0
  N  N38  1  0.46324194  -0.82803184  0.41151197  1.0
  N  N39  1  -0.46324194  -0.17196816  0.58848803  1.0
  O  O40  1  -0.08922169  -0.05714451  0.88004973  1.0
  O  O41  1  0.08922169  -0.94285549  0.11995027  1.0
  O  O42  1  -0.63211490  -0.86161556  0.89674067  1.0
  O  O43  1  0.63211490  -0.13838444  0.10325933  1.0
  O  O44  1  -0.51864435  -0.91631856  0.65720948  1.0
  O  O45  1  0.51864435  -0.08368144  0.34279052  1.0
