# generated using pymatgen
data_PtCCl2O
_symmetry_space_group_name_H-M   'P 1'
_cell_length_a   11.44317041
_cell_length_b   11.44317041
_cell_length_c   4.72041328
_cell_angle_alpha   90.00000000
_cell_angle_beta   90.00000000
_cell_angle_gamma   90.00000000
_symmetry_Int_Tables_number   1
_chemical_formula_structural   PtCCl2O
_chemical_formula_sum   'Pt4 C4 Cl8 O4'
_cell_volume   618.11994047
_cell_formula_units_Z   4
loop_
 _symmetry_equiv_pos_site_id
 _symmetry_equiv_pos_as_xyz
  1  'x, y, z'
loop_
 _atom_site_type_symbol
 _atom_site_label
 _atom_site_symmetry_multiplicity
 _atom_site_fract_x
 _atom_site_fract_y
 _atom_site_fract_z
 _atom_site_occupancy
  Pt  Pt0  1  0.38524282  0.10332824  0.00000000  1.0
  Pt  Pt1  1  0.89667176  0.38524282  0.50000000  1.0
  Pt  Pt2  1  0.61475718  0.89667176  0.00000000  1.0
  Pt  Pt3  1  0.10332824  0.61475718  0.50000000  1.0
  C  C4  1  0.22593767  0.10523505  0.00000000  1.0
  C  C5  1  0.89476495  0.22593767  0.50000000  1.0
  C  C6  1  0.77406233  0.89476495  0.00000000  1.0
  C  C7  1  0.10523505  0.77406233  0.50000000  1.0
  Cl  Cl8  1  0.59323027  0.10284030  0.00000000  1.0
  Cl  Cl9  1  0.89715970  0.59323027  0.50000000  1.0
  Cl  Cl10  1  0.40676973  0.89715970  0.00000000  1.0
  Cl  Cl11  1  0.10284030  0.40676973  0.50000000  1.0
  Cl  Cl12  1  0.38670266  0.30248283  0.00000000  1.0
  Cl  Cl13  1  0.69751717  0.38670266  0.50000000  1.0
  Cl  Cl14  1  0.61329734  0.69751717  0.00000000  1.0
  Cl  Cl15  1  0.30248283  0.61329734  0.50000000  1.0
  O  O16  1  0.12534736  0.10845062  0.00000000  1.0
  O  O17  1  0.89154938  0.12534736  0.50000000  1.0
  O  O18  1  0.87465264  0.89154938  0.00000000  1.0
  O  O19  1  0.10845062  0.87465264  0.50000000  1.0
