# generated using pymatgen
data_SrV13O18
_symmetry_space_group_name_H-M   'P 1'
_cell_length_a   7.58592978
_cell_length_b   7.58592978
_cell_length_c   7.58592978
_cell_angle_alpha   111.34993537
_cell_angle_beta   111.34993537
_cell_angle_gamma   111.34993537
_symmetry_Int_Tables_number   1
_chemical_formula_structural   SrV13O18
_chemical_formula_sum   'Sr1 V13 O18'
_cell_volume   310.48784328
_cell_formula_units_Z   1
loop_
 _symmetry_equiv_pos_site_id
 _symmetry_equiv_pos_as_xyz
  1  'x, y, z'
loop_
 _atom_site_type_symbol
 _atom_site_label
 _atom_site_symmetry_multiplicity
 _atom_site_fract_x
 _atom_site_fract_y
 _atom_site_fract_z
 _atom_site_occupancy
  V  V0  1  0.00000000  0.00000000  0.00000000  1.0
  V  V1  1  0.75413256  0.12803830  0.16899073  1.0
  V  V2  1  0.83100927  0.24586744  -0.12803830  1.0
  V  V3  1  0.87196170  0.83100927  0.24586744  1.0
  V  V4  1  1.24586744  0.87196170  0.83100927  1.0
  V  V5  1  0.16899073  0.75413256  -0.87196170  1.0
  V  V6  1  1.12803830  1.16899073  -0.24586744  1.0
  V  V7  1  0.55630105  0.39045004  0.04835118  1.0
  V  V8  1  0.95164882  0.44369895  0.60954996  1.0
  V  V9  1  0.60954996  0.95164882  -0.55630105  1.0
  V  V10  1  1.44369895  0.60954996  0.95164882  1.0
  V  V11  1  1.04835118  0.55630105  0.39045004  1.0
  V  V12  1  0.39045004  0.04835118  -0.44369895  1.0
  O  O13  1  1.03752666  0.29263278  0.18483386  1.0
  O  O14  1  0.81516614  0.96247334  -0.29263278  1.0
  O  O15  1  0.70736722  -0.18483386  -0.03752666  1.0
  O  O16  1  0.96247334  0.70736722  0.81516614  1.0
  O  O17  1  1.18483386  1.03752666  0.29263278  1.0
  O  O18  1  0.29263278  0.18483386  0.03752666  1.0
  O  O19  1  0.74094612  0.39869959  0.32857437  1.0
  O  O20  1  0.67142563  1.25905388  -0.39869959  1.0
  O  O21  1  0.60130041  0.67142563  -0.74094612  1.0
  O  O22  1  1.25905388  0.60130041  0.67142563  1.0
  O  O23  1  1.32857437  0.74094612  0.39869959  1.0
  O  O24  1  0.39869959  0.32857437  -0.25905388  1.0
  O  O25  1  0.90637292  0.12676441  0.45390819  1.0
  O  O26  1  0.54609181  0.09362708  -0.12676441  1.0
  O  O27  1  0.87323559  0.54609181  0.09362708  1.0
  O  O28  1  1.09362708  0.87323559  0.54609181  1.0
  O  O29  1  0.45390819  -0.09362708  0.12676441  1.0
  O  O30  1  1.12676441  1.45390819  -0.09362708  1.0
  Sr  Sr31  1  0.50000000  0.50000000  0.50000000  1.0
