# generated using pymatgen
data_La3Re(ClO2)3
_symmetry_space_group_name_H-M   'P 1'
_cell_length_a   9.50564790
_cell_length_b   9.50564790
_cell_length_c   5.46550755
_cell_angle_alpha   90.00000000
_cell_angle_beta   90.00000000
_cell_angle_gamma   120.00000000
_symmetry_Int_Tables_number   1
_chemical_formula_structural   La3Re(ClO2)3
_chemical_formula_sum   'La6 Re2 Cl6 O12'
_cell_volume   427.68554989
_cell_formula_units_Z   2
loop_
 _symmetry_equiv_pos_site_id
 _symmetry_equiv_pos_as_xyz
  1  'x, y, z'
loop_
 _atom_site_type_symbol
 _atom_site_label
 _atom_site_symmetry_multiplicity
 _atom_site_fract_x
 _atom_site_fract_y
 _atom_site_fract_z
 _atom_site_occupancy
  La  La0  1  0.68571824  0.59421041  0.25000000  1.0
  La  La1  1  0.59421041  0.90849217  0.75000000  1.0
  La  La2  1  0.90849217  0.31428176  0.25000000  1.0
  La  La3  1  0.40578959  0.09150783  0.25000000  1.0
  La  La4  1  0.31428176  0.40578959  0.75000000  1.0
  La  La5  1  0.09150783  0.68571824  0.75000000  1.0
  Re  Re6  1  0.33333333  0.66666667  0.25000000  1.0
  Re  Re7  1  0.66666667  0.33333333  0.75000000  1.0
  Cl  Cl8  1  0.04622681  0.80515542  0.25000000  1.0
  Cl  Cl9  1  0.80515542  0.75892861  0.75000000  1.0
  Cl  Cl10  1  0.75892861  0.95377319  0.25000000  1.0
  Cl  Cl11  1  0.19484458  0.24107139  0.25000000  1.0
  Cl  Cl12  1  0.95377319  0.19484458  0.75000000  1.0
  Cl  Cl13  1  0.24107139  0.04622681  0.75000000  1.0
  O  O14  1  0.36348982  0.83631550  0.47689331  1.0
  O  O15  1  0.36348982  0.83631550  0.02310669  1.0
  O  O16  1  0.83631550  0.47282568  0.97689331  1.0
  O  O17  1  0.83631550  0.47282568  0.52310669  1.0
  O  O18  1  0.47282568  0.63651018  0.47689331  1.0
  O  O19  1  0.47282568  0.63651018  0.02310669  1.0
  O  O20  1  0.16368450  0.52717432  0.47689331  1.0
  O  O21  1  0.16368450  0.52717432  0.02310669  1.0
  O  O22  1  0.63651018  0.16368450  0.97689331  1.0
  O  O23  1  0.63651018  0.16368450  0.52310669  1.0
  O  O24  1  0.52717432  0.36348982  0.97689331  1.0
  O  O25  1  0.52717432  0.36348982  0.52310669  1.0
