# generated using pymatgen
data_Cs2Mo(SO)2
_symmetry_space_group_name_H-M   'P 1'
_cell_length_a   7.21159216
_cell_length_b   9.09235286
_cell_length_c   14.62107708
_cell_angle_alpha   90.00000000
_cell_angle_beta   114.27753720
_cell_angle_gamma   90.00000000
_symmetry_Int_Tables_number   1
_chemical_formula_structural   Cs2Mo(SO)2
_chemical_formula_sum   'Cs8 Mo4 S8 O8'
_cell_volume   873.92513199
_cell_formula_units_Z   4
loop_
 _symmetry_equiv_pos_site_id
 _symmetry_equiv_pos_as_xyz
  1  'x, y, z'
loop_
 _atom_site_type_symbol
 _atom_site_label
 _atom_site_symmetry_multiplicity
 _atom_site_fract_x
 _atom_site_fract_y
 _atom_site_fract_z
 _atom_site_occupancy
  Cs  Cs0  1  0.83792510  0.01284228  0.19956717  1.0
  Cs  Cs1  1  0.83792510  0.48715772  0.69956717  1.0
  Cs  Cs2  1  0.16207490  0.51284228  0.30043283  1.0
  Cs  Cs3  1  0.16207490  0.98715772  0.80043283  1.0
  Cs  Cs4  1  0.67194985  0.81331275  0.44890243  1.0
  Cs  Cs5  1  0.67194985  0.68668725  0.94890243  1.0
  Cs  Cs6  1  0.32805015  0.31331275  0.05109757  1.0
  Cs  Cs7  1  0.32805015  0.18668725  0.55109757  1.0
  Mo  Mo8  1  0.72915882  0.29002336  0.41780558  1.0
  Mo  Mo9  1  0.72915882  0.20997664  0.91780558  1.0
  Mo  Mo10  1  0.27084118  0.79002336  0.08219442  1.0
  Mo  Mo11  1  0.27084118  0.70997664  0.58219442  1.0
  S  S12  1  0.84832594  0.33148731  0.06437517  1.0
  S  S13  1  0.84832594  0.16851269  0.56437517  1.0
  S  S14  1  0.15167406  0.83148731  0.43562483  1.0
  S  S15  1  0.15167406  0.66851269  0.93562483  1.0
  S  S16  1  0.45665738  0.17113029  0.30912670  1.0
  S  S17  1  0.45665738  0.32886971  0.80912670  1.0
  S  S18  1  0.54334262  0.67113029  0.19087330  1.0
  S  S19  1  0.54334262  0.82886971  0.69087330  1.0
  O  O20  1  0.92080771  0.29434878  0.37288781  1.0
  O  O21  1  0.92080771  0.20565122  0.87288781  1.0
  O  O22  1  0.07919229  0.79434878  0.12711219  1.0
  O  O23  1  0.07919229  0.70565122  0.62711219  1.0
  O  O24  1  0.65816403  0.46714681  0.43776362  1.0
  O  O25  1  0.65816403  0.03285319  0.93776362  1.0
  O  O26  1  0.34183597  0.96714681  0.06223638  1.0
  O  O27  1  0.34183597  0.53285319  0.56223638  1.0
