# generated using pymatgen
data_N2O3
_symmetry_space_group_name_H-M   'P 1'
_cell_length_a   7.07933844
_cell_length_b   6.47879247
_cell_length_c   8.83051706
_cell_angle_alpha   90.00000000
_cell_angle_beta   90.00000000
_cell_angle_gamma   90.00000000
_symmetry_Int_Tables_number   1
_chemical_formula_structural   N2O3
_chemical_formula_sum   'N8 O12'
_cell_volume   405.01665041
_cell_formula_units_Z   4
loop_
 _symmetry_equiv_pos_site_id
 _symmetry_equiv_pos_as_xyz
  1  'x, y, z'
loop_
 _atom_site_type_symbol
 _atom_site_label
 _atom_site_symmetry_multiplicity
 _atom_site_fract_x
 _atom_site_fract_y
 _atom_site_fract_z
 _atom_site_occupancy
  O  O0  1  0.36101497  0.75000000  0.74697750  1.0
  O  O1  1  0.86101497  0.75000000  0.75302250  1.0
  O  O2  1  0.63898503  0.25000000  0.25302250  1.0
  O  O3  1  0.13898503  0.25000000  0.24697750  1.0
  O  O4  1  0.28541371  0.91639340  0.54433915  1.0
  O  O5  1  0.28541371  0.58360660  0.54433915  1.0
  O  O6  1  0.78541371  0.91639340  0.95566085  1.0
  O  O7  1  0.78541371  0.58360660  0.95566085  1.0
  O  O8  1  0.71458629  0.41639340  0.45566085  1.0
  O  O9  1  0.71458629  0.08360660  0.45566085  1.0
  O  O10  1  0.21458629  0.41639340  0.04433915  1.0
  O  O11  1  0.21458629  0.08360660  0.04433915  1.0
  N  N12  1  0.31066001  0.75000000  0.61168569  1.0
  N  N13  1  0.81066001  0.75000000  0.88831431  1.0
  N  N14  1  0.68933999  0.25000000  0.38831431  1.0
  N  N15  1  0.18933999  0.25000000  0.11168569  1.0
  N  N16  1  0.47591770  0.75000000  0.21900951  1.0
  N  N17  1  -0.02408230  0.75000000  0.28099049  1.0
  N  N18  1  0.52408230  0.25000000  0.78099049  1.0
  N  N19  1  1.02408230  0.25000000  0.71900951  1.0
