# generated using pymatgen
data_Cs2RuC2NCl3O5
_symmetry_space_group_name_H-M   'P 1'
_cell_length_a   13.32959879
_cell_length_b   7.53777404
_cell_length_c   7.02099768
_cell_angle_alpha   112.48983853
_cell_angle_beta   99.45818192
_cell_angle_gamma   89.69782627
_symmetry_Int_Tables_number   1
_chemical_formula_structural   Cs2RuC2NCl3O5
_chemical_formula_sum   'Cs4 Ru2 C4 N2 Cl6 O10'
_cell_volume   641.64270304
_cell_formula_units_Z   2
loop_
 _symmetry_equiv_pos_site_id
 _symmetry_equiv_pos_as_xyz
  1  'x, y, z'
loop_
 _atom_site_type_symbol
 _atom_site_label
 _atom_site_symmetry_multiplicity
 _atom_site_fract_x
 _atom_site_fract_y
 _atom_site_fract_z
 _atom_site_occupancy
  Cs  Cs0  1  0.08219234  0.85130772  -0.31043114  1.0
  Cs  Cs1  1  0.91780766  0.14869228  -0.68956886  1.0
  Cs  Cs2  1  0.64551587  0.66778387  -0.56961617  1.0
  Cs  Cs3  1  0.35448413  0.33221613  -0.43038383  1.0
  Ru  Ru4  1  0.70714470  0.30898286  -0.19410081  1.0
  Ru  Ru5  1  0.29285530  0.69101714  -0.80589919  1.0
  C  C6  1  0.85766383  0.58689055  -0.88370622  1.0
  C  C7  1  0.14233617  0.41310945  -0.11629378  1.0
  C  C8  1  0.87073624  0.59154502  -0.09767412  1.0
  C  C9  1  0.12926376  0.40845498  -0.90232588  1.0
  N  N10  1  0.62580709  0.17892121  -0.12022486  1.0
  N  N11  1  0.37419291  0.82107879  -0.87977514  1.0
  Cl  Cl12  1  0.82430055  0.05994211  -0.25785774  1.0
  Cl  Cl13  1  0.17569945  0.94005789  -0.74214226  1.0
  Cl  Cl14  1  0.63131038  0.18082824  -0.55445978  1.0
  Cl  Cl15  1  0.36868962  0.81917176  -0.44554022  1.0
  Cl  Cl16  1  0.60503559  0.58264748  -0.12818243  1.0
  Cl  Cl17  1  0.39496441  0.41735252  -0.87181757  1.0
  O  O18  1  0.57633763  0.08955694  -0.06307665  1.0
  O  O19  1  0.42366237  0.91044306  -0.93692335  1.0
  O  O20  1  0.79183230  0.45323686  -0.89658068  1.0
  O  O21  1  0.20816770  0.54676314  -0.10341932  1.0
  O  O22  1  0.81051354  0.46599044  -0.25970622  1.0
  O  O23  1  0.18948646  0.53400956  -0.74029378  1.0
  O  O24  1  0.93335054  0.70519264  -0.10746834  1.0
  O  O25  1  0.06664946  0.29480736  -0.89253166  1.0
  O  O26  1  0.90651259  0.70165695  -0.71717595  1.0
  O  O27  1  0.09348741  0.29834305  -0.28282405  1.0
