# generated using pymatgen
data_RbO3
_symmetry_space_group_name_H-M   'P 1'
_cell_length_a   6.69299835
_cell_length_b   6.16746853
_cell_length_c   9.05117102
_cell_angle_alpha   90.00000000
_cell_angle_beta   124.14545628
_cell_angle_gamma   90.00000000
_symmetry_Int_Tables_number   1
_chemical_formula_structural   RbO3
_chemical_formula_sum   'Rb4 O12'
_cell_volume   309.21527108
_cell_formula_units_Z   4
loop_
 _symmetry_equiv_pos_site_id
 _symmetry_equiv_pos_as_xyz
  1  'x, y, z'
loop_
 _atom_site_type_symbol
 _atom_site_label
 _atom_site_symmetry_multiplicity
 _atom_site_fract_x
 _atom_site_fract_y
 _atom_site_fract_z
 _atom_site_occupancy
  Rb  Rb0  1  0.77693469  0.74239541  0.41503663  1.0
  Rb  Rb1  1  0.77693469  0.75760459  0.91503663  1.0
  Rb  Rb2  1  0.22306531  0.24239541  0.08496337  1.0
  Rb  Rb3  1  0.22306531  0.25760459  0.58496337  1.0
  O  O4  1  0.89316806  0.43616598  0.20221280  1.0
  O  O5  1  0.89316806  0.06383402  0.70221280  1.0
  O  O6  1  0.10683194  0.93616598  0.29778720  1.0
  O  O7  1  0.10683194  0.56383402  0.79778720  1.0
  O  O8  1  0.70992698  0.29557091  0.09792906  1.0
  O  O9  1  0.70992698  0.20442909  0.59792906  1.0
  O  O10  1  0.29007302  0.79557091  0.40207094  1.0
  O  O11  1  0.29007302  0.70442909  0.90207094  1.0
  O  O12  1  0.68610634  0.25418601  0.44173514  1.0
  O  O13  1  0.68610634  0.24581399  0.94173514  1.0
  O  O14  1  0.31389366  0.75418601  0.05826486  1.0
  O  O15  1  0.31389366  0.74581399  0.55826486  1.0
