# generated using pymatgen
data_K2Zn6O7
_symmetry_space_group_name_H-M   'P 1'
_cell_length_a   11.02503713
_cell_length_b   11.02503713
_cell_length_c   3.35831318
_cell_angle_alpha   90.00000000
_cell_angle_beta   90.00000000
_cell_angle_gamma   90.00000000
_symmetry_Int_Tables_number   1
_chemical_formula_structural   K2Zn6O7
_chemical_formula_sum   'K4 Zn12 O14'
_cell_volume   408.20781533
_cell_formula_units_Z   2
loop_
 _symmetry_equiv_pos_site_id
 _symmetry_equiv_pos_as_xyz
  1  'x, y, z'
loop_
 _atom_site_type_symbol
 _atom_site_label
 _atom_site_symmetry_multiplicity
 _atom_site_fract_x
 _atom_site_fract_y
 _atom_site_fract_z
 _atom_site_occupancy
  K  K0  1  0.14142769  0.85857231  1.00125428  1.0
  K  K1  1  0.85857231  0.14142769  1.00125428  1.0
  K  K2  1  0.64142769  0.64142769  0.50125428  1.0
  K  K3  1  0.35857231  0.35857231  0.50125428  1.0
  Zn  Zn4  1  0.41432584  0.84754595  0.50086215  1.0
  Zn  Zn5  1  0.58567416  0.15245405  0.50086215  1.0
  Zn  Zn6  1  0.91432584  0.65245405  0.00086215  1.0
  Zn  Zn7  1  0.08567416  0.34754595  0.00086215  1.0
  Zn  Zn8  1  0.15245405  0.58567416  0.50086215  1.0
  Zn  Zn9  1  0.84754595  0.41432584  0.50086215  1.0
  Zn  Zn10  1  0.65245405  0.91432584  0.00086215  1.0
  Zn  Zn11  1  0.34754595  0.08567416  0.00086215  1.0
  Zn  Zn12  1  0.37944537  0.62055463  1.00053889  1.0
  Zn  Zn13  1  0.62055463  0.37944537  1.00053889  1.0
  Zn  Zn14  1  0.87944537  0.87944537  0.50053889  1.0
  Zn  Zn15  1  0.12055463  0.12055463  0.50053889  1.0
  O  O16  1  0.00590256  0.68710429  0.50085906  1.0
  O  O17  1  0.99409744  0.31289571  0.50085906  1.0
  O  O18  1  0.50590256  0.81289571  1.00085906  1.0
  O  O19  1  0.49409744  0.18710429  1.00085906  1.0
  O  O20  1  0.31289571  0.99409744  0.50085906  1.0
  O  O21  1  0.68710429  0.00590256  0.50085906  1.0
  O  O22  1  0.81289571  0.50590256  1.00085906  1.0
  O  O23  1  0.18710429  0.49409744  1.00085906  1.0
  O  O24  1  0.30919740  0.69080260  0.50057248  1.0
  O  O25  1  0.69080260  0.30919740  0.50057248  1.0
  O  O26  1  0.80919740  0.80919740  0.00057248  1.0
  O  O27  1  0.19080260  0.19080260  0.00057248  1.0
  O  O28  1  0.50000000  0.50000000  0.00128385  1.0
  O  O29  1  0.00000000  0.00000000  0.50128385  1.0
