# generated using pymatgen
data_In2Te3
_symmetry_space_group_name_H-M   'P 1'
_cell_length_a   13.35617948
_cell_length_b   13.35617948
_cell_length_c   13.35617948
_cell_angle_alpha   60.00000000
_cell_angle_beta   60.00000000
_cell_angle_gamma   60.00000000
_symmetry_Int_Tables_number   1
_chemical_formula_structural   In2Te3
_chemical_formula_sum   'In18 Te27'
_cell_volume   1684.73555706
_cell_formula_units_Z   9
loop_
 _symmetry_equiv_pos_site_id
 _symmetry_equiv_pos_as_xyz
  1  'x, y, z'
loop_
 _atom_site_type_symbol
 _atom_site_label
 _atom_site_symmetry_multiplicity
 _atom_site_fract_x
 _atom_site_fract_y
 _atom_site_fract_z
 _atom_site_occupancy
  In  In0  1  0.74678451  1.09478597  -0.25321549  1.0
  In  In1  1  -0.25321549  0.74678451  1.09478597  1.0
  In  In2  1  -0.58835498  0.74678451  1.09478597  1.0
  In  In3  1  0.41164502  1.09478597  -0.25321549  1.0
  In  In4  1  1.09478597  0.74678451  -0.25321549  1.0
  In  In5  1  -0.58835498  0.74678451  0.74678451  1.0
  In  In6  1  1.09478597  0.74678451  -0.58835498  1.0
  In  In7  1  -0.25321549  0.74678451  0.41164502  1.0
  In  In8  1  -0.25321549  0.41164502  0.74678451  1.0
  In  In9  1  1.09478597  0.41164502  -0.25321549  1.0
  In  In10  1  0.74678451  1.09478597  -0.58835498  1.0
  In  In11  1  -0.25321549  0.41164502  1.09478597  1.0
  In  In12  1  0.08088851  0.41911149  0.41911149  1.0
  In  In13  1  0.41911149  0.41911149  0.08088851  1.0
  In  In14  1  0.41911149  0.08088851  0.41911149  1.0
  In  In15  1  0.08088851  0.08088851  0.41911149  1.0
  In  In16  1  0.08088851  0.41911149  0.08088851  1.0
  In  In17  1  0.41911149  0.08088851  0.08088851  1.0
  Te  Te18  1  0.00908914  0.68211941  0.00908914  1.0
  Te  Te19  1  0.00908914  0.00908914  0.68211941  1.0
  Te  Te20  1  0.29970232  1.00908914  -0.31788059  1.0
  Te  Te21  1  -0.70029768  0.68211941  1.00908914  1.0
  Te  Te22  1  0.68211941  0.00908914  0.00908914  1.0
  Te  Te23  1  0.29970232  0.00908914  0.00908914  1.0
  Te  Te24  1  0.68211941  1.00908914  -0.70029768  1.0
  Te  Te25  1  0.00908914  0.00908914  0.29970232  1.0
  Te  Te26  1  0.00908914  0.29970232  0.00908914  1.0
  Te  Te27  1  -0.31788059  0.29970232  1.00908914  1.0
  Te  Te28  1  1.00908914  0.68211941  -0.70029768  1.0
  Te  Te29  1  1.00908914  0.29970232  -0.31788059  1.0
  Te  Te30  1  -0.65134598  0.65134598  0.65134598  1.0
  Te  Te31  1  -0.34865402  0.65134598  0.34865402  1.0
  Te  Te32  1  -0.34865402  0.34865402  0.65134598  1.0
  Te  Te33  1  0.34865402  1.34865402  -0.34865402  1.0
  Te  Te34  1  0.34865402  -0.34865402  0.34865402  1.0
  Te  Te35  1  -0.34865402  0.34865402  0.34865402  1.0
  Te  Te36  1  0.67470243  0.67470243  -0.32529757  1.0
  Te  Te37  1  0.97589270  0.67470243  -0.32529757  1.0
  Te  Te38  1  0.67470243  0.67470243  -0.02410730  1.0
  Te  Te39  1  0.67470243  0.97589270  -0.32529757  1.0
  Te  Te40  1  0.34390752  0.34390752  0.34390752  1.0
  Te  Te41  1  -0.03172256  0.34390752  0.34390752  1.0
  Te  Te42  1  0.34390752  0.34390752  -0.03172256  1.0
  Te  Te43  1  0.34390752  -0.03172256  0.34390752  1.0
  Te  Te44  1  0.00000000  0.00000000  0.00000000  1.0
