# generated using pymatgen
data_Bi2O3
_symmetry_space_group_name_H-M   'P 1'
_cell_length_a   8.12274248
_cell_length_b   8.12274248
_cell_length_c   8.12274248
_cell_angle_alpha   60.00000000
_cell_angle_beta   60.00000000
_cell_angle_gamma   60.00000000
_symmetry_Int_Tables_number   1
_chemical_formula_structural   Bi2O3
_chemical_formula_sum   'Bi8 O12'
_cell_volume   378.95972535
_cell_formula_units_Z   4
loop_
 _symmetry_equiv_pos_site_id
 _symmetry_equiv_pos_as_xyz
  1  'x, y, z'
loop_
 _atom_site_type_symbol
 _atom_site_label
 _atom_site_symmetry_multiplicity
 _atom_site_fract_x
 _atom_site_fract_y
 _atom_site_fract_z
 _atom_site_occupancy
  Bi  Bi0  1  0.38110856  0.38110856  -0.14332568  1.0
  Bi  Bi1  1  0.38110856  -0.14332568  0.38110856  1.0
  Bi  Bi2  1  -0.14332568  0.38110856  0.38110856  1.0
  Bi  Bi3  1  0.38110856  0.38110856  0.38110856  1.0
  Bi  Bi4  1  -0.13110856  0.86889144  0.39332568  1.0
  Bi  Bi5  1  0.86889144  -0.60667432  0.86889144  1.0
  Bi  Bi6  1  -0.60667432  0.86889144  0.86889144  1.0
  Bi  Bi7  1  0.86889144  -0.13110856  0.86889144  1.0
  O  O8  1  0.55166411  -0.44833589  0.94833589  1.0
  O  O9  1  0.94833589  -0.44833589  0.94833589  1.0
  O  O10  1  0.55166411  -0.05166411  0.94833589  1.0
  O  O11  1  0.94833589  -0.05166411  0.55166411  1.0
  O  O12  1  0.55166411  -0.05166411  0.55166411  1.0
  O  O13  1  0.94833589  -0.44833589  0.55166411  1.0
  O  O14  1  -0.30166411  0.69833589  0.30166411  1.0
  O  O15  1  0.30166411  0.69833589  0.30166411  1.0
  O  O16  1  -0.30166411  1.30166411  0.30166411  1.0
  O  O17  1  0.30166411  0.30166411  -0.30166411  1.0
  O  O18  1  0.69833589  0.30166411  0.69833589  1.0
  O  O19  1  0.30166411  0.69833589  -0.30166411  1.0
