# generated using pymatgen
data_Sm2As4O9
_symmetry_space_group_name_H-M   'P 1'
_cell_length_a   9.99653333
_cell_length_b   7.70800934
_cell_length_c   6.94381493
_cell_angle_alpha   104.86900089
_cell_angle_beta   104.00778415
_cell_angle_gamma   95.26936309
_symmetry_Int_Tables_number   1
_chemical_formula_structural   Sm2As4O9
_chemical_formula_sum   'Sm4 As8 O18'
_cell_volume   494.94302741
_cell_formula_units_Z   2
loop_
 _symmetry_equiv_pos_site_id
 _symmetry_equiv_pos_as_xyz
  1  'x, y, z'
loop_
 _atom_site_type_symbol
 _atom_site_label
 _atom_site_symmetry_multiplicity
 _atom_site_fract_x
 _atom_site_fract_y
 _atom_site_fract_z
 _atom_site_occupancy
  Sm  Sm0  1  -0.38419277  -0.56192213  -0.75698959  1.0
  Sm  Sm1  1  -0.61580723  -0.43807787  -0.24301041  1.0
  Sm  Sm2  1  -0.59158022  -0.96285626  -0.27957187  1.0
  Sm  Sm3  1  -0.40841978  -0.03714374  -0.72042813  1.0
  As  As4  1  -0.08485649  -0.74461559  -0.82454079  1.0
  As  As5  1  -0.91514351  -0.25538441  -0.17545921  1.0
  As  As6  1  -0.69961460  -0.85046315  -0.80846808  1.0
  As  As7  1  -0.30038540  -0.14953685  -0.19153192  1.0
  As  As8  1  -0.70625337  -0.41504255  -0.74318851  1.0
  As  As9  1  -0.29374663  -0.58495745  -0.25681149  1.0
  As  As10  1  -0.92738052  -0.72135895  -0.32618568  1.0
  As  As11  1  -0.07261948  -0.27864105  -0.67381432  1.0
  O  O12  1  -0.54712318  -0.83457728  -0.91055352  1.0
  O  O13  1  -0.45287682  -0.16542272  -0.08944648  1.0
  O  O14  1  -0.25843921  -0.85149184  -0.87057398  1.0
  O  O15  1  -0.74156079  -0.14850816  -0.12942602  1.0
  O  O16  1  -0.55707535  -0.36739290  -0.84105068  1.0
  O  O17  1  -0.44292465  -0.63260710  -0.15894932  1.0
  O  O18  1  -0.63840833  -0.60154658  -0.63170300  1.0
  O  O19  1  -0.36159167  -0.39845342  -0.36829700  1.0
  O  O20  1  -0.62069783  -0.96284736  -0.62746529  1.0
  O  O21  1  -0.37930217  -0.03715264  -0.37253471  1.0
  O  O22  1  -0.98172876  -0.82147964  -0.61038897  1.0
  O  O23  1  -0.01827124  -0.17852036  -0.38961103  1.0
  O  O24  1  -0.33157695  -0.73045695  -0.51254301  1.0
  O  O25  1  -0.66842305  -0.26954305  -0.48745699  1.0
  O  O26  1  -0.87688036  -0.47804621  -0.32282266  1.0
  O  O27  1  -0.12311964  -0.52195379  -0.67717734  1.0
  O  O28  1  -0.74752092  -0.74569918  -0.27567873  1.0
  O  O29  1  -0.25247908  -0.25430082  -0.72432127  1.0
