# generated using pymatgen
data_Ca2As2O7
_symmetry_space_group_name_H-M   'P 1'
_cell_length_a   5.94446369
_cell_length_b   5.94446369
_cell_length_c   4.99615625
_cell_angle_alpha   82.86922355
_cell_angle_beta   97.13077645
_cell_angle_gamma   74.48299118
_symmetry_Int_Tables_number   1
_chemical_formula_structural   Ca2As2O7
_chemical_formula_sum   'Ca2 As2 O7'
_cell_volume   166.49527645
_cell_formula_units_Z   1
loop_
 _symmetry_equiv_pos_site_id
 _symmetry_equiv_pos_as_xyz
  1  'x, y, z'
loop_
 _atom_site_type_symbol
 _atom_site_label
 _atom_site_symmetry_multiplicity
 _atom_site_fract_x
 _atom_site_fract_y
 _atom_site_fract_z
 _atom_site_occupancy
  Ca  Ca0  1  0.69302623  -0.30697377  0.00000000  1.0
  Ca  Ca1  1  1.30697377  0.30697377  0.00000000  1.0
  As  As2  1  0.77280234  -0.77280234  0.59287212  1.0
  As  As3  1  0.22719766  -0.22719766  0.40712788  1.0
  O  O4  1  1.61393895  0.08300400  0.78022672  1.0
  O  O5  1  0.91699600  -0.61393895  0.78022672  1.0
  O  O6  1  1.08300400  0.61393895  0.21977328  1.0
  O  O7  1  0.38606105  -0.08300400  0.21977328  1.0
  O  O8  1  0.38460475  -0.38460475  0.71587696  1.0
  O  O9  1  0.61539525  -0.61539525  0.28412304  1.0
  O  O10  1  -0.00000000  0.00000000  0.50000000  1.0
