# generated using pymatgen
data_Zr2Fe
_symmetry_space_group_name_H-M   'P 1'
_cell_length_a   5.26886169
_cell_length_b   5.26886169
_cell_length_c   5.26886169
_cell_angle_alpha   107.21370033
_cell_angle_beta   107.21370033
_cell_angle_gamma   114.08723460
_symmetry_Int_Tables_number   1
_chemical_formula_structural   Zr2Fe
_chemical_formula_sum   'Zr4 Fe2'
_cell_volume   112.04474229
_cell_formula_units_Z   2
loop_
 _symmetry_equiv_pos_site_id
 _symmetry_equiv_pos_as_xyz
  1  'x, y, z'
loop_
 _atom_site_type_symbol
 _atom_site_label
 _atom_site_symmetry_multiplicity
 _atom_site_fract_x
 _atom_site_fract_y
 _atom_site_fract_z
 _atom_site_occupancy
  Zr  Zr0  1  0.82040297  0.32040297  1.14080594  1.0
  Zr  Zr1  1  0.67959703  0.82040297  0.50000000  1.0
  Zr  Zr2  1  0.32040297  0.17959703  0.50000000  1.0
  Zr  Zr3  1  1.17959703  0.67959703  0.85919406  1.0
  Fe  Fe4  1  0.25000000  0.25000000  -0.00000000  1.0
  Fe  Fe5  1  0.75000000  0.75000000  -0.00000000  1.0
