# generated using pymatgen
data_SiO2
_symmetry_space_group_name_H-M   'P 1'
_cell_length_a   4.59343232
_cell_length_b   4.59343232
_cell_length_c   15.61627156
_cell_angle_alpha   90.00000000
_cell_angle_beta   90.00000000
_cell_angle_gamma   90.00000000
_symmetry_Int_Tables_number   1
_chemical_formula_structural   SiO2
_chemical_formula_sum   'Si8 O16'
_cell_volume   329.49740260
_cell_formula_units_Z   8
loop_
 _symmetry_equiv_pos_site_id
 _symmetry_equiv_pos_as_xyz
  1  'x, y, z'
loop_
 _atom_site_type_symbol
 _atom_site_label
 _atom_site_symmetry_multiplicity
 _atom_site_fract_x
 _atom_site_fract_y
 _atom_site_fract_z
 _atom_site_occupancy
  Si  Si0  1  1.00154091  0.44247076  0.65293713  1.0
  Si  Si1  1  -0.00154091  0.55752924  0.15293713  1.0
  Si  Si2  1  0.55752924  1.00154091  0.40293713  1.0
  Si  Si3  1  0.44247076  -0.00154091  0.90293713  1.0
  Si  Si4  1  -0.00154091  0.44247076  0.34706287  1.0
  Si  Si5  1  1.00154091  0.55752924  0.84706287  1.0
  Si  Si6  1  0.44247076  1.00154091  0.59706287  1.0
  Si  Si7  1  0.55752924  -0.00154091  0.09706287  1.0
  O  O8  1  0.70049353  0.70049353  0.12500000  1.0
  O  O9  1  0.29950647  0.29950647  0.62500000  1.0
  O  O10  1  0.29950647  0.70049353  0.87500000  1.0
  O  O11  1  0.70049353  0.29950647  0.37500000  1.0
  O  O12  1  0.88113154  0.50000000  0.75000000  1.0
  O  O13  1  0.11886846  0.50000000  0.25000000  1.0
  O  O14  1  0.50000000  0.88113154  0.50000000  1.0
  O  O15  1  0.50000000  0.11886846  0.00000000  1.0
  O  O16  1  0.77870204  0.17981565  0.61371200  1.0
  O  O17  1  0.22129796  0.82018435  0.11371200  1.0
  O  O18  1  0.82018435  0.77870204  0.36371200  1.0
  O  O19  1  0.17981565  0.22129796  0.86371200  1.0
  O  O20  1  0.22129796  0.17981565  0.38628800  1.0
  O  O21  1  0.77870204  0.82018435  0.88628800  1.0
  O  O22  1  0.17981565  0.77870204  0.63628800  1.0
  O  O23  1  0.82018435  0.22129796  0.13628800  1.0
