# generated using pymatgen
data_Ba5Ho2ZrAl2O13
_symmetry_space_group_name_H-M   'P 1'
_cell_length_a   6.02278542
_cell_length_b   6.02278542
_cell_length_c   25.24516341
_cell_angle_alpha   90.00000000
_cell_angle_beta   90.00000000
_cell_angle_gamma   120.00000000
_symmetry_Int_Tables_number   1
_chemical_formula_structural   Ba5Ho2ZrAl2O13
_chemical_formula_sum   'Ba10 Ho4 Zr2 Al4 O26'
_cell_volume   793.05553070
_cell_formula_units_Z   2
loop_
 _symmetry_equiv_pos_site_id
 _symmetry_equiv_pos_as_xyz
  1  'x, y, z'
loop_
 _atom_site_type_symbol
 _atom_site_label
 _atom_site_symmetry_multiplicity
 _atom_site_fract_x
 _atom_site_fract_y
 _atom_site_fract_z
 _atom_site_occupancy
  Ba  Ba0  1  0.33333333  0.66666667  0.25000000  1.0
  Ba  Ba1  1  0.66666667  0.33333333  0.75000000  1.0
  Ba  Ba2  1  0.33333333  0.66666667  0.95931415  1.0
  Ba  Ba3  1  0.33333333  0.66666667  0.54068585  1.0
  Ba  Ba4  1  0.66666667  0.33333333  0.45931415  1.0
  Ba  Ba5  1  0.66666667  0.33333333  0.04068585  1.0
  Ba  Ba6  1  0.00000000  0.00000000  0.36355152  1.0
  Ba  Ba7  1  0.00000000  0.00000000  0.13644848  1.0
  Ba  Ba8  1  0.00000000  0.00000000  0.86355152  1.0
  Ba  Ba9  1  0.00000000  0.00000000  0.63644848  1.0
  Ho  Ho10  1  0.33333333  0.66666667  0.39614139  1.0
  Ho  Ho11  1  0.33333333  0.66666667  0.10385861  1.0
  Ho  Ho12  1  0.66666667  0.33333333  0.89614139  1.0
  Ho  Ho13  1  0.66666667  0.33333333  0.60385861  1.0
  Zr  Zr14  1  0.00000000  0.00000000  0.50000000  1.0
  Zr  Zr15  1  0.00000000  0.00000000  0.00000000  1.0
  Al  Al16  1  0.33333333  0.66666667  0.81891177  1.0
  Al  Al17  1  0.33333333  0.66666667  0.68108823  1.0
  Al  Al18  1  0.66666667  0.33333333  0.31891177  1.0
  Al  Al19  1  0.66666667  0.33333333  0.18108823  1.0
  O  O20  1  0.16190471  0.83809529  0.45022438  1.0
  O  O21  1  0.16190471  0.83809529  0.04977562  1.0
  O  O22  1  0.16190471  0.32380941  0.45022438  1.0
  O  O23  1  0.16190471  0.32380941  0.04977562  1.0
  O  O24  1  0.83809529  0.16190471  0.95022438  1.0
  O  O25  1  0.83809529  0.16190471  0.54977562  1.0
  O  O26  1  0.83809529  0.67619059  0.95022438  1.0
  O  O27  1  0.83809529  0.67619059  0.54977562  1.0
  O  O28  1  0.67619059  0.83809529  0.45022438  1.0
  O  O29  1  0.67619059  0.83809529  0.04977562  1.0
  O  O30  1  0.32380941  0.16190471  0.95022438  1.0
  O  O31  1  0.32380941  0.16190471  0.54977562  1.0
  O  O32  1  0.50514332  0.49485668  0.34152658  1.0
  O  O33  1  0.50514332  0.49485668  0.15847342  1.0
  O  O34  1  0.50514332  0.01028664  0.34152658  1.0
  O  O35  1  0.50514332  0.01028664  0.15847342  1.0
  O  O36  1  0.49485668  0.50514332  0.84152658  1.0
  O  O37  1  0.49485668  0.50514332  0.65847342  1.0
  O  O38  1  0.49485668  0.98971337  0.84152658  1.0
  O  O39  1  0.49485668  0.98971337  0.65847342  1.0
  O  O40  1  0.98971336  0.49485668  0.34152658  1.0
  O  O41  1  0.98971336  0.49485668  0.15847342  1.0
  O  O42  1  0.01028663  0.50514332  0.84152658  1.0
  O  O43  1  0.01028663  0.50514332  0.65847342  1.0
  O  O44  1  0.33333333  0.66666667  0.75000000  1.0
  O  O45  1  0.66666667  0.33333333  0.25000000  1.0
