# generated using pymatgen
data_Cu3TeO6
_symmetry_space_group_name_H-M   'P 1'
_cell_length_a   8.45318338
_cell_length_b   8.45318338
_cell_length_c   8.45318338
_cell_angle_alpha   109.47122063
_cell_angle_beta   109.47122063
_cell_angle_gamma   109.47122063
_symmetry_Int_Tables_number   1
_chemical_formula_structural   Cu3TeO6
_chemical_formula_sum   'Cu12 Te4 O24'
_cell_volume   464.98503986
_cell_formula_units_Z   4
loop_
 _symmetry_equiv_pos_site_id
 _symmetry_equiv_pos_as_xyz
  1  'x, y, z'
loop_
 _atom_site_type_symbol
 _atom_site_label
 _atom_site_symmetry_multiplicity
 _atom_site_fract_x
 _atom_site_fract_y
 _atom_site_fract_z
 _atom_site_occupancy
  Cu  Cu0  1  1.71941207  1.46941207  1.25000000  1.0
  Cu  Cu1  1  1.21941207  0.96941207  1.25000000  1.0
  Cu  Cu2  1  0.75000000  0.78058793  0.03058793  1.0
  Cu  Cu3  1  0.25000000  1.21941207  0.96941207  1.0
  Cu  Cu4  1  0.25000000  0.71941207  0.46941207  1.0
  Cu  Cu5  1  0.75000000  1.28058793  0.53058793  1.0
  Cu  Cu6  1  1.46941207  1.25000000  1.71941207  1.0
  Cu  Cu7  1  0.96941207  0.25000000  1.21941207  1.0
  Cu  Cu8  1  0.03058793  0.75000000  0.78058793  1.0
  Cu  Cu9  1  0.53058793  0.75000000  0.28058793  1.0
  Cu  Cu10  1  0.28058793  0.53058793  0.75000000  1.0
  Cu  Cu11  1  0.78058793  1.03058793  0.75000000  1.0
  Te  Te12  1  1.00000000  0.50000000  1.00000000  1.0
  Te  Te13  1  0.50000000  0.50000000  0.50000000  1.0
  Te  Te14  1  1.00000000  1.00000000  1.50000000  1.0
  Te  Te15  1  1.50000000  1.00000000  1.00000000  1.0
  O  O16  1  0.53949327  0.57351284  0.77359642  1.0
  O  O17  1  1.03949327  0.26589685  0.96598043  1.0
  O  O18  1  0.29991642  0.76589685  0.72640358  1.0
  O  O19  1  0.79991642  1.07351284  0.53401957  1.0
  O  O20  1  0.46598043  1.20008358  0.92648716  1.0
  O  O21  1  0.96598043  1.03949327  0.26589685  1.0
  O  O22  1  0.77359642  0.53949327  0.57351284  1.0
  O  O23  1  1.27359642  0.70008358  1.23410315  1.0
  O  O24  1  0.76589685  0.72640358  0.29991642  1.0
  O  O25  1  1.26589685  0.96598043  1.03949327  1.0
  O  O26  1  0.92648716  0.46598043  1.20008358  1.0
  O  O27  1  1.42648716  1.22640358  1.46050673  1.0
  O  O28  1  1.70008358  1.23410315  1.27359642  1.0
  O  O29  1  1.20008358  0.92648716  1.46598043  1.0
  O  O30  1  1.46050673  1.42648716  1.22640358  1.0
  O  O31  1  0.96050673  1.73410315  1.03401957  1.0
  O  O32  1  1.22640358  1.46050673  1.42648716  1.0
  O  O33  1  0.72640358  1.29991642  0.76589685  1.0
  O  O34  1  1.53401957  0.79991642  1.07351284  1.0
  O  O35  1  1.03401957  0.96050673  1.73410315  1.0
  O  O36  1  1.07351284  1.53401957  0.79991642  1.0
  O  O37  1  0.57351284  0.77359642  0.53949327  1.0
  O  O38  1  1.23410315  1.27359642  1.70008358  1.0
  O  O39  1  0.73410315  1.03401957  0.96050673  1.0
