# generated using pymatgen
data_Ca3Al2Ge3
_symmetry_space_group_name_H-M   'P 1'
_cell_length_a   11.42272201
_cell_length_b   4.37133067
_cell_length_c   14.79106350
_cell_angle_alpha   90.00000000
_cell_angle_beta   90.00000000
_cell_angle_gamma   90.00000000
_symmetry_Int_Tables_number   1
_chemical_formula_structural   Ca3Al2Ge3
_chemical_formula_sum   'Ca12 Al8 Ge12'
_cell_volume   738.55470598
_cell_formula_units_Z   4
loop_
 _symmetry_equiv_pos_site_id
 _symmetry_equiv_pos_as_xyz
  1  'x, y, z'
loop_
 _atom_site_type_symbol
 _atom_site_label
 _atom_site_symmetry_multiplicity
 _atom_site_fract_x
 _atom_site_fract_y
 _atom_site_fract_z
 _atom_site_occupancy
  Ca  Ca0  1  0.89504043  0.75000000  0.43341006  1.0
  Ca  Ca1  1  0.39504043  0.75000000  0.06658994  1.0
  Ca  Ca2  1  0.10495957  0.25000000  0.56658994  1.0
  Ca  Ca3  1  0.60495957  0.25000000  0.93341006  1.0
  Ca  Ca4  1  0.62263043  0.75000000  0.29681658  1.0
  Ca  Ca5  1  0.12263043  0.75000000  0.20318342  1.0
  Ca  Ca6  1  0.37736957  0.25000000  0.70318342  1.0
  Ca  Ca7  1  0.87736957  0.25000000  0.79681658  1.0
  Ca  Ca8  1  0.60577221  0.75000000  0.56213896  1.0
  Ca  Ca9  1  0.10577221  0.75000000  0.93786104  1.0
  Ca  Ca10  1  0.39422779  0.25000000  0.43786104  1.0
  Ca  Ca11  1  0.89422779  0.25000000  0.06213896  1.0
  Al  Al12  1  0.68307694  0.75000000  0.08785639  1.0
  Al  Al13  1  0.18307694  0.75000000  0.41214361  1.0
  Al  Al14  1  0.31692306  0.25000000  0.91214361  1.0
  Al  Al15  1  0.81692306  0.25000000  0.58785639  1.0
  Al  Al16  1  0.64402404  0.75000000  0.79080301  1.0
  Al  Al17  1  0.14402404  0.75000000  0.70919699  1.0
  Al  Al18  1  0.35597596  0.25000000  0.20919699  1.0
  Al  Al19  1  0.85597596  0.25000000  0.29080301  1.0
  Ge  Ge20  1  0.92886829  0.75000000  0.63919181  1.0
  Ge  Ge21  1  0.42886829  0.75000000  0.86080819  1.0
  Ge  Ge22  1  0.07113171  0.25000000  0.36080819  1.0
  Ge  Ge23  1  0.57113171  0.25000000  0.13919181  1.0
  Ge  Ge24  1  0.86008006  0.75000000  0.20004934  1.0
  Ge  Ge25  1  0.36008006  0.75000000  0.29995066  1.0
  Ge  Ge26  1  0.13991994  0.25000000  0.79995066  1.0
  Ge  Ge27  1  0.63991994  0.25000000  0.70004934  1.0
  Ge  Ge28  1  0.30118195  0.75000000  0.56647158  1.0
  Ge  Ge29  1  0.80118195  0.75000000  0.93352842  1.0
  Ge  Ge30  1  0.69881805  0.25000000  0.43352842  1.0
  Ge  Ge31  1  0.19881805  0.25000000  0.06647158  1.0
