# generated using pymatgen
data_NaLi5N2
_symmetry_space_group_name_H-M   'P 1'
_cell_length_a   3.69236786
_cell_length_b   3.69236786
_cell_length_c   5.22247945
_cell_angle_alpha   90.00000000
_cell_angle_beta   90.00000000
_cell_angle_gamma   90.00000000
_symmetry_Int_Tables_number   1
_chemical_formula_structural   NaLi5N2
_chemical_formula_sum   'Na1 Li5 N2'
_cell_volume   71.20109340
_cell_formula_units_Z   1
loop_
 _symmetry_equiv_pos_site_id
 _symmetry_equiv_pos_as_xyz
  1  'x, y, z'
loop_
 _atom_site_type_symbol
 _atom_site_label
 _atom_site_symmetry_multiplicity
 _atom_site_fract_x
 _atom_site_fract_y
 _atom_site_fract_z
 _atom_site_occupancy
  Na  Na0  1  0.50000000  0.50000000  0.50000000  1.0
  Li  Li1  1  0.00000000  0.50000000  0.75688021  1.0
  Li  Li2  1  0.50000000  0.00000000  0.75688021  1.0
  Li  Li3  1  0.00000000  0.50000000  0.24311979  1.0
  Li  Li4  1  0.50000000  0.00000000  0.24311979  1.0
  Li  Li5  1  0.00000000  0.00000000  0.00000000  1.0
  N  N6  1  0.50000000  0.50000000  0.00000000  1.0
  N  N7  1  0.00000000  0.00000000  0.50000000  1.0
