# generated using pymatgen
data_Rb2Si3GeO9
_symmetry_space_group_name_H-M   'P 1'
_cell_length_a   6.92285375
_cell_length_b   6.92285375
_cell_length_c   9.87141624
_cell_angle_alpha   90.00000000
_cell_angle_beta   90.00000000
_cell_angle_gamma   120.00000000
_symmetry_Int_Tables_number   1
_chemical_formula_structural   Rb2Si3GeO9
_chemical_formula_sum   'Rb4 Si6 Ge2 O18'
_cell_volume   409.71362927
_cell_formula_units_Z   2
loop_
 _symmetry_equiv_pos_site_id
 _symmetry_equiv_pos_as_xyz
  1  'x, y, z'
loop_
 _atom_site_type_symbol
 _atom_site_label
 _atom_site_symmetry_multiplicity
 _atom_site_fract_x
 _atom_site_fract_y
 _atom_site_fract_z
 _atom_site_occupancy
  Rb  Rb0  1  0.33333333  0.66666667  0.43944381  1.0
  Rb  Rb1  1  0.33333333  0.66666667  0.06055619  1.0
  Rb  Rb2  1  0.66666667  0.33333333  0.93944381  1.0
  Rb  Rb3  1  0.66666667  0.33333333  0.56055619  1.0
  Si  Si4  1  0.76816361  0.62637955  0.25000000  1.0
  Si  Si5  1  0.62637955  0.85821594  0.75000000  1.0
  Si  Si6  1  0.85821594  0.23183639  0.25000000  1.0
  Si  Si7  1  0.37362045  0.14178406  0.25000000  1.0
  Si  Si8  1  0.23183639  0.37362045  0.75000000  1.0
  Si  Si9  1  0.14178406  0.76816361  0.75000000  1.0
  Ge  Ge10  1  0.00000000  0.00000000  0.50000000  1.0
  Ge  Ge11  1  0.00000000  0.00000000  0.00000000  1.0
  O  O12  1  0.79323209  0.75577949  0.39093322  1.0
  O  O13  1  0.79323209  0.75577949  0.10906678  1.0
  O  O14  1  0.75577949  0.96254740  0.89093322  1.0
  O  O15  1  0.75577949  0.96254740  0.60906678  1.0
  O  O16  1  0.96254740  0.20676791  0.39093322  1.0
  O  O17  1  0.96254740  0.20676791  0.10906678  1.0
  O  O18  1  0.24422050  0.03745260  0.39093322  1.0
  O  O19  1  0.24422050  0.03745260  0.10906678  1.0
  O  O20  1  0.20676791  0.24422051  0.89093322  1.0
  O  O21  1  0.20676791  0.24422051  0.60906678  1.0
  O  O22  1  0.03745260  0.79323209  0.89093322  1.0
  O  O23  1  0.03745260  0.79323209  0.60906678  1.0
  O  O24  1  0.50043724  0.41924530  0.25000000  1.0
  O  O25  1  0.41924530  0.91880806  0.75000000  1.0
  O  O26  1  0.91880806  0.49956276  0.25000000  1.0
  O  O27  1  0.58075470  0.08119194  0.25000000  1.0
  O  O28  1  0.49956276  0.58075470  0.75000000  1.0
  O  O29  1  0.08119194  0.50043724  0.75000000  1.0
