# generated using pymatgen
data_Cu11Sb3
_symmetry_space_group_name_H-M   'P 1'
_cell_length_a   9.96085842
_cell_length_b   9.96085842
_cell_length_c   4.30046073
_cell_angle_alpha   90.00000000
_cell_angle_beta   90.00000000
_cell_angle_gamma   28.42859016
_symmetry_Int_Tables_number   1
_chemical_formula_structural   Cu11Sb3
_chemical_formula_sum   'Cu11 Sb3'
_cell_volume   203.12951432
_cell_formula_units_Z   1
loop_
 _symmetry_equiv_pos_site_id
 _symmetry_equiv_pos_as_xyz
  1  'x, y, z'
loop_
 _atom_site_type_symbol
 _atom_site_label
 _atom_site_symmetry_multiplicity
 _atom_site_fract_x
 _atom_site_fract_y
 _atom_site_fract_z
 _atom_site_occupancy
  Cu  Cu0  1  0.22353797  0.48021665  0.50000000  1.0
  Cu  Cu1  1  -0.48021665  0.77646203  0.50000000  1.0
  Cu  Cu2  1  0.04161127  0.39865782  0.50000000  1.0
  Cu  Cu3  1  -0.39865782  0.95838873  0.50000000  1.0
  Cu  Cu4  1  -0.11164739  0.25715522  0.50000000  1.0
  Cu  Cu5  1  -0.25715522  1.11164739  0.50000000  1.0
  Cu  Cu6  1  -0.27428837  0.70249428  0.00000000  1.0
  Cu  Cu7  1  0.29750572  0.27428837  0.00000000  1.0
  Cu  Cu8  1  -0.41090760  0.55838928  0.00000000  1.0
  Cu  Cu9  1  0.44161072  0.41090760  0.00000000  1.0
  Cu  Cu10  1  -0.04214077  0.04214077  0.00000000  1.0
  Sb  Sb11  1  -0.13429611  0.84305647  0.00000000  1.0
  Sb  Sb12  1  -0.84305647  1.13429611  0.00000000  1.0
  Sb  Sb13  1  -0.67389928  0.67389928  0.50000000  1.0
