# generated using pymatgen
data_K2ZnP4(HO2)8
_symmetry_space_group_name_H-M   'P 1'
_cell_length_a   7.00850387
_cell_length_b   7.47690434
_cell_length_c   7.62733030
_cell_angle_alpha   80.89193232
_cell_angle_beta   73.71989266
_cell_angle_gamma   84.06564945
_symmetry_Int_Tables_number   1
_chemical_formula_structural   K2ZnP4(HO2)8
_chemical_formula_sum   'K2 Zn1 P4 H8 O16'
_cell_volume   378.08795998
_cell_formula_units_Z   1
loop_
 _symmetry_equiv_pos_site_id
 _symmetry_equiv_pos_as_xyz
  1  'x, y, z'
loop_
 _atom_site_type_symbol
 _atom_site_label
 _atom_site_symmetry_multiplicity
 _atom_site_fract_x
 _atom_site_fract_y
 _atom_site_fract_z
 _atom_site_occupancy
  K  K0  1  0.62181528  0.24249258  0.79673255  1.0
  K  K1  1  0.37818472  0.75750742  0.20326745  1.0
  Zn  Zn2  1  0.00000000  0.00000000  0.00000000  1.0
  P  P3  1  0.82207371  0.77057560  0.74415128  1.0
  P  P4  1  0.17792629  0.22942440  0.25584872  1.0
  P  P5  1  0.24476702  0.68830428  0.74201233  1.0
  P  P6  1  0.75523298  0.31169572  0.25798767  1.0
  H  H7  1  0.88003598  0.68705093  0.21183709  1.0
  H  H8  1  0.11996402  0.31294907  0.78816291  1.0
  H  H9  1  0.86834453  0.82192526  0.35587716  1.0
  H  H10  1  0.13165547  0.17807474  0.64412284  1.0
  H  H11  1  0.75004116  0.54913507  0.97718040  1.0
  H  H12  1  0.24995884  0.45086493  0.02281960  1.0
  H  H13  1  0.54563452  0.76896137  0.57626717  1.0
  H  H14  1  0.45436548  0.23103863  0.42373283  1.0
  O  O15  1  0.94344335  0.79271729  0.23108555  1.0
  O  O16  1  0.05655665  0.20728271  0.76891445  1.0
  O  O17  1  0.94161788  0.27054758  0.35028892  1.0
  O  O18  1  0.05838212  0.72945242  0.64971108  1.0
  O  O19  1  0.79510521  0.90035902  0.88525792  1.0
  O  O20  1  0.20489479  0.09964098  0.11474208  1.0
  O  O21  1  0.73574155  0.83582033  0.58163641  1.0
  O  O22  1  0.26425845  0.16417967  0.41836359  1.0
  O  O23  1  0.73587516  0.58141521  0.84267520  1.0
  O  O24  1  0.26412484  0.41858479  0.15732480  1.0
  O  O25  1  0.41953575  0.71906099  0.55988702  1.0
  O  O26  1  0.58046425  0.28093901  0.44011298  1.0
  O  O27  1  0.24481844  0.48825440  0.82762239  1.0
  O  O28  1  0.75518156  0.51174560  0.17237761  1.0
  O  O29  1  0.23664454  0.82155671  0.87503255  1.0
  O  O30  1  0.76335546  0.17844329  0.12496745  1.0
