# generated using pymatgen
data_Cs3Sc(Si2O5)3
_symmetry_space_group_name_H-M   'P 1'
_cell_length_a   8.67679584
_cell_length_b   8.67679584
_cell_length_c   8.67679584
_cell_angle_alpha   112.93915396
_cell_angle_beta   112.93915396
_cell_angle_gamma   112.93915396
_symmetry_Int_Tables_number   1
_chemical_formula_structural   Cs3Sc(Si2O5)3
_chemical_formula_sum   'Cs3 Sc1 Si6 O15'
_cell_volume   426.29823901
_cell_formula_units_Z   1
loop_
 _symmetry_equiv_pos_site_id
 _symmetry_equiv_pos_as_xyz
  1  'x, y, z'
loop_
 _atom_site_type_symbol
 _atom_site_label
 _atom_site_symmetry_multiplicity
 _atom_site_fract_x
 _atom_site_fract_y
 _atom_site_fract_z
 _atom_site_occupancy
  Cs  Cs0  1  1.00000000  1.00000000  0.50000000  1.0
  Cs  Cs1  1  0.50000000  0.00000000  -0.00000000  1.0
  Cs  Cs2  1  1.00000000  -0.50000000  -0.00000000  1.0
  Sc  Sc3  1  -0.00000000  -0.00000000  0.00000000  1.0
  Si  Si4  1  0.46715342  0.46715342  0.16148052  1.0
  Si  Si5  1  1.16148052  0.46715342  0.46715342  1.0
  Si  Si6  1  1.46715342  0.16148052  0.46715342  1.0
  Si  Si7  1  0.53284658  0.53284658  -0.16148052  1.0
  Si  Si8  1  0.83851948  0.53284658  0.53284658  1.0
  Si  Si9  1  1.53284658  -0.16148052  0.53284658  1.0
  O  O10  1  0.68366380  0.50000000  0.31633620  1.0
  O  O11  1  1.31633620  0.68366380  0.50000000  1.0
  O  O12  1  0.50000000  0.31633620  -0.31633620  1.0
  O  O13  1  0.31633620  0.50000000  -0.31633620  1.0
  O  O14  1  1.68366380  0.31633620  0.50000000  1.0
  O  O15  1  0.50000000  0.68366380  0.31633620  1.0
  O  O16  1  0.50000000  0.50000000  -0.00000000  1.0
  O  O17  1  0.00000000  0.50000000  -0.50000000  1.0
  O  O18  1  1.50000000  0.00000000  0.50000000  1.0
  O  O19  1  0.24030555  0.24030555  0.02908453  1.0
  O  O20  1  1.02908453  0.24030555  0.24030555  1.0
  O  O21  1  1.24030555  0.02908453  0.24030555  1.0
  O  O22  1  0.75969445  0.75969445  -0.02908453  1.0
  O  O23  1  0.97091547  0.75969445  0.75969445  1.0
  O  O24  1  1.75969445  -0.02908453  0.75969445  1.0
