# generated using pymatgen
data_Gd2Te4O11
_symmetry_space_group_name_H-M   'P 1'
_cell_length_a   6.83446182
_cell_length_b   6.83446182
_cell_length_c   16.57947246
_cell_angle_alpha   76.48670372
_cell_angle_beta   103.51329628
_cell_angle_gamma   134.61920521
_symmetry_Int_Tables_number   1
_chemical_formula_structural   Gd2Te4O11
_chemical_formula_sum   'Gd4 Te8 O22'
_cell_volume   533.25546714
_cell_formula_units_Z   2
loop_
 _symmetry_equiv_pos_site_id
 _symmetry_equiv_pos_as_xyz
  1  'x, y, z'
loop_
 _atom_site_type_symbol
 _atom_site_label
 _atom_site_symmetry_multiplicity
 _atom_site_fract_x
 _atom_site_fract_y
 _atom_site_fract_z
 _atom_site_occupancy
  Gd  Gd0  1  1.62867348  -0.13288289  0.46153359  1.0
  Gd  Gd1  1  1.13288289  0.37132652  0.96153359  1.0
  Gd  Gd2  1  0.86711711  -0.37132652  0.03846641  1.0
  Gd  Gd3  1  0.37132652  0.13288289  0.53846641  1.0
  Te  Te4  1  0.65839791  -0.09854807  0.80099291  1.0
  Te  Te5  1  1.09854807  -0.65839791  0.30099291  1.0
  Te  Te6  1  0.90145193  0.65839791  0.69900709  1.0
  Te  Te7  1  1.34160209  0.09854807  0.19900709  1.0
  Te  Te8  1  0.34389704  0.08529780  0.87468051  1.0
  Te  Te9  1  0.91470220  0.65610296  0.37468051  1.0
  Te  Te10  1  1.08529780  -0.65610296  0.62531949  1.0
  Te  Te11  1  1.65610296  -0.08529780  0.12531949  1.0
  O  O12  1  1.90908382  -0.04905073  0.90168645  1.0
  O  O13  1  1.04905073  -0.90908382  0.40168645  1.0
  O  O14  1  0.95094927  0.90908382  0.59831355  1.0
  O  O15  1  0.09091618  0.04905073  0.09831355  1.0
  O  O16  1  1.74643770  0.16559238  0.54986972  1.0
  O  O17  1  0.83440762  -0.74643770  0.04986972  1.0
  O  O18  1  1.16559238  0.74643770  0.95013028  1.0
  O  O19  1  0.25356230  -0.16559238  0.45013028  1.0
  O  O20  1  0.69262868  0.18108491  0.87123759  1.0
  O  O21  1  0.81891509  -0.69262868  0.37123759  1.0
  O  O22  1  1.18108491  0.69262868  0.62876241  1.0
  O  O23  1  1.30737132  -0.18108491  0.12876241  1.0
  O  O24  1  0.59792480  0.28858134  0.66897581  1.0
  O  O25  1  0.71141866  -0.59792480  0.16897581  1.0
  O  O26  1  1.28858134  0.59792480  0.83102419  1.0
  O  O27  1  1.40207520  -0.28858134  0.33102419  1.0
  O  O28  1  0.46347445  0.33004520  0.95366106  1.0
  O  O29  1  0.66995480  0.53652555  0.45366106  1.0
  O  O30  1  1.33004520  -0.53652555  0.54633894  1.0
  O  O31  1  1.53652555  -0.33004520  0.04633894  1.0
  O  O32  1  0.62823276  0.62823276  0.75000000  1.0
  O  O33  1  0.37176724  0.37176724  0.25000000  1.0
