# generated using pymatgen
data_MnPH15C3N(ClO)3
_symmetry_space_group_name_H-M   'P 1'
_cell_length_a   6.45177880
_cell_length_b   10.87872291
_cell_length_c   8.82512007
_cell_angle_alpha   90.00000000
_cell_angle_beta   100.56551390
_cell_angle_gamma   90.00000000
_symmetry_Int_Tables_number   1
_chemical_formula_structural   MnPH15C3N(ClO)3
_chemical_formula_sum   'Mn2 P2 H30 C6 N2 Cl6 O6'
_cell_volume   608.90816753
_cell_formula_units_Z   2
loop_
 _symmetry_equiv_pos_site_id
 _symmetry_equiv_pos_as_xyz
  1  'x, y, z'
loop_
 _atom_site_type_symbol
 _atom_site_label
 _atom_site_symmetry_multiplicity
 _atom_site_fract_x
 _atom_site_fract_y
 _atom_site_fract_z
 _atom_site_occupancy
  Mn  Mn0  1  1.01195496  0.50290079  0.13222308  1.0
  Mn  Mn1  1  -0.01195496  0.00290079  0.86777692  1.0
  P  P2  1  0.73893911  0.50071761  0.75239476  1.0
  P  P3  1  0.26106089  1.00071761  0.24760524  1.0
  H  H4  1  0.98375052  0.37466026  0.52301461  1.0
  H  H5  1  0.01624948  0.87466026  0.47698539  1.0
  H  H6  1  0.88895050  0.22997042  0.54315369  1.0
  H  H7  1  0.11104950  0.72997042  0.45684631  1.0
  H  H8  1  1.02396864  0.29908636  0.69521840  1.0
  H  H9  1  -0.02396864  0.79908636  0.30478160  1.0
  H  H10  1  0.39421364  0.64096355  0.11891719  1.0
  H  H11  1  0.60578636  0.14096355  0.88108281  1.0
  H  H12  1  0.21690088  0.70576523  0.00235435  1.0
  H  H13  1  0.78309912  0.20576523  0.99764565  1.0
  H  H14  1  0.41499685  0.37339318  0.15071011  1.0
  H  H15  1  0.58500315  0.87339318  0.84928989  1.0
  H  H16  1  0.24343165  0.31079224  0.02582919  1.0
  H  H17  1  0.75656835  0.81079224  0.97417081  1.0
  H  H18  1  0.78440059  0.71389868  0.69905792  1.0
  H  H19  1  0.21559941  0.21389868  0.30094208  1.0
  H  H20  1  0.62748487  0.63454088  0.53811065  1.0
  H  H21  1  0.37251513  0.13454088  0.46188935  1.0
  H  H22  1  0.90768574  0.61441343  0.57843542  1.0
  H  H23  1  0.09231426  0.11441343  0.42156458  1.0
  H  H24  1  0.46267860  0.43656528  0.88298947  1.0
  H  H25  1  0.53732140  0.93656528  0.11701053  1.0
  H  H26  1  0.36246280  0.51011344  0.70128177  1.0
  H  H27  1  0.63753720  0.01011344  0.29871823  1.0
  H  H28  1  0.47534596  0.60029050  0.86459369  1.0
  H  H29  1  0.52465404  0.10029050  0.13540631  1.0
  H  H30  1  0.64127016  0.29074837  0.68605445  1.0
  H  H31  1  0.35872984  0.79074837  0.31394555  1.0
  H  H32  1  0.60662701  0.38522866  0.51676427  1.0
  H  H33  1  0.39337299  0.88522866  0.48323573  1.0
  C  C34  1  0.71130473  0.36395004  0.62640008  1.0
  C  C35  1  0.28869527  0.86395004  0.37359992  1.0
  C  C36  1  0.76736435  0.62927425  0.63002214  1.0
  C  C37  1  0.23263565  0.12927425  0.36997786  1.0
  C  C38  1  0.48478488  0.51232417  0.80581587  1.0
  C  C39  1  0.51521512  0.01232417  0.19418413  1.0
  N  N40  1  0.91502757  0.31627638  0.59402943  1.0
  N  N41  1  0.08497243  0.81627638  0.40597057  1.0
  Cl  Cl42  1  0.76049812  0.33917445  0.18642322  1.0
  Cl  Cl43  1  0.23950188  0.83917445  0.81357678  1.0
  Cl  Cl44  1  0.17386356  0.52019107  0.42045778  1.0
  Cl  Cl45  1  0.82613644  0.02019107  0.57954222  1.0
  Cl  Cl46  1  0.74873688  0.67869169  0.15426252  1.0
  Cl  Cl47  1  0.25126312  0.17869169  0.84573748  1.0
  O  O48  1  0.92430763  0.48452357  0.88541109  1.0
  O  O49  1  0.07569237  0.98452357  0.11458891  1.0
  O  O50  1  0.24055482  0.65365554  0.09584335  1.0
  O  O51  1  0.75944518  0.15365554  0.90415665  1.0
  O  O52  1  0.26089013  0.36537798  0.11704115  1.0
  O  O53  1  0.73910987  0.86537798  0.88295885  1.0
