# generated using pymatgen
data_La3(AgGe)4
_symmetry_space_group_name_H-M   'P 1'
_cell_length_a   8.66417360
_cell_length_b   8.66417360
_cell_length_c   8.66417360
_cell_angle_alpha   149.62799176
_cell_angle_beta   130.51078579
_cell_angle_gamma   59.17937936
_symmetry_Int_Tables_number   1
_chemical_formula_structural   La3(AgGe)4
_chemical_formula_sum   'La3 Ag4 Ge4'
_cell_volume   248.05586159
_cell_formula_units_Z   1
loop_
 _symmetry_equiv_pos_site_id
 _symmetry_equiv_pos_as_xyz
  1  'x, y, z'
loop_
 _atom_site_type_symbol
 _atom_site_label
 _atom_site_symmetry_multiplicity
 _atom_site_fract_x
 _atom_site_fract_y
 _atom_site_fract_z
 _atom_site_occupancy
  La  La0  1  0.62956160  0.12956160  0.50000000  1.0
  La  La1  1  0.37043840  0.87043840  0.50000000  1.0
  La  La2  1  0.00000000  0.00000000  0.00000000  1.0
  Ag  Ag3  1  0.35985186  0.66693425  0.69291761  1.0
  Ag  Ag4  1  1.02598335  0.33306575  0.69291761  1.0
  Ag  Ag5  1  0.97401665  0.66693425  1.30708239  1.0
  Ag  Ag6  1  0.64014814  0.33306575  0.30708239  1.0
  Ge  Ge7  1  0.78280117  0.78280117  1.00000000  1.0
  Ge  Ge8  1  0.21719883  0.21719883  -0.00000000  1.0
  Ge  Ge9  1  0.32009620  0.50000000  0.82009620  1.0
  Ge  Ge10  1  0.67990380  0.50000000  1.17990380  1.0
