# generated using pymatgen
data_Sr3Zn3Te(PO7)2
_symmetry_space_group_name_H-M   'P 1'
_cell_length_a   8.43971803
_cell_length_b   8.43971803
_cell_length_c   5.25835509
_cell_angle_alpha   90.00000000
_cell_angle_beta   90.00000000
_cell_angle_gamma   120.00000000
_symmetry_Int_Tables_number   1
_chemical_formula_structural   Sr3Zn3Te(PO7)2
_chemical_formula_sum   'Sr3 Zn3 Te1 P2 O14'
_cell_volume   324.36681476
_cell_formula_units_Z   1
loop_
 _symmetry_equiv_pos_site_id
 _symmetry_equiv_pos_as_xyz
  1  'x, y, z'
loop_
 _atom_site_type_symbol
 _atom_site_label
 _atom_site_symmetry_multiplicity
 _atom_site_fract_x
 _atom_site_fract_y
 _atom_site_fract_z
 _atom_site_occupancy
  Sr  Sr0  1  0.42772947  0.00000000  0.00000000  1.0
  Sr  Sr1  1  0.57227053  0.57227053  0.00000000  1.0
  Sr  Sr2  1  -0.00000000  0.42772947  -0.00000000  1.0
  Zn  Zn3  1  0.75779100  -0.00000000  0.50000000  1.0
  Zn  Zn4  1  0.24220900  0.24220900  0.50000000  1.0
  Zn  Zn5  1  -0.00000000  0.75779100  0.50000000  1.0
  Te  Te6  1  0.00000000  0.00000000  -0.00000000  1.0
  P  P7  1  0.66666667  0.33333333  0.44497495  1.0
  P  P8  1  0.33333333  0.66666667  0.55502505  1.0
  O  O9  1  0.77451735  0.86847905  0.21450245  1.0
  O  O10  1  0.09396170  0.22548265  0.21450245  1.0
  O  O11  1  0.13152095  0.90603830  0.21450245  1.0
  O  O12  1  0.22548265  0.09396170  0.78549755  1.0
  O  O13  1  0.86847905  0.77451735  0.78549755  1.0
  O  O14  1  0.90603830  0.13152095  0.78549755  1.0
  O  O15  1  0.66666667  0.33333333  0.73904111  1.0
  O  O16  1  0.33333333  0.66666667  0.26095889  1.0
  O  O17  1  0.68257540  0.17063571  0.32789404  1.0
  O  O18  1  0.48806030  0.31742460  0.32789404  1.0
  O  O19  1  0.82936429  0.51193970  0.32789404  1.0
  O  O20  1  0.31742460  0.48806030  0.67210596  1.0
  O  O21  1  0.17063571  0.68257540  0.67210596  1.0
  O  O22  1  0.51193970  0.82936429  0.67210596  1.0
