# generated using pymatgen
data_H8AuC2S2BrN4
_symmetry_space_group_name_H-M   'P 1'
_cell_length_a   9.04599061
_cell_length_b   9.04599061
_cell_length_c   8.27612904
_cell_angle_alpha   79.69475426
_cell_angle_beta   100.30524574
_cell_angle_gamma   60.48755670
_symmetry_Int_Tables_number   1
_chemical_formula_structural   H8AuC2S2BrN4
_chemical_formula_sum   'H16 Au2 C4 S4 Br2 N8'
_cell_volume   550.93752226
_cell_formula_units_Z   2
loop_
 _symmetry_equiv_pos_site_id
 _symmetry_equiv_pos_as_xyz
  1  'x, y, z'
loop_
 _atom_site_type_symbol
 _atom_site_label
 _atom_site_symmetry_multiplicity
 _atom_site_fract_x
 _atom_site_fract_y
 _atom_site_fract_z
 _atom_site_occupancy
  H  H0  1  1.29183446  -0.33601087  0.75789059  1.0
  H  H1  1  0.66398913  0.29183446  0.74210941  1.0
  H  H2  1  0.70816554  -0.66398913  0.24210941  1.0
  H  H3  1  0.33601087  -0.29183446  0.25789059  1.0
  H  H4  1  1.30703287  -0.47879567  0.94341590  1.0
  H  H5  1  0.52120433  0.30703287  0.55658410  1.0
  H  H6  1  0.69296713  -0.52120433  0.05658410  1.0
  H  H7  1  0.47879567  -0.30703287  0.44341590  1.0
  H  H8  1  0.91666667  -0.46400751  0.75691014  1.0
  H  H9  1  0.53599249  -0.08333333  0.74308986  1.0
  H  H10  1  1.08333333  -0.53599249  0.24308986  1.0
  H  H11  1  0.46400751  0.08333333  0.25691014  1.0
  H  H12  1  1.12732222  -0.59709958  0.91296806  1.0
  H  H13  1  0.40290042  0.12732222  0.58703194  1.0
  H  H14  1  0.87267778  -0.40290042  0.08703194  1.0
  H  H15  1  0.59709958  -0.12732222  0.41296806  1.0
  Au  Au16  1  0.00000000  -0.00000000  0.50000000  1.0
  Au  Au17  1  0.00000000  0.00000000  0.00000000  1.0
  C  C18  1  1.09096739  -0.38401829  0.73230659  1.0
  C  C19  1  0.61598171  0.09096739  0.76769341  1.0
  C  C20  1  0.90903261  -0.61598171  0.26769341  1.0
  C  C21  1  0.38401829  -0.09096739  0.23230659  1.0
  S  S22  1  0.95432236  -0.23124528  0.52848349  1.0
  S  S23  1  0.76875472  -0.04567764  -0.02848349  1.0
  S  S24  1  1.04567764  -0.76875472  0.47151651  1.0
  S  S25  1  0.23124528  0.04567764  0.02848349  1.0
  Br  Br26  1  0.61330586  -0.38669414  0.75000000  1.0
  Br  Br27  1  0.38669414  0.38669414  0.25000000  1.0
  N  N28  1  1.24236321  -0.40299421  0.81547384  1.0
  N  N29  1  0.59700579  0.24236321  0.68452616  1.0
  N  N30  1  0.75763679  -0.59700579  0.18452616  1.0
  N  N31  1  0.40299421  -0.24236321  0.31547384  1.0
  N  N32  1  1.04297521  -0.49114356  0.80401029  1.0
  N  N33  1  0.50885644  0.04297521  0.69598971  1.0
  N  N34  1  0.95702479  -0.50885644  0.19598971  1.0
  N  N35  1  0.49114356  -0.04297521  0.30401029  1.0
