# generated using pymatgen
data_SrMgNiH4
_symmetry_space_group_name_H-M   'P 1'
_cell_length_a   6.91678893
_cell_length_b   6.91678893
_cell_length_c   6.91678893
_cell_angle_alpha   90.00000000
_cell_angle_beta   90.00000000
_cell_angle_gamma   90.00000000
_symmetry_Int_Tables_number   1
_chemical_formula_structural   SrMgNiH4
_chemical_formula_sum   'Sr4 Mg4 Ni4 H16'
_cell_volume   330.91280220
_cell_formula_units_Z   4
loop_
 _symmetry_equiv_pos_site_id
 _symmetry_equiv_pos_as_xyz
  1  'x, y, z'
loop_
 _atom_site_type_symbol
 _atom_site_label
 _atom_site_symmetry_multiplicity
 _atom_site_fract_x
 _atom_site_fract_y
 _atom_site_fract_z
 _atom_site_occupancy
  Sr  Sr0  1  0.66389366  0.16389366  0.33610634  1.0
  Sr  Sr1  1  0.16389366  0.33610634  0.66389366  1.0
  Sr  Sr2  1  0.33610634  0.66389366  0.16389366  1.0
  Sr  Sr3  1  0.83610634  0.83610634  0.83610634  1.0
  Mg  Mg4  1  0.34696150  0.84696150  0.65303850  1.0
  Mg  Mg5  1  0.84696150  0.65303850  0.34696150  1.0
  Mg  Mg6  1  0.65303850  0.34696150  0.84696150  1.0
  Mg  Mg7  1  0.15303850  0.15303850  0.15303850  1.0
  Ni  Ni8  1  0.93982340  0.43982340  0.06017660  1.0
  Ni  Ni9  1  0.43982340  0.06017660  0.93982340  1.0
  Ni  Ni10  1  0.06017660  0.93982340  0.43982340  1.0
  Ni  Ni11  1  0.56017660  0.56017660  0.56017660  1.0
  H  H12  1  0.07421858  0.57421858  0.92578142  1.0
  H  H13  1  0.57421858  0.92578142  0.07421858  1.0
  H  H14  1  0.92578142  0.07421858  0.57421858  1.0
  H  H15  1  0.42578142  0.42578142  0.42578142  1.0
  H  H16  1  0.45912620  0.58072190  0.76701895  1.0
  H  H17  1  0.95912620  0.91927810  0.23298105  1.0
  H  H18  1  0.08072190  0.73298105  0.54087380  1.0
  H  H19  1  0.58072190  0.76701895  0.45912620  1.0
  H  H20  1  0.23298105  0.95912620  0.91927810  1.0
  H  H21  1  0.73298105  0.54087380  0.08072190  1.0
  H  H22  1  0.54087380  0.08072190  0.73298105  1.0
  H  H23  1  0.04087380  0.41927810  0.26701895  1.0
  H  H24  1  0.91927810  0.23298105  0.95912620  1.0
  H  H25  1  0.41927810  0.26701895  0.04087380  1.0
  H  H26  1  0.76701895  0.45912620  0.58072190  1.0
  H  H27  1  0.26701895  0.04087380  0.41927810  1.0
