# generated using pymatgen
data_B3H12N
_symmetry_space_group_name_H-M   'P 1'
_cell_length_a   5.57490362
_cell_length_b   5.57490362
_cell_length_c   8.49555908
_cell_angle_alpha   90.00000000
_cell_angle_beta   90.00000000
_cell_angle_gamma   102.93470790
_symmetry_Int_Tables_number   1
_chemical_formula_structural   B3H12N
_chemical_formula_sum   'B6 H24 N2'
_cell_volume   257.33839365
_cell_formula_units_Z   2
loop_
 _symmetry_equiv_pos_site_id
 _symmetry_equiv_pos_as_xyz
  1  'x, y, z'
loop_
 _atom_site_type_symbol
 _atom_site_label
 _atom_site_symmetry_multiplicity
 _atom_site_fract_x
 _atom_site_fract_y
 _atom_site_fract_z
 _atom_site_occupancy
  B  B0  1  0.30292291  0.69707709  0.35556583  1.0
  B  B1  1  0.30292291  0.69707709  0.14443417  1.0
  B  B2  1  -0.30292291  1.30292291  0.85556583  1.0
  B  B3  1  -0.30292291  1.30292291  0.64443417  1.0
  B  B4  1  0.12671645  0.87328355  0.25000000  1.0
  B  B5  1  -0.12671645  1.12671645  0.75000000  1.0
  H  H6  1  0.21214718  0.49355208  0.40618320  1.0
  H  H7  1  0.21214718  0.49355208  0.09381680  1.0
  H  H8  1  -0.50644792  1.21214718  0.90618320  1.0
  H  H9  1  -0.50644792  1.21214718  0.59381680  1.0
  H  H10  1  0.50644792  0.78785282  0.40618320  1.0
  H  H11  1  0.50644792  0.78785282  0.09381680  1.0
  H  H12  1  -0.21214718  1.50644792  0.90618320  1.0
  H  H13  1  -0.21214718  1.50644792  0.59381680  1.0
  H  H14  1  -0.09440057  1.80201450  0.25000000  1.0
  H  H15  1  0.80201450  0.90559943  0.75000000  1.0
  H  H16  1  -0.80201450  1.09440057  0.25000000  1.0
  H  H17  1  0.09440057  0.19798550  0.75000000  1.0
  H  H18  1  -0.09342897  1.33701589  0.25000000  1.0
  H  H19  1  0.33701589  0.90657103  0.75000000  1.0
  H  H20  1  -0.33701589  1.09342897  0.25000000  1.0
  H  H21  1  0.09342897  0.66298411  0.75000000  1.0
  H  H22  1  0.16999063  0.83000937  0.41592272  1.0
  H  H23  1  0.16999063  0.83000937  0.08407728  1.0
  H  H24  1  -0.16999063  1.16999063  0.91592272  1.0
  H  H25  1  -0.16999063  1.16999063  0.58407728  1.0
  H  H26  1  -0.35020260  1.35020260  0.35011840  1.0
  H  H27  1  -0.35020260  1.35020260  0.14988160  1.0
  H  H28  1  0.35020260  0.64979740  0.85011840  1.0
  H  H29  1  0.35020260  0.64979740  0.64988160  1.0
  N  N30  1  -0.28323369  1.28323369  0.25000000  1.0
  N  N31  1  0.28323369  0.71676631  0.75000000  1.0
