# generated using pymatgen
data_Na3FePCO7
_symmetry_space_group_name_H-M   'P 1'
_cell_length_a   5.25270649
_cell_length_b   6.63944882
_cell_length_c   9.09134003
_cell_angle_alpha   90.00000000
_cell_angle_beta   91.09015763
_cell_angle_gamma   90.00000000
_symmetry_Int_Tables_number   1
_chemical_formula_structural   Na3FePCO7
_chemical_formula_sum   'Na6 Fe2 P2 C2 O14'
_cell_volume   317.00378409
_cell_formula_units_Z   2
loop_
 _symmetry_equiv_pos_site_id
 _symmetry_equiv_pos_as_xyz
  1  'x, y, z'
loop_
 _atom_site_type_symbol
 _atom_site_label
 _atom_site_symmetry_multiplicity
 _atom_site_fract_x
 _atom_site_fract_y
 _atom_site_fract_z
 _atom_site_occupancy
  Na  Na0  1  0.24832338  0.00227167  0.26660255  1.0
  Na  Na1  1  0.24832338  0.49772833  0.26660255  1.0
  Na  Na2  1  0.75167662  0.50227167  0.73339745  1.0
  Na  Na3  1  0.75167662  0.99772833  0.73339745  1.0
  Na  Na4  1  0.73408737  0.25000000  0.08165861  1.0
  Na  Na5  1  0.26591263  0.75000000  0.91834139  1.0
  Fe  Fe6  1  0.27739692  0.25000000  0.64967675  1.0
  Fe  Fe7  1  0.72260308  0.75000000  0.35032325  1.0
  P  P8  1  0.79457099  0.25000000  0.41429684  1.0
  P  P9  1  0.20542901  0.75000000  0.58570316  1.0
  C  C10  1  0.22315102  0.25000000  0.94190470  1.0
  C  C11  1  0.77684898  0.75000000  0.05809530  1.0
  O  O12  1  0.27972687  0.56172660  0.68224271  1.0
  O  O13  1  0.27972687  0.93827340  0.68224271  1.0
  O  O14  1  0.72027313  0.06172660  0.31775729  1.0
  O  O15  1  0.72027313  0.43827340  0.31775729  1.0
  O  O16  1  0.01792068  0.25000000  0.85940446  1.0
  O  O17  1  0.98207932  0.75000000  0.14059554  1.0
  O  O18  1  0.09006606  0.25000000  0.44135306  1.0
  O  O19  1  0.90993394  0.75000000  0.55864694  1.0
  O  O20  1  0.20877673  0.25000000  0.08362316  1.0
  O  O21  1  0.79122327  0.75000000  0.91637684  1.0
  O  O22  1  0.44390422  0.25000000  0.87889173  1.0
  O  O23  1  0.55609578  0.75000000  0.12110827  1.0
  O  O24  1  0.65505016  0.25000000  0.56287321  1.0
  O  O25  1  0.34494984  0.75000000  0.43712679  1.0
