# generated using pymatgen
data_AlH2PbO2F3
_symmetry_space_group_name_H-M   'P 1'
_cell_length_a   5.05163874
_cell_length_b   6.94745284
_cell_length_c   6.48190754
_cell_angle_alpha   105.05436162
_cell_angle_beta   107.41986017
_cell_angle_gamma   90.62243423
_symmetry_Int_Tables_number   1
_chemical_formula_structural   AlH2PbO2F3
_chemical_formula_sum   'Al2 H4 Pb2 O4 F6'
_cell_volume   208.63458124
_cell_formula_units_Z   2
loop_
 _symmetry_equiv_pos_site_id
 _symmetry_equiv_pos_as_xyz
  1  'x, y, z'
loop_
 _atom_site_type_symbol
 _atom_site_label
 _atom_site_symmetry_multiplicity
 _atom_site_fract_x
 _atom_site_fract_y
 _atom_site_fract_z
 _atom_site_occupancy
  Al  Al0  1  -0.65904570  -0.67261973  -0.68861749  1.0
  Al  Al1  1  -0.34095430  -0.32738027  -0.31138251  1.0
  H  H2  1  -0.77373657  -0.53020952  -0.32342833  1.0
  H  H3  1  -0.22626343  -0.46979048  -0.67657167  1.0
  H  H4  1  -0.22793455  -0.85736664  -0.64686360  1.0
  H  H5  1  -0.77206545  -0.14263336  -0.35313640  1.0
  Pb  Pb6  1  -0.70102627  -0.19367623  -0.80444007  1.0
  Pb  Pb7  1  -0.29897373  -0.80632377  -0.19555993  1.0
  O  O8  1  -0.60559469  -0.55386925  -0.37113873  1.0
  O  O9  1  -0.39440531  -0.44613075  -0.62886127  1.0
  O  O10  1  -0.40011126  -0.85815887  -0.60452020  1.0
  O  O11  1  -0.59988874  -0.14184113  -0.39547980  1.0
  F  F12  1  -0.94242212  -0.51208659  -0.76295387  1.0
  F  F13  1  -0.05757788  -0.48791341  -0.23704613  1.0
  F  F14  1  -0.93134593  -0.86532890  -0.71873808  1.0
  F  F15  1  -0.06865407  -0.13467110  -0.28126192  1.0
  F  F16  1  -0.67441271  -0.76232698  -0.98225702  1.0
  F  F17  1  -0.32558729  -0.23767302  -0.01774298  1.0
