# generated using pymatgen
data_KLi3GeO4
_symmetry_space_group_name_H-M   'P 1'
_cell_length_a   9.99455525
_cell_length_b   7.54028532
_cell_length_c   5.91327900
_cell_angle_alpha   79.83446514
_cell_angle_beta   76.57672117
_cell_angle_gamma   83.75408432
_symmetry_Int_Tables_number   1
_chemical_formula_structural   KLi3GeO4
_chemical_formula_sum   'K4 Li12 Ge4 O16'
_cell_volume   425.58487963
_cell_formula_units_Z   4
loop_
 _symmetry_equiv_pos_site_id
 _symmetry_equiv_pos_as_xyz
  1  'x, y, z'
loop_
 _atom_site_type_symbol
 _atom_site_label
 _atom_site_symmetry_multiplicity
 _atom_site_fract_x
 _atom_site_fract_y
 _atom_site_fract_z
 _atom_site_occupancy
  K  K0  1  -0.37227941  -0.85998285  -0.95879219  1.0
  K  K1  1  -0.62772059  -0.14001715  -0.04120781  1.0
  K  K2  1  -0.11645657  -0.61757485  -0.99667923  1.0
  K  K3  1  -0.88354343  -0.38242515  -0.00332077  1.0
  Li  Li4  1  -0.89597059  -0.94160271  -0.19642831  1.0
  Li  Li5  1  -0.10402941  -0.05839729  -0.80357169  1.0
  Li  Li6  1  -0.87138037  -0.57398212  -0.46451577  1.0
  Li  Li7  1  -0.12861963  -0.42601788  -0.53548423  1.0
  Li  Li8  1  -0.38723925  -0.67687763  -0.52284968  1.0
  Li  Li9  1  -0.61276075  -0.32312237  -0.47715032  1.0
  Li  Li10  1  -0.62475286  -0.95062870  -0.56985282  1.0
  Li  Li11  1  -0.37524714  -0.04937130  -0.43014718  1.0
  Li  Li12  1  -0.85407698  -0.82500079  -0.80471546  1.0
  Li  Li13  1  -0.14592302  -0.17499921  -0.19528454  1.0
  Li  Li14  1  -0.60352876  -0.55023250  -0.81139927  1.0
  Li  Li15  1  -0.39647124  -0.44976750  -0.18860073  1.0
  Ge  Ge16  1  -0.64843635  -0.70572758  -0.16608749  1.0
  Ge  Ge17  1  -0.35156365  -0.29427242  -0.83391251  1.0
  Ge  Ge18  1  -0.86572446  -0.20930630  -0.55734035  1.0
  Ge  Ge19  1  -0.13427554  -0.79069370  -0.44265965  1.0
  O  O20  1  -0.41020003  -0.51459301  -0.80572062  1.0
  O  O21  1  -0.58979997  -0.48540699  -0.19427938  1.0
  O  O22  1  -0.82467897  -0.71098327  -0.18010852  1.0
  O  O23  1  -0.17532103  -0.28901673  -0.81989148  1.0
  O  O24  1  -0.53486493  -0.83748953  -0.36314152  1.0
  O  O25  1  -0.46513507  -0.16251047  -0.63685848  1.0
  O  O26  1  -0.22257593  -0.89726900  -0.60571935  1.0
  O  O27  1  -0.77742407  -0.10273100  -0.39428065  1.0
  O  O28  1  -0.99027026  -0.67422923  -0.61896002  1.0
  O  O29  1  -0.00972974  -0.32577077  -0.38103998  1.0
  O  O30  1  -0.74302526  -0.39073804  -0.65185322  1.0
  O  O31  1  -0.25697474  -0.60926196  -0.34814678  1.0
  O  O32  1  -0.90703493  -0.06554787  -0.80915000  1.0
  O  O33  1  -0.09296507  -0.93445213  -0.19085000  1.0
  O  O34  1  -0.65107323  -0.79455107  -0.86062877  1.0
  O  O35  1  -0.34892677  -0.20544893  -0.13937123  1.0
