# generated using pymatgen
data_Sr(AsRh)2
_symmetry_space_group_name_H-M   'P 1'
_cell_length_a   4.49527121
_cell_length_b   4.49527121
_cell_length_c   10.44098299
_cell_angle_alpha   90.00000000
_cell_angle_beta   90.00000000
_cell_angle_gamma   79.06873134
_symmetry_Int_Tables_number   1
_chemical_formula_structural   Sr(AsRh)2
_chemical_formula_sum   'Sr2 As4 Rh4'
_cell_volume   207.15752151
_cell_formula_units_Z   2
loop_
 _symmetry_equiv_pos_site_id
 _symmetry_equiv_pos_as_xyz
  1  'x, y, z'
loop_
 _atom_site_type_symbol
 _atom_site_label
 _atom_site_symmetry_multiplicity
 _atom_site_fract_x
 _atom_site_fract_y
 _atom_site_fract_z
 _atom_site_occupancy
  Sr  Sr0  1  0.23228844  0.76771156  0.25000000  1.0
  Sr  Sr1  1  -0.23228844  1.23228844  0.75000000  1.0
  As  As2  1  0.29384296  0.70615704  0.90576470  1.0
  As  As3  1  0.29384296  0.70615704  0.59423530  1.0
  As  As4  1  -0.29384296  1.29384296  0.40576470  1.0
  As  As5  1  -0.29384296  1.29384296  0.09423530  1.0
  Rh  Rh6  1  0.78564491  0.78564491  0.50000000  1.0
  Rh  Rh7  1  0.78564491  0.78564491  0.00000000  1.0
  Rh  Rh8  1  0.21435509  0.21435509  0.50000000  1.0
  Rh  Rh9  1  0.21435509  0.21435509  0.00000000  1.0
