# generated using pymatgen
data_Ba3ZnRu2O9
_symmetry_space_group_name_H-M   'P 1'
_cell_length_a   5.83812284
_cell_length_b   5.83812284
_cell_length_c   14.38523065
_cell_angle_alpha   90.00000000
_cell_angle_beta   90.00000000
_cell_angle_gamma   120.00000000
_symmetry_Int_Tables_number   1
_chemical_formula_structural   Ba3ZnRu2O9
_chemical_formula_sum   'Ba6 Zn2 Ru4 O18'
_cell_volume   424.61361805
_cell_formula_units_Z   2
loop_
 _symmetry_equiv_pos_site_id
 _symmetry_equiv_pos_as_xyz
  1  'x, y, z'
loop_
 _atom_site_type_symbol
 _atom_site_label
 _atom_site_symmetry_multiplicity
 _atom_site_fract_x
 _atom_site_fract_y
 _atom_site_fract_z
 _atom_site_occupancy
  Ba  Ba0  1  0.33333333  0.66666667  0.41028971  1.0
  Ba  Ba1  1  0.33333333  0.66666667  0.08971029  1.0
  Ba  Ba2  1  0.66666667  0.33333333  0.91028971  1.0
  Ba  Ba3  1  0.66666667  0.33333333  0.58971029  1.0
  Ba  Ba4  1  0.00000000  0.00000000  0.25000000  1.0
  Ba  Ba5  1  0.00000000  0.00000000  0.75000000  1.0
  Zn  Zn6  1  0.00000000  0.00000000  0.50000000  1.0
  Zn  Zn7  1  0.00000000  0.00000000  0.00000000  1.0
  Ru  Ru8  1  0.33333333  0.66666667  0.84574726  1.0
  Ru  Ru9  1  0.33333333  0.66666667  0.65425274  1.0
  Ru  Ru10  1  0.66666667  0.33333333  0.34574726  1.0
  Ru  Ru11  1  0.66666667  0.33333333  0.15425274  1.0
  O  O12  1  0.17146592  0.82853408  0.91544329  1.0
  O  O13  1  0.17146592  0.82853408  0.58455671  1.0
  O  O14  1  0.17146592  0.34293184  0.91544329  1.0
  O  O15  1  0.17146592  0.34293184  0.58455671  1.0
  O  O16  1  0.82853408  0.17146592  0.41544329  1.0
  O  O17  1  0.82853408  0.17146592  0.08455671  1.0
  O  O18  1  0.82853408  0.65706816  0.41544329  1.0
  O  O19  1  0.82853408  0.65706816  0.08455671  1.0
  O  O20  1  0.65706816  0.82853408  0.91544329  1.0
  O  O21  1  0.65706816  0.82853408  0.58455671  1.0
  O  O22  1  0.34293184  0.17146592  0.41544329  1.0
  O  O23  1  0.34293184  0.17146592  0.08455671  1.0
  O  O24  1  0.51608649  0.48391351  0.25000000  1.0
  O  O25  1  0.51608649  0.03217298  0.25000000  1.0
  O  O26  1  0.48391351  0.51608649  0.75000000  1.0
  O  O27  1  0.48391351  0.96782702  0.75000000  1.0
  O  O28  1  0.96782702  0.48391351  0.25000000  1.0
  O  O29  1  0.03217298  0.51608649  0.75000000  1.0
