# generated using pymatgen
data_CoAs2
_symmetry_space_group_name_H-M   'P 1'
_cell_length_a   5.93997496
_cell_length_b   5.89600970
_cell_length_c   5.99619016
_cell_angle_alpha   90.00000000
_cell_angle_beta   115.94133920
_cell_angle_gamma   90.00000000
_symmetry_Int_Tables_number   1
_chemical_formula_structural   CoAs2
_chemical_formula_sum   'Co4 As8'
_cell_volume   188.84042628
_cell_formula_units_Z   4
loop_
 _symmetry_equiv_pos_site_id
 _symmetry_equiv_pos_as_xyz
  1  'x, y, z'
loop_
 _atom_site_type_symbol
 _atom_site_label
 _atom_site_symmetry_multiplicity
 _atom_site_fract_x
 _atom_site_fract_y
 _atom_site_fract_z
 _atom_site_occupancy
  Co  Co0  1  0.77185082  0.50056388  0.28580320  1.0
  Co  Co1  1  0.77185082  0.99943612  0.78580320  1.0
  Co  Co2  1  0.22814918  0.00056388  0.21419680  1.0
  Co  Co3  1  0.22814918  0.49943612  0.71419680  1.0
  As  As4  1  0.84278934  0.86445431  0.17510447  1.0
  As  As5  1  0.84278934  0.63554569  0.67510447  1.0
  As  As6  1  0.15721066  0.36445431  0.32489553  1.0
  As  As7  1  0.15721066  0.13554569  0.82489553  1.0
  As  As8  1  0.65356095  0.13375346  0.36814314  1.0
  As  As9  1  0.65356095  0.36624654  0.86814314  1.0
  As  As10  1  0.34643905  0.63375346  0.13185686  1.0
  As  As11  1  0.34643905  0.86624654  0.63185686  1.0
