# generated using pymatgen
data_H4C6N8O3
_symmetry_space_group_name_H-M   'P 1'
_cell_length_a   6.71201591
_cell_length_b   6.71201591
_cell_length_c   12.92072668
_cell_angle_alpha   85.87437953
_cell_angle_beta   94.12562047
_cell_angle_gamma   67.04116781
_symmetry_Int_Tables_number   1
_chemical_formula_structural   H4C6N8O3
_chemical_formula_sum   'H8 C12 N16 O6'
_cell_volume   531.41554107
_cell_formula_units_Z   2
loop_
 _symmetry_equiv_pos_site_id
 _symmetry_equiv_pos_as_xyz
  1  'x, y, z'
loop_
 _atom_site_type_symbol
 _atom_site_label
 _atom_site_symmetry_multiplicity
 _atom_site_fract_x
 _atom_site_fract_y
 _atom_site_fract_z
 _atom_site_occupancy
  H  H0  1  1.42884497  0.14828270  0.38642299  1.0
  H  H1  1  0.85171730  -0.42884497  0.88642299  1.0
  H  H2  1  1.14828270  0.42884497  0.11357701  1.0
  H  H3  1  0.57115503  -0.14828270  0.61357701  1.0
  H  H4  1  1.37373473  0.37230933  0.45995120  1.0
  H  H5  1  0.62769067  -0.37373473  0.95995120  1.0
  H  H6  1  1.37230933  0.37373473  0.04004880  1.0
  H  H7  1  0.62626527  -0.37230933  0.54004880  1.0
  C  C8  1  0.82213345  -0.05772045  0.28962341  1.0
  C  C9  1  1.05772045  0.17786655  0.78962341  1.0
  C  C10  1  0.94227955  -0.17786655  0.21037659  1.0
  C  C11  1  1.17786655  0.05772045  0.71037659  1.0
  C  C12  1  1.83871266  0.11249888  0.34807468  1.0
  C  C13  1  0.88750112  -0.83871266  0.84807468  1.0
  C  C14  1  1.11249888  0.83871266  0.15192532  1.0
  C  C15  1  0.16128734  -0.11249888  0.65192532  1.0
  C  C16  1  1.67553268  0.25200906  0.40800056  1.0
  C  C17  1  0.74799094  -0.67553268  0.90800056  1.0
  C  C18  1  1.25200906  0.67553268  0.09199944  1.0
  C  C19  1  0.32446732  -0.25200906  0.59199944  1.0
  N  N20  1  0.84456471  -0.01380112  0.85951837  1.0
  N  N21  1  1.01380112  0.15543529  0.35951837  1.0
  N  N22  1  0.98619888  -0.15543529  0.64048163  1.0
  N  N23  1  1.15543529  0.01380112  0.14048163  1.0
  N  N24  1  0.67425311  -0.13431200  0.31105737  1.0
  N  N25  1  1.13431200  0.32574689  0.81105737  1.0
  N  N26  1  0.86568800  -0.32574689  0.18894263  1.0
  N  N27  1  1.32574689  0.13431200  0.68894263  1.0
  N  N28  1  1.62392096  0.24050532  0.95458171  1.0
  N  N29  1  0.75949468  -0.62392096  0.45458171  1.0
  N  N30  1  1.24050532  0.62392096  0.54541829  1.0
  N  N31  1  0.37607904  -0.24050532  0.04541829  1.0
  N  N32  1  1.47290576  0.26358747  0.41502382  1.0
  N  N33  1  0.73641253  -0.47290576  0.91502382  1.0
  N  N34  1  1.26358747  0.47290576  0.08497618  1.0
  N  N35  1  0.52709424  -0.26358747  0.58497618  1.0
  O  O36  1  1.68430874  0.03110855  0.92355354  1.0
  O  O37  1  0.96889145  -0.68430874  0.42355354  1.0
  O  O38  1  1.03110855  0.68430874  0.57644646  1.0
  O  O39  1  0.31569126  -0.03110855  0.07644646  1.0
  O  O40  1  0.70097212  -0.29902788  0.25000000  1.0
  O  O41  1  1.29902788  0.29902788  0.75000000  1.0
