# generated using pymatgen
data_LiNbF6
_symmetry_space_group_name_H-M   'P 1'
_cell_length_a   5.62547723
_cell_length_b   5.62547723
_cell_length_c   5.62547723
_cell_angle_alpha   59.97570109
_cell_angle_beta   59.97570109
_cell_angle_gamma   59.97570109
_symmetry_Int_Tables_number   1
_chemical_formula_structural   LiNbF6
_chemical_formula_sum   'Li1 Nb1 F6'
_cell_volume   125.81248830
_cell_formula_units_Z   1
loop_
 _symmetry_equiv_pos_site_id
 _symmetry_equiv_pos_as_xyz
  1  'x, y, z'
loop_
 _atom_site_type_symbol
 _atom_site_label
 _atom_site_symmetry_multiplicity
 _atom_site_fract_x
 _atom_site_fract_y
 _atom_site_fract_z
 _atom_site_occupancy
  Li  Li0  1  0.50000000  0.50000000  -0.50000000  1.0
  Nb  Nb1  1  -0.00000000  -0.00000000  0.00000000  1.0
  F  F2  1  0.23771038  0.75873609  -0.75515711  1.0
  F  F3  1  0.75515711  -0.23771038  0.24126391  1.0
  F  F4  1  1.24126391  -0.24484289  -0.23771038  1.0
  F  F5  1  0.76228962  0.24126391  -0.24484289  1.0
  F  F6  1  0.24484289  0.23771038  -0.24126391  1.0
  F  F7  1  0.75873609  0.24484289  -0.76228962  1.0
