# generated using pymatgen
data_AlCuCl4
_symmetry_space_group_name_H-M   'P 1'
_cell_length_a   13.01487365
_cell_length_b   8.27699482
_cell_length_c   6.28781844
_cell_angle_alpha   90.00000000
_cell_angle_beta   90.00000000
_cell_angle_gamma   90.00000000
_symmetry_Int_Tables_number   1
_chemical_formula_structural   AlCuCl4
_chemical_formula_sum   'Al4 Cu4 Cl16'
_cell_volume   677.34921656
_cell_formula_units_Z   4
loop_
 _symmetry_equiv_pos_site_id
 _symmetry_equiv_pos_as_xyz
  1  'x, y, z'
loop_
 _atom_site_type_symbol
 _atom_site_label
 _atom_site_symmetry_multiplicity
 _atom_site_fract_x
 _atom_site_fract_y
 _atom_site_fract_z
 _atom_site_occupancy
  Al  Al0  1  0.40676252  0.22811163  0.37737763  1.0
  Al  Al1  1  0.90676252  0.27188837  0.37737763  1.0
  Al  Al2  1  0.59323748  0.77188837  0.87737763  1.0
  Al  Al3  1  0.09323748  0.72811163  0.87737763  1.0
  Cu  Cu4  1  0.16071183  0.48200196  0.37596845  1.0
  Cu  Cu5  1  0.66071183  0.01799804  0.37596845  1.0
  Cu  Cu6  1  0.83928817  0.51799804  0.87596845  1.0
  Cu  Cu7  1  0.33928817  0.98200196  0.87596845  1.0
  Cl  Cl8  1  0.39752164  0.22241664  0.03233260  1.0
  Cl  Cl9  1  0.89752164  0.27758336  0.03233260  1.0
  Cl  Cl10  1  0.60247836  0.77758336  0.53233260  1.0
  Cl  Cl11  1  0.10247836  0.72241664  0.53233260  1.0
  Cl  Cl12  1  0.33517899  0.01193139  0.50450305  1.0
  Cl  Cl13  1  0.83517899  0.48806861  0.50450305  1.0
  Cl  Cl14  1  0.66482101  0.98806861  1.00450305  1.0
  Cl  Cl15  1  0.16482101  0.51193139  1.00450305  1.0
  Cl  Cl16  1  0.33181824  0.44552569  0.49229367  1.0
  Cl  Cl17  1  0.83181824  0.05447431  0.49229367  1.0
  Cl  Cl18  1  0.66818176  0.55447431  -0.00770633  1.0
  Cl  Cl19  1  0.16818176  0.94552569  -0.00770633  1.0
  Cl  Cl20  1  0.06605953  0.25579948  0.47882460  1.0
  Cl  Cl21  1  0.56605953  0.24420052  0.47882460  1.0
  Cl  Cl22  1  0.93394047  0.74420052  0.97882460  1.0
  Cl  Cl23  1  0.43394047  0.75579948  0.97882460  1.0
