# generated using pymatgen
data_La2InCuSe5
_symmetry_space_group_name_H-M   'P 1'
_cell_length_a   12.27001604
_cell_length_b   4.14116502
_cell_length_c   17.60812088
_cell_angle_alpha   90.00000000
_cell_angle_beta   90.00000000
_cell_angle_gamma   90.00000000
_symmetry_Int_Tables_number   1
_chemical_formula_structural   La2InCuSe5
_chemical_formula_sum   'La8 In4 Cu4 Se20'
_cell_volume   894.70667734
_cell_formula_units_Z   4
loop_
 _symmetry_equiv_pos_site_id
 _symmetry_equiv_pos_as_xyz
  1  'x, y, z'
loop_
 _atom_site_type_symbol
 _atom_site_label
 _atom_site_symmetry_multiplicity
 _atom_site_fract_x
 _atom_site_fract_y
 _atom_site_fract_z
 _atom_site_occupancy
  La  La0  1  0.97819340  0.75000000  0.32186951  1.0
  La  La1  1  0.47819340  0.75000000  0.17813049  1.0
  La  La2  1  0.02180660  0.25000000  0.67813049  1.0
  La  La3  1  0.52180660  0.25000000  0.82186951  1.0
  La  La4  1  0.63760048  0.75000000  0.40629002  1.0
  La  La5  1  0.13760048  0.75000000  0.09370998  1.0
  La  La6  1  0.36239952  0.25000000  0.59370998  1.0
  La  La7  1  0.86239952  0.25000000  0.90629002  1.0
  In  In8  1  0.69032542  0.75000000  0.63842861  1.0
  In  In9  1  0.19032542  0.75000000  0.86157139  1.0
  In  In10  1  0.30967458  0.25000000  0.36157139  1.0
  In  In11  1  0.80967458  0.25000000  0.13842861  1.0
  Cu  Cu12  1  0.57486203  0.75000000  0.00245820  1.0
  Cu  Cu13  1  0.07486203  0.75000000  0.49754180  1.0
  Cu  Cu14  1  0.42513797  0.25000000  0.99754180  1.0
  Cu  Cu15  1  0.92513797  0.25000000  0.50245820  1.0
  Se  Se16  1  0.98336753  0.75000000  0.80520860  1.0
  Se  Se17  1  0.48336753  0.75000000  0.69479140  1.0
  Se  Se18  1  0.01663247  0.25000000  0.19479140  1.0
  Se  Se19  1  0.51663247  0.25000000  0.30520860  1.0
  Se  Se20  1  0.89853816  0.75000000  0.57670080  1.0
  Se  Se21  1  0.39853816  0.75000000  0.92329920  1.0
  Se  Se22  1  0.10146184  0.25000000  0.42329920  1.0
  Se  Se23  1  0.60146184  0.25000000  0.07670080  1.0
  Se  Se24  1  0.89269760  0.75000000  0.03663682  1.0
  Se  Se25  1  0.39269760  0.75000000  0.46336318  1.0
  Se  Se26  1  0.10730240  0.25000000  0.96336318  1.0
  Se  Se27  1  0.60730240  0.25000000  0.53663682  1.0
  Se  Se28  1  0.74108579  0.75000000  0.22869448  1.0
  Se  Se29  1  0.24108579  0.75000000  0.27130552  1.0
  Se  Se30  1  0.25891421  0.25000000  0.77130552  1.0
  Se  Se31  1  0.75891421  0.25000000  0.72869448  1.0
  Se  Se32  1  0.68131286  0.75000000  0.88659348  1.0
  Se  Se33  1  0.18131286  0.75000000  0.61340652  1.0
  Se  Se34  1  0.31868714  0.25000000  0.11340652  1.0
  Se  Se35  1  0.81868714  0.25000000  0.38659348  1.0
