# generated using pymatgen
data_GdSbS2O
_symmetry_space_group_name_H-M   'P 1'
_cell_length_a   3.90456386
_cell_length_b   3.90456386
_cell_length_c   13.97615916
_cell_angle_alpha   90.00000000
_cell_angle_beta   90.00000000
_cell_angle_gamma   90.00000000
_symmetry_Int_Tables_number   1
_chemical_formula_structural   GdSbS2O
_chemical_formula_sum   'Gd2 Sb2 S4 O2'
_cell_volume   213.07519661
_cell_formula_units_Z   2
loop_
 _symmetry_equiv_pos_site_id
 _symmetry_equiv_pos_as_xyz
  1  'x, y, z'
loop_
 _atom_site_type_symbol
 _atom_site_label
 _atom_site_symmetry_multiplicity
 _atom_site_fract_x
 _atom_site_fract_y
 _atom_site_fract_z
 _atom_site_occupancy
  Gd  Gd0  1  0.50000000  0.00000000  0.08506608  1.0
  Gd  Gd1  1  0.00000000  0.50000000  0.91493392  1.0
  Sb  Sb2  1  0.50000000  0.00000000  0.63781361  1.0
  Sb  Sb3  1  0.00000000  0.50000000  0.36218639  1.0
  S  S4  1  0.50000000  0.00000000  0.38451134  1.0
  S  S5  1  0.00000000  0.50000000  0.61548866  1.0
  S  S6  1  0.50000000  0.00000000  0.81163680  1.0
  S  S7  1  0.00000000  0.50000000  0.18836320  1.0
  O  O8  1  0.00000000  0.00000000  0.00000000  1.0
  O  O9  1  0.50000000  0.50000000  0.00000000  1.0
