# generated using pymatgen
data_La2Fe2I
_symmetry_space_group_name_H-M   'P 1'
_cell_length_a   4.06825005
_cell_length_b   4.06825005
_cell_length_c   18.26224563
_cell_angle_alpha   90.00000000
_cell_angle_beta   90.00000000
_cell_angle_gamma   120.00000000
_symmetry_Int_Tables_number   1
_chemical_formula_structural   La2Fe2I
_chemical_formula_sum   'La4 Fe4 I2'
_cell_volume   261.75807569
_cell_formula_units_Z   2
loop_
 _symmetry_equiv_pos_site_id
 _symmetry_equiv_pos_as_xyz
  1  'x, y, z'
loop_
 _atom_site_type_symbol
 _atom_site_label
 _atom_site_symmetry_multiplicity
 _atom_site_fract_x
 _atom_site_fract_y
 _atom_site_fract_z
 _atom_site_occupancy
  La  La0  1  0.00000000  0.00000000  0.39427124  1.0
  La  La1  1  0.00000000  0.00000000  0.10572876  1.0
  La  La2  1  0.00000000  0.00000000  0.89427124  1.0
  La  La3  1  0.00000000  0.00000000  0.60572876  1.0
  Fe  Fe4  1  0.33333333  0.66666667  0.99898295  1.0
  Fe  Fe5  1  0.33333333  0.66666667  0.50101705  1.0
  Fe  Fe6  1  0.66666667  0.33333333  0.49898295  1.0
  Fe  Fe7  1  0.66666667  0.33333333  0.00101705  1.0
  I  I8  1  0.33333333  0.66666667  0.25000000  1.0
  I  I9  1  0.66666667  0.33333333  0.75000000  1.0
