# generated using pymatgen
data_Rb3H5Pt
_symmetry_space_group_name_H-M   'P 1'
_cell_length_a   7.86120534
_cell_length_b   7.86120534
_cell_length_c   6.00712518
_cell_angle_alpha   90.00000000
_cell_angle_beta   90.00000000
_cell_angle_gamma   90.00000000
_symmetry_Int_Tables_number   1
_chemical_formula_structural   Rb3H5Pt
_chemical_formula_sum   'Rb6 H10 Pt2'
_cell_volume   371.23162159
_cell_formula_units_Z   2
loop_
 _symmetry_equiv_pos_site_id
 _symmetry_equiv_pos_as_xyz
  1  'x, y, z'
loop_
 _atom_site_type_symbol
 _atom_site_label
 _atom_site_symmetry_multiplicity
 _atom_site_fract_x
 _atom_site_fract_y
 _atom_site_fract_z
 _atom_site_occupancy
  Rb  Rb0  1  0.31617578  0.18382422  0.50000000  1.0
  Rb  Rb1  1  0.81617578  0.31617578  0.50000000  1.0
  Rb  Rb2  1  0.68382422  0.81617578  0.50000000  1.0
  Rb  Rb3  1  0.18382422  0.68382422  0.50000000  1.0
  Rb  Rb4  1  0.50000000  0.50000000  0.00000000  1.0
  Rb  Rb5  1  0.00000000  0.00000000  0.00000000  1.0
  H  H6  1  0.89330871  0.60669129  0.80669360  1.0
  H  H7  1  0.89330871  0.60669129  0.19330640  1.0
  H  H8  1  0.39330871  0.89330871  0.80669360  1.0
  H  H9  1  0.39330871  0.89330871  0.19330640  1.0
  H  H10  1  0.10669129  0.39330871  0.80669360  1.0
  H  H11  1  0.10669129  0.39330871  0.19330640  1.0
  H  H12  1  0.60669129  0.10669129  0.80669360  1.0
  H  H13  1  0.60669129  0.10669129  0.19330640  1.0
  H  H14  1  0.50000000  0.50000000  0.50000000  1.0
  H  H15  1  0.00000000  0.00000000  0.50000000  1.0
  Pt  Pt16  1  0.50000000  0.00000000  0.00000000  1.0
  Pt  Pt17  1  0.00000000  0.50000000  0.00000000  1.0
