# generated using pymatgen
data_K2TeBr6
_symmetry_space_group_name_H-M   'P 1'
_cell_length_a   7.63041191
_cell_length_b   7.63041191
_cell_length_c   11.30206378
_cell_angle_alpha   90.00000000
_cell_angle_beta   90.00000000
_cell_angle_gamma   90.00000000
_symmetry_Int_Tables_number   1
_chemical_formula_structural   K2TeBr6
_chemical_formula_sum   'K4 Te2 Br12'
_cell_volume   658.04216089
_cell_formula_units_Z   2
loop_
 _symmetry_equiv_pos_site_id
 _symmetry_equiv_pos_as_xyz
  1  'x, y, z'
loop_
 _atom_site_type_symbol
 _atom_site_label
 _atom_site_symmetry_multiplicity
 _atom_site_fract_x
 _atom_site_fract_y
 _atom_site_fract_z
 _atom_site_occupancy
  K  K0  1  0.50000000  0.00000000  0.25000000  1.0
  K  K1  1  0.50000000  0.00000000  0.75000000  1.0
  K  K2  1  0.00000000  0.50000000  0.75000000  1.0
  K  K3  1  0.00000000  0.50000000  0.25000000  1.0
  Te  Te4  1  0.50000000  0.50000000  0.50000000  1.0
  Te  Te5  1  0.00000000  0.00000000  0.00000000  1.0
  Br  Br6  1  0.31154168  0.80632063  0.50000000  1.0
  Br  Br7  1  0.81154168  0.69367937  0.00000000  1.0
  Br  Br8  1  0.19367937  0.31154168  0.50000000  1.0
  Br  Br9  1  0.69367937  0.18845832  0.00000000  1.0
  Br  Br10  1  0.68845832  0.19367937  0.50000000  1.0
  Br  Br11  1  0.18845832  0.30632063  0.00000000  1.0
  Br  Br12  1  0.80632063  0.68845832  0.50000000  1.0
  Br  Br13  1  0.30632063  0.81154168  0.00000000  1.0
  Br  Br14  1  0.50000000  0.50000000  0.25703977  1.0
  Br  Br15  1  0.50000000  0.50000000  0.74296023  1.0
  Br  Br16  1  0.00000000  0.00000000  0.75703977  1.0
  Br  Br17  1  0.00000000  0.00000000  0.24296023  1.0
