# generated using pymatgen
data_Ca2TaGaO6
_symmetry_space_group_name_H-M   'P 1'
_cell_length_a   5.44752875
_cell_length_b   5.57084258
_cell_length_c   9.50118883
_cell_angle_alpha   90.00000000
_cell_angle_beta   125.18162369
_cell_angle_gamma   90.00000000
_symmetry_Int_Tables_number   1
_chemical_formula_structural   Ca2TaGaO6
_chemical_formula_sum   'Ca4 Ta2 Ga2 O12'
_cell_volume   235.66531364
_cell_formula_units_Z   2
loop_
 _symmetry_equiv_pos_site_id
 _symmetry_equiv_pos_as_xyz
  1  'x, y, z'
loop_
 _atom_site_type_symbol
 _atom_site_label
 _atom_site_symmetry_multiplicity
 _atom_site_fract_x
 _atom_site_fract_y
 _atom_site_fract_z
 _atom_site_occupancy
  Ca  Ca0  1  0.74073775  0.04634983  0.25165147  1.0
  Ca  Ca1  1  0.74073775  0.45365017  0.75165147  1.0
  Ca  Ca2  1  0.25926225  0.54634983  0.24834853  1.0
  Ca  Ca3  1  0.25926225  0.95365017  0.74834853  1.0
  Ta  Ta4  1  0.50000000  0.50000000  0.00000000  1.0
  Ta  Ta5  1  0.50000000  0.00000000  0.50000000  1.0
  Ga  Ga6  1  -0.00000000  0.50000000  0.50000000  1.0
  Ga  Ga7  1  0.00000000  0.00000000  0.00000000  1.0
  O  O8  1  0.83621635  0.47467919  0.24930898  1.0
  O  O9  1  0.83621635  0.02532081  0.74930898  1.0
  O  O10  1  0.16378365  0.97467919  0.25069102  1.0
  O  O11  1  0.16378365  0.52532081  0.75069102  1.0
  O  O12  1  0.74945014  0.79427124  0.45591736  1.0
  O  O13  1  0.74945014  0.70572876  0.95591736  1.0
  O  O14  1  0.25054986  0.29427124  0.04408264  1.0
  O  O15  1  0.25054986  0.20572876  0.54408264  1.0
  O  O16  1  0.65745457  0.29109509  0.45320381  1.0
  O  O17  1  0.65745457  0.20890491  0.95320381  1.0
  O  O18  1  0.34254543  0.79109509  0.04679619  1.0
  O  O19  1  0.34254543  0.70890491  0.54679619  1.0
