# generated using pymatgen
data_CaBiCO4F
_symmetry_space_group_name_H-M   'P 1'
_cell_length_a   5.41285554
_cell_length_b   13.81540631
_cell_length_c   5.42006709
_cell_angle_alpha   90.00000000
_cell_angle_beta   90.00000000
_cell_angle_gamma   90.00000000
_symmetry_Int_Tables_number   1
_chemical_formula_structural   CaBiCO4F
_chemical_formula_sum   'Ca4 Bi4 C4 O16 F4'
_cell_volume   405.31694546
_cell_formula_units_Z   4
loop_
 _symmetry_equiv_pos_site_id
 _symmetry_equiv_pos_as_xyz
  1  'x, y, z'
loop_
 _atom_site_type_symbol
 _atom_site_label
 _atom_site_symmetry_multiplicity
 _atom_site_fract_x
 _atom_site_fract_y
 _atom_site_fract_z
 _atom_site_occupancy
  Ca  Ca0  1  0.50000000  0.40102533  0.75000000  1.0
  Ca  Ca1  1  0.50000000  0.59897467  0.25000000  1.0
  Ca  Ca2  1  0.00000000  0.40102533  0.25000000  1.0
  Ca  Ca3  1  0.00000000  0.59897467  0.75000000  1.0
  Bi  Bi4  1  0.50000000  0.09403467  0.75000000  1.0
  Bi  Bi5  1  0.50000000  0.90596533  0.25000000  1.0
  Bi  Bi6  1  0.00000000  0.09403467  0.25000000  1.0
  Bi  Bi7  1  0.00000000  0.90596533  0.75000000  1.0
  C  C8  1  0.50000000  0.74262593  0.75000000  1.0
  C  C9  1  0.50000000  0.25737407  0.25000000  1.0
  C  C10  1  0.00000000  0.74262593  0.25000000  1.0
  C  C11  1  0.00000000  0.25737407  0.75000000  1.0
  O  O12  1  0.35202640  0.69833661  0.89652528  1.0
  O  O13  1  0.35202640  0.30166339  0.39652528  1.0
  O  O14  1  0.85202640  0.69833661  0.10347472  1.0
  O  O15  1  0.85202640  0.30166339  0.60347472  1.0
  O  O16  1  0.64797360  0.69833661  0.60347472  1.0
  O  O17  1  0.64797360  0.30166339  0.10347472  1.0
  O  O18  1  0.14797360  0.69833661  0.39652528  1.0
  O  O19  1  0.14797360  0.30166339  0.89652528  1.0
  O  O20  1  0.25000000  0.00000000  0.50265077  1.0
  O  O21  1  0.25000000  0.00000000  0.00265077  1.0
  O  O22  1  0.75000000  0.00000000  0.49734923  1.0
  O  O23  1  0.75000000  0.00000000  0.99734923  1.0
  O  O24  1  0.50000000  0.83869807  0.75000000  1.0
  O  O25  1  0.50000000  0.16130193  0.25000000  1.0
  O  O26  1  0.00000000  0.83869807  0.25000000  1.0
  O  O27  1  0.00000000  0.16130193  0.75000000  1.0
  F  F28  1  0.25000000  0.50000000  0.51411806  1.0
  F  F29  1  0.25000000  0.50000000  0.01411806  1.0
  F  F30  1  0.75000000  0.50000000  0.48588194  1.0
  F  F31  1  0.75000000  0.50000000  0.98588194  1.0
