# generated using pymatgen
data_BaMo2(PO4)4
_symmetry_space_group_name_H-M   'P 1'
_cell_length_a   6.52265031
_cell_length_b   12.53762115
_cell_length_c   9.39016366
_cell_angle_alpha   90.00000000
_cell_angle_beta   123.29263843
_cell_angle_gamma   90.00000000
_symmetry_Int_Tables_number   1
_chemical_formula_structural   BaMo2(PO4)4
_chemical_formula_sum   'Ba2 Mo4 P8 O32'
_cell_volume   641.88206416
_cell_formula_units_Z   2
loop_
 _symmetry_equiv_pos_site_id
 _symmetry_equiv_pos_as_xyz
  1  'x, y, z'
loop_
 _atom_site_type_symbol
 _atom_site_label
 _atom_site_symmetry_multiplicity
 _atom_site_fract_x
 _atom_site_fract_y
 _atom_site_fract_z
 _atom_site_occupancy
  Ba  Ba0  1  -0.00000000  0.50000000  0.50000000  1.0
  Ba  Ba1  1  0.00000000  0.00000000  0.00000000  1.0
  Mo  Mo2  1  0.46002937  0.31045442  0.16174226  1.0
  Mo  Mo3  1  0.46002937  0.18954558  0.66174226  1.0
  Mo  Mo4  1  0.53997063  0.81045442  0.33825774  1.0
  Mo  Mo5  1  0.53997063  0.68954558  0.83825774  1.0
  P  P6  1  0.87453679  0.30642449  0.06290834  1.0
  P  P7  1  0.87453679  0.19357551  0.56290834  1.0
  P  P8  1  0.12546321  0.80642449  0.43709166  1.0
  P  P9  1  0.12546321  0.69357551  0.93709166  1.0
  P  P10  1  0.65555382  0.05620561  0.25172892  1.0
  P  P11  1  0.65555382  0.44379439  0.75172892  1.0
  P  P12  1  0.34444618  0.55620561  0.24827108  1.0
  P  P13  1  0.34444618  0.94379439  0.74827108  1.0
  O  O14  1  0.84521237  0.79128747  0.33609695  1.0
  O  O15  1  0.84521237  0.70871253  0.83609695  1.0
  O  O16  1  0.15478763  0.29128747  0.16390305  1.0
  O  O17  1  0.15478763  0.20871253  0.66390305  1.0
  O  O18  1  0.81883276  0.03105842  0.19110635  1.0
  O  O19  1  0.81883276  0.46894158  0.69110635  1.0
  O  O20  1  0.18116724  0.53105842  0.30889365  1.0
  O  O21  1  0.18116724  0.96894158  0.80889365  1.0
  O  O22  1  0.81723214  0.08615046  0.45270182  1.0
  O  O23  1  0.81723214  0.41384954  0.95270182  1.0
  O  O24  1  0.18276786  0.58615046  0.04729818  1.0
  O  O25  1  0.18276786  0.91384954  0.54729818  1.0
  O  O26  1  0.80360511  0.32690703  0.19246548  1.0
  O  O27  1  0.80360511  0.17309297  0.69246548  1.0
  O  O28  1  0.19639489  0.82690703  0.30753452  1.0
  O  O29  1  0.19639489  0.67309297  0.80753452  1.0
  O  O30  1  0.73189309  0.28506957  0.43911669  1.0
  O  O31  1  0.73189309  0.21493043  0.93911669  1.0
  O  O32  1  0.26810691  0.78506957  0.06088331  1.0
  O  O33  1  0.26810691  0.71493043  0.56088331  1.0
  O  O34  1  0.50703144  0.46134679  0.25614086  1.0
  O  O35  1  0.50703144  0.03865321  0.75614086  1.0
  O  O36  1  0.49296856  0.96134679  0.24385914  1.0
  O  O37  1  0.49296856  0.53865321  0.74385914  1.0
  O  O38  1  0.46506088  0.14805952  0.15644433  1.0
  O  O39  1  0.46506088  0.35194048  0.65644433  1.0
  O  O40  1  0.53493912  0.64805952  0.34355567  1.0
  O  O41  1  0.53493912  0.85194048  0.84355567  1.0
  O  O42  1  0.32272227  0.15810253  0.45592428  1.0
  O  O43  1  0.32272227  0.34189747  0.95592428  1.0
  O  O44  1  0.67727773  0.65810253  0.04407572  1.0
  O  O45  1  0.67727773  0.84189747  0.54407572  1.0
