# generated using pymatgen
data_NaCoF3
_symmetry_space_group_name_H-M   'P 1'
_cell_length_a   5.40309023
_cell_length_b   5.40309023
_cell_length_c   7.47744063
_cell_angle_alpha   90.00000000
_cell_angle_beta   90.00000000
_cell_angle_gamma   147.23519901
_symmetry_Int_Tables_number   1
_chemical_formula_structural   NaCoF3
_chemical_formula_sum   'Na2 Co2 F6'
_cell_volume   118.13771136
_cell_formula_units_Z   2
loop_
 _symmetry_equiv_pos_site_id
 _symmetry_equiv_pos_as_xyz
  1  'x, y, z'
loop_
 _atom_site_type_symbol
 _atom_site_label
 _atom_site_symmetry_multiplicity
 _atom_site_fract_x
 _atom_site_fract_y
 _atom_site_fract_z
 _atom_site_occupancy
  Na  Na0  1  -0.25359987  0.25359987  0.75000000  1.0
  Na  Na1  1  0.25359987  0.74640013  0.25000000  1.0
  Co  Co2  1  0.00000000  0.00000000  -0.00000000  1.0
  Co  Co3  1  0.00000000  0.00000000  0.50000000  1.0
  F  F4  1  0.36958018  0.63041982  0.94193432  1.0
  F  F5  1  0.36958018  0.63041982  0.55806568  1.0
  F  F6  1  -0.36958018  0.36958018  0.44193432  1.0
  F  F7  1  -0.36958018  0.36958018  0.05806568  1.0
  F  F8  1  0.07460062  0.92539938  0.75000000  1.0
  F  F9  1  -0.07460062  0.07460062  0.25000000  1.0
