# generated using pymatgen
data_CuBr
_symmetry_space_group_name_H-M   'P 1'
_cell_length_a   6.93613939
_cell_length_b   6.93613939
_cell_length_c   6.93613939
_cell_angle_alpha   90.00000000
_cell_angle_beta   90.00000000
_cell_angle_gamma   90.00000000
_symmetry_Int_Tables_number   1
_chemical_formula_structural   CuBr
_chemical_formula_sum   'Cu8 Br8'
_cell_volume   333.69787196
_cell_formula_units_Z   8
loop_
 _symmetry_equiv_pos_site_id
 _symmetry_equiv_pos_as_xyz
  1  'x, y, z'
loop_
 _atom_site_type_symbol
 _atom_site_label
 _atom_site_symmetry_multiplicity
 _atom_site_fract_x
 _atom_site_fract_y
 _atom_site_fract_z
 _atom_site_occupancy
  Cu  Cu0  1  0.38404003  0.88404003  0.61595997  1.0
  Cu  Cu1  1  0.38404003  0.61595997  0.11595997  1.0
  Cu  Cu2  1  0.88404003  0.88404003  0.88404003  1.0
  Cu  Cu3  1  0.88404003  0.61595997  0.38404003  1.0
  Cu  Cu4  1  0.61595997  0.38404003  0.88404003  1.0
  Cu  Cu5  1  0.61595997  0.11595997  0.38404003  1.0
  Cu  Cu6  1  0.11595997  0.38404003  0.61595997  1.0
  Cu  Cu7  1  0.11595997  0.11595997  0.11595997  1.0
  Br  Br8  1  0.16108867  0.66108867  0.83891133  1.0
  Br  Br9  1  0.16108867  0.83891133  0.33891133  1.0
  Br  Br10  1  0.66108867  0.66108867  0.66108867  1.0
  Br  Br11  1  0.66108867  0.83891133  0.16108867  1.0
  Br  Br12  1  0.83891133  0.16108867  0.66108867  1.0
  Br  Br13  1  0.83891133  0.33891133  0.16108867  1.0
  Br  Br14  1  0.33891133  0.16108867  0.83891133  1.0
  Br  Br15  1  0.33891133  0.33891133  0.33891133  1.0
