# generated using pymatgen
data_C4SBr2(NO2)2
_symmetry_space_group_name_H-M   'P 1'
_cell_length_a   8.80847643
_cell_length_b   8.80847643
_cell_length_c   11.37582152
_cell_angle_alpha   52.94620953
_cell_angle_beta   127.05379047
_cell_angle_gamma   127.56811369
_symmetry_Int_Tables_number   1
_chemical_formula_structural   C4SBr2(NO2)2
_chemical_formula_sum   'C8 S2 Br4 N4 O8'
_cell_volume   518.31465087
_cell_formula_units_Z   2
loop_
 _symmetry_equiv_pos_site_id
 _symmetry_equiv_pos_as_xyz
  1  'x, y, z'
loop_
 _atom_site_type_symbol
 _atom_site_label
 _atom_site_symmetry_multiplicity
 _atom_site_fract_x
 _atom_site_fract_y
 _atom_site_fract_z
 _atom_site_occupancy
  C  C0  1  0.97848411  0.83542512  0.89784854  1.0
  C  C1  1  1.83542512  -0.02151589  0.60215146  1.0
  C  C2  1  1.02151589  -0.83542512  0.10215146  1.0
  C  C3  1  0.16457488  0.02151589  0.39784854  1.0
  C  C4  1  0.11162566  0.02973622  0.83498519  1.0
  C  C5  1  1.02973622  -0.88837434  0.66501481  1.0
  C  C6  1  1.88837434  -0.02973622  0.16501481  1.0
  C  C7  1  0.97026378  0.88837434  0.33498519  1.0
  S  S8  1  0.75352078  0.75352078  0.75000000  1.0
  S  S9  1  0.24647922  0.24647922  0.25000000  1.0
  Br  Br10  1  1.02066117  -0.34548085  0.10895741  1.0
  Br  Br11  1  1.65451915  0.02066117  0.39104259  1.0
  Br  Br12  1  0.97933883  0.34548085  0.89104259  1.0
  Br  Br13  1  0.34548085  -0.02066117  0.60895741  1.0
  N  N14  1  0.32181879  0.12637185  0.93089480  1.0
  N  N15  1  1.12637185  -0.67818121  0.56910520  1.0
  N  N16  1  1.67818121  -0.12637185  0.06910520  1.0
  N  N17  1  0.87362815  0.67818121  0.43089480  1.0
  O  O18  1  1.35035802  0.10683751  0.05912654  1.0
  O  O19  1  1.10683751  -0.64964198  0.44087346  1.0
  O  O20  1  0.64964198  -0.10683751  0.94087346  1.0
  O  O21  1  0.89316249  0.64964198  0.55912654  1.0
  O  O22  1  0.45735332  0.21751359  0.87931437  1.0
  O  O23  1  1.21751359  -0.54264668  0.62068563  1.0
  O  O24  1  1.54264668  -0.21751359  0.12068563  1.0
  O  O25  1  0.78248641  0.54264668  0.37931437  1.0
