# generated using pymatgen
data_K2TeO3
_symmetry_space_group_name_H-M   'P 1'
_cell_length_a   6.44262114
_cell_length_b   6.44262114
_cell_length_c   7.18559980
_cell_angle_alpha   90.00000000
_cell_angle_beta   90.00000000
_cell_angle_gamma   120.00000000
_symmetry_Int_Tables_number   1
_chemical_formula_structural   K2TeO3
_chemical_formula_sum   'K4 Te2 O6'
_cell_volume   258.29669200
_cell_formula_units_Z   2
loop_
 _symmetry_equiv_pos_site_id
 _symmetry_equiv_pos_as_xyz
  1  'x, y, z'
loop_
 _atom_site_type_symbol
 _atom_site_label
 _atom_site_symmetry_multiplicity
 _atom_site_fract_x
 _atom_site_fract_y
 _atom_site_fract_z
 _atom_site_occupancy
  K  K0  1  0.33333333  0.66666667  0.12471123  1.0
  K  K1  1  0.66666667  0.33333333  0.87528877  1.0
  K  K2  1  0.00000000  0.00000000  0.50000000  1.0
  K  K3  1  -0.00000000  -0.00000000  -0.00000000  1.0
  Te  Te4  1  0.33333333  0.66666667  0.64463815  1.0
  Te  Te5  1  0.66666667  0.33333333  0.35536185  1.0
  O  O6  1  0.72045123  0.62555382  0.23688682  1.0
  O  O7  1  0.62555382  0.90510260  0.76311318  1.0
  O  O8  1  0.90510260  0.27954877  0.23688682  1.0
  O  O9  1  0.37444618  0.09489740  0.23688682  1.0
  O  O10  1  0.27954877  0.37444618  0.76311318  1.0
  O  O11  1  0.09489740  0.72045123  0.76311318  1.0
