# generated using pymatgen
data_Zr9FeMo4
_symmetry_space_group_name_H-M   'P 1'
_cell_length_a   8.79034610
_cell_length_b   8.79034610
_cell_length_c   8.41068807
_cell_angle_alpha   90.00000000
_cell_angle_beta   90.00000000
_cell_angle_gamma   120.00000000
_symmetry_Int_Tables_number   1
_chemical_formula_structural   Zr9FeMo4
_chemical_formula_sum   'Zr18 Fe2 Mo8'
_cell_volume   562.82594365
_cell_formula_units_Z   2
loop_
 _symmetry_equiv_pos_site_id
 _symmetry_equiv_pos_as_xyz
  1  'x, y, z'
loop_
 _atom_site_type_symbol
 _atom_site_label
 _atom_site_symmetry_multiplicity
 _atom_site_fract_x
 _atom_site_fract_y
 _atom_site_fract_z
 _atom_site_occupancy
  Zr  Zr0  1  0.20180736  0.79819264  0.44164602  1.0
  Zr  Zr1  1  0.20180736  0.79819264  0.05835398  1.0
  Zr  Zr2  1  0.20180736  0.40361472  0.44164602  1.0
  Zr  Zr3  1  0.20180736  0.40361472  0.05835398  1.0
  Zr  Zr4  1  0.79819264  0.20180736  0.94164602  1.0
  Zr  Zr5  1  0.79819264  0.20180736  0.55835398  1.0
  Zr  Zr6  1  0.79819264  0.59638528  0.94164602  1.0
  Zr  Zr7  1  0.79819264  0.59638528  0.55835398  1.0
  Zr  Zr8  1  0.59638528  0.79819264  0.44164602  1.0
  Zr  Zr9  1  0.59638528  0.79819264  0.05835398  1.0
  Zr  Zr10  1  0.40361472  0.20180736  0.94164602  1.0
  Zr  Zr11  1  0.40361472  0.20180736  0.55835398  1.0
  Zr  Zr12  1  0.54213556  0.45786444  0.25000000  1.0
  Zr  Zr13  1  0.54213556  0.08427112  0.25000000  1.0
  Zr  Zr14  1  0.45786444  0.54213556  0.75000000  1.0
  Zr  Zr15  1  0.45786444  0.91572888  0.75000000  1.0
  Zr  Zr16  1  0.91572888  0.45786444  0.25000000  1.0
  Zr  Zr17  1  0.08427112  0.54213556  0.75000000  1.0
  Fe  Fe18  1  0.33333333  0.66666667  0.25000000  1.0
  Fe  Fe19  1  0.66666667  0.33333333  0.75000000  1.0
  Mo  Mo20  1  0.88975075  0.11024925  0.25000000  1.0
  Mo  Mo21  1  0.88975075  0.77950151  0.25000000  1.0
  Mo  Mo22  1  0.11024925  0.88975075  0.75000000  1.0
  Mo  Mo23  1  0.11024925  0.22049849  0.75000000  1.0
  Mo  Mo24  1  0.22049849  0.11024925  0.25000000  1.0
  Mo  Mo25  1  0.77950151  0.88975075  0.75000000  1.0
  Mo  Mo26  1  0.00000000  0.00000000  0.50000000  1.0
  Mo  Mo27  1  0.00000000  0.00000000  0.00000000  1.0
