# generated using pymatgen
data_Cs4Sr(SnSe3)3
_symmetry_space_group_name_H-M   'P 1'
_cell_length_a   9.22706920
_cell_length_b   9.22706920
_cell_length_c   9.22706920
_cell_angle_alpha   107.91923923
_cell_angle_beta   107.91923923
_cell_angle_gamma   107.91923923
_symmetry_Int_Tables_number   1
_chemical_formula_structural   Cs4Sr(SnSe3)3
_chemical_formula_sum   'Cs4 Sr1 Sn3 Se9'
_cell_volume   637.12275757
_cell_formula_units_Z   1
loop_
 _symmetry_equiv_pos_site_id
 _symmetry_equiv_pos_as_xyz
  1  'x, y, z'
loop_
 _atom_site_type_symbol
 _atom_site_label
 _atom_site_symmetry_multiplicity
 _atom_site_fract_x
 _atom_site_fract_y
 _atom_site_fract_z
 _atom_site_occupancy
  Cs  Cs0  1  0.70205645  1.13361113  -0.40848452  1.0
  Cs  Cs1  1  1.13361113  0.59151548  -0.29794355  1.0
  Cs  Cs2  1  0.59151548  0.70205645  0.13361113  1.0
  Cs  Cs3  1  0.45772209  0.45772209  0.45772209  1.0
  Sr  Sr4  1  0.00293197  0.00293197  0.00293197  1.0
  Sn  Sn5  1  1.11468678  -0.01283289  0.53094090  1.0
  Sn  Sn6  1  0.98716711  0.53094090  0.11468678  1.0
  Sn  Sn7  1  1.53094090  0.11468678  -0.01283289  1.0
  Se  Se8  1  1.01087420  0.13801468  -0.63308133  1.0
  Se  Se9  1  1.13801468  -0.63308133  0.01087420  1.0
  Se  Se10  1  0.36691867  0.01087420  0.13801468  1.0
  Se  Se11  1  1.23311386  -0.21865112  0.40106156  1.0
  Se  Se12  1  0.78134888  0.40106156  0.23311386  1.0
  Se  Se13  1  1.40106156  0.23311386  -0.21865112  1.0
  Se  Se14  1  0.89224150  0.83537725  0.60731751  1.0
  Se  Se15  1  0.83537725  1.60731751  -0.10775850  1.0
  Se  Se16  1  1.60731751  0.89224150  -0.16462275  1.0
