# generated using pymatgen
data_Ag7PS6
_symmetry_space_group_name_H-M   'P 1'
_cell_length_a   10.53432647
_cell_length_b   10.53432647
_cell_length_c   10.53432647
_cell_angle_alpha   90.00000000
_cell_angle_beta   90.00000000
_cell_angle_gamma   90.00000000
_symmetry_Int_Tables_number   1
_chemical_formula_structural   Ag7PS6
_chemical_formula_sum   'Ag28 P4 S24'
_cell_volume   1169.01563666
_cell_formula_units_Z   4
loop_
 _symmetry_equiv_pos_site_id
 _symmetry_equiv_pos_as_xyz
  1  'x, y, z'
loop_
 _atom_site_type_symbol
 _atom_site_label
 _atom_site_symmetry_multiplicity
 _atom_site_fract_x
 _atom_site_fract_y
 _atom_site_fract_z
 _atom_site_occupancy
  Ag  Ag0  1  0.27614978  0.50851881  0.98468726  1.0
  Ag  Ag1  1  0.77614978  0.99148119  0.01531274  1.0
  Ag  Ag2  1  0.00851881  0.51531274  0.72385022  1.0
  Ag  Ag3  1  0.50851881  0.98468726  0.27614978  1.0
  Ag  Ag4  1  0.01531274  0.77614978  0.99148119  1.0
  Ag  Ag5  1  0.51531274  0.72385022  0.00851881  1.0
  Ag  Ag6  1  0.72385022  0.00851881  0.51531274  1.0
  Ag  Ag7  1  0.22385022  0.49148119  0.48468726  1.0
  Ag  Ag8  1  0.99148119  0.01531274  0.77614978  1.0
  Ag  Ag9  1  0.49148119  0.48468726  0.22385022  1.0
  Ag  Ag10  1  0.98468726  0.27614978  0.50851881  1.0
  Ag  Ag11  1  0.48468726  0.22385022  0.49148119  1.0
  Ag  Ag12  1  0.42860506  0.60074343  0.76444304  1.0
  Ag  Ag13  1  0.92860506  0.89925657  0.23555696  1.0
  Ag  Ag14  1  0.10074343  0.73555696  0.57139494  1.0
  Ag  Ag15  1  0.60074343  0.76444304  0.42860506  1.0
  Ag  Ag16  1  0.23555696  0.92860506  0.89925657  1.0
  Ag  Ag17  1  0.73555696  0.57139494  0.10074343  1.0
  Ag  Ag18  1  0.57139494  0.10074343  0.73555696  1.0
  Ag  Ag19  1  0.07139494  0.39925657  0.26444304  1.0
  Ag  Ag20  1  0.89925657  0.23555696  0.92860506  1.0
  Ag  Ag21  1  0.39925657  0.26444304  0.07139494  1.0
  Ag  Ag22  1  0.76444304  0.42860506  0.60074343  1.0
  Ag  Ag23  1  0.26444304  0.07139494  0.39925657  1.0
  Ag  Ag24  1  0.35097895  0.85097895  0.64902105  1.0
  Ag  Ag25  1  0.85097895  0.64902105  0.35097895  1.0
  Ag  Ag26  1  0.64902105  0.35097895  0.85097895  1.0
  Ag  Ag27  1  0.14902105  0.14902105  0.14902105  1.0
  P  P28  1  0.74571569  0.24571569  0.25428431  1.0
  P  P29  1  0.24571569  0.25428431  0.74571569  1.0
  P  P30  1  0.25428431  0.74571569  0.24571569  1.0
  P  P31  1  0.75428431  0.75428431  0.75428431  1.0
  S  S32  1  0.36255376  0.37378766  0.64040239  1.0
  S  S33  1  0.86255376  0.12621234  0.35959761  1.0
  S  S34  1  0.87378766  0.85959761  0.63744624  1.0
  S  S35  1  0.37378766  0.64040239  0.36255376  1.0
  S  S36  1  0.35959761  0.86255376  0.12621234  1.0
  S  S37  1  0.85959761  0.63744624  0.87378766  1.0
  S  S38  1  0.63744624  0.87378766  0.85959761  1.0
  S  S39  1  0.13744624  0.62621234  0.14040239  1.0
  S  S40  1  0.12621234  0.35959761  0.86255376  1.0
  S  S41  1  0.62621234  0.14040239  0.13744624  1.0
  S  S42  1  0.64040239  0.36255376  0.37378766  1.0
  S  S43  1  0.14040239  0.13744624  0.62621234  1.0
  S  S44  1  0.48339172  0.98339172  0.51660828  1.0
  S  S45  1  0.98339172  0.51660828  0.48339172  1.0
  S  S46  1  0.51660828  0.48339172  0.98339172  1.0
  S  S47  1  0.01660828  0.01660828  0.01660828  1.0
  S  S48  1  0.21943909  0.71943909  0.78056091  1.0
  S  S49  1  0.71943909  0.78056091  0.21943909  1.0
  S  S50  1  0.78056091  0.21943909  0.71943909  1.0
  S  S51  1  0.28056091  0.28056091  0.28056091  1.0
  S  S52  1  0.86072951  0.36072951  0.13927049  1.0
  S  S53  1  0.36072951  0.13927049  0.86072951  1.0
  S  S54  1  0.13927049  0.86072951  0.36072951  1.0
  S  S55  1  0.63927049  0.63927049  0.63927049  1.0
