# generated using pymatgen
data_Y2MgGe2
_symmetry_space_group_name_H-M   'P 1'
_cell_length_a   7.28429985
_cell_length_b   7.28429985
_cell_length_c   4.24466201
_cell_angle_alpha   90.00000000
_cell_angle_beta   90.00000000
_cell_angle_gamma   90.00000000
_symmetry_Int_Tables_number   1
_chemical_formula_structural   Y2MgGe2
_chemical_formula_sum   'Y4 Mg2 Ge4'
_cell_volume   225.22611440
_cell_formula_units_Z   2
loop_
 _symmetry_equiv_pos_site_id
 _symmetry_equiv_pos_as_xyz
  1  'x, y, z'
loop_
 _atom_site_type_symbol
 _atom_site_label
 _atom_site_symmetry_multiplicity
 _atom_site_fract_x
 _atom_site_fract_y
 _atom_site_fract_z
 _atom_site_occupancy
  Y  Y0  1  0.32259381  0.17740619  0.50000000  1.0
  Y  Y1  1  0.82259381  0.32259381  0.50000000  1.0
  Y  Y2  1  0.67740619  0.82259381  0.50000000  1.0
  Y  Y3  1  0.17740619  0.67740619  0.50000000  1.0
  Mg  Mg4  1  0.50000000  0.50000000  0.00000000  1.0
  Mg  Mg5  1  0.00000000  0.00000000  0.00000000  1.0
  Ge  Ge6  1  0.87637883  0.62362117  0.00000000  1.0
  Ge  Ge7  1  0.37637883  0.87637883  0.00000000  1.0
  Ge  Ge8  1  0.12362117  0.37637883  0.00000000  1.0
  Ge  Ge9  1  0.62362117  0.12362117  0.00000000  1.0
