# generated using pymatgen
data_InPO6
_symmetry_space_group_name_H-M   'P 1'
_cell_length_a   5.36727914
_cell_length_b   10.03892928
_cell_length_c   9.94765769
_cell_angle_alpha   90.00000000
_cell_angle_beta   116.33406764
_cell_angle_gamma   90.00000000
_symmetry_Int_Tables_number   1
_chemical_formula_structural   InPO6
_chemical_formula_sum   'In4 P4 O24'
_cell_volume   480.37280143
_cell_formula_units_Z   4
loop_
 _symmetry_equiv_pos_site_id
 _symmetry_equiv_pos_as_xyz
  1  'x, y, z'
loop_
 _atom_site_type_symbol
 _atom_site_label
 _atom_site_symmetry_multiplicity
 _atom_site_fract_x
 _atom_site_fract_y
 _atom_site_fract_z
 _atom_site_occupancy
  O  O0  1  0.47128715  0.39810798  0.46520280  1.0
  O  O1  1  0.47128715  0.10189202  0.96520280  1.0
  O  O2  1  0.52871285  0.89810798  0.03479720  1.0
  O  O3  1  0.52871285  0.60189202  0.53479720  1.0
  O  O4  1  1.03154011  0.40600596  0.33406547  1.0
  O  O5  1  1.03154011  0.09399404  0.83406547  1.0
  O  O6  1  -0.03154011  0.90600596  0.16593453  1.0
  O  O7  1  -0.03154011  0.59399404  0.66593453  1.0
  O  O8  1  1.00932708  0.13324490  0.26209305  1.0
  O  O9  1  1.00932708  0.36675510  0.76209305  1.0
  O  O10  1  -0.00932708  0.63324490  0.23790695  1.0
  O  O11  1  -0.00932708  0.86675510  0.73790695  1.0
  O  O12  1  0.71368368  -0.00708091  0.34735703  1.0
  O  O13  1  0.71368368  0.50708091  0.84735703  1.0
  O  O14  1  0.28631632  0.49291909  0.15264297  1.0
  O  O15  1  0.28631632  1.00708091  0.65264297  1.0
  O  O16  1  0.50900751  0.20315788  0.18966960  1.0
  O  O17  1  0.50900751  0.29684212  0.68966960  1.0
  O  O18  1  0.49099249  0.70315788  0.31033040  1.0
  O  O19  1  0.49099249  0.79684212  0.81033040  1.0
  O  O20  1  0.86647169  0.22285710  0.45834411  1.0
  O  O21  1  0.86647169  0.27714290  0.95834411  1.0
  O  O22  1  0.13352831  0.72285710  0.04165589  1.0
  O  O23  1  0.13352831  0.77714290  0.54165589  1.0
  In  In24  1  0.84013389  0.79919529  0.31492105  1.0
  In  In25  1  0.84013389  0.70080471  0.81492105  1.0
  In  In26  1  0.15986611  0.29919529  0.18507895  1.0
  In  In27  1  0.15986611  0.20080471  0.68507895  1.0
  P  P28  1  0.77365658  0.13653984  0.31368945  1.0
  P  P29  1  0.77365658  0.36346016  0.81368945  1.0
  P  P30  1  0.22634342  0.63653984  0.18631055  1.0
  P  P31  1  0.22634342  0.86346016  0.68631055  1.0
