# generated using pymatgen
data_Zn3As2(H2O3)4
_symmetry_space_group_name_H-M   'P 1'
_cell_length_a   6.07969776
_cell_length_b   5.53803095
_cell_length_c   7.71262994
_cell_angle_alpha   95.67271458
_cell_angle_beta   93.18198564
_cell_angle_gamma   90.47006739
_symmetry_Int_Tables_number   1
_chemical_formula_structural   Zn3As2(H2O3)4
_chemical_formula_sum   'Zn3 As2 H8 O12'
_cell_volume   257.98619875
_cell_formula_units_Z   1
loop_
 _symmetry_equiv_pos_site_id
 _symmetry_equiv_pos_as_xyz
  1  'x, y, z'
loop_
 _atom_site_type_symbol
 _atom_site_label
 _atom_site_symmetry_multiplicity
 _atom_site_fract_x
 _atom_site_fract_y
 _atom_site_fract_z
 _atom_site_occupancy
  Zn  Zn0  1  0.00000000  -0.50000000  -0.50000000  1.0
  Zn  Zn1  1  -0.24072500  -0.81045925  -0.90055925  1.0
  Zn  Zn2  1  -0.75927500  -0.18954075  -0.09944075  1.0
  As  As3  1  -0.26118673  -0.33536761  -0.12864882  1.0
  As  As4  1  -0.73881327  -0.66463239  -0.87135118  1.0
  H  H5  1  -0.22465930  -0.24830718  -0.72510690  1.0
  H  H6  1  -0.77534070  -0.75169282  -0.27489310  1.0
  H  H7  1  -0.22344061  -0.10185581  -0.53736505  1.0
  H  H8  1  -0.77655939  -0.89814419  -0.46263495  1.0
  H  H9  1  -0.39182305  -0.74750715  -0.53515411  1.0
  H  H10  1  -0.60817695  -0.25249285  -0.46484589  1.0
  H  H11  1  -0.29857573  -0.75763706  -0.33700405  1.0
  H  H12  1  -0.70142427  -0.24236294  -0.66299595  1.0
  O  O13  1  -0.48926548  -0.22371027  -0.23752413  1.0
  O  O14  1  -0.51073452  -0.77628973  -0.76247587  1.0
  O  O15  1  -0.30290549  -0.64188311  -0.10982038  1.0
  O  O16  1  -0.69709451  -0.35811689  -0.89017962  1.0
  O  O17  1  -0.02625562  -0.30895357  -0.25018352  1.0
  O  O18  1  -0.97374438  -0.69104643  -0.74981648  1.0
  O  O19  1  -0.19805882  -0.16641760  -0.92993973  1.0
  O  O20  1  -0.80194118  -0.83358240  -0.07006027  1.0
  O  O21  1  -0.23230795  -0.26803532  -0.59811776  1.0
  O  O22  1  -0.76769205  -0.73196468  -0.40188224  1.0
  O  O23  1  -0.25787137  -0.77519413  -0.46094506  1.0
  O  O24  1  -0.74212863  -0.22480587  -0.53905494  1.0
