# generated using pymatgen
data_BaMg2FeH8
_symmetry_space_group_name_H-M   'P 1'
_cell_length_a   4.55230328
_cell_length_b   4.55230328
_cell_length_c   6.95343377
_cell_angle_alpha   90.00000000
_cell_angle_beta   90.00000000
_cell_angle_gamma   120.00000000
_symmetry_Int_Tables_number   1
_chemical_formula_structural   BaMg2FeH8
_chemical_formula_sum   'Ba1 Mg2 Fe1 H8'
_cell_volume   124.79360431
_cell_formula_units_Z   1
loop_
 _symmetry_equiv_pos_site_id
 _symmetry_equiv_pos_as_xyz
  1  'x, y, z'
loop_
 _atom_site_type_symbol
 _atom_site_label
 _atom_site_symmetry_multiplicity
 _atom_site_fract_x
 _atom_site_fract_y
 _atom_site_fract_z
 _atom_site_occupancy
  Ba  Ba0  1  0.00000000  0.00000000  0.50000000  1.0
  Mg  Mg1  1  0.33333333  0.66666667  0.11171119  1.0
  Mg  Mg2  1  0.66666667  0.33333333  0.88828881  1.0
  Fe  Fe3  1  -0.00000000  0.00000000  0.00000000  1.0
  H  H4  1  0.31972976  0.15986488  0.13594635  1.0
  H  H5  1  0.15986488  0.31972976  0.86405365  1.0
  H  H6  1  0.15986488  0.84013512  0.86405365  1.0
  H  H7  1  0.84013512  0.15986488  0.13594635  1.0
  H  H8  1  0.84013512  0.68027024  0.13594635  1.0
  H  H9  1  0.68027024  0.84013512  0.86405365  1.0
  H  H10  1  0.33333333  0.66666667  0.38825755  1.0
  H  H11  1  0.66666667  0.33333333  0.61174245  1.0
