# generated using pymatgen
data_La(BO2)3
_symmetry_space_group_name_H-M   'P 1'
_cell_length_a   18.66108876
_cell_length_b   4.53188517
_cell_length_c   4.33995736
_cell_angle_alpha   90.00000000
_cell_angle_beta   90.00000000
_cell_angle_gamma   90.00000000
_symmetry_Int_Tables_number   1
_chemical_formula_structural   La(BO2)3
_chemical_formula_sum   'La4 B12 O24'
_cell_volume   367.02980958
_cell_formula_units_Z   4
loop_
 _symmetry_equiv_pos_site_id
 _symmetry_equiv_pos_as_xyz
  1  'x, y, z'
loop_
 _atom_site_type_symbol
 _atom_site_label
 _atom_site_symmetry_multiplicity
 _atom_site_fract_x
 _atom_site_fract_y
 _atom_site_fract_z
 _atom_site_occupancy
  La  La0  1  0.15899302  0.31363802  0.50172209  1.0
  La  La1  1  0.65899302  0.68636198  0.50172209  1.0
  La  La2  1  0.84100698  0.68636198  1.00172209  1.0
  La  La3  1  0.34100698  0.31363802  1.00172209  1.0
  B  B4  1  0.42661219  0.82574691  0.47840456  1.0
  B  B5  1  0.92661219  0.17425309  0.47840456  1.0
  B  B6  1  0.57338781  0.17425309  0.97840456  1.0
  B  B7  1  0.07338781  0.82574691  0.97840456  1.0
  B  B8  1  0.28710911  0.86314572  0.49808480  1.0
  B  B9  1  0.78710911  0.13685428  0.49808480  1.0
  B  B10  1  0.71289089  0.13685428  -0.00191520  1.0
  B  B11  1  0.21289089  0.86314572  -0.00191520  1.0
  B  B12  1  0.00163834  0.67713273  0.45021313  1.0
  B  B13  1  0.50163834  0.32286727  0.45021313  1.0
  B  B14  1  0.99836166  0.32286727  0.95021313  1.0
  B  B15  1  0.49836166  0.67713273  0.95021313  1.0
  O  O16  1  0.48226381  0.62517581  0.30510110  1.0
  O  O17  1  0.98226381  0.37482419  0.30510110  1.0
  O  O18  1  0.51773619  0.37482419  0.80510110  1.0
  O  O19  1  0.01773619  0.62517581  0.80510110  1.0
  O  O20  1  0.35550959  0.74138024  0.37051005  1.0
  O  O21  1  0.85550959  0.25861976  0.37051005  1.0
  O  O22  1  0.64449041  0.25861976  0.87051005  1.0
  O  O23  1  0.14449041  0.74138024  0.87051005  1.0
  O  O24  1  0.22487845  0.75410764  0.31423204  1.0
  O  O25  1  0.72487845  0.24589236  0.31423204  1.0
  O  O26  1  0.77512155  0.24589236  0.81423204  1.0
  O  O27  1  0.27512155  0.75410764  0.81423204  1.0
  O  O28  1  0.06785376  0.76327411  0.30932722  1.0
  O  O29  1  0.56785376  0.23672589  0.30932722  1.0
  O  O30  1  0.93214624  0.23672589  0.80932722  1.0
  O  O31  1  0.43214624  0.76327411  0.80932722  1.0
  O  O32  1  0.94046962  0.86430464  0.40672976  1.0
  O  O33  1  0.44046962  0.13569536  0.40672976  1.0
  O  O34  1  0.05953038  0.13569536  0.90672976  1.0
  O  O35  1  0.55953038  0.86430464  0.90672976  1.0
  O  O36  1  0.79068010  0.81775584  0.49457525  1.0
  O  O37  1  0.29068010  0.18224416  0.49457525  1.0
  O  O38  1  0.20931990  0.18224416  0.99457525  1.0
  O  O39  1  0.70931990  0.81775584  0.99457525  1.0
