# generated using pymatgen
data_Hf2Ir
_symmetry_space_group_name_H-M   'P 1'
_cell_length_a   8.76548241
_cell_length_b   8.76548241
_cell_length_c   8.76548241
_cell_angle_alpha   60.00000000
_cell_angle_beta   60.00000000
_cell_angle_gamma   60.00000000
_symmetry_Int_Tables_number   1
_chemical_formula_structural   Hf2Ir
_chemical_formula_sum   'Hf16 Ir8'
_cell_volume   476.22530665
_cell_formula_units_Z   8
loop_
 _symmetry_equiv_pos_site_id
 _symmetry_equiv_pos_as_xyz
  1  'x, y, z'
loop_
 _atom_site_type_symbol
 _atom_site_label
 _atom_site_symmetry_multiplicity
 _atom_site_fract_x
 _atom_site_fract_y
 _atom_site_fract_z
 _atom_site_occupancy
  Hf  Hf0  1  1.12500000  0.62500000  0.62500000  1.0
  Hf  Hf1  1  0.62500000  1.12500000  -0.37500000  1.0
  Hf  Hf2  1  -0.37500000  0.62500000  1.12500000  1.0
  Hf  Hf3  1  -0.37500000  0.62500000  0.62500000  1.0
  Hf  Hf4  1  0.81288611  0.81288611  -0.81288611  1.0
  Hf  Hf5  1  0.18711389  1.18711389  -0.18711389  1.0
  Hf  Hf6  1  0.81288611  -0.81288611  0.81288611  1.0
  Hf  Hf7  1  0.18711389  -0.18711389  0.18711389  1.0
  Hf  Hf8  1  -0.81288611  0.81288611  0.81288611  1.0
  Hf  Hf9  1  -0.18711389  0.18711389  0.18711389  1.0
  Hf  Hf10  1  0.43711389  1.43711389  0.06288611  1.0
  Hf  Hf11  1  0.06288611  0.06288611  0.43711389  1.0
  Hf  Hf12  1  0.43711389  1.06288611  0.43711389  1.0
  Hf  Hf13  1  0.06288611  1.43711389  0.06288611  1.0
  Hf  Hf14  1  0.06288611  1.43711389  0.43711389  1.0
  Hf  Hf15  1  0.43711389  1.06288611  0.06288611  1.0
  Ir  Ir16  1  -0.20767941  0.40255980  0.40255980  1.0
  Ir  Ir17  1  0.40255980  -0.20767941  0.40255980  1.0
  Ir  Ir18  1  0.40255980  1.40255980  -0.20767941  1.0
  Ir  Ir19  1  0.40255980  1.40255980  0.40255980  1.0
  Ir  Ir20  1  0.45767941  0.84744020  -0.15255980  1.0
  Ir  Ir21  1  0.84744020  0.45767941  0.84744020  1.0
  Ir  Ir22  1  0.84744020  0.84744020  -0.54232059  1.0
  Ir  Ir23  1  0.84744020  0.84744020  0.84744020  1.0
