# generated using pymatgen
data_LuGa2Pd
_symmetry_space_group_name_H-M   'P 1'
_cell_length_a   5.47824371
_cell_length_b   5.47824371
_cell_length_c   6.60185855
_cell_angle_alpha   90.00000000
_cell_angle_beta   90.00000000
_cell_angle_gamma   132.94357978
_symmetry_Int_Tables_number   1
_chemical_formula_structural   LuGa2Pd
_chemical_formula_sum   'Lu2 Ga4 Pd2'
_cell_volume   145.03565473
_cell_formula_units_Z   2
loop_
 _symmetry_equiv_pos_site_id
 _symmetry_equiv_pos_as_xyz
  1  'x, y, z'
loop_
 _atom_site_type_symbol
 _atom_site_label
 _atom_site_symmetry_multiplicity
 _atom_site_fract_x
 _atom_site_fract_y
 _atom_site_fract_z
 _atom_site_occupancy
  Lu  Lu0  1  -0.41404854  0.41404854  0.25000000  1.0
  Lu  Lu1  1  0.41404854  0.58595146  0.75000000  1.0
  Ga  Ga2  1  -0.12764931  0.12764931  0.44800869  1.0
  Ga  Ga3  1  0.12764931  0.87235069  0.55199131  1.0
  Ga  Ga4  1  -0.12764931  0.12764931  0.05199131  1.0
  Ga  Ga5  1  0.12764931  0.87235069  0.94800869  1.0
  Pd  Pd6  1  0.29790907  0.70209093  0.25000000  1.0
  Pd  Pd7  1  -0.29790907  0.29790907  0.75000000  1.0
