# generated using pymatgen
data_RbB3O5
_symmetry_space_group_name_H-M   'P 1'
_cell_length_a   6.95866515
_cell_length_b   8.66553028
_cell_length_c   8.56276261
_cell_angle_alpha   90.00000000
_cell_angle_beta   90.00000000
_cell_angle_gamma   90.00000000
_symmetry_Int_Tables_number   1
_chemical_formula_structural   RbB3O5
_chemical_formula_sum   'Rb4 B12 O20'
_cell_volume   516.33906858
_cell_formula_units_Z   4
loop_
 _symmetry_equiv_pos_site_id
 _symmetry_equiv_pos_as_xyz
  1  'x, y, z'
loop_
 _atom_site_type_symbol
 _atom_site_label
 _atom_site_symmetry_multiplicity
 _atom_site_fract_x
 _atom_site_fract_y
 _atom_site_fract_z
 _atom_site_occupancy
  Rb  Rb0  1  0.33027154  0.84548957  0.09876876  1.0
  Rb  Rb1  1  0.83027154  0.65451043  0.90123124  1.0
  Rb  Rb2  1  0.66972846  0.34548957  0.40123124  1.0
  Rb  Rb3  1  0.16972846  0.15451043  0.59876876  1.0
  B  B4  1  0.79198458  0.88872200  0.51828360  1.0
  B  B5  1  0.29198458  0.61127800  0.48171640  1.0
  B  B6  1  0.20801542  0.38872200  0.98171640  1.0
  B  B7  1  0.70801542  0.11127800  0.01828360  1.0
  B  B8  1  0.38234201  0.77934650  0.69549643  1.0
  B  B9  1  0.88234201  0.72065350  0.30450357  1.0
  B  B10  1  0.61765799  0.27934650  0.80450357  1.0
  B  B11  1  0.11765799  0.22065350  0.19549643  1.0
  B  B12  1  0.39263740  0.49398726  0.73745372  1.0
  B  B13  1  0.89263740  0.00601274  0.26254628  1.0
  B  B14  1  0.60736260  0.99398726  0.76254628  1.0
  B  B15  1  0.10736260  0.50601274  0.23745372  1.0
  O  O16  1  0.25897355  0.39749484  0.82838504  1.0
  O  O17  1  0.75897355  0.10250516  0.17161496  1.0
  O  O18  1  0.74102645  0.89749484  0.67161496  1.0
  O  O19  1  0.24102645  0.60250516  0.32838504  1.0
  O  O20  1  0.41104671  0.92708858  0.74936661  1.0
  O  O21  1  0.91104671  0.57291142  0.25063339  1.0
  O  O22  1  0.58895329  0.42708858  0.75063339  1.0
  O  O23  1  0.08895329  0.07291142  0.24936661  1.0
  O  O24  1  0.40291361  0.65538545  0.79304096  1.0
  O  O25  1  0.90291361  0.84461455  0.20695904  1.0
  O  O26  1  0.59708639  0.15538545  0.70695904  1.0
  O  O27  1  0.09708639  0.34461455  0.29304096  1.0
  O  O28  1  0.31983235  0.76027136  0.54203085  1.0
  O  O29  1  0.81983235  0.73972864  0.45796915  1.0
  O  O30  1  0.68016765  0.26027136  0.95796915  1.0
  O  O31  1  0.18016765  0.23972864  0.04203085  1.0
  O  O32  1  0.32735326  0.48468317  0.57241214  1.0
  O  O33  1  0.82735326  0.01531683  0.42758786  1.0
  O  O34  1  0.67264674  0.98468317  0.92758786  1.0
  O  O35  1  0.17264674  0.51531683  0.07241214  1.0
