# generated using pymatgen
data_CaAl2O4
_symmetry_space_group_name_H-M   'P 1'
_cell_length_a   8.84431305
_cell_length_b   8.84431305
_cell_length_c   8.22147546
_cell_angle_alpha   90.00000000
_cell_angle_beta   90.00000000
_cell_angle_gamma   120.00000000
_symmetry_Int_Tables_number   1
_chemical_formula_structural   CaAl2O4
_chemical_formula_sum   'Ca6 Al12 O24'
_cell_volume   556.94025505
_cell_formula_units_Z   6
loop_
 _symmetry_equiv_pos_site_id
 _symmetry_equiv_pos_as_xyz
  1  'x, y, z'
loop_
 _atom_site_type_symbol
 _atom_site_label
 _atom_site_symmetry_multiplicity
 _atom_site_fract_x
 _atom_site_fract_y
 _atom_site_fract_z
 _atom_site_occupancy
  Ca  Ca0  1  0.33333333  0.66666667  0.02429267  1.0
  Ca  Ca1  1  0.66666667  0.33333333  0.52429267  1.0
  Ca  Ca2  1  0.33333333  0.66666667  0.45568766  1.0
  Ca  Ca3  1  0.66666667  0.33333333  0.95568766  1.0
  Ca  Ca4  1  -0.00000000  -0.00000000  0.04111873  1.0
  Ca  Ca5  1  0.00000000  0.00000000  0.54111873  1.0
  Al  Al6  1  0.31808092  0.97911270  0.32531575  1.0
  Al  Al7  1  0.97911270  0.66103178  0.82531575  1.0
  Al  Al8  1  0.66103178  0.68191908  0.32531575  1.0
  Al  Al9  1  0.02088730  0.33896822  0.32531575  1.0
  Al  Al10  1  0.68191908  0.02088730  0.82531575  1.0
  Al  Al11  1  0.33896822  0.31808092  0.82531575  1.0
  Al  Al12  1  0.97156460  0.65575738  0.21755393  1.0
  Al  Al13  1  0.65575738  0.68419279  0.71755393  1.0
  Al  Al14  1  0.68419279  0.02843540  0.21755393  1.0
  Al  Al15  1  0.34424262  0.31580721  0.21755393  1.0
  Al  Al16  1  0.02843540  0.34424262  0.71755393  1.0
  Al  Al17  1  0.31580721  0.97156460  0.71755393  1.0
  O  O18  1  0.26506674  0.87887353  0.52055415  1.0
  O  O19  1  0.87887353  0.61380680  0.02055415  1.0
  O  O20  1  0.61380680  0.73493326  0.52055415  1.0
  O  O21  1  0.12112647  0.38619320  0.52055415  1.0
  O  O22  1  0.73493326  0.12112647  0.02055415  1.0
  O  O23  1  0.38619320  0.26506674  0.02055415  1.0
  O  O24  1  0.45331071  0.90109137  0.24226799  1.0
  O  O25  1  0.90109137  0.44778066  0.74226799  1.0
  O  O26  1  0.44778066  0.54668929  0.24226799  1.0
  O  O27  1  0.09890863  0.55221934  0.24226799  1.0
  O  O28  1  0.54668929  0.09890863  0.74226799  1.0
  O  O29  1  0.55221934  0.45331071  0.74226799  1.0
  O  O30  1  0.11288004  0.88688948  0.22690176  1.0
  O  O31  1  0.88688948  0.77400945  0.72690176  1.0
  O  O32  1  0.77400945  0.88711996  0.22690176  1.0
  O  O33  1  0.11311052  0.22599055  0.22690176  1.0
  O  O34  1  0.88711996  0.11311052  0.72690176  1.0
  O  O35  1  0.22599055  0.11288004  0.72690176  1.0
  O  O36  1  0.79014413  0.58193371  0.35160674  1.0
  O  O37  1  0.58193371  0.79178958  0.85160674  1.0
  O  O38  1  0.79178958  0.20985587  0.35160674  1.0
  O  O39  1  0.41806629  0.20821042  0.35160674  1.0
  O  O40  1  0.20985587  0.41806629  0.85160674  1.0
  O  O41  1  0.20821042  0.79014413  0.85160674  1.0
