# generated using pymatgen
data_La3AgSnSe7
_symmetry_space_group_name_H-M   'P 1'
_cell_length_a   10.93547853
_cell_length_b   10.93547854
_cell_length_c   6.31537254
_cell_angle_alpha   90.00000000
_cell_angle_beta   90.00000000
_cell_angle_gamma   120.00000000
_symmetry_Int_Tables_number   1
_chemical_formula_structural   La3AgSnSe7
_chemical_formula_sum   'La6 Ag2 Sn2 Se14'
_cell_volume   654.04132690
_cell_formula_units_Z   2
loop_
 _symmetry_equiv_pos_site_id
 _symmetry_equiv_pos_as_xyz
  1  'x, y, z'
loop_
 _atom_site_type_symbol
 _atom_site_label
 _atom_site_symmetry_multiplicity
 _atom_site_fract_x
 _atom_site_fract_y
 _atom_site_fract_z
 _atom_site_occupancy
  La  La0  1  0.22374191  0.86714603  0.06561776  1.0
  La  La1  1  0.86714603  0.64340412  0.56561776  1.0
  La  La2  1  0.64340412  0.77625809  0.06561776  1.0
  La  La3  1  0.13285397  0.35659588  0.06561776  1.0
  La  La4  1  0.77625809  0.13285397  0.56561776  1.0
  La  La5  1  0.35659588  0.22374191  0.56561776  1.0
  Ag  Ag6  1  0.00000000  0.00000000  0.01152199  1.0
  Ag  Ag7  1  0.00000000  0.00000000  0.51152199  1.0
  Sn  Sn8  1  0.33333333  0.66666667  0.64774174  1.0
  Sn  Sn9  1  0.66666667  0.33333333  0.14774174  1.0
  Se  Se10  1  0.89749253  0.73100037  0.04339915  1.0
  Se  Se11  1  0.73100037  0.83350783  0.54339915  1.0
  Se  Se12  1  0.83350783  0.10250747  0.04339915  1.0
  Se  Se13  1  0.26899963  0.16649217  0.04339915  1.0
  Se  Se14  1  0.10250747  0.26899963  0.54339915  1.0
  Se  Se15  1  0.16649217  0.89749253  0.54339915  1.0
  Se  Se16  1  0.57529189  0.48639435  0.31966007  1.0
  Se  Se17  1  0.48639435  0.91110246  0.81966007  1.0
  Se  Se18  1  0.91110246  0.42470811  0.31966007  1.0
  Se  Se19  1  0.51360565  0.08889754  0.31966007  1.0
  Se  Se20  1  0.42470811  0.51360565  0.81966007  1.0
  Se  Se21  1  0.08889754  0.57529189  0.81966007  1.0
  Se  Se22  1  0.33333333  0.66666667  0.24780534  1.0
  Se  Se23  1  0.66666667  0.33333333  0.74780534  1.0
