# generated using pymatgen
data_Gd12Ni5Pb
_symmetry_space_group_name_H-M   'P 1'
_cell_length_a   8.45062747
_cell_length_b   8.45062747
_cell_length_c   8.45062747
_cell_angle_alpha   111.98904735
_cell_angle_beta   109.87912944
_cell_angle_gamma   106.59074918
_symmetry_Int_Tables_number   1
_chemical_formula_structural   Gd12Ni5Pb
_chemical_formula_sum   'Gd12 Ni5 Pb1'
_cell_volume   463.52240876
_cell_formula_units_Z   1
loop_
 _symmetry_equiv_pos_site_id
 _symmetry_equiv_pos_as_xyz
  1  'x, y, z'
loop_
 _atom_site_type_symbol
 _atom_site_label
 _atom_site_symmetry_multiplicity
 _atom_site_fract_x
 _atom_site_fract_y
 _atom_site_fract_z
 _atom_site_occupancy
  Gd  Gd0  1  0.81904200  0.70378312  0.52282511  1.0
  Gd  Gd1  1  0.18095800  0.70378312  0.88474112  1.0
  Gd  Gd2  1  0.81904200  1.29621688  1.11525888  1.0
  Gd  Gd3  1  0.18095800  0.29621688  0.47717489  1.0
  Gd  Gd4  1  0.67824375  0.37080613  0.69256239  1.0
  Gd  Gd5  1  1.32175625  1.01431864  0.69256239  1.0
  Gd  Gd6  1  0.67824375  0.98568136  0.30743761  1.0
  Gd  Gd7  1  0.32175625  0.62919387  0.30743761  1.0
  Gd  Gd8  1  0.60154570  0.79226826  0.80927744  1.0
  Gd  Gd9  1  1.01700917  1.20773174  0.80927744  1.0
  Gd  Gd10  1  0.98299083  0.79226826  0.19072256  1.0
  Gd  Gd11  1  0.39845430  0.20773174  0.19072256  1.0
  Ni  Ni12  1  0.87696779  1.37696779  0.50000000  1.0
  Ni  Ni13  1  1.12303221  0.62303221  0.50000000  1.0
  Ni  Ni14  1  0.63456540  -0.00000000  0.63456540  1.0
  Ni  Ni15  1  0.36543460  -0.00000000  0.36543460  1.0
  Ni  Ni16  1  -0.00000000  -0.00000000  0.00000000  1.0
  Pb  Pb17  1  0.50000000  0.50000000  -0.00000000  1.0
