# generated using pymatgen
data_Li13Si4
_symmetry_space_group_name_H-M   'P 1'
_cell_length_a   7.90119643
_cell_length_b   15.07625195
_cell_length_c   4.42222091
_cell_angle_alpha   90.00000000
_cell_angle_beta   90.00000000
_cell_angle_gamma   90.00000000
_symmetry_Int_Tables_number   1
_chemical_formula_structural   Li13Si4
_chemical_formula_sum   'Li26 Si8'
_cell_volume   526.77684860
_cell_formula_units_Z   2
loop_
 _symmetry_equiv_pos_site_id
 _symmetry_equiv_pos_as_xyz
  1  'x, y, z'
loop_
 _atom_site_type_symbol
 _atom_site_label
 _atom_site_symmetry_multiplicity
 _atom_site_fract_x
 _atom_site_fract_y
 _atom_site_fract_z
 _atom_site_occupancy
  Li  Li0  1  0.40618821  0.75542955  0.50000000  1.0
  Li  Li1  1  0.90618821  0.74457045  0.50000000  1.0
  Li  Li2  1  0.59381179  0.24457045  0.50000000  1.0
  Li  Li3  1  0.09381179  0.25542955  0.50000000  1.0
  Li  Li4  1  0.25902428  0.59468801  0.50000000  1.0
  Li  Li5  1  0.75902428  0.90531199  0.50000000  1.0
  Li  Li6  1  0.74097572  0.40531199  0.50000000  1.0
  Li  Li7  1  0.24097572  0.09468801  0.50000000  1.0
  Li  Li8  1  0.09497155  0.89316768  0.50000000  1.0
  Li  Li9  1  0.59497155  0.60683232  0.50000000  1.0
  Li  Li10  1  0.90502845  0.10683232  0.50000000  1.0
  Li  Li11  1  0.40502845  0.39316768  0.50000000  1.0
  Li  Li12  1  0.27128300  0.84825742  0.00000000  1.0
  Li  Li13  1  0.77128300  0.65174258  0.00000000  1.0
  Li  Li14  1  0.72871700  0.15174258  0.00000000  1.0
  Li  Li15  1  0.22871700  0.34825742  0.00000000  1.0
  Li  Li16  1  0.15096219  0.52702329  0.00000000  1.0
  Li  Li17  1  0.65096219  0.97297671  0.00000000  1.0
  Li  Li18  1  0.84903781  0.47297671  0.00000000  1.0
  Li  Li19  1  0.34903781  0.02702329  0.00000000  1.0
  Li  Li20  1  0.09680046  0.69580492  0.00000000  1.0
  Li  Li21  1  0.59680046  0.80419508  0.00000000  1.0
  Li  Li22  1  0.90319954  0.30419508  0.00000000  1.0
  Li  Li23  1  0.40319954  0.19580492  0.00000000  1.0
  Li  Li24  1  0.50000000  0.50000000  0.00000000  1.0
  Li  Li25  1  0.00000000  0.00000000  0.00000000  1.0
  Si  Si26  1  0.42636583  0.93118078  0.50000000  1.0
  Si  Si27  1  0.92636583  0.56881922  0.50000000  1.0
  Si  Si28  1  0.57363417  0.06881922  0.50000000  1.0
  Si  Si29  1  0.07363417  0.43118078  0.50000000  1.0
  Si  Si30  1  0.41696667  0.65979788  0.00000000  1.0
  Si  Si31  1  0.91696667  0.84020212  0.00000000  1.0
  Si  Si32  1  0.58303333  0.34020212  0.00000000  1.0
  Si  Si33  1  0.08303333  0.15979788  0.00000000  1.0
