# generated using pymatgen
data_H3SO4F
_symmetry_space_group_name_H-M   'P 1'
_cell_length_a   9.45237042
_cell_length_b   6.62720855
_cell_length_c   7.82313725
_cell_angle_alpha   90.00000000
_cell_angle_beta   90.00000000
_cell_angle_gamma   90.00000000
_symmetry_Int_Tables_number   1
_chemical_formula_structural   H3SO4F
_chemical_formula_sum   'H12 S4 O16 F4'
_cell_volume   490.06345762
_cell_formula_units_Z   4
loop_
 _symmetry_equiv_pos_site_id
 _symmetry_equiv_pos_as_xyz
  1  'x, y, z'
loop_
 _atom_site_type_symbol
 _atom_site_label
 _atom_site_symmetry_multiplicity
 _atom_site_fract_x
 _atom_site_fract_y
 _atom_site_fract_z
 _atom_site_occupancy
  H  H0  1  0.38148821  0.87716275  0.18362470  1.0
  H  H1  1  0.38148821  0.62283725  0.18362470  1.0
  H  H2  1  0.88148821  0.87716275  0.31637530  1.0
  H  H3  1  0.88148821  0.62283725  0.31637530  1.0
  H  H4  1  0.61851179  0.37716275  0.81637530  1.0
  H  H5  1  0.61851179  0.12283725  0.81637530  1.0
  H  H6  1  0.11851179  0.37716275  0.68362470  1.0
  H  H7  1  0.11851179  0.12283725  0.68362470  1.0
  H  H8  1  0.27204088  0.75000000  0.05463060  1.0
  H  H9  1  0.77204088  0.75000000  0.44536940  1.0
  H  H10  1  0.72795912  0.25000000  0.94536940  1.0
  H  H11  1  0.22795912  0.25000000  0.55463060  1.0
  S  S12  1  0.56115541  0.75000000  0.70745427  1.0
  S  S13  1  1.06115541  0.75000000  0.79254573  1.0
  S  S14  1  0.43884459  0.25000000  0.29254573  1.0
  S  S15  1  -0.06115541  0.25000000  0.20745427  1.0
  O  O16  1  0.52465482  0.93435332  0.80004662  1.0
  O  O17  1  0.52465482  0.56564668  0.80004662  1.0
  O  O18  1  1.02465482  0.93435332  0.69995338  1.0
  O  O19  1  1.02465482  0.56564668  0.69995338  1.0
  O  O20  1  0.47534518  0.43435332  0.19995338  1.0
  O  O21  1  0.47534518  0.06564668  0.19995338  1.0
  O  O22  1  -0.02465482  0.43435332  0.30004662  1.0
  O  O23  1  -0.02465482  0.06564668  0.30004662  1.0
  O  O24  1  0.32050952  0.75000000  0.17029676  1.0
  O  O25  1  0.82050952  0.75000000  0.32970324  1.0
  O  O26  1  0.67949048  0.25000000  0.82970324  1.0
  O  O27  1  0.17949048  0.25000000  0.67029676  1.0
  O  O28  1  0.20021765  0.75000000  0.87310755  1.0
  O  O29  1  0.70021765  0.75000000  0.62689245  1.0
  O  O30  1  0.79978235  0.25000000  0.12689245  1.0
  O  O31  1  0.29978235  0.25000000  0.37310755  1.0
  F  F32  1  0.45155054  0.75000000  0.54893774  1.0
  F  F33  1  0.95155054  0.75000000  0.95106226  1.0
  F  F34  1  0.54844946  0.25000000  0.45106226  1.0
  F  F35  1  0.04844946  0.25000000  0.04893774  1.0
