# generated using pymatgen
data_MoN
_symmetry_space_group_name_H-M   'P 1'
_cell_length_a   5.74560011
_cell_length_b   5.74560011
_cell_length_c   5.65721013
_cell_angle_alpha   90.00000000
_cell_angle_beta   90.00000000
_cell_angle_gamma   120.00000000
_symmetry_Int_Tables_number   1
_chemical_formula_structural   MoN
_chemical_formula_sum   'Mo8 N8'
_cell_volume   161.73489622
_cell_formula_units_Z   8
loop_
 _symmetry_equiv_pos_site_id
 _symmetry_equiv_pos_as_xyz
  1  'x, y, z'
loop_
 _atom_site_type_symbol
 _atom_site_label
 _atom_site_symmetry_multiplicity
 _atom_site_fract_x
 _atom_site_fract_y
 _atom_site_fract_z
 _atom_site_occupancy
  Mo  Mo0  1  0.02316365  0.51158182  0.99766558  1.0
  Mo  Mo1  1  0.51158182  0.02316365  0.49766558  1.0
  Mo  Mo2  1  0.51158182  0.48841818  0.49766558  1.0
  Mo  Mo3  1  0.48841818  0.51158182  0.99766558  1.0
  Mo  Mo4  1  0.48841818  0.97683635  0.99766558  1.0
  Mo  Mo5  1  0.97683635  0.48841818  0.49766558  1.0
  Mo  Mo6  1  0.00000000  0.00000000  0.00596064  1.0
  Mo  Mo7  1  0.00000000  0.00000000  0.50596064  1.0
  N  N8  1  0.33304292  0.16652146  0.24307866  1.0
  N  N9  1  0.16652146  0.33304292  0.74307866  1.0
  N  N10  1  0.16652146  0.83347854  0.74307866  1.0
  N  N11  1  0.83347854  0.16652146  0.24307866  1.0
  N  N12  1  0.83347854  0.66695708  0.24307866  1.0
  N  N13  1  0.66695708  0.83347854  0.74307866  1.0
  N  N14  1  0.33333333  0.66666667  0.26900665  1.0
  N  N15  1  0.66666667  0.33333333  0.76900665  1.0
