# generated using pymatgen
data_Sr5Sb3
_symmetry_space_group_name_H-M   'P 1'
_cell_length_a   9.59116121
_cell_length_b   9.59116121
_cell_length_c   7.47459150
_cell_angle_alpha   90.00000000
_cell_angle_beta   90.00000000
_cell_angle_gamma   120.00000000
_symmetry_Int_Tables_number   1
_chemical_formula_structural   Sr5Sb3
_chemical_formula_sum   'Sr10 Sb6'
_cell_volume   595.47080861
_cell_formula_units_Z   2
loop_
 _symmetry_equiv_pos_site_id
 _symmetry_equiv_pos_as_xyz
  1  'x, y, z'
loop_
 _atom_site_type_symbol
 _atom_site_label
 _atom_site_symmetry_multiplicity
 _atom_site_fract_x
 _atom_site_fract_y
 _atom_site_fract_z
 _atom_site_occupancy
  Sr  Sr0  1  0.74485870  0.74485870  0.25000000  1.0
  Sr  Sr1  1  0.74485870  0.00000000  0.75000000  1.0
  Sr  Sr2  1  0.00000000  0.74485870  0.75000000  1.0
  Sr  Sr3  1  0.00000000  0.25514130  0.25000000  1.0
  Sr  Sr4  1  0.25514130  0.25514130  0.75000000  1.0
  Sr  Sr5  1  0.25514130  0.00000000  0.25000000  1.0
  Sr  Sr6  1  0.33333333  0.66666667  0.50000000  1.0
  Sr  Sr7  1  0.33333333  0.66666667  0.00000000  1.0
  Sr  Sr8  1  0.66666667  0.33333333  0.50000000  1.0
  Sr  Sr9  1  0.66666667  0.33333333  0.00000000  1.0
  Sb  Sb10  1  0.39024294  0.39024294  0.25000000  1.0
  Sb  Sb11  1  0.39024294  0.00000000  0.75000000  1.0
  Sb  Sb12  1  0.00000000  0.39024294  0.75000000  1.0
  Sb  Sb13  1  -0.00000000  0.60975706  0.25000000  1.0
  Sb  Sb14  1  0.60975706  0.60975706  0.75000000  1.0
  Sb  Sb15  1  0.60975706  0.00000000  0.25000000  1.0
