# generated using pymatgen
data_C3(SeCl2)2
_symmetry_space_group_name_H-M   'P 1'
_cell_length_a   5.97852829
_cell_length_b   8.70098515
_cell_length_c   9.58192703
_cell_angle_alpha   90.00000000
_cell_angle_beta   96.77997495
_cell_angle_gamma   90.00000000
_symmetry_Int_Tables_number   1
_chemical_formula_structural   C3(SeCl2)2
_chemical_formula_sum   'C6 Se4 Cl8'
_cell_volume   494.95738827
_cell_formula_units_Z   2
loop_
 _symmetry_equiv_pos_site_id
 _symmetry_equiv_pos_as_xyz
  1  'x, y, z'
loop_
 _atom_site_type_symbol
 _atom_site_label
 _atom_site_symmetry_multiplicity
 _atom_site_fract_x
 _atom_site_fract_y
 _atom_site_fract_z
 _atom_site_occupancy
  C  C0  1  0.49813328  0.38848860  0.74864666  1.0
  C  C1  1  0.49813328  0.11151140  0.74864666  1.0
  C  C2  1  0.50186672  0.88848860  0.25135334  1.0
  C  C3  1  0.50186672  0.61151140  0.25135334  1.0
  C  C4  1  0.59375409  0.25000000  0.80036973  1.0
  C  C5  1  0.40624591  0.75000000  0.19963027  1.0
  Se  Se6  1  0.24091987  0.38567647  0.61652180  1.0
  Se  Se7  1  0.24091987  0.11432353  0.61652180  1.0
  Se  Se8  1  0.75908013  0.88567647  0.38347820  1.0
  Se  Se9  1  0.75908013  0.61432353  0.38347820  1.0
  Cl  Cl10  1  0.61199158  0.94008983  0.80241030  1.0
  Cl  Cl11  1  0.61199158  0.55991017  0.80241030  1.0
  Cl  Cl12  1  0.38800842  0.44008983  0.19758970  1.0
  Cl  Cl13  1  0.38800842  0.05991017  0.19758970  1.0
  Cl  Cl14  1  0.82604924  0.25000000  0.92596892  1.0
  Cl  Cl15  1  0.17395076  0.75000000  0.07403108  1.0
  Cl  Cl16  1  0.84128794  0.25000000  0.42701461  1.0
  Cl  Cl17  1  0.15871206  0.75000000  0.57298539  1.0
