# generated using pymatgen
data_Na2NdGeO5
_symmetry_space_group_name_H-M   'P 1'
_cell_length_a   9.53753248
_cell_length_b   7.42785676
_cell_length_c   6.82938327
_cell_angle_alpha   90.00000000
_cell_angle_beta   90.00000000
_cell_angle_gamma   90.00000000
_symmetry_Int_Tables_number   1
_chemical_formula_structural   Na2NdGeO5
_chemical_formula_sum   'Na8 Nd4 Ge4 O20'
_cell_volume   483.81690240
_cell_formula_units_Z   4
loop_
 _symmetry_equiv_pos_site_id
 _symmetry_equiv_pos_as_xyz
  1  'x, y, z'
loop_
 _atom_site_type_symbol
 _atom_site_label
 _atom_site_symmetry_multiplicity
 _atom_site_fract_x
 _atom_site_fract_y
 _atom_site_fract_z
 _atom_site_occupancy
  Na  Na0  1  0.68871446  0.96565972  0.38235956  1.0
  Na  Na1  1  0.68871446  0.53434028  0.38235956  1.0
  Na  Na2  1  0.18871446  0.96565972  0.11764044  1.0
  Na  Na3  1  0.18871446  0.53434028  0.11764044  1.0
  Na  Na4  1  0.31128554  0.46565972  0.61764044  1.0
  Na  Na5  1  0.31128554  0.03434028  0.61764044  1.0
  Na  Na6  1  0.81128554  0.46565972  0.88235956  1.0
  Na  Na7  1  0.81128554  0.03434028  0.88235956  1.0
  Nd  Nd8  1  0.97574418  0.25000000  0.38525723  1.0
  Nd  Nd9  1  0.47574418  0.25000000  0.11474277  1.0
  Nd  Nd10  1  0.02425582  0.75000000  0.61474277  1.0
  Nd  Nd11  1  0.52425582  0.75000000  0.88525723  1.0
  Ge  Ge12  1  0.58868568  0.25000000  0.66335110  1.0
  Ge  Ge13  1  0.08868568  0.25000000  0.83664890  1.0
  Ge  Ge14  1  0.41131432  0.75000000  0.33664890  1.0
  Ge  Ge15  1  0.91131432  0.75000000  0.16335110  1.0
  O  O16  1  0.96622179  0.25000000  0.02773382  1.0
  O  O17  1  0.46622179  0.25000000  0.47226618  1.0
  O  O18  1  0.03377821  0.75000000  0.97226618  1.0
  O  O19  1  0.53377821  0.75000000  0.52773382  1.0
  O  O20  1  0.76841961  0.25000000  0.59008757  1.0
  O  O21  1  0.26841961  0.25000000  0.90991243  1.0
  O  O22  1  0.23158039  0.75000000  0.40991243  1.0
  O  O23  1  0.73158039  0.75000000  0.09008757  1.0
  O  O24  1  0.67825928  0.25000000  0.17541312  1.0
  O  O25  1  0.17825928  0.25000000  0.32458688  1.0
  O  O26  1  0.32174072  0.75000000  0.82458688  1.0
  O  O27  1  0.82174072  0.75000000  0.67541312  1.0
  O  O28  1  0.93993434  0.93691769  0.32334191  1.0
  O  O29  1  0.93993434  0.56308231  0.32334191  1.0
  O  O30  1  0.43993434  0.93691769  0.17665809  1.0
  O  O31  1  0.43993434  0.56308231  0.17665809  1.0
  O  O32  1  0.06006566  0.43691769  0.67665809  1.0
  O  O33  1  0.06006566  0.06308231  0.67665809  1.0
  O  O34  1  0.56006566  0.43691769  0.82334191  1.0
  O  O35  1  0.56006566  0.06308231  0.82334191  1.0
