# generated using pymatgen
data_P3Pb5O13
_symmetry_space_group_name_H-M   'P 1'
_cell_length_a   9.97371970
_cell_length_b   9.97371970
_cell_length_c   7.47839696
_cell_angle_alpha   90.00000000
_cell_angle_beta   90.00000000
_cell_angle_gamma   120.00000000
_symmetry_Int_Tables_number   1
_chemical_formula_structural   P3Pb5O13
_chemical_formula_sum   'P6 Pb10 O26'
_cell_volume   644.24857095
_cell_formula_units_Z   2
loop_
 _symmetry_equiv_pos_site_id
 _symmetry_equiv_pos_as_xyz
  1  'x, y, z'
loop_
 _atom_site_type_symbol
 _atom_site_label
 _atom_site_symmetry_multiplicity
 _atom_site_fract_x
 _atom_site_fract_y
 _atom_site_fract_z
 _atom_site_occupancy
  O  O0  1  0.73911834  0.65385951  0.41797104  1.0
  O  O1  1  0.73911834  0.65385951  0.08202896  1.0
  O  O2  1  0.65385951  0.91474116  0.91797104  1.0
  O  O3  1  0.65385951  0.91474116  0.58202896  1.0
  O  O4  1  0.91474116  0.26088166  0.41797104  1.0
  O  O5  1  0.91474116  0.26088166  0.08202896  1.0
  O  O6  1  0.34614049  0.08525884  0.41797104  1.0
  O  O7  1  0.34614049  0.08525884  0.08202896  1.0
  O  O8  1  0.26088166  0.34614049  0.91797104  1.0
  O  O9  1  0.26088166  0.34614049  0.58202896  1.0
  O  O10  1  0.08525884  0.73911834  0.91797104  1.0
  O  O11  1  0.08525884  0.73911834  0.58202896  1.0
  O  O12  1  0.33233952  0.85207471  0.25000000  1.0
  O  O13  1  0.85207471  0.51973519  0.75000000  1.0
  O  O14  1  0.51973519  0.66766048  0.25000000  1.0
  O  O15  1  0.14792529  0.48026481  0.25000000  1.0
  O  O16  1  0.66766048  0.14792529  0.75000000  1.0
  O  O17  1  0.48026481  0.33233952  0.75000000  1.0
  O  O18  1  0.53511589  0.41754928  0.25000000  1.0
  O  O19  1  0.41754928  0.88243339  0.75000000  1.0
  O  O20  1  0.88243339  0.46488411  0.25000000  1.0
  O  O21  1  0.58245072  0.11756661  0.25000000  1.0
  O  O22  1  0.46488411  0.58245072  0.75000000  1.0
  O  O23  1  0.11756661  0.53511589  0.75000000  1.0
  O  O24  1  0.00000000  0.00000000  0.25000000  1.0
  O  O25  1  0.00000000  0.00000000  0.75000000  1.0
  Pb  Pb26  1  -0.00315726  0.76371409  0.25000000  1.0
  Pb  Pb27  1  0.76371409  0.76687135  0.75000000  1.0
  Pb  Pb28  1  0.76687135  1.00315726  0.25000000  1.0
  Pb  Pb29  1  0.23628591  0.23312865  0.25000000  1.0
  Pb  Pb30  1  1.00315726  0.23628591  0.75000000  1.0
  Pb  Pb31  1  0.23312865  -0.00315726  0.75000000  1.0
  Pb  Pb32  1  0.33333333  0.66666667  0.49792221  1.0
  Pb  Pb33  1  0.33333333  0.66666667  0.00207779  1.0
  Pb  Pb34  1  0.66666667  0.33333333  0.99792221  1.0
  Pb  Pb35  1  0.66666667  0.33333333  0.50207779  1.0
  P  P36  1  0.62983968  0.59952365  0.25000000  1.0
  P  P37  1  0.59952365  0.96968397  0.75000000  1.0
  P  P38  1  0.96968397  0.37016032  0.25000000  1.0
  P  P39  1  0.40047635  0.03031603  0.25000000  1.0
  P  P40  1  0.37016032  0.40047635  0.75000000  1.0
  P  P41  1  0.03031603  0.62983968  0.75000000  1.0
