# generated using pymatgen
data_HeSiO2
_symmetry_space_group_name_H-M   'P 1'
_cell_length_a   9.08526869
_cell_length_b   5.24521092
_cell_length_c   10.55391091
_cell_angle_alpha   90.00000000
_cell_angle_beta   125.02559719
_cell_angle_gamma   90.00000000
_symmetry_Int_Tables_number   1
_chemical_formula_structural   HeSiO2
_chemical_formula_sum   'He8 Si8 O16'
_cell_volume   411.85349363
_cell_formula_units_Z   8
loop_
 _symmetry_equiv_pos_site_id
 _symmetry_equiv_pos_as_xyz
  1  'x, y, z'
loop_
 _atom_site_type_symbol
 _atom_site_label
 _atom_site_symmetry_multiplicity
 _atom_site_fract_x
 _atom_site_fract_y
 _atom_site_fract_z
 _atom_site_occupancy
  He  He0  1  0.61907586  0.25069263  0.55439109  1.0
  He  He1  1  0.38092414  0.75069263  0.94560891  1.0
  He  He2  1  0.38092414  0.74930737  0.44560891  1.0
  He  He3  1  0.61907586  0.24930737  0.05439109  1.0
  He  He4  1  0.12027581  0.74934531  0.55561119  1.0
  He  He5  1  0.87972419  0.24934531  0.94438881  1.0
  He  He6  1  0.87972419  0.25065469  0.44438881  1.0
  He  He7  1  0.12027581  0.75065469  0.05561119  1.0
  Si  Si8  1  0.62511267  0.74873944  0.81258681  1.0
  Si  Si9  1  0.37488733  0.24873944  0.68741319  1.0
  Si  Si10  1  0.37488733  0.25126056  0.18741319  1.0
  Si  Si11  1  0.62511267  0.75126056  0.31258681  1.0
  Si  Si12  1  0.87497910  0.75150110  0.68739102  1.0
  Si  Si13  1  0.12502090  0.25150110  0.81260898  1.0
  Si  Si14  1  0.12502090  0.24849890  0.31260898  1.0
  Si  Si15  1  0.87497910  0.74849890  0.18739102  1.0
  O  O16  1  0.74991766  0.79016973  0.74997071  1.0
  O  O17  1  0.25008234  0.29016973  0.75002929  1.0
  O  O18  1  0.25008234  0.20983027  0.25002929  1.0
  O  O19  1  0.74991766  0.70983027  0.24997071  1.0
  O  O20  1  0.75032230  0.74428446  -0.00001024  1.0
  O  O21  1  0.24967770  0.24428446  0.50001024  1.0
  O  O22  1  0.24967770  0.25571554  1.00001024  1.0
  O  O23  1  0.75032230  0.75571554  0.49998976  1.0
  O  O24  1  0.48136520  0.98011019  0.75215035  1.0
  O  O25  1  0.51863480  0.48011019  0.74784965  1.0
  O  O26  1  0.51863480  0.01988981  0.24784965  1.0
  O  O27  1  0.48136520  0.51988981  0.25215035  1.0
  O  O28  1  -0.02129687  0.48019335  0.74795563  1.0
  O  O29  1  1.02129687  -0.01980665  0.75204437  1.0
  O  O30  1  1.02129687  0.51980665  0.25204437  1.0
  O  O31  1  -0.02129687  1.01980665  0.24795563  1.0
