# generated using pymatgen
data_Li2PtO6
_symmetry_space_group_name_H-M   'P 1'
_cell_length_a   5.37980207
_cell_length_b   5.37980207
_cell_length_c   3.85795853
_cell_angle_alpha   90.00000000
_cell_angle_beta   90.00000000
_cell_angle_gamma   120.00000000
_symmetry_Int_Tables_number   1
_chemical_formula_structural   Li2PtO6
_chemical_formula_sum   'Li2 Pt1 O6'
_cell_volume   96.69873263
_cell_formula_units_Z   1
loop_
 _symmetry_equiv_pos_site_id
 _symmetry_equiv_pos_as_xyz
  1  'x, y, z'
loop_
 _atom_site_type_symbol
 _atom_site_label
 _atom_site_symmetry_multiplicity
 _atom_site_fract_x
 _atom_site_fract_y
 _atom_site_fract_z
 _atom_site_occupancy
  Li  Li0  1  0.33333333  0.66666667  -0.00000000  1.0
  Li  Li1  1  0.66666667  0.33333333  -0.00000000  1.0
  Pt  Pt2  1  0.00000000  0.00000000  0.00000000  1.0
  O  O3  1  0.70395448  0.70395448  0.27548599  1.0
  O  O4  1  0.70395448  0.00000000  0.72451401  1.0
  O  O5  1  -0.00000000  0.70395448  0.72451401  1.0
  O  O6  1  0.00000000  0.29604552  0.27548599  1.0
  O  O7  1  0.29604552  0.29604552  0.72451401  1.0
  O  O8  1  0.29604552  -0.00000000  0.27548599  1.0
