# generated using pymatgen
data_LiIn(SiO3)2
_symmetry_space_group_name_H-M   'P 1'
_cell_length_a   6.79319589
_cell_length_b   6.79319589
_cell_length_c   5.45548495
_cell_angle_alpha   74.80250272
_cell_angle_beta   105.19749728
_cell_angle_gamma   94.35848518
_symmetry_Int_Tables_number   1
_chemical_formula_structural   LiIn(SiO3)2
_chemical_formula_sum   'Li2 In2 Si4 O12'
_cell_volume   234.44888142
_cell_formula_units_Z   2
loop_
 _symmetry_equiv_pos_site_id
 _symmetry_equiv_pos_as_xyz
  1  'x, y, z'
loop_
 _atom_site_type_symbol
 _atom_site_label
 _atom_site_symmetry_multiplicity
 _atom_site_fract_x
 _atom_site_fract_y
 _atom_site_fract_z
 _atom_site_occupancy
  Li  Li0  1  0.73963343  0.73963343  0.25000000  1.0
  Li  Li1  1  0.26036657  0.26036657  0.75000000  1.0
  In  In2  1  0.38947401  0.38947401  0.25000000  1.0
  In  In3  1  0.61052599  0.61052599  0.75000000  1.0
  Si  Si4  1  1.28288095  -0.11408439  0.21856149  1.0
  Si  Si5  1  1.11408439  -0.28288095  0.71856149  1.0
  Si  Si6  1  0.88591561  0.28288095  0.28143851  1.0
  Si  Si7  1  0.71711905  0.11408439  0.78143851  1.0
  O  O8  1  1.46068029  -0.29433115  0.33584221  1.0
  O  O9  1  1.29433115  -0.46068029  0.83584221  1.0
  O  O10  1  0.70566885  0.46068029  0.16415779  1.0
  O  O11  1  0.53931971  0.29433115  0.66415779  1.0
  O  O12  1  0.83298969  0.12900821  0.54594521  1.0
  O  O13  1  0.87099179  0.16701031  0.04594521  1.0
  O  O14  1  1.12900821  -0.16701031  0.95405479  1.0
  O  O15  1  1.16701031  -0.12900821  0.45405479  1.0
  O  O16  1  0.36662460  0.11554897  0.12799342  1.0
  O  O17  1  0.88445103  0.63337540  0.62799342  1.0
  O  O18  1  1.11554897  -0.63337540  0.37200658  1.0
  O  O19  1  1.63337540  -0.11554897  0.87200658  1.0
