# generated using pymatgen
data_Sr(AuO2)2
_symmetry_space_group_name_H-M   'P 1'
_cell_length_a   6.79119701
_cell_length_b   6.79119701
_cell_length_c   6.79119701
_cell_angle_alpha   124.82374067
_cell_angle_beta   124.82374067
_cell_angle_gamma   81.83018176
_symmetry_Int_Tables_number   1
_chemical_formula_structural   Sr(AuO2)2
_chemical_formula_sum   'Sr2 Au4 O8'
_cell_volume   203.05343631
_cell_formula_units_Z   2
loop_
 _symmetry_equiv_pos_site_id
 _symmetry_equiv_pos_as_xyz
  1  'x, y, z'
loop_
 _atom_site_type_symbol
 _atom_site_label
 _atom_site_symmetry_multiplicity
 _atom_site_fract_x
 _atom_site_fract_y
 _atom_site_fract_z
 _atom_site_occupancy
  Sr  Sr0  1  0.75000000  0.25000000  0.50000000  1.0
  Sr  Sr1  1  1.00000000  1.00000000  1.00000000  1.0
  Au  Au2  1  0.37500000  1.12500000  0.75000000  1.0
  Au  Au3  1  0.37500000  0.62500000  0.25000000  1.0
  Au  Au4  1  0.37500000  0.62500000  0.75000000  1.0
  Au  Au5  1  0.87500000  0.62500000  1.25000000  1.0
  O  O6  1  0.70128279  1.26738704  0.87364952  1.0
  O  O7  1  1.39373752  0.82763327  1.12635048  1.0
  O  O8  1  0.57763327  0.95128279  0.93389574  1.0
  O  O9  1  1.01738704  0.64373752  1.06610426  1.0
  O  O10  1  1.04871721  0.98261296  1.62635048  1.0
  O  O11  1  0.35626248  0.42236673  0.37364952  1.0
  O  O12  1  1.17236673  1.29871721  1.56610426  1.0
  O  O13  1  0.73261296  0.60626248  0.43389574  1.0
