# generated using pymatgen
data_Sb3O14
_symmetry_space_group_name_H-M   'P 1'
_cell_length_a   5.68430007
_cell_length_b   15.60726967
_cell_length_c   5.55497104
_cell_angle_alpha   90.00000000
_cell_angle_beta   106.25472224
_cell_angle_gamma   90.00000000
_symmetry_Int_Tables_number   1
_chemical_formula_structural   Sb3O14
_chemical_formula_sum   'Sb6 O28'
_cell_volume   473.11757501
_cell_formula_units_Z   2
loop_
 _symmetry_equiv_pos_site_id
 _symmetry_equiv_pos_as_xyz
  1  'x, y, z'
loop_
 _atom_site_type_symbol
 _atom_site_label
 _atom_site_symmetry_multiplicity
 _atom_site_fract_x
 _atom_site_fract_y
 _atom_site_fract_z
 _atom_site_occupancy
  Sb  Sb0  1  0.00000000  0.00000000  0.00000000  1.0
  Sb  Sb1  1  0.00000000  0.50000000  0.00000000  1.0
  Sb  Sb2  1  0.35364455  0.92112183  0.60460449  1.0
  Sb  Sb3  1  0.64635545  0.42112183  0.39539551  1.0
  Sb  Sb4  1  0.64635545  0.07887817  0.39539551  1.0
  Sb  Sb5  1  0.35364455  0.57887817  0.60460449  1.0
  O  O6  1  0.67477343  0.99481640  0.69946330  1.0
  O  O7  1  0.32522657  0.49481640  0.30053670  1.0
  O  O8  1  0.32522657  0.00518360  0.30053670  1.0
  O  O9  1  0.67477343  0.50518360  0.69946330  1.0
  O  O10  1  0.68892699  0.75000000  -0.20589789  1.0
  O  O11  1  0.31107301  0.25000000  1.20589789  1.0
  O  O12  1  0.24690421  0.75000000  0.70229911  1.0
  O  O13  1  0.75309579  0.25000000  0.29770089  1.0
  O  O14  1  0.60071699  0.13879191  0.06391406  1.0
  O  O15  1  0.39928301  0.63879191  0.93608594  1.0
  O  O16  1  0.39928301  0.86120809  0.93608594  1.0
  O  O17  1  0.60071699  0.36120809  0.06391406  1.0
  O  O18  1  0.96371090  0.13091564  0.61096091  1.0
  O  O19  1  0.03628910  0.63091564  0.38903909  1.0
  O  O20  1  0.03628910  0.86908436  0.38903909  1.0
  O  O21  1  0.96371090  0.36908436  0.61096091  1.0
  O  O22  1  0.53911742  0.82753161  0.48758152  1.0
  O  O23  1  0.46088258  0.32753161  0.51241848  1.0
  O  O24  1  0.46088258  0.17246839  0.51241848  1.0
  O  O25  1  0.53911742  0.67246839  0.48758152  1.0
  O  O26  1  -0.03021860  0.12733809  1.00641657  1.0
  O  O27  1  1.03021860  0.62733809  -0.00641657  1.0
  O  O28  1  1.03021860  0.87266191  -0.00641657  1.0
  O  O29  1  -0.03021860  0.37266191  1.00641657  1.0
  O  O30  1  0.80790991  0.98524298  0.24844201  1.0
  O  O31  1  0.19209009  0.48524298  0.75155799  1.0
  O  O32  1  0.19209009  0.01475702  0.75155799  1.0
  O  O33  1  0.80790991  0.51475702  0.24844201  1.0
