# generated using pymatgen
data_Ti2Sn3
_symmetry_space_group_name_H-M   'P 1'
_cell_length_a   10.49369738
_cell_length_b   10.49369738
_cell_length_c   7.06224589
_cell_angle_alpha   90.00000000
_cell_angle_beta   90.00000000
_cell_angle_gamma   146.77257647
_symmetry_Int_Tables_number   1
_chemical_formula_structural   Ti2Sn3
_chemical_formula_sum   'Ti8 Sn12'
_cell_volume   426.13937542
_cell_formula_units_Z   4
loop_
 _symmetry_equiv_pos_site_id
 _symmetry_equiv_pos_as_xyz
  1  'x, y, z'
loop_
 _atom_site_type_symbol
 _atom_site_label
 _atom_site_symmetry_multiplicity
 _atom_site_fract_x
 _atom_site_fract_y
 _atom_site_fract_z
 _atom_site_occupancy
  Ti  Ti0  1  0.58685356  0.91314644  0.25000000  1.0
  Ti  Ti1  1  0.08685356  0.41314644  0.25000000  1.0
  Ti  Ti2  1  -0.08685356  0.58685356  0.75000000  1.0
  Ti  Ti3  1  0.41314644  1.08685356  0.75000000  1.0
  Ti  Ti4  1  -0.41914457  0.41914457  0.45415436  1.0
  Ti  Ti5  1  0.08085543  0.91914457  0.04584564  1.0
  Ti  Ti6  1  0.41914457  0.58085543  0.54584564  1.0
  Ti  Ti7  1  -0.08085543  0.08085543  0.95415436  1.0
  Sn  Sn8  1  -0.37882779  0.37882779  0.07398489  1.0
  Sn  Sn9  1  0.12117221  0.87882779  0.42601511  1.0
  Sn  Sn10  1  0.37882779  0.62117221  0.92601511  1.0
  Sn  Sn11  1  -0.12117221  0.12117221  0.57398489  1.0
  Sn  Sn12  1  -0.27567515  0.27567515  0.42660377  1.0
  Sn  Sn13  1  0.22432485  0.77567515  0.07339623  1.0
  Sn  Sn14  1  0.27567515  0.72432485  0.57339623  1.0
  Sn  Sn15  1  -0.22432485  0.22432485  0.92660377  1.0
  Sn  Sn16  1  0.72995068  0.77004932  0.25000000  1.0
  Sn  Sn17  1  0.22995068  0.27004932  0.25000000  1.0
  Sn  Sn18  1  -0.22995068  0.72995068  0.75000000  1.0
  Sn  Sn19  1  0.27004932  1.22995068  0.75000000  1.0
