# generated using pymatgen
data_AlBiSe
_symmetry_space_group_name_H-M   'P 1'
_cell_length_a   11.11518886
_cell_length_b   11.11518886
_cell_length_c   14.38718721
_cell_angle_alpha   90.00000000
_cell_angle_beta   90.00000000
_cell_angle_gamma   90.00000000
_symmetry_Int_Tables_number   1
_chemical_formula_structural   AlBiSe
_chemical_formula_sum   'Al16 Bi16 Se16'
_cell_volume   1777.49990863
_cell_formula_units_Z   16
loop_
 _symmetry_equiv_pos_site_id
 _symmetry_equiv_pos_as_xyz
  1  'x, y, z'
loop_
 _atom_site_type_symbol
 _atom_site_label
 _atom_site_symmetry_multiplicity
 _atom_site_fract_x
 _atom_site_fract_y
 _atom_site_fract_z
 _atom_site_occupancy
  Al  Al0  1  0.29337703  0.70662297  0.50000000  1.0
  Al  Al1  1  0.29337703  0.29337703  0.50000000  1.0
  Al  Al2  1  0.79337703  0.20662297  0.00000000  1.0
  Al  Al3  1  0.79337703  0.79337703  0.00000000  1.0
  Al  Al4  1  0.70662297  0.29337703  0.50000000  1.0
  Al  Al5  1  0.70662297  0.70662297  0.50000000  1.0
  Al  Al6  1  0.20662297  0.79337703  0.00000000  1.0
  Al  Al7  1  0.20662297  0.20662297  0.00000000  1.0
  Al  Al8  1  0.25000000  0.75000000  0.75000000  1.0
  Al  Al9  1  0.25000000  0.25000000  0.25000000  1.0
  Al  Al10  1  0.75000000  0.25000000  0.75000000  1.0
  Al  Al11  1  0.75000000  0.75000000  0.25000000  1.0
  Al  Al12  1  0.75000000  0.25000000  0.25000000  1.0
  Al  Al13  1  0.75000000  0.75000000  0.75000000  1.0
  Al  Al14  1  0.25000000  0.75000000  0.25000000  1.0
  Al  Al15  1  0.25000000  0.25000000  0.75000000  1.0
  Bi  Bi16  1  0.38068122  0.11345842  0.38065424  1.0
  Bi  Bi17  1  0.38068122  0.88654158  0.61934576  1.0
  Bi  Bi18  1  0.88068122  0.61345842  0.11934576  1.0
  Bi  Bi19  1  0.88068122  0.38654158  0.88065424  1.0
  Bi  Bi20  1  0.11345842  0.38068122  0.61934576  1.0
  Bi  Bi21  1  0.11345842  0.61931878  0.38065424  1.0
  Bi  Bi22  1  0.61345842  0.88068122  0.88065424  1.0
  Bi  Bi23  1  0.61345842  0.11931878  0.11934576  1.0
  Bi  Bi24  1  0.61931878  0.11345842  0.61934576  1.0
  Bi  Bi25  1  0.61931878  0.88654158  0.38065424  1.0
  Bi  Bi26  1  0.11931878  0.61345842  0.88065424  1.0
  Bi  Bi27  1  0.11931878  0.38654158  0.11934576  1.0
  Bi  Bi28  1  0.88654158  0.38068122  0.38065424  1.0
  Bi  Bi29  1  0.88654158  0.61931878  0.61934576  1.0
  Bi  Bi30  1  0.38654158  0.88068122  0.11934576  1.0
  Bi  Bi31  1  0.38654158  0.11931878  0.88065424  1.0
  Se  Se32  1  0.43012250  0.72317195  0.36430838  1.0
  Se  Se33  1  0.43012250  0.27682805  0.63569162  1.0
  Se  Se34  1  0.93012250  0.22317195  0.13569162  1.0
  Se  Se35  1  0.93012250  0.77682805  0.86430838  1.0
  Se  Se36  1  0.72317195  0.43012250  0.63569162  1.0
  Se  Se37  1  0.72317195  0.56987750  0.36430838  1.0
  Se  Se38  1  0.22317195  0.93012250  0.86430838  1.0
  Se  Se39  1  0.22317195  0.06987750  0.13569162  1.0
  Se  Se40  1  0.56987750  0.72317195  0.63569162  1.0
  Se  Se41  1  0.56987750  0.27682805  0.36430838  1.0
  Se  Se42  1  0.06987750  0.22317195  0.86430838  1.0
  Se  Se43  1  0.06987750  0.77682805  0.13569162  1.0
  Se  Se44  1  0.27682805  0.43012250  0.36430838  1.0
  Se  Se45  1  0.27682805  0.56987750  0.63569162  1.0
  Se  Se46  1  0.77682805  0.93012250  0.13569162  1.0
  Se  Se47  1  0.77682805  0.06987750  0.86430838  1.0
