# generated using pymatgen
data_LiIn(RhO2)4
_symmetry_space_group_name_H-M   'P 1'
_cell_length_a   6.18254186
_cell_length_b   6.18254186
_cell_length_c   6.18254186
_cell_angle_alpha   60.00000000
_cell_angle_beta   60.00000000
_cell_angle_gamma   60.00000000
_symmetry_Int_Tables_number   1
_chemical_formula_structural   LiIn(RhO2)4
_chemical_formula_sum   'Li1 In1 Rh4 O8'
_cell_volume   167.10375138
_cell_formula_units_Z   1
loop_
 _symmetry_equiv_pos_site_id
 _symmetry_equiv_pos_as_xyz
  1  'x, y, z'
loop_
 _atom_site_type_symbol
 _atom_site_label
 _atom_site_symmetry_multiplicity
 _atom_site_fract_x
 _atom_site_fract_y
 _atom_site_fract_z
 _atom_site_occupancy
  Li  Li0  1  0.00000000  0.00000000  0.00000000  1.0
  In  In1  1  0.25000000  0.25000000  0.25000000  1.0
  Rh  Rh2  1  -0.37269548  0.62730452  0.62730452  1.0
  Rh  Rh3  1  1.11808643  0.62730452  -0.37269548  1.0
  Rh  Rh4  1  -0.37269548  0.62730452  1.11808643  1.0
  Rh  Rh5  1  0.62730452  1.11808643  -0.37269548  1.0
  O  O6  1  0.86077809  0.86077809  -0.13922191  1.0
  O  O7  1  0.41766573  0.86077809  -0.13922191  1.0
  O  O8  1  0.86077809  0.86077809  -0.58233427  1.0
  O  O9  1  0.86077809  0.41766573  -0.13922191  1.0
  O  O10  1  0.38982155  1.38982155  0.38982155  1.0
  O  O11  1  -0.16946465  0.38982155  0.38982155  1.0
  O  O12  1  0.38982155  1.38982155  -0.16946465  1.0
  O  O13  1  0.38982155  -0.16946465  0.38982155  1.0
