# generated using pymatgen
data_ZnCu2SiS4
_symmetry_space_group_name_H-M   'P 1'
_cell_length_a   6.16067215
_cell_length_b   6.42599488
_cell_length_c   9.65300478
_cell_angle_alpha   90.00000000
_cell_angle_beta   129.64654182
_cell_angle_gamma   90.00000000
_symmetry_Int_Tables_number   1
_chemical_formula_structural   ZnCu2SiS4
_chemical_formula_sum   'Zn2 Cu4 Si2 S8'
_cell_volume   294.25172304
_cell_formula_units_Z   2
loop_
 _symmetry_equiv_pos_site_id
 _symmetry_equiv_pos_as_xyz
  1  'x, y, z'
loop_
 _atom_site_type_symbol
 _atom_site_label
 _atom_site_symmetry_multiplicity
 _atom_site_fract_x
 _atom_site_fract_y
 _atom_site_fract_z
 _atom_site_occupancy
  Zn  Zn0  1  0.14515813  0.67494918  0.72818269  1.0
  Zn  Zn1  1  0.14515813  0.32505082  0.22818269  1.0
  Cu  Cu2  1  0.64596106  0.67127569  0.22399157  1.0
  Cu  Cu3  1  0.64596106  0.32872431  0.72399157  1.0
  Cu  Cu4  1  0.89108765  0.84699388  0.97425620  1.0
  Cu  Cu5  1  0.89108765  0.15300612  0.47425620  1.0
  Si  Si6  1  0.38840080  0.17360256  0.97561883  1.0
  Si  Si7  1  0.38840080  0.82639744  0.47561883  1.0
  S  S8  1  0.51717264  0.66975220  0.71654729  1.0
  S  S9  1  0.51717264  0.33024780  0.21654729  1.0
  S  S10  1  0.02844079  0.67416772  0.23431651  1.0
  S  S11  1  0.02844079  0.32583228  0.73431651  1.0
  S  S12  1  0.73511595  0.17502096  0.97085916  1.0
  S  S13  1  0.73511595  0.82497904  0.47085916  1.0
  S  S14  1  0.27116298  0.85809993  0.98062774  1.0
  S  S15  1  0.27116298  0.14190007  0.48062774  1.0
