# generated using pymatgen
data_VAgOF4
_symmetry_space_group_name_H-M   'P 1'
_cell_length_a   5.85467704
_cell_length_b   5.39222707
_cell_length_c   14.30191873
_cell_angle_alpha   90.00000000
_cell_angle_beta   100.56605997
_cell_angle_gamma   90.00000000
_symmetry_Int_Tables_number   1
_chemical_formula_structural   VAgOF4
_chemical_formula_sum   'V4 Ag4 O4 F16'
_cell_volume   443.85226589
_cell_formula_units_Z   4
loop_
 _symmetry_equiv_pos_site_id
 _symmetry_equiv_pos_as_xyz
  1  'x, y, z'
loop_
 _atom_site_type_symbol
 _atom_site_label
 _atom_site_symmetry_multiplicity
 _atom_site_fract_x
 _atom_site_fract_y
 _atom_site_fract_z
 _atom_site_occupancy
  V  V0  1  0.81286513  0.12334248  0.14434756  1.0
  V  V1  1  0.18713487  0.62334248  0.35565244  1.0
  V  V2  1  0.18713487  0.87665752  0.85565244  1.0
  V  V3  1  0.81286513  0.37665752  0.64434756  1.0
  Ag  Ag4  1  0.34820248  0.65842953  0.12392619  1.0
  Ag  Ag5  1  0.65179752  0.15842953  0.37607381  1.0
  Ag  Ag6  1  0.65179752  0.34157047  0.87607381  1.0
  Ag  Ag7  1  0.34820248  0.84157047  0.62392619  1.0
  O  O8  1  0.65154637  0.90077402  0.09766165  1.0
  O  O9  1  0.34845363  0.40077402  0.40233835  1.0
  O  O10  1  0.34845363  0.09922598  0.90233835  1.0
  O  O11  1  0.65154637  0.59922598  0.59766165  1.0
  F  F12  1  0.09785441  1.04221511  0.12379352  1.0
  F  F13  1  0.90214559  0.54221511  0.37620648  1.0
  F  F14  1  0.90214559  -0.04221511  0.87620648  1.0
  F  F15  1  0.09785441  0.45778489  0.62379352  1.0
  F  F16  1  0.60804349  0.32127738  0.19407902  1.0
  F  F17  1  0.39195651  0.82127738  0.30592098  1.0
  F  F18  1  0.39195651  0.67872262  0.80592098  1.0
  F  F19  1  0.60804349  0.17872262  0.69407902  1.0
  F  F20  1  0.79051998  0.34920497  0.04868703  1.0
  F  F21  1  0.20948002  0.84920498  0.45131297  1.0
  F  F22  1  0.20948002  0.65079503  0.95131297  1.0
  F  F23  1  0.79051998  0.15079502  0.54868703  1.0
  F  F24  1  0.90527453  1.01878334  0.26891773  1.0
  F  F25  1  0.09472547  0.51878334  0.23108227  1.0
  F  F26  1  0.09472547  -0.01878334  0.73108227  1.0
  F  F27  1  0.90527453  0.48121666  0.76891773  1.0
