# generated using pymatgen
data_K2SiF6
_symmetry_space_group_name_H-M   'P 1'
_cell_length_a   5.75333754
_cell_length_b   5.75333754
_cell_length_c   9.46057774
_cell_angle_alpha   90.00000000
_cell_angle_beta   90.00000000
_cell_angle_gamma   120.00000000
_symmetry_Int_Tables_number   1
_chemical_formula_structural   K2SiF6
_chemical_formula_sum   'K4 Si2 F12'
_cell_volume   271.19894749
_cell_formula_units_Z   2
loop_
 _symmetry_equiv_pos_site_id
 _symmetry_equiv_pos_as_xyz
  1  'x, y, z'
loop_
 _atom_site_type_symbol
 _atom_site_label
 _atom_site_symmetry_multiplicity
 _atom_site_fract_x
 _atom_site_fract_y
 _atom_site_fract_z
 _atom_site_occupancy
  K  K0  1  0.33333333  0.66666667  0.27875538  1.0
  K  K1  1  0.66666667  0.33333333  0.77875538  1.0
  K  K2  1  0.00000000  0.00000000  0.00030468  1.0
  K  K3  1  0.00000000  0.00000000  0.50030468  1.0
  Si  Si4  1  0.33333333  0.66666667  0.66377658  1.0
  Si  Si5  1  0.66666667  0.33333333  0.16377658  1.0
  F  F6  1  0.94753538  0.47376769  0.05737172  1.0
  F  F7  1  0.47376769  0.94753538  0.55737172  1.0
  F  F8  1  0.47376769  0.52623231  0.55737172  1.0
  F  F9  1  0.52623231  0.47376769  0.05737172  1.0
  F  F10  1  0.52623231  0.05246462  0.05737172  1.0
  F  F11  1  0.05246462  0.52623231  0.55737172  1.0
  F  F12  1  0.38131580  0.19065790  0.26604940  1.0
  F  F13  1  0.19065790  0.38131580  0.76604940  1.0
  F  F14  1  0.19065790  0.80934210  0.76604940  1.0
  F  F15  1  0.80934210  0.19065790  0.26604940  1.0
  F  F16  1  0.80934210  0.61868420  0.26604940  1.0
  F  F17  1  0.61868420  0.80934210  0.76604940  1.0
