# generated using pymatgen
data_FeBi2PO8
_symmetry_space_group_name_H-M   'P 1'
_cell_length_a   6.57591245
_cell_length_b   6.57591245
_cell_length_c   9.54735279
_cell_angle_alpha   67.18768320
_cell_angle_beta   112.81231680
_cell_angle_gamma   115.21715761
_symmetry_Int_Tables_number   1
_chemical_formula_structural   FeBi2PO8
_chemical_formula_sum   'Fe2 Bi4 P2 O16'
_cell_volume   331.80783362
_cell_formula_units_Z   2
loop_
 _symmetry_equiv_pos_site_id
 _symmetry_equiv_pos_as_xyz
  1  'x, y, z'
loop_
 _atom_site_type_symbol
 _atom_site_label
 _atom_site_symmetry_multiplicity
 _atom_site_fract_x
 _atom_site_fract_y
 _atom_site_fract_z
 _atom_site_occupancy
  P  P0  1  0.80185756  0.80185756  0.75000000  1.0
  P  P1  1  1.19814244  0.19814244  0.25000000  1.0
  O  O2  1  1.60396941  -0.25004880  0.59563994  1.0
  O  O3  1  1.25004880  -0.60396941  0.09563994  1.0
  O  O4  1  0.74995120  -0.39603059  0.90436006  1.0
  O  O5  1  1.39603059  0.25004880  0.40436006  1.0
  O  O6  1  0.80786184  0.03551664  0.75201868  1.0
  O  O7  1  0.96448336  0.19213816  0.25201868  1.0
  O  O8  1  1.03551664  0.80786184  0.74798132  1.0
  O  O9  1  0.19213816  -0.03551664  0.24798132  1.0
  O  O10  1  0.51166198  -0.18664142  0.97191009  1.0
  O  O11  1  1.18664142  0.48833802  0.47191009  1.0
  O  O12  1  0.81335858  0.51166198  0.52808991  1.0
  O  O13  1  0.48833802  0.18664142  0.02808991  1.0
  O  O14  1  1.48507743  0.28203102  0.68327970  1.0
  O  O15  1  0.71796898  0.51492257  0.18327970  1.0
  O  O16  1  1.28203102  0.48507743  0.81672030  1.0
  O  O17  1  1.51492257  -0.28203102  0.31672030  1.0
  Fe  Fe18  1  0.50000000  0.50000000  -0.00000000  1.0
  Fe  Fe19  1  0.50000000  -0.50000000  0.50000000  1.0
  Bi  Bi20  1  1.72224833  0.18655616  0.90367534  1.0
  Bi  Bi21  1  0.81344384  0.27775167  0.40367534  1.0
  Bi  Bi22  1  1.18655616  0.72224833  0.59632466  1.0
  Bi  Bi23  1  1.27775167  -0.18655616  0.09632466  1.0
