# generated using pymatgen
data_CsPbBr3
_symmetry_space_group_name_H-M   'P 1'
_cell_length_a   8.51857869
_cell_length_b   11.87883141
_cell_length_c   8.24518977
_cell_angle_alpha   90.00000000
_cell_angle_beta   90.00000000
_cell_angle_gamma   90.00000000
_symmetry_Int_Tables_number   1
_chemical_formula_structural   CsPbBr3
_chemical_formula_sum   'Cs4 Pb4 Br12'
_cell_volume   834.33702043
_cell_formula_units_Z   4
loop_
 _symmetry_equiv_pos_site_id
 _symmetry_equiv_pos_as_xyz
  1  'x, y, z'
loop_
 _atom_site_type_symbol
 _atom_site_label
 _atom_site_symmetry_multiplicity
 _atom_site_fract_x
 _atom_site_fract_y
 _atom_site_fract_z
 _atom_site_occupancy
  Cs  Cs0  1  0.05922211  0.75000000  0.51642451  1.0
  Cs  Cs1  1  0.55922211  0.75000000  0.98357549  1.0
  Cs  Cs2  1  0.94077789  0.25000000  0.48357549  1.0
  Cs  Cs3  1  0.44077789  0.25000000  0.01642451  1.0
  Pb  Pb4  1  0.50000000  0.00000000  0.50000000  1.0
  Pb  Pb5  1  0.50000000  0.50000000  0.50000000  1.0
  Pb  Pb6  1  0.00000000  0.00000000  0.00000000  1.0
  Pb  Pb7  1  0.00000000  0.50000000  0.00000000  1.0
  Br  Br8  1  0.29455321  0.96156866  0.79719886  1.0
  Br  Br9  1  0.29455321  0.53843134  0.79719886  1.0
  Br  Br10  1  0.79455321  0.96156866  0.70280114  1.0
  Br  Br11  1  0.79455321  0.53843134  0.70280114  1.0
  Br  Br12  1  0.70544679  0.46156866  0.20280114  1.0
  Br  Br13  1  0.70544679  0.03843134  0.20280114  1.0
  Br  Br14  1  0.20544679  0.46156866  0.29719886  1.0
  Br  Br15  1  0.20544679  0.03843134  0.29719886  1.0
  Br  Br16  1  0.98648460  0.75000000  0.07390471  1.0
  Br  Br17  1  0.48648460  0.75000000  0.42609529  1.0
  Br  Br18  1  0.01351540  0.25000000  0.92609529  1.0
  Br  Br19  1  0.51351540  0.25000000  0.57390471  1.0
