# generated using pymatgen
data_CuPPb2SO9
_symmetry_space_group_name_H-M   'P 1'
_cell_length_a   8.53390706
_cell_length_b   5.71112346
_cell_length_c   8.49795354
_cell_angle_alpha   90.00000000
_cell_angle_beta   110.90344085
_cell_angle_gamma   90.00000000
_symmetry_Int_Tables_number   1
_chemical_formula_structural   CuPPb2SO9
_chemical_formula_sum   'Cu2 P2 Pb4 S2 O18'
_cell_volume   386.91520124
_cell_formula_units_Z   2
loop_
 _symmetry_equiv_pos_site_id
 _symmetry_equiv_pos_as_xyz
  1  'x, y, z'
loop_
 _atom_site_type_symbol
 _atom_site_label
 _atom_site_symmetry_multiplicity
 _atom_site_fract_x
 _atom_site_fract_y
 _atom_site_fract_z
 _atom_site_occupancy
  Cu  Cu0  1  0.00000000  0.00000000  0.00000000  1.0
  Cu  Cu1  1  0.00000000  0.50000000  0.00000000  1.0
  P  P2  1  0.01354904  0.75000000  0.33003003  1.0
  P  P3  1  0.98645096  0.25000000  0.66996997  1.0
  Pb  Pb4  1  0.29786492  0.75000000  0.76437939  1.0
  Pb  Pb5  1  0.70213508  0.25000000  0.23562061  1.0
  Pb  Pb6  1  0.73473380  0.75000000  0.62305039  1.0
  Pb  Pb7  1  0.26526620  0.25000000  0.37694961  1.0
  S  S8  1  0.45242897  0.75000000  0.18969075  1.0
  S  S9  1  0.54757103  0.25000000  0.81030925  1.0
  O  O10  1  -0.01552770  0.98032716  0.21677509  1.0
  O  O11  1  -0.01552770  0.51967284  0.21677509  1.0
  O  O12  1  0.01552770  0.48032716  0.78322491  1.0
  O  O13  1  0.01552770  0.01967284  0.78322491  1.0
  O  O14  1  0.49867823  0.96444216  0.30301214  1.0
  O  O15  1  0.49867823  0.53555784  0.30301214  1.0
  O  O16  1  0.50132177  0.46444216  0.69698786  1.0
  O  O17  1  0.50132177  0.03555784  0.69698786  1.0
  O  O18  1  0.19897895  0.75000000  0.45089769  1.0
  O  O19  1  0.80102105  0.25000000  0.54910231  1.0
  O  O20  1  0.26944108  0.75000000  0.09066790  1.0
  O  O21  1  0.73055892  0.25000000  0.90933210  1.0
  O  O22  1  0.55062754  0.75000000  0.07601969  1.0
  O  O23  1  0.44937246  0.25000000  0.92398031  1.0
  O  O24  1  0.86101854  0.75000000  0.92863782  1.0
  O  O25  1  0.13898146  0.25000000  0.07136218  1.0
  O  O26  1  0.88364013  0.75000000  0.41517638  1.0
  O  O27  1  0.11635987  0.25000000  0.58482362  1.0
