# generated using pymatgen
data_NaSr7Cu8(SF)8
_symmetry_space_group_name_H-M   'P 1'
_cell_length_a   7.92569074
_cell_length_b   7.92569074
_cell_length_c   8.75318072
_cell_angle_alpha   90.00000000
_cell_angle_beta   90.00000000
_cell_angle_gamma   90.00000000
_symmetry_Int_Tables_number   1
_chemical_formula_structural   NaSr7Cu8(SF)8
_chemical_formula_sum   'Na1 Sr7 Cu8 S8 F8'
_cell_volume   549.84482139
_cell_formula_units_Z   1
loop_
 _symmetry_equiv_pos_site_id
 _symmetry_equiv_pos_as_xyz
  1  'x, y, z'
loop_
 _atom_site_type_symbol
 _atom_site_label
 _atom_site_symmetry_multiplicity
 _atom_site_fract_x
 _atom_site_fract_y
 _atom_site_fract_z
 _atom_site_occupancy
  Na  Na0  1  0.00000000  0.00000000  0.96691092  1.0
  Sr  Sr1  1  0.50000000  0.00000000  0.00013674  1.0
  Sr  Sr2  1  0.00000000  0.50000000  0.00013674  1.0
  Sr  Sr3  1  0.50000000  0.50000000  0.00474708  1.0
  Sr  Sr4  1  0.75146167  0.24853833  0.66916582  1.0
  Sr  Sr5  1  0.24853833  0.75146167  0.66916582  1.0
  Sr  Sr6  1  0.24853833  0.24853833  0.66916582  1.0
  Sr  Sr7  1  0.75146167  0.75146167  0.66916582  1.0
  Cu  Cu8  1  0.75244062  0.00000000  0.32939603  1.0
  Cu  Cu9  1  0.24755938  0.00000000  0.32939603  1.0
  Cu  Cu10  1  0.00000000  0.24755938  0.32939603  1.0
  Cu  Cu11  1  0.00000000  0.75244062  0.32939603  1.0
  Cu  Cu12  1  0.74833245  0.50000000  0.33427593  1.0
  Cu  Cu13  1  0.25166755  0.50000000  0.33427593  1.0
  Cu  Cu14  1  0.50000000  0.25166755  0.33427593  1.0
  Cu  Cu15  1  0.50000000  0.74833245  0.33427593  1.0
  S  S16  1  0.00000000  0.00000000  0.49006611  1.0
  S  S17  1  0.50000000  0.00000000  0.49058808  1.0
  S  S18  1  0.00000000  0.50000000  0.49058808  1.0
  S  S19  1  0.50000000  0.50000000  0.49658556  1.0
  S  S20  1  0.74823936  0.25176064  0.17760781  1.0
  S  S21  1  0.25176064  0.74823936  0.17760781  1.0
  S  S22  1  0.25176064  0.25176064  0.17760781  1.0
  S  S23  1  0.74823936  0.74823936  0.17760781  1.0
  F  F24  1  0.74571900  0.00000000  0.82978535  1.0
  F  F25  1  0.25428100  0.00000000  0.82978535  1.0
  F  F26  1  0.00000000  0.25428100  0.82978535  1.0
  F  F27  1  0.00000000  0.74571900  0.82978535  1.0
  F  F28  1  0.74805403  0.50000000  0.83536423  1.0
  F  F29  1  0.25194597  0.50000000  0.83536423  1.0
  F  F30  1  0.50000000  0.25194597  0.83536423  1.0
  F  F31  1  0.50000000  0.74805403  0.83536423  1.0
