# generated using pymatgen
data_Na3Fe2(PO4)3
_symmetry_space_group_name_H-M   'P 1'
_cell_length_a   8.89491870
_cell_length_b   8.89491870
_cell_length_c   8.93539691
_cell_angle_alpha   59.82062262
_cell_angle_beta   120.17937738
_cell_angle_gamma   120.03775632
_symmetry_Int_Tables_number   1
_chemical_formula_structural   Na3Fe2(PO4)3
_chemical_formula_sum   'Na6 Fe4 P6 O24'
_cell_volume   498.39833522
_cell_formula_units_Z   2
loop_
 _symmetry_equiv_pos_site_id
 _symmetry_equiv_pos_as_xyz
  1  'x, y, z'
loop_
 _atom_site_type_symbol
 _atom_site_label
 _atom_site_symmetry_multiplicity
 _atom_site_fract_x
 _atom_site_fract_y
 _atom_site_fract_z
 _atom_site_occupancy
  Na  Na0  1  0.24912144  -0.11308317  0.74534417  1.0
  Na  Na1  1  1.11308317  -0.24912144  0.24534417  1.0
  Na  Na2  1  0.88691683  0.24912144  0.75465583  1.0
  Na  Na3  1  1.75087856  0.11308317  0.25465583  1.0
  Na  Na4  1  1.50000000  0.00000000  0.50000000  1.0
  Na  Na5  1  1.00000000  0.50000000  -0.00000000  1.0
  Fe  Fe6  1  0.64396830  -0.15679964  0.94639058  1.0
  Fe  Fe7  1  1.15679964  -0.64396830  0.44639058  1.0
  Fe  Fe8  1  0.84320036  0.64396830  0.55360942  1.0
  Fe  Fe9  1  1.35603170  0.15679964  0.05360942  1.0
  P  P10  1  0.55089576  0.25321818  0.76168778  1.0
  P  P11  1  0.74678182  -0.55089576  0.26168778  1.0
  P  P12  1  1.25321818  0.55089576  0.73831222  1.0
  P  P13  1  1.44910424  -0.25321818  0.23831222  1.0
  P  P14  1  0.95643764  0.95643764  0.75000000  1.0
  P  P15  1  0.04356236  0.04356236  0.25000000  1.0
  O  O16  1  1.78125321  -0.06189367  0.76551005  1.0
  O  O17  1  1.06189367  -0.78125321  0.26551005  1.0
  O  O18  1  0.93810633  0.78125321  0.73448995  1.0
  O  O19  1  0.21874679  0.06189367  0.23448995  1.0
  O  O20  1  0.41845238  -0.26825750  0.75212482  1.0
  O  O21  1  1.26825750  -0.41845238  0.25212482  1.0
  O  O22  1  0.73174250  0.41845238  0.74787518  1.0
  O  O23  1  1.58154762  0.26825750  0.24787518  1.0
  O  O24  1  0.56189127  0.08937359  0.75020581  1.0
  O  O25  1  0.91062641  -0.56189127  0.25020581  1.0
  O  O26  1  1.08937359  0.56189127  0.74979419  1.0
  O  O27  1  1.43810873  -0.08937359  0.24979419  1.0
  O  O28  1  0.53340495  0.20126184  0.94749805  1.0
  O  O29  1  0.79873816  0.46659505  0.44749805  1.0
  O  O30  1  1.20126184  -0.46659505  0.55250195  1.0
  O  O31  1  1.46659505  -0.20126184  0.05250195  1.0
  O  O32  1  0.12921055  -0.01589559  0.92428278  1.0
  O  O33  1  1.01589559  0.87078945  0.42428278  1.0
  O  O34  1  0.98410441  -0.87078945  0.57571722  1.0
  O  O35  1  1.87078945  0.01589559  0.07571722  1.0
  O  O36  1  1.29316949  -0.62513709  0.89809325  1.0
  O  O37  1  1.62513709  -0.29316949  0.39809325  1.0
  O  O38  1  0.37486291  0.29316949  0.60190675  1.0
  O  O39  1  0.70683051  0.62513709  0.10190675  1.0
