# generated using pymatgen
data_CdH8C2S2(NO)6
_symmetry_space_group_name_H-M   'P 1'
_cell_length_a   4.20982833
_cell_length_b   12.90161336
_cell_length_c   11.59272340
_cell_angle_alpha   90.00000000
_cell_angle_beta   94.69437838
_cell_angle_gamma   90.00000000
_symmetry_Int_Tables_number   1
_chemical_formula_structural   CdH8C2S2(NO)6
_chemical_formula_sum   'Cd2 H16 C4 S4 N12 O12'
_cell_volume   627.53009502
_cell_formula_units_Z   2
loop_
 _symmetry_equiv_pos_site_id
 _symmetry_equiv_pos_as_xyz
  1  'x, y, z'
loop_
 _atom_site_type_symbol
 _atom_site_label
 _atom_site_symmetry_multiplicity
 _atom_site_fract_x
 _atom_site_fract_y
 _atom_site_fract_z
 _atom_site_occupancy
  Cd  Cd0  1  0.50000000  0.50000000  -0.00000000  1.0
  Cd  Cd1  1  0.50000000  0.00000000  0.50000000  1.0
  H  H2  1  -0.07505488  0.29155872  0.31973952  1.0
  H  H3  1  -0.07505488  0.20844128  0.81973952  1.0
  H  H4  1  1.07505488  0.70844128  0.68026048  1.0
  H  H5  1  1.07505488  0.79155872  0.18026048  1.0
  H  H6  1  0.11509275  0.31909325  0.19183419  1.0
  H  H7  1  0.11509275  0.18090675  0.69183419  1.0
  H  H8  1  0.88490725  0.68090675  0.80816581  1.0
  H  H9  1  0.88490725  0.81909325  0.30816581  1.0
  H  H10  1  0.66808539  0.42323244  0.41414099  1.0
  H  H11  1  0.66808539  0.07676756  0.91414099  1.0
  H  H12  1  0.33191461  0.57676756  0.58585901  1.0
  H  H13  1  0.33191461  0.92323244  0.08585901  1.0
  H  H14  1  0.66066182  0.54830740  0.35403790  1.0
  H  H15  1  0.66066182  0.95169260  0.85403790  1.0
  H  H16  1  0.33933818  0.45169260  0.64596210  1.0
  H  H17  1  0.33933818  0.04830740  0.14596210  1.0
  C  C18  1  0.88593908  0.44030996  0.26175901  1.0
  C  C19  1  0.88593908  0.05969004  0.76175901  1.0
  C  C20  1  0.11406092  0.55969004  0.73824099  1.0
  C  C21  1  0.11406092  0.94030996  0.23824099  1.0
  S  S22  1  0.96627919  0.53086156  0.15497105  1.0
  S  S23  1  0.96627919  0.96913844  0.65497105  1.0
  S  S24  1  0.03372081  0.46913844  0.84502895  1.0
  S  S25  1  0.03372081  0.03086156  0.34502895  1.0
  N  N26  1  -0.01281073  0.34312666  0.25821549  1.0
  N  N27  1  -0.01281073  0.15687334  0.75821549  1.0
  N  N28  1  1.01281073  0.65687334  0.74178451  1.0
  N  N29  1  1.01281073  0.84312666  0.24178451  1.0
  N  N30  1  0.72479171  0.47247233  0.34892643  1.0
  N  N31  1  0.72479171  0.02752767  0.84892643  1.0
  N  N32  1  0.27520829  0.52752767  0.65107357  1.0
  N  N33  1  0.27520829  0.97247233  0.15107357  1.0
  N  N34  1  0.53172059  0.25186333  0.01325671  1.0
  N  N35  1  0.53172059  0.24813667  0.51325671  1.0
  N  N36  1  0.46827941  0.74813667  0.98674329  1.0
  N  N37  1  0.46827941  0.75186333  0.48674329  1.0
  O  O38  1  0.70090060  0.28190166  0.93553161  1.0
  O  O39  1  0.70090060  0.21809834  0.43553161  1.0
  O  O40  1  0.29909940  0.71809834  0.06446839  1.0
  O  O41  1  0.29909940  0.78190166  0.56446839  1.0
  O  O42  1  0.39326556  0.31957750  0.07165612  1.0
  O  O43  1  0.39326556  0.18042250  0.57165612  1.0
  O  O44  1  0.60673444  0.68042250  0.92834388  1.0
  O  O45  1  0.60673444  0.81957750  0.42834388  1.0
  O  O46  1  0.49645831  0.15698808  0.03392787  1.0
  O  O47  1  0.49645831  0.34301192  0.53392787  1.0
  O  O48  1  0.50354169  0.84301192  0.96607213  1.0
  O  O49  1  0.50354169  0.65698808  0.46607213  1.0
