# generated using pymatgen
data_AgSbPbS3
_symmetry_space_group_name_H-M   'P 1'
_cell_length_a   6.05137295
_cell_length_b   12.88858822
_cell_length_c   7.81099305
_cell_angle_alpha   90.00000000
_cell_angle_beta   89.55313328
_cell_angle_gamma   90.00000000
_symmetry_Int_Tables_number   1
_chemical_formula_structural   AgSbPbS3
_chemical_formula_sum   'Ag4 Sb4 Pb4 S12'
_cell_volume   609.18936152
_cell_formula_units_Z   4
loop_
 _symmetry_equiv_pos_site_id
 _symmetry_equiv_pos_as_xyz
  1  'x, y, z'
loop_
 _atom_site_type_symbol
 _atom_site_label
 _atom_site_symmetry_multiplicity
 _atom_site_fract_x
 _atom_site_fract_y
 _atom_site_fract_z
 _atom_site_occupancy
  Ag  Ag0  1  0.75347703  0.76459707  0.38047922  1.0
  Ag  Ag1  1  0.75347703  0.73540293  0.88047922  1.0
  Ag  Ag2  1  0.24652297  0.26459707  0.11952078  1.0
  Ag  Ag3  1  0.24652297  0.23540293  0.61952078  1.0
  Sb  Sb4  1  0.73671464  0.09503225  0.35454300  1.0
  Sb  Sb5  1  0.73671464  0.40496775  0.85454300  1.0
  Sb  Sb6  1  0.26328536  0.59503225  0.14545700  1.0
  Sb  Sb7  1  0.26328536  0.90496775  0.64545700  1.0
  Pb  Pb8  1  0.76153782  0.42188678  0.35250989  1.0
  Pb  Pb9  1  0.76153782  0.07811322  0.85250989  1.0
  Pb  Pb10  1  0.23846218  0.92188678  0.14749011  1.0
  Pb  Pb11  1  0.23846218  0.57811322  0.64749011  1.0
  S  S12  1  0.81989878  0.22613689  0.12935799  1.0
  S  S13  1  0.81989878  0.27386311  0.62935799  1.0
  S  S14  1  0.18010122  0.72613689  0.37064201  1.0
  S  S15  1  0.18010122  0.77386311  0.87064201  1.0
  S  S16  1  0.74743155  0.94297573  0.15027605  1.0
  S  S17  1  0.74743155  0.55702427  0.65027605  1.0
  S  S18  1  0.25256845  0.44297573  0.34972395  1.0
  S  S19  1  0.25256845  0.05702427  0.84972395  1.0
  S  S20  1  0.33371722  0.12808991  0.35372413  1.0
  S  S21  1  0.33371722  0.37191009  0.85372413  1.0
  S  S22  1  0.66628278  0.62808991  0.14627587  1.0
  S  S23  1  0.66628278  0.87191009  0.64627587  1.0
