# generated using pymatgen
data_BP2N2Cl7
_symmetry_space_group_name_H-M   'P 1'
_cell_length_a   10.07110341
_cell_length_b   8.83877510
_cell_length_c   16.60987449
_cell_angle_alpha   90.00000000
_cell_angle_beta   114.03593071
_cell_angle_gamma   90.00000000
_symmetry_Int_Tables_number   1
_chemical_formula_structural   BP2N2Cl7
_chemical_formula_sum   'B4 P8 N8 Cl28'
_cell_volume   1350.34360366
_cell_formula_units_Z   4
loop_
 _symmetry_equiv_pos_site_id
 _symmetry_equiv_pos_as_xyz
  1  'x, y, z'
loop_
 _atom_site_type_symbol
 _atom_site_label
 _atom_site_symmetry_multiplicity
 _atom_site_fract_x
 _atom_site_fract_y
 _atom_site_fract_z
 _atom_site_occupancy
  B  B0  1  0.60137343  0.06636566  0.02287912  1.0
  B  B1  1  0.60137343  0.43363434  0.52287912  1.0
  B  B2  1  0.39862657  0.93363434  0.97712088  1.0
  B  B3  1  0.39862657  0.56636566  0.47712088  1.0
  P  P4  1  0.82562963  0.95697439  0.33014886  1.0
  P  P5  1  0.82562963  0.54302561  0.83014886  1.0
  P  P6  1  0.17437037  0.04302561  0.66985114  1.0
  P  P7  1  0.17437037  0.45697439  0.16985114  1.0
  P  P8  1  0.59207135  0.87129853  0.15828639  1.0
  P  P9  1  0.59207135  0.62870147  0.65828639  1.0
  P  P10  1  0.40792865  0.12870147  0.84171361  1.0
  P  P11  1  0.40792865  0.37129853  0.34171361  1.0
  N  N12  1  0.72163884  0.96435108  0.23089962  1.0
  N  N13  1  0.72163884  0.53564892  0.73089962  1.0
  N  N14  1  0.27836116  0.03564892  0.76910038  1.0
  N  N15  1  0.27836116  0.46435108  0.26910038  1.0
  N  N16  1  0.53032889  0.95573970  0.06663362  1.0
  N  N17  1  0.53032889  0.54426030  0.56663362  1.0
  N  N18  1  0.46967111  0.04426030  0.93336638  1.0
  N  N19  1  0.46967111  0.45573970  0.43336638  1.0
  Cl  Cl20  1  0.97448995  0.79182927  0.36545350  1.0
  Cl  Cl21  1  0.97448995  0.70817073  0.86545350  1.0
  Cl  Cl22  1  0.02551005  0.20817073  0.63454650  1.0
  Cl  Cl23  1  0.02551005  0.29182927  0.13454650  1.0
  Cl  Cl24  1  0.72709055  0.93816595  0.41274224  1.0
  Cl  Cl25  1  0.72709055  0.56183405  0.91274224  1.0
  Cl  Cl26  1  0.27290945  0.06183405  0.58725776  1.0
  Cl  Cl27  1  0.27290945  0.43816595  0.08725776  1.0
  Cl  Cl28  1  0.93989863  0.14909532  0.36279357  1.0
  Cl  Cl29  1  0.93989863  0.35090468  0.86279357  1.0
  Cl  Cl30  1  0.06010137  0.85090468  0.63720643  1.0
  Cl  Cl31  1  0.06010137  0.64909532  0.13720643  1.0
  Cl  Cl32  1  0.66279518  0.65718556  0.15299608  1.0
  Cl  Cl33  1  0.66279518  0.84281444  0.65299608  1.0
  Cl  Cl34  1  0.33720482  0.34281444  0.84700392  1.0
  Cl  Cl35  1  0.33720482  0.15718556  0.34700392  1.0
  Cl  Cl36  1  0.43014406  0.83485747  0.19795812  1.0
  Cl  Cl37  1  0.43014406  0.66514253  0.69795812  1.0
  Cl  Cl38  1  0.56985594  0.16514253  0.80204188  1.0
  Cl  Cl39  1  0.56985594  0.33485747  0.30204188  1.0
  Cl  Cl40  1  0.77846114  -0.00156187  0.02423174  1.0
  Cl  Cl41  1  0.77846114  0.50156187  0.52423174  1.0
  Cl  Cl42  1  0.22153886  1.00156187  0.97576826  1.0
  Cl  Cl43  1  0.22153886  0.49843813  0.47576826  1.0
  Cl  Cl44  1  0.62468197  0.26289285  0.06749757  1.0
  Cl  Cl45  1  0.62468197  0.23710715  0.56749757  1.0
  Cl  Cl46  1  0.37531803  0.73710715  0.93250243  1.0
  Cl  Cl47  1  0.37531803  0.76289285  0.43250243  1.0
