# generated using pymatgen
data_Li3CaMnN3
_symmetry_space_group_name_H-M   'P 1'
_cell_length_a   7.01841066
_cell_length_b   7.01841066
_cell_length_c   7.01841066
_cell_angle_alpha   48.20874240
_cell_angle_beta   48.20874240
_cell_angle_gamma   48.20874240
_symmetry_Int_Tables_number   1
_chemical_formula_structural   Li3CaMnN3
_chemical_formula_sum   'Li6 Ca2 Mn2 N6'
_cell_volume   176.14091255
_cell_formula_units_Z   2
loop_
 _symmetry_equiv_pos_site_id
 _symmetry_equiv_pos_as_xyz
  1  'x, y, z'
loop_
 _atom_site_type_symbol
 _atom_site_label
 _atom_site_symmetry_multiplicity
 _atom_site_fract_x
 _atom_site_fract_y
 _atom_site_fract_z
 _atom_site_occupancy
  Li  Li0  1  0.24036607  0.89624689  -0.52330680  1.0
  Li  Li1  1  0.52330680  -0.24036607  0.10375311  1.0
  Li  Li2  1  1.10375311  -0.47669320  -0.24036607  1.0
  Li  Li3  1  0.75963393  0.10375311  -0.47669320  1.0
  Li  Li4  1  0.47669320  0.24036607  -0.10375311  1.0
  Li  Li5  1  0.89624689  0.47669320  -0.75963393  1.0
  Ca  Ca6  1  0.33822038  0.33822038  -0.66177962  1.0
  Ca  Ca7  1  0.66177962  0.66177962  -0.33822038  1.0
  Mn  Mn8  1  0.06540650  0.06540650  0.06540650  1.0
  Mn  Mn9  1  0.93459350  -0.06540650  -0.06540650  1.0
  N  N10  1  0.09261314  0.78463863  -0.61706553  1.0
  N  N11  1  0.61706553  -0.09261314  0.21536137  1.0
  N  N12  1  1.21536137  -0.38293447  -0.09261314  1.0
  N  N13  1  0.90738686  0.21536137  -0.38293447  1.0
  N  N14  1  0.38293447  0.09261314  -0.21536137  1.0
  N  N15  1  0.78463863  0.38293447  -0.90738686  1.0
