# generated using pymatgen
data_CuH14C2N10(ClO7)2
_symmetry_space_group_name_H-M   'P 1'
_cell_length_a   7.88932385
_cell_length_b   7.85866011
_cell_length_c   8.29581135
_cell_angle_alpha   70.96685756
_cell_angle_beta   70.37548745
_cell_angle_gamma   77.97510414
_symmetry_Int_Tables_number   1
_chemical_formula_structural   CuH14C2N10(ClO7)2
_chemical_formula_sum   'Cu1 H14 C2 N10 Cl2 O14'
_cell_volume   455.14651294
_cell_formula_units_Z   1
loop_
 _symmetry_equiv_pos_site_id
 _symmetry_equiv_pos_as_xyz
  1  'x, y, z'
loop_
 _atom_site_type_symbol
 _atom_site_label
 _atom_site_symmetry_multiplicity
 _atom_site_fract_x
 _atom_site_fract_y
 _atom_site_fract_z
 _atom_site_occupancy
  Cl  Cl0  1  0.73062466  0.55798531  0.18906605  1.0
  Cl  Cl1  1  0.26937534  0.44201469  0.81093395  1.0
  C  C2  1  0.98608920  0.12006243  0.69758697  1.0
  C  C3  1  0.01391080  0.87993757  0.30241303  1.0
  H  H4  1  0.68369472  0.42670898  0.69591331  1.0
  H  H5  1  0.31630528  0.57329102  0.30408669  1.0
  H  H6  1  0.12886847  0.87465525  0.69474718  1.0
  H  H7  1  0.87113153  0.12534475  0.30525282  1.0
  H  H8  1  0.79570095  0.45453308  0.82172593  1.0
  H  H9  1  0.20429905  0.54546692  0.17827407  1.0
  H  H10  1  0.93040308  0.87134978  0.87373171  1.0
  H  H11  1  0.06959692  0.12865022  0.12626829  1.0
  H  H12  1  0.75400638  0.14304890  0.91102665  1.0
  H  H13  1  0.24599362  0.85695110  0.08897335  1.0
  H  H14  1  0.59284859  0.92934673  0.16340381  1.0
  H  H15  1  0.40715141  0.07065327  0.83659619  1.0
  H  H16  1  0.53305350  0.12725939  0.18110388  1.0
  H  H17  1  0.46694650  0.87274061  0.81889612  1.0
  N  N18  1  0.84026969  0.20817168  0.78690674  1.0
  N  N19  1  0.15973031  0.79182832  0.21309326  1.0
  N  N20  1  0.01242598  0.94115019  0.75605120  1.0
  N  N21  1  0.98757402  0.05884981  0.24394880  1.0
  N  N22  1  0.24466024  0.15425456  0.44421421  1.0
  N  N23  1  0.75533976  0.84574544  0.55578579  1.0
  N  N24  1  0.80701441  0.39711291  0.72254068  1.0
  N  N25  1  0.19298559  0.60288709  0.27745932  1.0
  N  N26  1  0.09405164  0.23003206  0.54832601  1.0
  N  N27  1  0.90594836  0.76996794  0.45167399  1.0
  Cu  Cu28  1  0.00000000  0.50000000  0.50000000  1.0
  O  O29  1  0.33482590  0.26267072  0.31226393  1.0
  O  O30  1  0.66517410  0.73732928  0.68773607  1.0
  O  O31  1  0.28827462  0.98825554  0.47790817  1.0
  O  O32  1  0.71172538  0.01174446  0.52209183  1.0
  O  O33  1  0.79074873  0.42509356  0.33636458  1.0
  O  O34  1  0.20925127  0.57490644  0.66363542  1.0
  O  O35  1  0.56285941  0.66745898  0.26148515  1.0
  O  O36  1  0.43714059  0.33254102  0.73851485  1.0
  O  O37  1  0.87228231  0.67877939  0.08274917  1.0
  O  O38  1  0.12771769  0.32122061  0.91725083  1.0
  O  O39  1  0.69621110  0.46394845  0.07946313  1.0
  O  O40  1  0.30378890  0.53605155  0.92053687  1.0
  O  O41  1  0.62870775  0.05221990  0.11517202  1.0
  O  O42  1  0.37129225  0.94778010  0.88482798  1.0
