# generated using pymatgen
data_TiPHO5
_symmetry_space_group_name_H-M   'P 1'
_cell_length_a   7.49259689
_cell_length_b   7.21285613
_cell_length_c   7.46075241
_cell_angle_alpha   90.00000000
_cell_angle_beta   116.77634152
_cell_angle_gamma   90.00000000
_symmetry_Int_Tables_number   1
_chemical_formula_structural   TiPHO5
_chemical_formula_sum   'Ti4 P4 H4 O20'
_cell_volume   359.96708149
_cell_formula_units_Z   4
loop_
 _symmetry_equiv_pos_site_id
 _symmetry_equiv_pos_as_xyz
  1  'x, y, z'
loop_
 _atom_site_type_symbol
 _atom_site_label
 _atom_site_symmetry_multiplicity
 _atom_site_fract_x
 _atom_site_fract_y
 _atom_site_fract_z
 _atom_site_occupancy
  Ti  Ti0  1  0.71900496  0.11371913  0.46882113  1.0
  Ti  Ti1  1  0.28099504  0.61371913  0.53117887  1.0
  Ti  Ti2  1  0.71720462  0.60990799  0.97224303  1.0
  Ti  Ti3  1  0.28279538  0.10990799  0.02775697  1.0
  P  P4  1  1.00006033  0.47143643  0.75152363  1.0
  P  P5  1  -0.00006033  0.97143643  0.24847637  1.0
  P  P6  1  0.49724207  0.22808211  0.74776179  1.0
  P  P7  1  0.50275793  0.72808211  0.25223821  1.0
  H  H8  1  0.95703625  0.36479816  0.29545330  1.0
  H  H9  1  0.04296375  0.86479816  0.70454670  1.0
  H  H10  1  0.92622767  0.91188141  0.82377996  1.0
  H  H11  1  0.07377233  0.41188141  0.17622004  1.0
  O  O12  1  0.99543517  -0.02776801  0.75428676  1.0
  O  O13  1  0.00456483  0.47223199  0.24571324  1.0
  O  O14  1  0.90336692  0.10477976  0.34347636  1.0
  O  O15  1  0.09663308  0.60477976  0.65652364  1.0
  O  O16  1  0.89883951  0.59666755  0.84775905  1.0
  O  O17  1  0.10116049  0.09666755  0.15224095  1.0
  O  O18  1  0.84531281  0.34672141  0.58449579  1.0
  O  O19  1  0.15468719  0.84672141  0.41550421  1.0
  O  O20  1  0.65804081  0.35028384  0.91366432  1.0
  O  O21  1  0.34195919  0.85028384  0.08633568  1.0
  O  O22  1  0.59817929  0.10496395  0.64991167  1.0
  O  O23  1  0.40182071  0.60496395  0.35008833  1.0
  O  O24  1  0.49872012  0.68617101  0.75267892  1.0
  O  O25  1  0.50127988  0.18617101  0.24732108  1.0
  O  O26  1  0.39583732  0.10093678  0.84188574  1.0
  O  O27  1  0.60416268  0.60093678  0.15811426  1.0
  O  O28  1  0.33557049  0.35325042  0.58612847  1.0
  O  O29  1  0.66442951  0.85325042  0.41387153  1.0
  O  O30  1  0.15848064  0.34886806  0.91886778  1.0
  O  O31  1  0.84151936  0.84886806  0.08113222  1.0
