# generated using pymatgen
data_ZnB4O7
_symmetry_space_group_name_H-M   'P 1'
_cell_length_a   6.35569570
_cell_length_b   6.35569570
_cell_length_c   5.21279419
_cell_angle_alpha   90.00000000
_cell_angle_beta   90.00000000
_cell_angle_gamma   62.04563666
_symmetry_Int_Tables_number   1
_chemical_formula_structural   ZnB4O7
_chemical_formula_sum   'Zn2 B8 O14'
_cell_volume   186.00107257
_cell_formula_units_Z   2
loop_
 _symmetry_equiv_pos_site_id
 _symmetry_equiv_pos_as_xyz
  1  'x, y, z'
loop_
 _atom_site_type_symbol
 _atom_site_label
 _atom_site_symmetry_multiplicity
 _atom_site_fract_x
 _atom_site_fract_y
 _atom_site_fract_z
 _atom_site_occupancy
  Zn  Zn0  1  -0.23242837  1.23242837  0.25000000  1.0
  Zn  Zn1  1  0.23242837  0.76757163  0.75000000  1.0
  B  B2  1  0.07620326  0.68857807  0.25000000  1.0
  B  B3  1  -0.31142193  1.07620326  0.75000000  1.0
  B  B4  1  0.31142193  0.92379674  0.25000000  1.0
  B  B5  1  -0.07620326  1.31142193  0.75000000  1.0
  B  B6  1  0.70253906  0.70253906  0.50000000  1.0
  B  B7  1  0.70253906  0.70253906  0.00000000  1.0
  B  B8  1  0.29746094  0.29746094  0.50000000  1.0
  B  B9  1  0.29746094  0.29746094  0.00000000  1.0
  O  O10  1  0.18961984  0.55384772  0.47706108  1.0
  O  O11  1  0.18961984  0.55384772  0.02293892  1.0
  O  O12  1  -0.44615228  1.18961984  0.97706108  1.0
  O  O13  1  -0.44615228  1.18961984  0.52293892  1.0
  O  O14  1  0.44615228  0.81038016  0.47706108  1.0
  O  O15  1  0.44615228  0.81038016  0.02293892  1.0
  O  O16  1  -0.18961984  1.44615228  0.97706108  1.0
  O  O17  1  -0.18961984  1.44615228  0.52293892  1.0
  O  O18  1  -0.19513566  1.75481956  0.25000000  1.0
  O  O19  1  0.75481956  0.80486434  0.75000000  1.0
  O  O20  1  -0.75481956  1.19513566  0.25000000  1.0
  O  O21  1  0.19513566  0.24518044  0.75000000  1.0
  O  O22  1  0.08071676  0.91928324  0.25000000  1.0
  O  O23  1  -0.08071676  1.08071676  0.75000000  1.0
