# generated using pymatgen
data_Cu2HgGeS4
_symmetry_space_group_name_H-M   'P 1'
_cell_length_a   6.60782850
_cell_length_b   6.60782850
_cell_length_c   6.60782850
_cell_angle_alpha   130.29118887
_cell_angle_beta   130.29118887
_cell_angle_gamma   72.94167881
_symmetry_Int_Tables_number   1
_chemical_formula_structural   Cu2HgGeS4
_chemical_formula_sum   'Cu2 Hg1 Ge1 S4'
_cell_volume   163.95547838
_cell_formula_units_Z   1
loop_
 _symmetry_equiv_pos_site_id
 _symmetry_equiv_pos_as_xyz
  1  'x, y, z'
loop_
 _atom_site_type_symbol
 _atom_site_label
 _atom_site_symmetry_multiplicity
 _atom_site_fract_x
 _atom_site_fract_y
 _atom_site_fract_z
 _atom_site_occupancy
  Cu  Cu0  1  0.25000000  0.75000000  0.50000000  1.0
  Cu  Cu1  1  0.75000000  0.25000000  0.50000000  1.0
  Hg  Hg2  1  0.50000000  0.50000000  1.00000000  1.0
  Ge  Ge3  1  0.00000000  0.00000000  0.00000000  1.0
  S  S4  1  0.36204142  0.90936256  1.00000000  1.0
  S  S5  1  1.09063744  1.09063744  1.45267887  1.0
  S  S6  1  0.63795858  0.63795858  0.54732113  1.0
  S  S7  1  0.90936256  0.36204142  1.00000000  1.0
