# generated using pymatgen
data_Tl2Mo2PbO8
_symmetry_space_group_name_H-M   'P 1'
_cell_length_a   8.09080887
_cell_length_b   8.09080887
_cell_length_c   8.09080887
_cell_angle_alpha   45.06638598
_cell_angle_beta   45.06638598
_cell_angle_gamma   45.06638598
_symmetry_Int_Tables_number   1
_chemical_formula_structural   Tl2Mo2PbO8
_chemical_formula_sum   'Tl2 Mo2 Pb1 O8'
_cell_volume   241.62357008
_cell_formula_units_Z   1
loop_
 _symmetry_equiv_pos_site_id
 _symmetry_equiv_pos_as_xyz
  1  'x, y, z'
loop_
 _atom_site_type_symbol
 _atom_site_label
 _atom_site_symmetry_multiplicity
 _atom_site_fract_x
 _atom_site_fract_y
 _atom_site_fract_z
 _atom_site_occupancy
  Tl  Tl0  1  0.80781099  0.80781099  0.80781099  1.0
  Tl  Tl1  1  1.19218901  1.19218901  0.19218901  1.0
  Mo  Mo2  1  1.60703643  0.60703643  0.60703643  1.0
  Mo  Mo3  1  1.39296357  0.39296357  0.39296357  1.0
  Pb  Pb4  1  0.00000000  0.00000000  0.00000000  1.0
  O  O5  1  1.25969698  0.25969698  0.73621423  1.0
  O  O6  1  1.25969698  0.73621423  0.25969698  1.0
  O  O7  1  1.26378577  0.74030302  0.74030302  1.0
  O  O8  1  1.74030302  0.26378577  0.74030302  1.0
  O  O9  1  1.74030302  0.74030302  0.26378577  1.0
  O  O10  1  1.73621423  0.25969698  0.25969698  1.0
  O  O11  1  0.68753613  0.68753613  0.68753613  1.0
  O  O12  1  1.31246387  1.31246387  0.31246387  1.0
