# generated using pymatgen
data_NO
_symmetry_space_group_name_H-M   'P 1'
_cell_length_a   4.65975851
_cell_length_b   4.65975851
_cell_length_c   6.88824896
_cell_angle_alpha   83.33078493
_cell_angle_beta   96.66921507
_cell_angle_gamma   112.27662007
_symmetry_Int_Tables_number   1
_chemical_formula_structural   NO
_chemical_formula_sum   'N4 O4'
_cell_volume   137.04362946
_cell_formula_units_Z   4
loop_
 _symmetry_equiv_pos_site_id
 _symmetry_equiv_pos_as_xyz
  1  'x, y, z'
loop_
 _atom_site_type_symbol
 _atom_site_label
 _atom_site_symmetry_multiplicity
 _atom_site_fract_x
 _atom_site_fract_y
 _atom_site_fract_z
 _atom_site_occupancy
  N  N0  1  0.88057576  -0.11942424  0.25000000  1.0
  N  N1  1  1.11942424  0.11942424  0.75000000  1.0
  N  N2  1  0.64147573  -0.35852427  0.25000000  1.0
  N  N3  1  1.35852427  0.35852427  0.75000000  1.0
  O  O4  1  1.65985574  0.40074141  0.34470420  1.0
  O  O5  1  0.59925859  -0.65985574  0.84470420  1.0
  O  O6  1  1.40074141  0.65985574  0.15529580  1.0
  O  O7  1  0.34014426  -0.40074141  0.65529580  1.0
