# generated using pymatgen
data_CaSeO4
_symmetry_space_group_name_H-M   'P 1'
_cell_length_a   8.29883271
_cell_length_b   6.75214194
_cell_length_c   7.71216592
_cell_angle_alpha   90.00000000
_cell_angle_beta   112.56315660
_cell_angle_gamma   90.00000000
_symmetry_Int_Tables_number   1
_chemical_formula_structural   CaSeO4
_chemical_formula_sum   'Ca4 Se4 O16'
_cell_volume   399.07239078
_cell_formula_units_Z   4
loop_
 _symmetry_equiv_pos_site_id
 _symmetry_equiv_pos_as_xyz
  1  'x, y, z'
loop_
 _atom_site_type_symbol
 _atom_site_label
 _atom_site_symmetry_multiplicity
 _atom_site_fract_x
 _atom_site_fract_y
 _atom_site_fract_z
 _atom_site_occupancy
  Ca  Ca0  1  0.90034518  0.63627242  0.13691070  1.0
  Ca  Ca1  1  0.90034518  0.86372758  0.63691070  1.0
  Ca  Ca2  1  0.09965482  0.13627242  0.36308930  1.0
  Ca  Ca3  1  0.09965482  0.36372758  0.86308930  1.0
  O  O4  1  0.90721523  0.29657880  0.02733395  1.0
  O  O5  1  0.90721523  0.20342120  0.52733395  1.0
  O  O6  1  0.09278477  0.79657880  0.47266605  1.0
  O  O7  1  0.09278477  0.70342120  0.97266605  1.0
  O  O8  1  0.67396078  0.83152743  0.31658049  1.0
  O  O9  1  0.67396078  0.66847257  0.81658049  1.0
  O  O10  1  0.32603922  0.33152743  0.18341951  1.0
  O  O11  1  0.32603922  0.16847257  0.68341951  1.0
  O  O12  1  0.83551876  0.96897730  0.15463318  1.0
  O  O13  1  0.83551876  0.53102270  0.65463318  1.0
  O  O14  1  0.16448124  0.46897730  0.34536682  1.0
  O  O15  1  0.16448124  0.03102270  0.84536682  1.0
  O  O16  1  0.73373467  0.48784523  0.28090416  1.0
  O  O17  1  0.73373467  0.01215477  0.78090416  1.0
  O  O18  1  0.26626533  0.98784523  0.21909584  1.0
  O  O19  1  0.26626533  0.51215477  0.71909584  1.0
  Se  Se20  1  0.73103627  0.36430322  0.47303990  1.0
  Se  Se21  1  0.73103627  0.13569678  -0.02696010  1.0
  Se  Se22  1  0.26896373  0.86430322  1.02696010  1.0
  Se  Se23  1  0.26896373  0.63569678  0.52696010  1.0
