# generated using pymatgen
data_TlAgSe2
_symmetry_space_group_name_H-M   'P 1'
_cell_length_a   10.48062583
_cell_length_b   10.48062583
_cell_length_c   7.41210641
_cell_angle_alpha   90.00000000
_cell_angle_beta   90.00000000
_cell_angle_gamma   120.00000000
_symmetry_Int_Tables_number   1
_chemical_formula_structural   TlAgSe2
_chemical_formula_sum   'Tl6 Ag6 Se12'
_cell_volume   705.09349825
_cell_formula_units_Z   6
loop_
 _symmetry_equiv_pos_site_id
 _symmetry_equiv_pos_as_xyz
  1  'x, y, z'
loop_
 _atom_site_type_symbol
 _atom_site_label
 _atom_site_symmetry_multiplicity
 _atom_site_fract_x
 _atom_site_fract_y
 _atom_site_fract_z
 _atom_site_occupancy
  Tl  Tl0  1  0.33333333  0.66666667  0.25000081  1.0
  Tl  Tl1  1  0.33333333  0.66666667  0.74999919  1.0
  Tl  Tl2  1  0.66666667  0.33333333  0.25000081  1.0
  Tl  Tl3  1  0.66666667  0.33333333  0.74999919  1.0
  Tl  Tl4  1  0.00000000  0.00000000  0.25025540  1.0
  Tl  Tl5  1  0.00000000  0.00000000  0.74974460  1.0
  Ag  Ag6  1  0.71087408  0.71087408  0.24998580  1.0
  Ag  Ag7  1  0.71087408  0.00000000  0.75001420  1.0
  Ag  Ag8  1  -0.00000000  0.71087408  0.75001420  1.0
  Ag  Ag9  1  -0.00000000  0.28912592  0.24998580  1.0
  Ag  Ag10  1  0.28912592  0.28912592  0.75001420  1.0
  Ag  Ag11  1  0.28912592  0.00000000  0.24998580  1.0
  Se  Se12  1  0.59690964  0.79845482  0.50000000  1.0
  Se  Se13  1  0.79845482  0.59690964  0.50000000  1.0
  Se  Se14  1  0.79845482  0.20154518  0.50000000  1.0
  Se  Se15  1  0.20154518  0.79845482  0.50000000  1.0
  Se  Se16  1  0.20154518  0.40309036  0.50000000  1.0
  Se  Se17  1  0.40309036  0.20154518  0.50000000  1.0
  Se  Se18  1  0.59689299  0.79844649  0.00000000  1.0
  Se  Se19  1  0.79844649  0.59689299  0.00000000  1.0
  Se  Se20  1  0.79844649  0.20155351  0.00000000  1.0
  Se  Se21  1  0.20155351  0.79844649  0.00000000  1.0
  Se  Se22  1  0.20155351  0.40310701  0.00000000  1.0
  Se  Se23  1  0.40310701  0.20155351  0.00000000  1.0
