# generated using pymatgen
data_CsPbF3
_symmetry_space_group_name_H-M   'P 1'
_cell_length_a   6.90514355
_cell_length_b   9.75425154
_cell_length_c   6.89834182
_cell_angle_alpha   90.00000000
_cell_angle_beta   90.00000000
_cell_angle_gamma   90.00000000
_symmetry_Int_Tables_number   1
_chemical_formula_structural   CsPbF3
_chemical_formula_sum   'Cs4 Pb4 F12'
_cell_volume   464.63441349
_cell_formula_units_Z   4
loop_
 _symmetry_equiv_pos_site_id
 _symmetry_equiv_pos_as_xyz
  1  'x, y, z'
loop_
 _atom_site_type_symbol
 _atom_site_label
 _atom_site_symmetry_multiplicity
 _atom_site_fract_x
 _atom_site_fract_y
 _atom_site_fract_z
 _atom_site_occupancy
  Cs  Cs0  1  0.52057326  0.25000000  0.00455612  1.0
  Cs  Cs1  1  0.02057326  0.25000000  0.49544388  1.0
  Cs  Cs2  1  0.47942674  0.75000000  0.99544388  1.0
  Cs  Cs3  1  0.97942674  0.75000000  0.50455612  1.0
  Pb  Pb4  1  0.50000000  0.00000000  0.50000000  1.0
  Pb  Pb5  1  0.00000000  0.50000000  0.00000000  1.0
  Pb  Pb6  1  0.50000000  0.50000000  0.50000000  1.0
  Pb  Pb7  1  0.00000000  0.00000000  0.00000000  1.0
  F  F8  1  0.22208131  0.96839017  0.72189928  1.0
  F  F9  1  0.72208131  0.53160983  0.77810072  1.0
  F  F10  1  0.77791869  0.46839017  0.27810072  1.0
  F  F11  1  0.27791869  0.03160983  0.22189928  1.0
  F  F12  1  0.77791869  0.03160983  0.27810072  1.0
  F  F13  1  0.27791869  0.46839017  0.22189928  1.0
  F  F14  1  0.22208131  0.53160983  0.72189928  1.0
  F  F15  1  0.72208131  0.96839017  0.77810072  1.0
  F  F16  1  0.48482799  0.25000000  0.55938004  1.0
  F  F17  1  0.98482799  0.25000000  0.94061996  1.0
  F  F18  1  0.51517201  0.75000000  0.44061996  1.0
  F  F19  1  0.01517201  0.75000000  0.05938004  1.0
