# generated using pymatgen
data_Sr5Bi3
_symmetry_space_group_name_H-M   'P 1'
_cell_length_a   13.76624913
_cell_length_b   10.29294236
_cell_length_c   8.93074154
_cell_angle_alpha   90.00000000
_cell_angle_beta   90.00000000
_cell_angle_gamma   90.00000000
_symmetry_Int_Tables_number   1
_chemical_formula_structural   Sr5Bi3
_chemical_formula_sum   'Sr20 Bi12'
_cell_volume   1265.44328771
_cell_formula_units_Z   4
loop_
 _symmetry_equiv_pos_site_id
 _symmetry_equiv_pos_as_xyz
  1  'x, y, z'
loop_
 _atom_site_type_symbol
 _atom_site_label
 _atom_site_symmetry_multiplicity
 _atom_site_fract_x
 _atom_site_fract_y
 _atom_site_fract_z
 _atom_site_occupancy
  Sr  Sr0  1  0.91661891  0.46099911  0.18663133  1.0
  Sr  Sr1  1  0.91661891  0.03900089  0.18663133  1.0
  Sr  Sr2  1  0.41661891  0.46099911  0.31336867  1.0
  Sr  Sr3  1  0.41661891  0.03900089  0.31336867  1.0
  Sr  Sr4  1  0.08338109  0.96099911  0.81336867  1.0
  Sr  Sr5  1  0.08338109  0.53900089  0.81336867  1.0
  Sr  Sr6  1  0.58338109  0.96099911  0.68663133  1.0
  Sr  Sr7  1  0.58338109  0.53900089  0.68663133  1.0
  Sr  Sr8  1  0.99721088  0.25000000  0.53522057  1.0
  Sr  Sr9  1  0.49721088  0.25000000  0.96477943  1.0
  Sr  Sr10  1  0.00278912  0.75000000  0.46477943  1.0
  Sr  Sr11  1  0.50278912  0.75000000  0.03522057  1.0
  Sr  Sr12  1  0.77520000  0.25000000  0.81874398  1.0
  Sr  Sr13  1  0.27520000  0.25000000  0.68125602  1.0
  Sr  Sr14  1  0.22480000  0.75000000  0.18125602  1.0
  Sr  Sr15  1  0.72480000  0.75000000  0.31874398  1.0
  Sr  Sr16  1  0.70192962  0.25000000  0.34256084  1.0
  Sr  Sr17  1  0.20192962  0.25000000  0.15743916  1.0
  Sr  Sr18  1  0.29807038  0.75000000  0.65743916  1.0
  Sr  Sr19  1  0.79807038  0.75000000  0.84256084  1.0
  Bi  Bi20  1  0.67219823  0.49118640  0.05570973  1.0
  Bi  Bi21  1  0.67219823  0.00881360  0.05570973  1.0
  Bi  Bi22  1  0.17219823  0.49118640  0.44429027  1.0
  Bi  Bi23  1  0.17219823  0.00881360  0.44429027  1.0
  Bi  Bi24  1  0.32780177  0.99118640  0.94429027  1.0
  Bi  Bi25  1  0.32780177  0.50881360  0.94429027  1.0
  Bi  Bi26  1  0.82780177  0.99118640  0.55570973  1.0
  Bi  Bi27  1  0.82780177  0.50881360  0.55570973  1.0
  Bi  Bi28  1  0.51328753  0.25000000  0.57466977  1.0
  Bi  Bi29  1  0.01328753  0.25000000  0.92533023  1.0
  Bi  Bi30  1  0.48671247  0.75000000  0.42533023  1.0
  Bi  Bi31  1  0.98671247  0.75000000  0.07466977  1.0
