# generated using pymatgen
data_S
_symmetry_space_group_name_H-M   'P 1'
_cell_length_a   12.01037144
_cell_length_b   12.01037144
_cell_length_c   9.66248288
_cell_angle_alpha   80.17303844
_cell_angle_beta   99.82696156
_cell_angle_gamma   129.13508770
_symmetry_Int_Tables_number   1
_chemical_formula_structural   S
_chemical_formula_sum   S32
_cell_volume   1061.63553330
_cell_formula_units_Z   32
loop_
 _symmetry_equiv_pos_site_id
 _symmetry_equiv_pos_as_xyz
  1  'x, y, z'
loop_
 _atom_site_type_symbol
 _atom_site_label
 _atom_site_symmetry_multiplicity
 _atom_site_fract_x
 _atom_site_fract_y
 _atom_site_fract_z
 _atom_site_occupancy
  S  S0  1  0.49518148  -0.41515206  0.69188872  1.0
  S  S1  1  1.41515206  0.50481852  0.19188872  1.0
  S  S2  1  0.58484794  0.49518148  0.80811128  1.0
  S  S3  1  0.50481852  0.41515206  0.30811128  1.0
  S  S4  1  0.63890301  -0.25838299  0.54459863  1.0
  S  S5  1  1.25838299  0.36109699  0.04459863  1.0
  S  S6  1  0.74161701  0.63890301  0.95540137  1.0
  S  S7  1  0.36109699  0.25838299  0.45540137  1.0
  S  S8  1  0.83590128  0.02545215  0.75685731  1.0
  S  S9  1  0.97454785  0.16409872  0.25685731  1.0
  S  S10  1  1.02545215  0.83590128  0.74314269  1.0
  S  S11  1  0.16409872  -0.02545215  0.24314269  1.0
  S  S12  1  0.69039469  -0.06603100  0.58382034  1.0
  S  S13  1  1.06603100  0.30960531  0.08382034  1.0
  S  S14  1  0.93396900  0.69039469  0.91617966  1.0
  S  S15  1  0.30960531  0.06603100  0.41617966  1.0
  S  S16  1  0.45992827  -0.12142026  0.86104013  1.0
  S  S17  1  1.12142026  0.54007173  0.36104013  1.0
  S  S18  1  0.87857974  0.45992827  0.63895987  1.0
  S  S19  1  0.54007173  0.12142026  0.13895987  1.0
  S  S20  1  0.65434174  0.20322639  0.96088622  1.0
  S  S21  1  0.79677361  0.34565826  0.46088622  1.0
  S  S22  1  1.20322639  0.65434174  0.53911378  1.0
  S  S23  1  0.34565826  -0.20322639  0.03911378  1.0
  S  S24  1  0.49665518  0.07379622  0.80704977  1.0
  S  S25  1  0.92620378  0.50334482  0.30704977  1.0
  S  S26  1  1.07379622  0.49665518  0.69295023  1.0
  S  S27  1  0.50334482  -0.07379622  0.19295023  1.0
  S  S28  1  0.12726944  0.03861194  0.81071650  1.0
  S  S29  1  0.96138806  0.87273056  0.31071650  1.0
  S  S30  1  1.03861194  0.12726944  0.68928350  1.0
  S  S31  1  0.87273056  -0.03861194  0.18928350  1.0
