# generated using pymatgen
data_HCN5O
_symmetry_space_group_name_H-M   'P 1'
_cell_length_a   7.14376140
_cell_length_b   5.83371352
_cell_length_c   10.51161642
_cell_angle_alpha   90.00000000
_cell_angle_beta   114.76981264
_cell_angle_gamma   90.00000000
_symmetry_Int_Tables_number   1
_chemical_formula_structural   HCN5O
_chemical_formula_sum   'H4 C4 N20 O4'
_cell_volume   397.76503271
_cell_formula_units_Z   4
loop_
 _symmetry_equiv_pos_site_id
 _symmetry_equiv_pos_as_xyz
  1  'x, y, z'
loop_
 _atom_site_type_symbol
 _atom_site_label
 _atom_site_symmetry_multiplicity
 _atom_site_fract_x
 _atom_site_fract_y
 _atom_site_fract_z
 _atom_site_occupancy
  H  H0  1  0.73359636  0.11256352  0.52104553  1.0
  H  H1  1  0.73359636  0.38743648  1.02104553  1.0
  H  H2  1  0.26640364  0.61256352  -0.02104553  1.0
  H  H3  1  0.26640364  0.88743648  0.47895447  1.0
  C  C4  1  0.65813253  0.14168534  0.14876894  1.0
  C  C5  1  0.65813253  0.35831466  0.64876894  1.0
  C  C6  1  0.34186747  0.64168534  0.35123106  1.0
  C  C7  1  0.34186747  0.85831466  0.85123106  1.0
  N  N8  1  0.85822410  0.32520465  0.34406554  1.0
  N  N9  1  0.85822410  0.17479535  0.84406554  1.0
  N  N10  1  0.14177590  0.82520465  0.15593446  1.0
  N  N11  1  0.14177590  0.67479535  0.65593446  1.0
  N  N12  1  0.86758092  0.43277689  0.23858693  1.0
  N  N13  1  0.86758092  0.06722311  0.73858693  1.0
  N  N14  1  0.13241908  0.93277689  0.26141307  1.0
  N  N15  1  0.13241908  0.56722311  0.76141307  1.0
  N  N16  1  0.74902918  0.32601944  0.12040128  1.0
  N  N17  1  0.74902918  0.17398056  0.62040128  1.0
  N  N18  1  0.25097082  0.82601944  0.37959872  1.0
  N  N19  1  0.25097082  0.67398056  0.87959872  1.0
  N  N20  1  0.72879607  0.14226538  0.29167356  1.0
  N  N21  1  0.72879607  0.35773462  0.79167356  1.0
  N  N22  1  0.27120393  0.64226538  0.20832644  1.0
  N  N23  1  0.27120393  0.85773462  0.70832644  1.0
  N  N24  1  0.47442562  0.48297606  0.43407926  1.0
  N  N25  1  0.47442562  0.01702394  0.93407926  1.0
  N  N26  1  0.52557438  0.98297606  0.06592074  1.0
  N  N27  1  0.52557438  0.51702394  0.56592074  1.0
  O  O28  1  0.68741883  1.00261764  0.36881060  1.0
  O  O29  1  0.68741883  0.49738236  0.86881060  1.0
  O  O30  1  0.31258117  0.50261764  0.13118940  1.0
  O  O31  1  0.31258117  -0.00261764  0.63118940  1.0
