# generated using pymatgen
data_ZnAu3
_symmetry_space_group_name_H-M   'P 1'
_cell_length_a   8.90665610
_cell_length_b   8.90665610
_cell_length_c   5.65681902
_cell_angle_alpha   90.00000000
_cell_angle_beta   90.00000000
_cell_angle_gamma   37.13480110
_symmetry_Int_Tables_number   1
_chemical_formula_structural   ZnAu3
_chemical_formula_sum   'Zn4 Au12'
_cell_volume   270.90517773
_cell_formula_units_Z   4
loop_
 _symmetry_equiv_pos_site_id
 _symmetry_equiv_pos_as_xyz
  1  'x, y, z'
loop_
 _atom_site_type_symbol
 _atom_site_label
 _atom_site_symmetry_multiplicity
 _atom_site_fract_x
 _atom_site_fract_y
 _atom_site_fract_z
 _atom_site_occupancy
  Zn  Zn0  1  0.63583246  0.63583246  -0.00000000  1.0
  Zn  Zn1  1  0.13583246  1.13583246  0.50000000  1.0
  Zn  Zn2  1  0.36416754  1.36416754  -0.00000000  1.0
  Zn  Zn3  1  0.86416754  0.86416754  0.50000000  1.0
  Au  Au4  1  0.88080956  0.88080956  -0.00000000  1.0
  Au  Au5  1  0.38080956  1.38080956  0.50000000  1.0
  Au  Au6  1  0.11919044  1.11919044  0.00000000  1.0
  Au  Au7  1  0.61919044  0.61919044  0.50000000  1.0
  Au  Au8  1  0.00254184  1.49745816  0.25000000  1.0
  Au  Au9  1  0.49745816  1.00254184  0.75000000  1.0
  Au  Au10  1  -0.00254184  1.50254184  0.75000000  1.0
  Au  Au11  1  0.50254184  0.99745816  0.25000000  1.0
  Au  Au12  1  -0.81776732  0.81776732  0.31717865  1.0
  Au  Au13  1  -0.18223268  0.18223268  0.68282135  1.0
  Au  Au14  1  -0.68223268  0.68223268  0.81717865  1.0
  Au  Au15  1  -0.31776732  0.31776732  0.18282135  1.0
