# generated using pymatgen
data_SrAu2
_symmetry_space_group_name_H-M   'P 1'
_cell_length_a   6.11229577
_cell_length_b   6.11229577
_cell_length_c   6.11229577
_cell_angle_alpha   133.80724207
_cell_angle_beta   103.26207390
_cell_angle_gamma   94.49431029
_symmetry_Int_Tables_number   1
_chemical_formula_structural   SrAu2
_chemical_formula_sum   'Sr2 Au4'
_cell_volume   150.98427162
_cell_formula_units_Z   2
loop_
 _symmetry_equiv_pos_site_id
 _symmetry_equiv_pos_as_xyz
  1  'x, y, z'
loop_
 _atom_site_type_symbol
 _atom_site_label
 _atom_site_symmetry_multiplicity
 _atom_site_fract_x
 _atom_site_fract_y
 _atom_site_fract_z
 _atom_site_occupancy
  Sr  Sr0  1  1.71425832  1.46425832  1.25000000  1.0
  Sr  Sr1  1  0.28574168  0.53574168  0.75000000  1.0
  Au  Au2  1  1.29488742  0.83622760  1.45865982  1.0
  Au  Au3  1  1.12243222  0.16377240  0.95865982  1.0
  Au  Au4  1  0.70511258  1.16377240  0.54134018  1.0
  Au  Au5  1  0.87756778  0.83622760  0.04134018  1.0
