# generated using pymatgen
data_EuSbS2O
_symmetry_space_group_name_H-M   'P 1'
_cell_length_a   3.91747099
_cell_length_b   3.91747099
_cell_length_c   14.12546561
_cell_angle_alpha   90.00000000
_cell_angle_beta   90.00000000
_cell_angle_gamma   90.00000000
_symmetry_Int_Tables_number   1
_chemical_formula_structural   EuSbS2O
_chemical_formula_sum   'Eu2 Sb2 S4 O2'
_cell_volume   216.77757321
_cell_formula_units_Z   2
loop_
 _symmetry_equiv_pos_site_id
 _symmetry_equiv_pos_as_xyz
  1  'x, y, z'
loop_
 _atom_site_type_symbol
 _atom_site_label
 _atom_site_symmetry_multiplicity
 _atom_site_fract_x
 _atom_site_fract_y
 _atom_site_fract_z
 _atom_site_occupancy
  Eu  Eu0  1  0.50000000  0.00000000  0.08661874  1.0
  Eu  Eu1  1  0.00000000  0.50000000  0.91338126  1.0
  Sb  Sb2  1  0.50000000  0.00000000  0.63842225  1.0
  Sb  Sb3  1  0.00000000  0.50000000  0.36157775  1.0
  S  S4  1  0.50000000  0.00000000  0.38689711  1.0
  S  S5  1  0.00000000  0.50000000  0.61310289  1.0
  S  S6  1  0.50000000  0.00000000  0.80891701  1.0
  S  S7  1  0.00000000  0.50000000  0.19108299  1.0
  O  O8  1  0.00000000  0.00000000  0.00000000  1.0
  O  O9  1  0.50000000  0.50000000  0.00000000  1.0
