# generated using pymatgen
data_K3Eu(PO4)2
_symmetry_space_group_name_H-M   'P 1'
_cell_length_a   7.54266114
_cell_length_b   5.74718516
_cell_length_c   9.62708842
_cell_angle_alpha   90.00000000
_cell_angle_beta   91.28026935
_cell_angle_gamma   90.00000000
_symmetry_Int_Tables_number   1
_chemical_formula_structural   K3Eu(PO4)2
_chemical_formula_sum   'K6 Eu2 P4 O16'
_cell_volume   417.22115124
_cell_formula_units_Z   2
loop_
 _symmetry_equiv_pos_site_id
 _symmetry_equiv_pos_as_xyz
  1  'x, y, z'
loop_
 _atom_site_type_symbol
 _atom_site_label
 _atom_site_symmetry_multiplicity
 _atom_site_fract_x
 _atom_site_fract_y
 _atom_site_fract_z
 _atom_site_occupancy
  K  K0  1  0.85904633  0.25000000  0.58957532  1.0
  K  K1  1  0.14095367  0.75000000  0.41042468  1.0
  K  K2  1  0.29941338  0.25000000  0.91519585  1.0
  K  K3  1  0.70058662  0.75000000  0.08480415  1.0
  K  K4  1  0.00743709  0.25000000  0.18994795  1.0
  K  K5  1  0.99256291  0.75000000  0.81005205  1.0
  Eu  Eu6  1  0.50669674  0.25000000  0.28806669  1.0
  Eu  Eu7  1  0.49330326  0.75000000  0.71193331  1.0
  P  P8  1  0.73403478  0.25000000  0.91196804  1.0
  P  P9  1  0.26596522  0.75000000  0.08803196  1.0
  P  P10  1  0.31153666  0.25000000  0.57078064  1.0
  P  P11  1  0.68846334  0.75000000  0.42921936  1.0
  O  O12  1  0.65150667  0.47275989  0.84138091  1.0
  O  O13  1  0.65150667  0.02724011  0.84138091  1.0
  O  O14  1  0.34849333  0.97275989  0.15861909  1.0
  O  O15  1  0.34849333  0.52724011  0.15861909  1.0
  O  O16  1  0.25861347  0.47130162  0.65516273  1.0
  O  O17  1  0.25861347  0.02869838  0.65516273  1.0
  O  O18  1  0.74138653  0.97130162  0.34483727  1.0
  O  O19  1  0.74138653  0.52869838  0.34483727  1.0
  O  O20  1  0.93695595  0.25000000  0.89471600  1.0
  O  O21  1  0.06304405  0.75000000  0.10528400  1.0
  O  O22  1  0.68258673  0.25000000  0.06862134  1.0
  O  O23  1  0.31741327  0.75000000  0.93137866  1.0
  O  O24  1  0.51394036  0.25000000  0.54355832  1.0
  O  O25  1  0.48605964  0.75000000  0.45644168  1.0
  O  O26  1  0.21582558  0.25000000  0.42461573  1.0
  O  O27  1  0.78417442  0.75000000  0.57538427  1.0
