# generated using pymatgen
data_RbBi3Se5
_symmetry_space_group_name_H-M   'P 1'
_cell_length_a   22.43720659
_cell_length_b   4.20257357
_cell_length_c   12.54386542
_cell_angle_alpha   90.00000000
_cell_angle_beta   90.00000000
_cell_angle_gamma   90.00000000
_symmetry_Int_Tables_number   1
_chemical_formula_structural   RbBi3Se5
_chemical_formula_sum   'Rb4 Bi12 Se20'
_cell_volume   1182.81138941
_cell_formula_units_Z   4
loop_
 _symmetry_equiv_pos_site_id
 _symmetry_equiv_pos_as_xyz
  1  'x, y, z'
loop_
 _atom_site_type_symbol
 _atom_site_label
 _atom_site_symmetry_multiplicity
 _atom_site_fract_x
 _atom_site_fract_y
 _atom_site_fract_z
 _atom_site_occupancy
  Rb  Rb0  1  0.28685928  0.75000000  0.99002838  1.0
  Rb  Rb1  1  0.78685928  0.75000000  0.50997162  1.0
  Rb  Rb2  1  0.71314072  0.25000000  0.00997162  1.0
  Rb  Rb3  1  0.21314072  0.25000000  0.49002838  1.0
  Bi  Bi4  1  0.47558879  0.75000000  0.86379778  1.0
  Bi  Bi5  1  0.97558879  0.75000000  0.63620222  1.0
  Bi  Bi6  1  0.52441121  0.25000000  0.13620222  1.0
  Bi  Bi7  1  0.02441121  0.25000000  0.36379778  1.0
  Bi  Bi8  1  0.37431810  0.75000000  0.30369222  1.0
  Bi  Bi9  1  0.87431810  0.75000000  0.19630778  1.0
  Bi  Bi10  1  0.62568190  0.25000000  0.69630778  1.0
  Bi  Bi11  1  0.12568190  0.25000000  0.80369222  1.0
  Bi  Bi12  1  0.07525686  0.75000000  0.09318337  1.0
  Bi  Bi13  1  0.57525686  0.75000000  0.40681663  1.0
  Bi  Bi14  1  0.92474314  0.25000000  0.90681663  1.0
  Bi  Bi15  1  0.42474314  0.25000000  0.59318337  1.0
  Se  Se16  1  0.43566699  0.75000000  0.08388594  1.0
  Se  Se17  1  0.93566699  0.75000000  0.41611406  1.0
  Se  Se18  1  0.56433301  0.25000000  0.91611406  1.0
  Se  Se19  1  0.06433301  0.25000000  0.58388594  1.0
  Se  Se20  1  0.34218791  0.75000000  0.52581146  1.0
  Se  Se21  1  0.84218791  0.75000000  0.97418854  1.0
  Se  Se22  1  0.65781209  0.25000000  0.47418854  1.0
  Se  Se23  1  0.15781209  0.25000000  0.02581146  1.0
  Se  Se24  1  0.20304864  0.75000000  0.74892289  1.0
  Se  Se25  1  0.70304864  0.75000000  0.75107711  1.0
  Se  Se26  1  0.79695136  0.25000000  0.25107711  1.0
  Se  Se27  1  0.29695136  0.25000000  0.24892289  1.0
  Se  Se28  1  0.11290844  0.75000000  0.30700361  1.0
  Se  Se29  1  0.61290844  0.75000000  0.19299639  1.0
  Se  Se30  1  0.88709156  0.25000000  0.69299639  1.0
  Se  Se31  1  0.38709156  0.25000000  0.80700361  1.0
  Se  Se32  1  0.01960817  0.75000000  0.86145682  1.0
  Se  Se33  1  0.51960817  0.75000000  0.63854318  1.0
  Se  Se34  1  0.98039183  0.25000000  0.13854318  1.0
  Se  Se35  1  0.48039183  0.25000000  0.36145682  1.0
