# generated using pymatgen
data_GaC2NCl4
_symmetry_space_group_name_H-M   'P 1'
_cell_length_a   13.22254248
_cell_length_b   7.47511645
_cell_length_c   10.27131182
_cell_angle_alpha   90.00000000
_cell_angle_beta   90.00000000
_cell_angle_gamma   90.00000000
_symmetry_Int_Tables_number   1
_chemical_formula_structural   GaC2NCl4
_chemical_formula_sum   'Ga4 C8 N4 Cl16'
_cell_volume   1015.21692013
_cell_formula_units_Z   4
loop_
 _symmetry_equiv_pos_site_id
 _symmetry_equiv_pos_as_xyz
  1  'x, y, z'
loop_
 _atom_site_type_symbol
 _atom_site_label
 _atom_site_symmetry_multiplicity
 _atom_site_fract_x
 _atom_site_fract_y
 _atom_site_fract_z
 _atom_site_occupancy
  Ga  Ga0  1  0.05815463  0.25000000  0.26419402  1.0
  Ga  Ga1  1  0.55815463  0.25000000  0.23580598  1.0
  Ga  Ga2  1  0.94184537  0.75000000  0.73580598  1.0
  Ga  Ga3  1  0.44184537  0.75000000  0.76419402  1.0
  Cl  Cl4  1  0.90621781  0.25000000  0.19394896  1.0
  Cl  Cl5  1  0.40621781  0.25000000  0.30605104  1.0
  Cl  Cl6  1  0.09378219  0.75000000  0.80605104  1.0
  Cl  Cl7  1  0.59378219  0.75000000  0.69394896  1.0
  Cl  Cl8  1  0.15435175  0.04512187  0.14515748  1.0
  Cl  Cl9  1  0.65435175  0.45487813  0.35484252  1.0
  Cl  Cl10  1  0.84564825  0.54512187  0.85484252  1.0
  Cl  Cl11  1  0.34564825  0.95487813  0.64515748  1.0
  Cl  Cl12  1  0.84564825  0.95487813  0.85484252  1.0
  Cl  Cl13  1  0.34564825  0.54512187  0.64515748  1.0
  Cl  Cl14  1  0.15435175  0.45487813  0.14515748  1.0
  Cl  Cl15  1  0.65435175  0.04512187  0.35484252  1.0
  Cl  Cl16  1  0.09771533  0.25000000  0.46467177  1.0
  Cl  Cl17  1  0.59771533  0.25000000  0.03532823  1.0
  Cl  Cl18  1  0.90228467  0.75000000  0.53532823  1.0
  Cl  Cl19  1  0.40228467  0.75000000  0.96467177  1.0
  N  N20  1  0.12390873  0.25000000  0.93108548  1.0
  N  N21  1  0.62390873  0.25000000  0.56891452  1.0
  N  N22  1  0.87609127  0.75000000  0.06891452  1.0
  N  N23  1  0.37609127  0.75000000  0.43108548  1.0
  C  C24  1  0.07720525  0.25000000  0.83133891  1.0
  C  C25  1  0.57720525  0.25000000  0.66866109  1.0
  C  C26  1  0.92279475  0.75000000  0.16866109  1.0
  C  C27  1  0.42279475  0.75000000  0.33133891  1.0
  C  C28  1  0.19743689  0.25000000  1.02340533  1.0
  C  C29  1  0.69743689  0.25000000  0.47659467  1.0
  C  C30  1  0.80256311  0.75000000  -0.02340533  1.0
  C  C31  1  0.30256311  0.75000000  0.52340533  1.0
