# generated using pymatgen
data_Gd(Mo3S4)2
_symmetry_space_group_name_H-M   'P 1'
_cell_length_a   6.50626936
_cell_length_b   6.50626936
_cell_length_c   6.50626936
_cell_angle_alpha   89.30628452
_cell_angle_beta   89.30628452
_cell_angle_gamma   89.30628452
_symmetry_Int_Tables_number   1
_chemical_formula_structural   Gd(Mo3S4)2
_chemical_formula_sum   'Gd1 Mo6 S8'
_cell_volume   275.36033049
_cell_formula_units_Z   1
loop_
 _symmetry_equiv_pos_site_id
 _symmetry_equiv_pos_as_xyz
  1  'x, y, z'
loop_
 _atom_site_type_symbol
 _atom_site_label
 _atom_site_symmetry_multiplicity
 _atom_site_fract_x
 _atom_site_fract_y
 _atom_site_fract_z
 _atom_site_occupancy
  Gd  Gd0  1  0.00000000  0.00000000  0.00000000  1.0
  Mo  Mo1  1  0.43936760  0.57981264  -0.22465474  1.0
  Mo  Mo2  1  0.42018736  0.22465474  -0.43936760  1.0
  Mo  Mo3  1  0.22465474  0.56063240  -0.57981264  1.0
  Mo  Mo4  1  0.56063240  0.42018736  -0.77534526  1.0
  Mo  Mo5  1  0.57981264  0.77534526  -0.56063240  1.0
  Mo  Mo6  1  0.77534526  0.43936760  -0.42018736  1.0
  S  S7  1  0.87192976  0.62903490  -0.75018122  1.0
  S  S8  1  0.37096510  0.75018122  -0.87192976  1.0
  S  S9  1  0.75018122  0.12807024  -0.62903490  1.0
  S  S10  1  0.12807024  0.37096510  -0.24981878  1.0
  S  S11  1  0.62903490  0.24981878  -0.12807024  1.0
  S  S12  1  0.24981878  0.87192976  -0.37096510  1.0
  S  S13  1  0.76007233  0.76007233  -0.23992767  1.0
  S  S14  1  1.23992767  1.23992767  0.23992767  1.0
