# generated using pymatgen
data_Rb2TaAgS4
_symmetry_space_group_name_H-M   'P 1'
_cell_length_a   13.90444515
_cell_length_b   12.39683593
_cell_length_c   7.58742558
_cell_angle_alpha   84.53474084
_cell_angle_beta   62.56332162
_cell_angle_gamma   32.90193754
_symmetry_Int_Tables_number   1
_chemical_formula_structural   Rb2TaAgS4
_chemical_formula_sum   'Rb4 Ta2 Ag2 S8'
_cell_volume   502.08980466
_cell_formula_units_Z   2
loop_
 _symmetry_equiv_pos_site_id
 _symmetry_equiv_pos_as_xyz
  1  'x, y, z'
loop_
 _atom_site_type_symbol
 _atom_site_label
 _atom_site_symmetry_multiplicity
 _atom_site_fract_x
 _atom_site_fract_y
 _atom_site_fract_z
 _atom_site_occupancy
  Rb  Rb0  1  0.07091861  0.07091861  1.42908139  1.0
  Rb  Rb1  1  1.42908139  0.42908139  0.07091861  1.0
  Rb  Rb2  1  0.17908139  1.17908139  -0.17908139  1.0
  Rb  Rb3  1  0.82091861  0.82091861  -0.82091861  1.0
  Ta  Ta4  1  1.25000000  0.25000000  0.25000000  1.0
  Ta  Ta5  1  0.00000000  0.00000000  0.00000000  1.0
  Ag  Ag6  1  0.75000000  0.75000000  0.75000000  1.0
  Ag  Ag7  1  -0.50000000  0.50000000  0.50000000  1.0
  S  S8  1  0.74376745  -0.63256039  1.05987249  1.0
  S  S9  1  0.82892045  1.05987249  -0.63256039  1.0
  S  S10  1  1.05987249  0.82892045  0.74376745  1.0
  S  S11  1  -0.63256039  0.74376745  0.82892045  1.0
  S  S12  1  1.50623255  -0.11743961  0.19012751  1.0
  S  S13  1  1.42107955  0.19012751  -0.11743961  1.0
  S  S14  1  1.19012751  0.42107955  0.50623255  1.0
  S  S15  1  0.88256039  0.50623255  0.42107955  1.0
