# generated using pymatgen
data_HfF4
_symmetry_space_group_name_H-M   'P 1'
_cell_length_a   7.74527112
_cell_length_b   7.74527112
_cell_length_c   7.74150018
_cell_angle_alpha   63.36728719
_cell_angle_beta   116.63271281
_cell_angle_gamma   99.85962544
_symmetry_Int_Tables_number   1
_chemical_formula_structural   HfF4
_chemical_formula_sum   'Hf6 F24'
_cell_volume   370.82953976
_cell_formula_units_Z   6
loop_
 _symmetry_equiv_pos_site_id
 _symmetry_equiv_pos_as_xyz
  1  'x, y, z'
loop_
 _atom_site_type_symbol
 _atom_site_label
 _atom_site_symmetry_multiplicity
 _atom_site_fract_x
 _atom_site_fract_y
 _atom_site_fract_z
 _atom_site_occupancy
  Hf  Hf0  1  0.63403215  0.22373003  0.33305567  1.0
  Hf  Hf1  1  0.77626997  0.36596785  0.83305567  1.0
  Hf  Hf2  1  1.22373003  -0.36596785  0.16694433  1.0
  Hf  Hf3  1  1.36596785  -0.22373003  0.66694433  1.0
  Hf  Hf4  1  0.78607145  0.78607145  0.25000000  1.0
  Hf  Hf5  1  0.21392855  0.21392855  0.75000000  1.0
  F  F6  1  1.50266346  -0.25995016  0.21622672  1.0
  F  F7  1  1.25995016  -0.50266346  0.71622672  1.0
  F  F8  1  0.74004984  0.50266346  0.28377328  1.0
  F  F9  1  0.49733654  0.25995016  0.78377328  1.0
  F  F10  1  0.82684876  0.06241867  0.04427124  1.0
  F  F11  1  0.93758133  0.17315124  0.54427124  1.0
  F  F12  1  1.06241867  -0.17315124  0.45572876  1.0
  F  F13  1  1.17315124  -0.06241867  0.95572876  1.0
  F  F14  1  1.72426123  -0.02960307  0.35039746  1.0
  F  F15  1  1.02960307  -0.72426123  0.85039746  1.0
  F  F16  1  0.97039693  0.72426123  0.14960254  1.0
  F  F17  1  0.27573877  0.02960307  0.64960254  1.0
  F  F18  1  1.31750921  -0.25870320  0.39343783  1.0
  F  F19  1  1.25870320  -0.31750921  0.89343783  1.0
  F  F20  1  0.74129680  0.31750921  0.10656217  1.0
  F  F21  1  0.68249079  0.25870320  0.60656217  1.0
  F  F22  1  0.40213501  0.18498932  0.07634637  1.0
  F  F23  1  0.81501068  0.59786499  0.57634637  1.0
  F  F24  1  1.18498932  -0.59786499  0.42365363  1.0
  F  F25  1  1.59786499  -0.18498932  0.92365363  1.0
  F  F26  1  0.39461084  0.39461084  0.25000000  1.0
  F  F27  1  0.60538916  0.60538916  0.75000000  1.0
  F  F28  1  1.50000000  -0.00000000  0.50000000  1.0
  F  F29  1  1.00000000  0.50000000  0.00000000  1.0
