# generated using pymatgen
data_GaCuCl4
_symmetry_space_group_name_H-M   'P 1'
_cell_length_a   5.65037673
_cell_length_b   5.65037673
_cell_length_c   10.17176459
_cell_angle_alpha   90.00000000
_cell_angle_beta   90.00000000
_cell_angle_gamma   90.00000000
_symmetry_Int_Tables_number   1
_chemical_formula_structural   GaCuCl4
_chemical_formula_sum   'Ga2 Cu2 Cl8'
_cell_volume   324.75145769
_cell_formula_units_Z   2
loop_
 _symmetry_equiv_pos_site_id
 _symmetry_equiv_pos_as_xyz
  1  'x, y, z'
loop_
 _atom_site_type_symbol
 _atom_site_label
 _atom_site_symmetry_multiplicity
 _atom_site_fract_x
 _atom_site_fract_y
 _atom_site_fract_z
 _atom_site_occupancy
  Ga  Ga0  1  0.50000000  0.00000000  0.25000000  1.0
  Ga  Ga1  1  0.00000000  0.50000000  0.75000000  1.0
  Cu  Cu2  1  0.00000000  0.00000000  0.00000000  1.0
  Cu  Cu3  1  0.00000000  0.00000000  0.50000000  1.0
  Cl  Cl4  1  0.26890895  0.77599305  0.12420815  1.0
  Cl  Cl5  1  0.73109105  0.77599305  0.37579185  1.0
  Cl  Cl6  1  0.22400695  0.73109105  0.62420815  1.0
  Cl  Cl7  1  0.77599305  0.73109105  0.87579185  1.0
  Cl  Cl8  1  0.26890895  0.22400695  0.37579185  1.0
  Cl  Cl9  1  0.73109105  0.22400695  0.12420815  1.0
  Cl  Cl10  1  0.22400695  0.26890895  0.87579185  1.0
  Cl  Cl11  1  0.77599305  0.26890895  0.62420815  1.0
