# generated using pymatgen
data_Ba4Ge3Se9Cl2
_symmetry_space_group_name_H-M   'P 1'
_cell_length_a   10.29981105
_cell_length_b   10.29981106
_cell_length_c   12.66907996
_cell_angle_alpha   90.00000000
_cell_angle_beta   90.00000000
_cell_angle_gamma   120.00000000
_symmetry_Int_Tables_number   1
_chemical_formula_structural   Ba4Ge3Se9Cl2
_chemical_formula_sum   'Ba8 Ge6 Se18 Cl4'
_cell_volume   1163.94973141
_cell_formula_units_Z   2
loop_
 _symmetry_equiv_pos_site_id
 _symmetry_equiv_pos_as_xyz
  1  'x, y, z'
loop_
 _atom_site_type_symbol
 _atom_site_label
 _atom_site_symmetry_multiplicity
 _atom_site_fract_x
 _atom_site_fract_y
 _atom_site_fract_z
 _atom_site_occupancy
  Ba  Ba0  1  0.75237438  0.67183324  0.53550479  1.0
  Ba  Ba1  1  0.91945886  0.24762562  0.53550479  1.0
  Ba  Ba2  1  0.32816676  0.08054114  0.53550479  1.0
  Ba  Ba3  1  0.24762562  0.32816676  0.03550479  1.0
  Ba  Ba4  1  0.08054114  0.75237438  0.03550479  1.0
  Ba  Ba5  1  0.67183324  0.91945886  0.03550479  1.0
  Ba  Ba6  1  0.33333333  0.66666667  0.34347198  1.0
  Ba  Ba7  1  0.66666667  0.33333333  0.84347198  1.0
  Ge  Ge8  1  0.11148155  0.66569087  0.69586376  1.0
  Ge  Ge9  1  0.55420932  0.88851845  0.69586376  1.0
  Ge  Ge10  1  0.33430913  0.44579068  0.69586376  1.0
  Ge  Ge11  1  0.88851845  0.33430913  0.19586376  1.0
  Ge  Ge12  1  0.44579068  0.11148155  0.19586376  1.0
  Ge  Ge13  1  0.66569087  0.55420932  0.19586376  1.0
  Se  Se14  1  0.92637691  0.68486429  0.78898398  1.0
  Se  Se15  1  0.75848737  0.07362309  0.78898398  1.0
  Se  Se16  1  0.31513571  0.24151263  0.78898398  1.0
  Se  Se17  1  0.07362309  0.31513571  0.28898398  1.0
  Se  Se18  1  0.24151263  0.92637691  0.28898398  1.0
  Se  Se19  1  0.68486429  0.75848737  0.28898398  1.0
  Se  Se20  1  0.55607239  0.66701381  0.76128700  1.0
  Se  Se21  1  0.11094142  0.44392761  0.76128700  1.0
  Se  Se22  1  0.33298619  0.88905858  0.76128700  1.0
  Se  Se23  1  0.44392761  0.33298619  0.26128700  1.0
  Se  Se24  1  0.88905858  0.55607239  0.26128700  1.0
  Se  Se25  1  0.66701381  0.11094142  0.26128700  1.0
  Se  Se26  1  0.07635291  0.65441100  0.51278837  1.0
  Se  Se27  1  0.57805809  0.92364709  0.51278837  1.0
  Se  Se28  1  0.34558900  0.42194191  0.51278837  1.0
  Se  Se29  1  0.92364709  0.34558900  0.01278837  1.0
  Se  Se30  1  0.42194191  0.07635291  0.01278837  1.0
  Se  Se31  1  0.65441100  0.57805809  0.01278837  1.0
  Cl  Cl32  1  0.66666667  0.33333333  0.59135078  1.0
  Cl  Cl33  1  0.33333333  0.66666667  0.09135078  1.0
  Cl  Cl34  1  0.00000000  0.00000000  0.54456354  1.0
  Cl  Cl35  1  0.00000000  0.00000000  0.04456354  1.0
