# generated using pymatgen
data_K4Sn3Se8
_symmetry_space_group_name_H-M   'P 1'
_cell_length_a   14.72669384
_cell_length_b   14.72669384
_cell_length_c   8.40757496
_cell_angle_alpha   90.00000000
_cell_angle_beta   90.00000000
_cell_angle_gamma   146.65723127
_symmetry_Int_Tables_number   1
_chemical_formula_structural   K4Sn3Se8
_chemical_formula_sum   'K8 Sn6 Se16'
_cell_volume   1002.22394975
_cell_formula_units_Z   2
loop_
 _symmetry_equiv_pos_site_id
 _symmetry_equiv_pos_as_xyz
  1  'x, y, z'
loop_
 _atom_site_type_symbol
 _atom_site_label
 _atom_site_symmetry_multiplicity
 _atom_site_fract_x
 _atom_site_fract_y
 _atom_site_fract_z
 _atom_site_occupancy
  K  K0  1  -0.39676861  0.39676861  -0.00000000  1.0
  K  K1  1  0.10323139  0.89676861  0.50000000  1.0
  K  K2  1  -0.10323139  1.10323139  0.50000000  1.0
  K  K3  1  -0.60323139  0.60323139  -0.00000000  1.0
  K  K4  1  -0.73316370  0.73316370  -0.00000000  1.0
  K  K5  1  -0.23316370  1.23316370  0.50000000  1.0
  K  K6  1  0.23316370  0.76683630  0.50000000  1.0
  K  K7  1  -0.26683630  0.26683630  -0.00000000  1.0
  Sn  Sn8  1  0.00000000  1.00000000  0.00000000  1.0
  Sn  Sn9  1  -0.50000000  0.50000000  0.50000000  1.0
  Sn  Sn10  1  0.12646229  0.87353771  -0.00000000  1.0
  Sn  Sn11  1  -0.37353771  0.37353771  0.50000000  1.0
  Sn  Sn12  1  -0.62646229  0.62646229  0.50000000  1.0
  Sn  Sn13  1  -0.12646229  1.12646229  -0.00000000  1.0
  Se  Se14  1  0.22278549  1.10043446  0.83852386  1.0
  Se  Se15  1  0.39956554  1.27721451  0.33852386  1.0
  Se  Se16  1  -0.39956554  0.72278549  0.33852386  1.0
  Se  Se17  1  -0.22278549  0.89956554  0.83852386  1.0
  Se  Se18  1  0.27721451  1.39956554  0.66147614  1.0
  Se  Se19  1  0.10043446  1.22278549  0.16147614  1.0
  Se  Se20  1  -0.10043446  0.77721451  0.16147614  1.0
  Se  Se21  1  -0.27721451  0.60043446  0.66147614  1.0
  Se  Se22  1  0.35295086  1.00686284  0.18079748  1.0
  Se  Se23  1  0.49313716  1.14704914  0.68079748  1.0
  Se  Se24  1  -0.49313716  0.85295086  0.68079748  1.0
  Se  Se25  1  -0.35295086  0.99313716  0.18079748  1.0
  Se  Se26  1  0.14704914  1.49313716  0.31920252  1.0
  Se  Se27  1  0.00686284  1.35295086  0.81920252  1.0
  Se  Se28  1  -0.00686284  0.64704914  0.81920252  1.0
  Se  Se29  1  -0.14704914  0.50686284  0.31920252  1.0
