# generated using pymatgen
data_SrTl2Pt
_symmetry_space_group_name_H-M   'P 1'
_cell_length_a   6.03613947
_cell_length_b   6.03613947
_cell_length_c   8.48858195
_cell_angle_alpha   90.00000000
_cell_angle_beta   90.00000000
_cell_angle_gamma   136.51964073
_symmetry_Int_Tables_number   1
_chemical_formula_structural   SrTl2Pt
_chemical_formula_sum   'Sr2 Tl4 Pt2'
_cell_volume   212.81828878
_cell_formula_units_Z   2
loop_
 _symmetry_equiv_pos_site_id
 _symmetry_equiv_pos_as_xyz
  1  'x, y, z'
loop_
 _atom_site_type_symbol
 _atom_site_label
 _atom_site_symmetry_multiplicity
 _atom_site_fract_x
 _atom_site_fract_y
 _atom_site_fract_z
 _atom_site_occupancy
  Sr  Sr0  1  0.43398712  0.56601288  0.75000000  1.0
  Sr  Sr1  1  -0.43398712  0.43398712  0.25000000  1.0
  Tl  Tl2  1  0.14556979  0.85443021  0.94911851  1.0
  Tl  Tl3  1  0.14556979  0.85443021  0.55088149  1.0
  Tl  Tl4  1  -0.14556979  0.14556979  0.44911851  1.0
  Tl  Tl5  1  -0.14556979  0.14556979  0.05088149  1.0
  Pt  Pt6  1  -0.27855260  0.27855260  0.75000000  1.0
  Pt  Pt7  1  0.27855260  0.72144740  0.25000000  1.0
