# generated using pymatgen
data_CF2
_symmetry_space_group_name_H-M   'P 1'
_cell_length_a   4.93847758
_cell_length_b   6.65482296
_cell_length_c   6.90764129
_cell_angle_alpha   90.00000000
_cell_angle_beta   120.09361200
_cell_angle_gamma   90.00000000
_symmetry_Int_Tables_number   1
_chemical_formula_structural   CF2
_chemical_formula_sum   'C4 F8'
_cell_volume   196.41721958
_cell_formula_units_Z   4
loop_
 _symmetry_equiv_pos_site_id
 _symmetry_equiv_pos_as_xyz
  1  'x, y, z'
loop_
 _atom_site_type_symbol
 _atom_site_label
 _atom_site_symmetry_multiplicity
 _atom_site_fract_x
 _atom_site_fract_y
 _atom_site_fract_z
 _atom_site_occupancy
  C  C0  1  0.89021851  0.47576106  0.39640702  1.0
  C  C1  1  0.89021851  0.02423894  0.89640702  1.0
  C  C2  1  0.10978149  0.97576106  0.10359298  1.0
  C  C3  1  0.10978149  0.52423894  0.60359298  1.0
  F  F4  1  0.90867783  0.97820494  0.71540710  1.0
  F  F5  1  0.90867783  0.52179506  0.21540710  1.0
  F  F6  1  0.09132217  0.47820494  0.78459290  1.0
  F  F7  1  0.09132217  0.02179506  0.28459290  1.0
  F  F8  1  0.62978848  0.37607889  0.34878208  1.0
  F  F9  1  0.62978848  0.12392111  0.84878208  1.0
  F  F10  1  0.37021152  0.87607889  0.15121792  1.0
  F  F11  1  0.37021152  0.62392111  0.65121792  1.0
