# generated using pymatgen
data_InH3(IO4)2
_symmetry_space_group_name_H-M   'P 1'
_cell_length_a   6.90073300
_cell_length_b   7.81869558
_cell_length_c   7.74798393
_cell_angle_alpha   99.94114471
_cell_angle_beta   108.65011891
_cell_angle_gamma   94.11127825
_symmetry_Int_Tables_number   1
_chemical_formula_structural   InH3(IO4)2
_chemical_formula_sum   'In2 H6 I4 O16'
_cell_volume   386.51809672
_cell_formula_units_Z   2
loop_
 _symmetry_equiv_pos_site_id
 _symmetry_equiv_pos_as_xyz
  1  'x, y, z'
loop_
 _atom_site_type_symbol
 _atom_site_label
 _atom_site_symmetry_multiplicity
 _atom_site_fract_x
 _atom_site_fract_y
 _atom_site_fract_z
 _atom_site_occupancy
  In  In0  1  0.00000000  -0.50000000  0.00000000  1.0
  In  In1  1  0.00000000  0.00000000  0.00000000  1.0
  H  H2  1  -0.98544607  -0.20677049  -0.75990364  1.0
  H  H3  1  -0.01455393  -0.79322951  -0.24009636  1.0
  H  H4  1  -0.78470738  -0.25737930  -0.49366138  1.0
  H  H5  1  -0.21529262  -0.74262070  -0.50633862  1.0
  H  H6  1  -0.17919129  -0.93573065  -0.54225427  1.0
  H  H7  1  -0.82080871  -0.06426935  -0.45774573  1.0
  I  I8  1  -0.71345666  -0.66412378  -0.56746005  1.0
  I  I9  1  -0.28654334  -0.33587622  -0.43253995  1.0
  I  I10  1  -0.51072203  -0.22441877  -0.96461004  1.0
  I  I11  1  -0.48927797  -0.77558123  -0.03538996  1.0
  O  O12  1  -0.95478061  -0.76606675  -0.10013401  1.0
  O  O13  1  -0.04521939  -0.23393325  -0.89986599  1.0
  O  O14  1  -0.89352723  -0.18178481  -0.52122962  1.0
  O  O15  1  -0.10647277  -0.81821519  -0.47877038  1.0
  O  O16  1  -0.88908793  -0.52875783  -0.71122345  1.0
  O  O17  1  -0.11091207  -0.47124217  -0.28877655  1.0
  O  O18  1  -0.80665902  -0.89199108  -0.71514204  1.0
  O  O19  1  -0.19334098  -0.10800892  -0.28485796  1.0
  O  O20  1  -0.57212254  -0.84294014  -0.29311338  1.0
  O  O21  1  -0.42787746  -0.15705986  -0.70688662  1.0
  O  O22  1  -0.46709803  -0.63320912  -0.62708450  1.0
  O  O23  1  -0.53290197  -0.36679088  -0.37291550  1.0
  O  O24  1  -0.30695864  -0.56640046  -0.98912344  1.0
  O  O25  1  -0.69304136  -0.43359954  -0.01087656  1.0
  O  O26  1  -0.29131324  -0.93115607  -0.94846117  1.0
  O  O27  1  -0.70868676  -0.06884393  -0.05153883  1.0
