# generated using pymatgen
data_NbGaO4
_symmetry_space_group_name_H-M   'P 1'
_cell_length_a   6.61422207
_cell_length_b   6.61422207
_cell_length_c   6.69508273
_cell_angle_alpha   72.84726159
_cell_angle_beta   107.15273841
_cell_angle_gamma   146.46566713
_symmetry_Int_Tables_number   1
_chemical_formula_structural   NbGaO4
_chemical_formula_sum   'Nb2 Ga2 O8'
_cell_volume   153.93967926
_cell_formula_units_Z   2
loop_
 _symmetry_equiv_pos_site_id
 _symmetry_equiv_pos_as_xyz
  1  'x, y, z'
loop_
 _atom_site_type_symbol
 _atom_site_label
 _atom_site_symmetry_multiplicity
 _atom_site_fract_x
 _atom_site_fract_y
 _atom_site_fract_z
 _atom_site_occupancy
  Nb  Nb0  1  0.89708087  0.10291913  0.26813696  1.0
  Nb  Nb1  1  0.10291913  -0.10291913  0.73186304  1.0
  Ga  Ga2  1  0.80356518  0.19643482  0.68553345  1.0
  Ga  Ga3  1  0.19643482  -0.19643482  0.31446655  1.0
  O  O4  1  0.94639262  0.05360738  0.63529283  1.0
  O  O5  1  0.05360738  -0.05360738  0.36470717  1.0
  O  O6  1  0.86342872  0.13657128  0.98575375  1.0
  O  O7  1  0.13657128  -0.13657128  0.01424625  1.0
  O  O8  1  0.74217559  0.25782441  0.35422774  1.0
  O  O9  1  0.25782441  -0.25782441  0.64577226  1.0
  O  O10  1  0.63717183  0.36282817  0.70335279  1.0
  O  O11  1  0.36282817  -0.36282817  0.29664721  1.0
