# generated using pymatgen
data_BiSb
_symmetry_space_group_name_H-M   'P 1'
_cell_length_a   8.31745618
_cell_length_b   8.31745618
_cell_length_c   8.31745618
_cell_angle_alpha   31.18074834
_cell_angle_beta   31.18074834
_cell_angle_gamma   31.18074834
_symmetry_Int_Tables_number   1
_chemical_formula_structural   BiSb
_chemical_formula_sum   'Bi2 Sb2'
_cell_volume   136.86590099
_cell_formula_units_Z   2
loop_
 _symmetry_equiv_pos_site_id
 _symmetry_equiv_pos_as_xyz
  1  'x, y, z'
loop_
 _atom_site_type_symbol
 _atom_site_label
 _atom_site_symmetry_multiplicity
 _atom_site_fract_x
 _atom_site_fract_y
 _atom_site_fract_z
 _atom_site_occupancy
  Bi  Bi0  1  0.88691866  -0.11308134  -0.11308134  1.0
  Bi  Bi1  1  0.11308134  0.11308134  0.11308134  1.0
  Sb  Sb2  1  0.37970782  0.37970782  -0.62029218  1.0
  Sb  Sb3  1  0.62029218  0.62029218  -0.37970782  1.0
