# generated using pymatgen
data_Zr3AlC2
_symmetry_space_group_name_H-M   'P 1'
_cell_length_a   3.33665481
_cell_length_b   3.33665481
_cell_length_c   19.92664490
_cell_angle_alpha   90.00000000
_cell_angle_beta   90.00000000
_cell_angle_gamma   120.00000000
_symmetry_Int_Tables_number   1
_chemical_formula_structural   Zr3AlC2
_chemical_formula_sum   'Zr6 Al2 C4'
_cell_volume   192.12654474
_cell_formula_units_Z   2
loop_
 _symmetry_equiv_pos_site_id
 _symmetry_equiv_pos_as_xyz
  1  'x, y, z'
loop_
 _atom_site_type_symbol
 _atom_site_label
 _atom_site_symmetry_multiplicity
 _atom_site_fract_x
 _atom_site_fract_y
 _atom_site_fract_z
 _atom_site_occupancy
  Zr  Zr0  1  0.33333333  0.66666667  0.36972988  1.0
  Zr  Zr1  1  0.33333333  0.66666667  0.13027012  1.0
  Zr  Zr2  1  0.66666667  0.33333333  0.86972988  1.0
  Zr  Zr3  1  0.66666667  0.33333333  0.63027012  1.0
  Zr  Zr4  1  0.00000000  0.00000000  0.50000000  1.0
  Zr  Zr5  1  0.00000000  0.00000000  0.00000000  1.0
  Al  Al6  1  0.00000000  0.00000000  0.25000000  1.0
  Al  Al7  1  0.00000000  0.00000000  0.75000000  1.0
  C  C8  1  0.33333333  0.66666667  0.92907249  1.0
  C  C9  1  0.33333333  0.66666667  0.57092751  1.0
  C  C10  1  0.66666667  0.33333333  0.42907249  1.0
  C  C11  1  0.66666667  0.33333333  0.07092751  1.0
