# generated using pymatgen
data_Lu(BO2)6
_symmetry_space_group_name_H-M   'P 1'
_cell_length_a   8.47191288
_cell_length_b   8.47191288
_cell_length_c   8.47191288
_cell_angle_alpha   60.09399565
_cell_angle_beta   60.09399565
_cell_angle_gamma   60.09399565
_symmetry_Int_Tables_number   1
_chemical_formula_structural   Lu(BO2)6
_chemical_formula_sum   'Lu2 B12 O24'
_cell_volume   430.87712992
_cell_formula_units_Z   2
loop_
 _symmetry_equiv_pos_site_id
 _symmetry_equiv_pos_as_xyz
  1  'x, y, z'
loop_
 _atom_site_type_symbol
 _atom_site_label
 _atom_site_symmetry_multiplicity
 _atom_site_fract_x
 _atom_site_fract_y
 _atom_site_fract_z
 _atom_site_occupancy
  Lu  Lu0  1  -0.00224440  -0.00224440  -0.00224440  1.0
  Lu  Lu1  1  0.49775560  0.49775560  -0.50224440  1.0
  O  O2  1  0.83538600  -0.22405671  0.13759896  1.0
  O  O3  1  0.33538600  0.63759896  -0.72405671  1.0
  O  O4  1  0.63759896  0.27594329  -0.66461400  1.0
  O  O5  1  1.13759896  -0.16461400  -0.22405671  1.0
  O  O6  1  0.27594329  0.33538600  -0.36240104  1.0
  O  O7  1  0.77594329  0.13759896  -0.16461400  1.0
  O  O8  1  1.25171689  -0.32358403  0.02874546  1.0
  O  O9  1  0.75171689  0.52874546  -0.82358403  1.0
  O  O10  1  0.52874546  0.17641597  -0.24828311  1.0
  O  O11  1  1.02874546  0.25171689  -0.32358403  1.0
  O  O12  1  0.17641597  0.75171689  -0.47125454  1.0
  O  O13  1  0.67641597  0.02874546  0.25171689  1.0
  O  O14  1  1.08126143  -0.46943585  0.00486521  1.0
  O  O15  1  0.58126143  0.50486521  -0.96943585  1.0
  O  O16  1  0.50486521  0.03056415  -0.41873857  1.0
  O  O17  1  1.00486521  0.08126143  -0.46943585  1.0
  O  O18  1  0.03056415  0.58126143  -0.49513479  1.0
  O  O19  1  0.53056415  0.00486521  0.08126143  1.0
  O  O20  1  0.39513597  0.51896579  -0.20879403  1.0
  O  O21  1  0.89513597  -0.70879403  0.01896579  1.0
  O  O22  1  0.29120597  0.01896579  -0.10486403  1.0
  O  O23  1  0.79120597  0.39513597  -0.48103421  1.0
  O  O24  1  1.01896579  -0.10486403  -0.70879403  1.0
  O  O25  1  0.51896579  0.79120597  -0.60486403  1.0
  B  B26  1  0.89297704  -0.39276633  0.10481068  1.0
  B  B27  1  0.39297704  0.60481068  -0.89276633  1.0
  B  B28  1  0.60481068  0.10723367  -0.60702296  1.0
  B  B29  1  1.10481068  -0.10702296  -0.39276633  1.0
  B  B30  1  0.10723367  0.39297704  -0.39518932  1.0
  B  B31  1  0.60723367  0.10481068  -0.10702296  1.0
  B  B32  1  1.21869459  -0.36735197  -0.10062470  1.0
  B  B33  1  0.71869459  0.39937530  -0.86735197  1.0
  B  B34  1  0.39937530  0.13264803  -0.28130541  1.0
  B  B35  1  0.89937530  0.21869459  -0.36735197  1.0
  B  B36  1  0.13264803  0.71869459  -0.60062470  1.0
  B  B37  1  0.63264803  -0.10062470  0.21869459  1.0
