# generated using pymatgen
data_Nb2Pb2Se4O15
_symmetry_space_group_name_H-M   'P 1'
_cell_length_a   13.97612226
_cell_length_b   13.97612226
_cell_length_c   7.83442595
_cell_angle_alpha   85.88293228
_cell_angle_beta   94.11706772
_cell_angle_gamma   150.12129338
_symmetry_Int_Tables_number   1
_chemical_formula_structural   Nb2Pb2Se4O15
_chemical_formula_sum   'Nb4 Pb4 Se8 O30'
_cell_volume   760.24217226
_cell_formula_units_Z   2
loop_
 _symmetry_equiv_pos_site_id
 _symmetry_equiv_pos_as_xyz
  1  'x, y, z'
loop_
 _atom_site_type_symbol
 _atom_site_label
 _atom_site_symmetry_multiplicity
 _atom_site_fract_x
 _atom_site_fract_y
 _atom_site_fract_z
 _atom_site_occupancy
  Nb  Nb0  1  1.56271315  0.42144304  0.23733300  1.0
  Nb  Nb1  1  0.57855696  -0.56271315  0.73733300  1.0
  Nb  Nb2  1  1.42144304  -0.43728685  0.26266700  1.0
  Nb  Nb3  1  1.43728685  -0.42144304  0.76266700  1.0
  Pb  Pb4  1  1.31256558  -0.09634371  0.31403144  1.0
  Pb  Pb5  1  1.09634371  -0.31256558  0.81403144  1.0
  Pb  Pb6  1  0.90365629  -0.68743442  0.18596856  1.0
  Pb  Pb7  1  1.68743442  0.09634371  0.68596856  1.0
  Se  Se8  1  1.83695950  -0.00250850  0.48443292  1.0
  Se  Se9  1  1.00250850  -0.83695950  0.98443292  1.0
  Se  Se10  1  0.99749150  -0.16304050  0.01556708  1.0
  Se  Se11  1  1.16304050  0.00250850  0.51556708  1.0
  Se  Se12  1  1.41776890  -0.20597866  0.06362619  1.0
  Se  Se13  1  1.20597866  -0.41776890  0.56362619  1.0
  Se  Se14  1  0.79402134  -0.58223110  0.43637381  1.0
  Se  Se15  1  1.58223110  0.20597866  0.93637381  1.0
  O  O16  1  1.69279895  -0.15866615  0.30881941  1.0
  O  O17  1  1.15866615  -0.69279895  0.80881941  1.0
  O  O18  1  0.84133385  -0.30720105  0.19118059  1.0
  O  O19  1  1.30720105  0.15866615  0.69118059  1.0
  O  O20  1  1.35323138  -0.49731998  0.48343524  1.0
  O  O21  1  1.49731998  -0.35323138  0.98343524  1.0
  O  O22  1  1.50268002  0.35323138  0.01656476  1.0
  O  O23  1  0.64676862  -0.50268002  0.51656476  1.0
  O  O24  1  1.82890498  0.11147134  0.46782968  1.0
  O  O25  1  0.88852866  -0.82890498  0.96782968  1.0
  O  O26  1  1.11147134  -0.17109502  0.03217032  1.0
  O  O27  1  1.17109502  -0.11147134  0.53217032  1.0
  O  O28  1  1.54561747  -0.01980560  0.18492132  1.0
  O  O29  1  1.01980560  -0.54561747  0.68492132  1.0
  O  O30  1  0.98019440  -0.45438253  0.31507868  1.0
  O  O31  1  1.45438253  0.01980560  0.81507868  1.0
  O  O32  1  1.66760840  0.20134631  0.44931791  1.0
  O  O33  1  0.79865369  -0.66760840  0.94931791  1.0
  O  O34  1  1.20134631  -0.33239160  0.05068209  1.0
  O  O35  1  1.33239160  -0.20134631  0.55068209  1.0
  O  O36  1  1.64288038  0.34681697  0.28411396  1.0
  O  O37  1  0.65318303  -0.64288038  0.78411396  1.0
  O  O38  1  1.34681697  -0.35711962  0.21588604  1.0
  O  O39  1  1.35711962  -0.34681697  0.71588604  1.0
  O  O40  1  1.30310965  0.15277567  0.33693502  1.0
  O  O41  1  0.84722433  -0.30310965  0.83693502  1.0
  O  O42  1  1.15277567  -0.69689035  0.16306498  1.0
  O  O43  1  1.69689035  -0.15277567  0.66306498  1.0
  O  O44  1  0.49642510  0.49642510  0.25000000  1.0
  O  O45  1  0.50357490  0.50357490  0.75000000  1.0
