# generated using pymatgen
data_Tl2Mo9Se11
_symmetry_space_group_name_H-M   'P 1'
_cell_length_a   13.48607797
_cell_length_b   13.48607797
_cell_length_c   13.48607797
_cell_angle_alpha   42.71233635
_cell_angle_beta   42.71233635
_cell_angle_gamma   42.71233635
_symmetry_Int_Tables_number   1
_chemical_formula_structural   Tl2Mo9Se11
_chemical_formula_sum   'Tl4 Mo18 Se22'
_cell_volume   1022.32687145
_cell_formula_units_Z   2
loop_
 _symmetry_equiv_pos_site_id
 _symmetry_equiv_pos_as_xyz
  1  'x, y, z'
loop_
 _atom_site_type_symbol
 _atom_site_label
 _atom_site_symmetry_multiplicity
 _atom_site_fract_x
 _atom_site_fract_y
 _atom_site_fract_z
 _atom_site_occupancy
  Tl  Tl0  1  0.16912909  0.16912909  0.16912909  1.0
  Tl  Tl1  1  0.83087091  -0.16912909  -0.16912909  1.0
  Tl  Tl2  1  0.26833725  0.26833725  0.26833725  1.0
  Tl  Tl3  1  0.73166275  -0.26833725  -0.26833725  1.0
  Mo  Mo4  1  0.18161410  0.86591222  -0.95571762  1.0
  Mo  Mo5  1  0.95571762  -0.18161410  0.13408778  1.0
  Mo  Mo6  1  1.13408778  -0.04428238  -0.18161410  1.0
  Mo  Mo7  1  0.81838590  0.13408778  -0.04428238  1.0
  Mo  Mo8  1  0.04428238  0.18161410  -0.13408778  1.0
  Mo  Mo9  1  0.86591222  0.04428238  -0.81838590  1.0
  Mo  Mo10  1  0.62273023  0.30805168  -0.52113318  1.0
  Mo  Mo11  1  0.52113318  0.37726977  -0.30805168  1.0
  Mo  Mo12  1  0.69194832  0.52113318  -0.62273023  1.0
  Mo  Mo13  1  0.37726977  0.69194832  -0.47886682  1.0
  Mo  Mo14  1  0.47886682  0.62273023  -0.69194832  1.0
  Mo  Mo15  1  0.30805168  0.47886682  -0.37726977  1.0
  Mo  Mo16  1  0.56846800  0.39218003  -0.73907543  1.0
  Mo  Mo17  1  0.73907543  0.43153200  -0.39218003  1.0
  Mo  Mo18  1  0.60781997  0.73907543  -0.56846800  1.0
  Mo  Mo19  1  0.43153200  0.60781997  -0.26092457  1.0
  Mo  Mo20  1  0.26092457  0.56846800  -0.60781997  1.0
  Mo  Mo21  1  0.39218003  0.26092457  -0.43153200  1.0
  Se  Se22  1  0.16922710  0.78425987  -0.55054229  1.0
  Se  Se23  1  0.55054229  0.83077290  -0.78425987  1.0
  Se  Se24  1  0.21574013  0.55054229  -0.16922710  1.0
  Se  Se25  1  0.83077290  0.21574013  -0.44945771  1.0
  Se  Se26  1  0.44945771  0.16922710  -0.21574013  1.0
  Se  Se27  1  0.78425987  0.44945771  -0.83077290  1.0
  Se  Se28  1  0.29494344  0.91048249  -0.44083035  1.0
  Se  Se29  1  0.44083035  0.70505656  -0.91048249  1.0
  Se  Se30  1  0.08951751  0.44083035  -0.29494344  1.0
  Se  Se31  1  0.70505656  0.08951751  -0.55916965  1.0
  Se  Se32  1  0.55916965  0.29494344  -0.08951751  1.0
  Se  Se33  1  0.91048249  0.55916965  -0.70505656  1.0
  Se  Se34  1  0.34764372  -0.00225396  -0.26399751  1.0
  Se  Se35  1  1.26399751  -0.34764372  0.00225396  1.0
  Se  Se36  1  1.00225396  0.26399751  -0.34764372  1.0
  Se  Se37  1  0.65235628  0.00225396  0.26399751  1.0
  Se  Se38  1  0.73600249  -0.65235628  -0.00225396  1.0
  Se  Se39  1  0.99774604  -0.26399751  -0.65235628  1.0
  Se  Se40  1  0.08533613  0.08533613  0.08533613  1.0
  Se  Se41  1  0.91466387  -0.08533613  -0.08533613  1.0
  Se  Se42  1  0.35209515  0.35209515  -0.64790485  1.0
  Se  Se43  1  0.64790485  0.64790485  -0.35209515  1.0
