# generated using pymatgen
data_YWBrO4
_symmetry_space_group_name_H-M   'P 1'
_cell_length_a   6.41480026
_cell_length_b   6.41480026
_cell_length_c   6.99590010
_cell_angle_alpha   75.84488985
_cell_angle_beta   104.15511015
_cell_angle_gamma   110.54034812
_symmetry_Int_Tables_number   1
_chemical_formula_structural   YWBrO4
_chemical_formula_sum   'Y2 W2 Br2 O8'
_cell_volume   257.36624151
_cell_formula_units_Z   2
loop_
 _symmetry_equiv_pos_site_id
 _symmetry_equiv_pos_as_xyz
  1  'x, y, z'
loop_
 _atom_site_type_symbol
 _atom_site_label
 _atom_site_symmetry_multiplicity
 _atom_site_fract_x
 _atom_site_fract_y
 _atom_site_fract_z
 _atom_site_occupancy
  Y  Y0  1  0.73036566  -0.73036566  0.62493351  1.0
  Y  Y1  1  0.26963434  -0.26963434  0.37506649  1.0
  W  W2  1  0.86477441  -0.86477441  0.23569389  1.0
  W  W3  1  0.13522559  -0.13522559  0.76430611  1.0
  Br  Br4  1  0.48644040  -0.48644040  0.74264366  1.0
  Br  Br5  1  0.51355960  -0.51355960  0.25735634  1.0
  O  O6  1  0.38894524  -0.00468697  0.65438146  1.0
  O  O7  1  1.00468697  0.61105476  0.65438146  1.0
  O  O8  1  0.99531303  -0.61105476  0.34561854  1.0
  O  O9  1  1.61105476  0.00468697  0.34561854  1.0
  O  O10  1  0.95777540  -0.95777540  0.69565370  1.0
  O  O11  1  0.04222460  -0.04222460  0.30434630  1.0
  O  O12  1  0.80000659  -0.80000659  0.97030009  1.0
  O  O13  1  0.19999341  -0.19999341  0.02969991  1.0
