# generated using pymatgen
data_Te2Br
_symmetry_space_group_name_H-M   'P 1'
_cell_length_a   16.36699455
_cell_length_b   4.05188580
_cell_length_c   13.55897840
_cell_angle_alpha   90.00000000
_cell_angle_beta   90.00000000
_cell_angle_gamma   90.00000000
_symmetry_Int_Tables_number   1
_chemical_formula_structural   Te2Br
_chemical_formula_sum   'Te16 Br8'
_cell_volume   899.19338527
_cell_formula_units_Z   8
loop_
 _symmetry_equiv_pos_site_id
 _symmetry_equiv_pos_as_xyz
  1  'x, y, z'
loop_
 _atom_site_type_symbol
 _atom_site_label
 _atom_site_symmetry_multiplicity
 _atom_site_fract_x
 _atom_site_fract_y
 _atom_site_fract_z
 _atom_site_occupancy
  Te  Te0  1  0.40651190  0.75000000  0.59779291  1.0
  Te  Te1  1  0.90651190  0.75000000  0.90220709  1.0
  Te  Te2  1  0.59348810  0.25000000  0.40220709  1.0
  Te  Te3  1  0.09348810  0.25000000  0.09779291  1.0
  Te  Te4  1  0.31262891  0.75000000  0.21678782  1.0
  Te  Te5  1  0.81262891  0.75000000  0.28321218  1.0
  Te  Te6  1  0.68737109  0.25000000  0.78321218  1.0
  Te  Te7  1  0.18737109  0.25000000  0.71678782  1.0
  Te  Te8  1  0.22324592  0.75000000  0.57315375  1.0
  Te  Te9  1  0.72324592  0.75000000  0.92684625  1.0
  Te  Te10  1  0.77675408  0.25000000  0.42684625  1.0
  Te  Te11  1  0.27675408  0.25000000  0.07315375  1.0
  Te  Te12  1  0.08055825  0.75000000  0.24834967  1.0
  Te  Te13  1  0.58055825  0.75000000  0.25165033  1.0
  Te  Te14  1  0.91944175  0.25000000  0.75165033  1.0
  Te  Te15  1  0.41944175  0.25000000  0.74834967  1.0
  Br  Br16  1  0.43445771  0.75000000  0.90191240  1.0
  Br  Br17  1  0.93445771  0.75000000  0.59808760  1.0
  Br  Br18  1  0.56554229  0.25000000  0.09808760  1.0
  Br  Br19  1  0.06554229  0.25000000  0.40191240  1.0
  Br  Br20  1  0.15162954  0.75000000  0.87267431  1.0
  Br  Br21  1  0.65162954  0.75000000  0.62732569  1.0
  Br  Br22  1  0.84837046  0.25000000  0.12732569  1.0
  Br  Br23  1  0.34837046  0.25000000  0.37267431  1.0
