# generated using pymatgen
data_CdPtF6
_symmetry_space_group_name_H-M   'P 1'
_cell_length_a   5.78522432
_cell_length_b   5.78522432
_cell_length_c   5.78522432
_cell_angle_alpha   54.77208880
_cell_angle_beta   54.77208880
_cell_angle_gamma   54.77208880
_symmetry_Int_Tables_number   1
_chemical_formula_structural   CdPtF6
_chemical_formula_sum   'Cd1 Pt1 F6'
_cell_volume   120.24410500
_cell_formula_units_Z   1
loop_
 _symmetry_equiv_pos_site_id
 _symmetry_equiv_pos_as_xyz
  1  'x, y, z'
loop_
 _atom_site_type_symbol
 _atom_site_label
 _atom_site_symmetry_multiplicity
 _atom_site_fract_x
 _atom_site_fract_y
 _atom_site_fract_z
 _atom_site_occupancy
  Cd  Cd0  1  0.50000000  0.50000000  -0.50000000  1.0
  Pt  Pt1  1  0.00000000  0.00000000  -0.00000000  1.0
  F  F2  1  0.08152799  0.77628447  -0.62377354  1.0
  F  F3  1  0.62377354  -0.08152799  0.22371553  1.0
  F  F4  1  1.22371553  -0.37622646  -0.08152799  1.0
  F  F5  1  0.91847201  0.22371553  -0.37622646  1.0
  F  F6  1  0.37622646  0.08152799  -0.22371553  1.0
  F  F7  1  0.77628447  0.37622646  -0.91847201  1.0
