# generated using pymatgen
data_Na2Ca2Ta3O10
_symmetry_space_group_name_H-M   'P 1'
_cell_length_a   14.62265006
_cell_length_b   14.62265006
_cell_length_c   14.62265006
_cell_angle_alpha   164.34044741
_cell_angle_beta   164.34044741
_cell_angle_gamma   22.21599499
_symmetry_Int_Tables_number   1
_chemical_formula_structural   Na2Ca2Ta3O10
_chemical_formula_sum   'Na2 Ca2 Ta3 O10'
_cell_volume   227.75778269
_cell_formula_units_Z   1
loop_
 _symmetry_equiv_pos_site_id
 _symmetry_equiv_pos_as_xyz
  1  'x, y, z'
loop_
 _atom_site_type_symbol
 _atom_site_label
 _atom_site_symmetry_multiplicity
 _atom_site_fract_x
 _atom_site_fract_y
 _atom_site_fract_z
 _atom_site_occupancy
  Na  Na0  1  0.71207456  0.71207456  1.00000000  1.0
  Na  Na1  1  0.28792544  0.28792544  -0.00000000  1.0
  Ca  Ca2  1  0.57718739  0.57718739  1.00000000  1.0
  Ca  Ca3  1  0.42281261  0.42281261  -0.00000000  1.0
  Ta  Ta4  1  0.85640671  0.85640671  1.00000000  1.0
  Ta  Ta5  1  0.14359329  0.14359329  -0.00000000  1.0
  Ta  Ta6  1  0.00000000  0.00000000  0.00000000  1.0
  O  O7  1  0.36654164  0.86654164  0.50000000  1.0
  O  O8  1  0.63345836  0.13345836  0.50000000  1.0
  O  O9  1  0.86654164  0.36654164  0.50000000  1.0
  O  O10  1  0.13345836  0.63345836  0.50000000  1.0
  O  O11  1  0.93126298  0.93126298  1.00000000  1.0
  O  O12  1  0.06873702  0.06873702  -0.00000000  1.0
  O  O13  1  0.79152277  0.79152277  1.00000000  1.0
  O  O14  1  0.20847723  0.20847723  -0.00000000  1.0
  O  O15  1  0.50000000  0.00000000  0.50000000  1.0
  O  O16  1  0.00000000  0.50000000  0.50000000  1.0
