# generated using pymatgen
data_CdAs2
_symmetry_space_group_name_H-M   'P 1'
_cell_length_a   6.22571091
_cell_length_b   6.22571091
_cell_length_c   6.22571091
_cell_angle_alpha   98.40992764
_cell_angle_beta   98.40992764
_cell_angle_gamma   135.03115124
_symmetry_Int_Tables_number   1
_chemical_formula_structural   CdAs2
_chemical_formula_sum   'Cd2 As4'
_cell_volume   157.57228446
_cell_formula_units_Z   2
loop_
 _symmetry_equiv_pos_site_id
 _symmetry_equiv_pos_as_xyz
  1  'x, y, z'
loop_
 _atom_site_type_symbol
 _atom_site_label
 _atom_site_symmetry_multiplicity
 _atom_site_fract_x
 _atom_site_fract_y
 _atom_site_fract_z
 _atom_site_occupancy
  Cd  Cd0  1  0.00000000  0.00000000  0.00000000  1.0
  Cd  Cd1  1  0.75000000  1.25000000  0.50000000  1.0
  As  As2  1  0.87500000  0.68663149  1.31163149  1.0
  As  As3  1  0.43663149  0.62500000  0.31163149  1.0
  As  As4  1  1.31336851  1.12500000  1.68836851  1.0
  As  As5  1  0.37500000  0.56336851  0.68836851  1.0
