# generated using pymatgen
data_Cs2SO4
_symmetry_space_group_name_H-M   'P 1'
_cell_length_a   8.45392282
_cell_length_b   6.33812412
_cell_length_c   11.16605915
_cell_angle_alpha   90.00000000
_cell_angle_beta   90.00000000
_cell_angle_gamma   90.00000000
_symmetry_Int_Tables_number   1
_chemical_formula_structural   Cs2SO4
_chemical_formula_sum   'Cs8 S4 O16'
_cell_volume   598.29991730
_cell_formula_units_Z   4
loop_
 _symmetry_equiv_pos_site_id
 _symmetry_equiv_pos_as_xyz
  1  'x, y, z'
loop_
 _atom_site_type_symbol
 _atom_site_label
 _atom_site_symmetry_multiplicity
 _atom_site_fract_x
 _atom_site_fract_y
 _atom_site_fract_z
 _atom_site_occupancy
  Cs  Cs0  1  0.82908076  0.75000000  0.41037195  1.0
  Cs  Cs1  1  0.32908076  0.75000000  0.08962805  1.0
  Cs  Cs2  1  0.17091924  0.25000000  0.58962805  1.0
  Cs  Cs3  1  0.67091924  0.25000000  0.91037195  1.0
  Cs  Cs4  1  0.50803855  0.75000000  0.69628905  1.0
  Cs  Cs5  1  0.00803855  0.75000000  0.80371095  1.0
  Cs  Cs6  1  0.49196145  0.25000000  0.30371095  1.0
  Cs  Cs7  1  -0.00803855  0.25000000  0.19628905  1.0
  S  S8  1  0.76139989  0.75000000  0.08344027  1.0
  S  S9  1  0.26139989  0.75000000  0.41655973  1.0
  S  S10  1  0.23860011  0.25000000  0.91655973  1.0
  S  S11  1  0.73860011  0.25000000  0.58344027  1.0
  O  O12  1  0.69931145  0.94392271  0.14556089  1.0
  O  O13  1  0.69931145  0.55607729  0.14556089  1.0
  O  O14  1  0.19931145  0.94392271  0.35443911  1.0
  O  O15  1  0.19931145  0.55607729  0.35443911  1.0
  O  O16  1  0.30068855  0.44392271  0.85443911  1.0
  O  O17  1  0.30068855  0.05607729  0.85443911  1.0
  O  O18  1  0.80068855  0.44392271  0.64556089  1.0
  O  O19  1  0.80068855  0.05607729  0.64556089  1.0
  O  O20  1  0.93853053  0.75000000  0.08670870  1.0
  O  O21  1  0.43853053  0.75000000  0.41329130  1.0
  O  O22  1  0.06146947  0.25000000  0.91329130  1.0
  O  O23  1  0.56146947  0.25000000  0.58670870  1.0
  O  O24  1  0.20371027  0.75000000  0.54441923  1.0
  O  O25  1  0.70371027  0.75000000  0.95558077  1.0
  O  O26  1  0.79628973  0.25000000  0.45558077  1.0
  O  O27  1  0.29628973  0.25000000  0.04441923  1.0
