# generated using pymatgen
data_Cs8Ta6O19
_symmetry_space_group_name_H-M   'P 1'
_cell_length_a   10.01961169
_cell_length_b   10.01961169
_cell_length_c   10.01961169
_cell_angle_alpha   119.22790780
_cell_angle_beta   119.22790780
_cell_angle_gamma   91.34258741
_symmetry_Int_Tables_number   1
_chemical_formula_structural   Cs8Ta6O19
_chemical_formula_sum   'Cs8 Ta6 O19'
_cell_volume   719.36216647
_cell_formula_units_Z   1
loop_
 _symmetry_equiv_pos_site_id
 _symmetry_equiv_pos_as_xyz
  1  'x, y, z'
loop_
 _atom_site_type_symbol
 _atom_site_label
 _atom_site_symmetry_multiplicity
 _atom_site_fract_x
 _atom_site_fract_y
 _atom_site_fract_z
 _atom_site_occupancy
  Cs  Cs0  1  0.36549572  0.56327452  0.63514367  1.0
  Cs  Cs1  1  1.07186915  1.26964795  1.63514367  1.0
  Cs  Cs2  1  0.73035205  0.36549572  0.80222121  1.0
  Cs  Cs3  1  0.43672548  1.07186915  0.80222121  1.0
  Cs  Cs4  1  0.92813085  0.73035205  1.36485633  1.0
  Cs  Cs5  1  0.63450428  0.43672548  0.36485633  1.0
  Cs  Cs6  1  0.56327452  0.92813085  1.19777879  1.0
  Cs  Cs7  1  1.26964795  0.63450428  1.19777879  1.0
  Ta  Ta8  1  0.78917082  0.89453878  1.68370960  1.0
  Ta  Ta9  1  0.10546122  0.78917082  0.89463204  1.0
  Ta  Ta10  1  0.21082918  0.10546122  0.31629040  1.0
  Ta  Ta11  1  0.89453878  0.21082918  1.10536796  1.0
  Ta  Ta12  1  0.83173096  0.83173096  1.00000000  1.0
  Ta  Ta13  1  0.16826904  0.16826904  0.00000000  1.0
  O  O14  1  0.68630437  0.76985832  0.73746199  1.0
  O  O15  1  0.96760366  1.05115762  1.73746199  1.0
  O  O16  1  0.94884238  0.68630437  0.91644605  1.0
  O  O17  1  0.23014168  0.96760366  0.91644605  1.0
  O  O18  1  1.03239634  0.94884238  1.26253801  1.0
  O  O19  1  0.31369563  0.23014168  0.26253801  1.0
  O  O20  1  0.76985832  1.03239634  1.08355395  1.0
  O  O21  1  1.05115762  0.31369563  1.08355395  1.0
  O  O22  1  0.63469483  0.80079026  1.43548509  1.0
  O  O23  1  0.19920974  0.63469483  0.83390457  1.0
  O  O24  1  0.36530517  0.19920974  0.56451491  1.0
  O  O25  1  0.80079026  0.36530517  1.16609543  1.0
  O  O26  1  0.91642443  0.74055410  1.65697853  1.0
  O  O27  1  0.25944590  0.91642443  1.17587033  1.0
  O  O28  1  0.08357557  0.25944590  0.34302147  1.0
  O  O29  1  0.74055410  0.08357557  0.82412967  1.0
  O  O30  1  0.70061775  0.70061775  1.00000000  1.0
  O  O31  1  0.29938225  0.29938225  -0.00000000  1.0
  O  O32  1  0.00000000  0.00000000  0.00000000  1.0
