# generated using pymatgen
data_HfSiO4
_symmetry_space_group_name_H-M   'P 1'
_cell_length_a   5.57080049
_cell_length_b   5.57080049
_cell_length_c   5.57080049
_cell_angle_alpha   106.94505266
_cell_angle_beta   106.94505266
_cell_angle_gamma   114.65107060
_symmetry_Int_Tables_number   1
_chemical_formula_structural   HfSiO4
_chemical_formula_sum   'Hf2 Si2 O8'
_cell_volume   132.26225831
_cell_formula_units_Z   2
loop_
 _symmetry_equiv_pos_site_id
 _symmetry_equiv_pos_as_xyz
  1  'x, y, z'
loop_
 _atom_site_type_symbol
 _atom_site_label
 _atom_site_symmetry_multiplicity
 _atom_site_fract_x
 _atom_site_fract_y
 _atom_site_fract_z
 _atom_site_occupancy
  Hf  Hf0  1  0.25000000  0.75000000  0.50000000  1.0
  Hf  Hf1  1  0.50000000  0.50000000  0.00000000  1.0
  Si  Si2  1  -0.00000000  -0.00000000  -0.00000000  1.0
  Si  Si3  1  0.75000000  1.25000000  0.50000000  1.0
  O  O4  1  0.18128632  0.99667156  0.81538524  1.0
  O  O5  1  0.74667156  0.43128632  0.31538524  1.0
  O  O6  1  1.11590109  1.43128632  0.68461476  1.0
  O  O7  1  0.18128632  0.36590109  0.18461476  1.0
  O  O8  1  0.56871368  1.25332844  0.68461476  1.0
  O  O9  1  1.00332844  0.81871368  1.18461476  1.0
  O  O10  1  1.63409891  0.81871368  0.81538524  1.0
  O  O11  1  0.56871368  0.88409891  0.31538524  1.0
