# generated using pymatgen
data_KCN
_symmetry_space_group_name_H-M   'P 1'
_cell_length_a   3.95083571
_cell_length_b   3.95083571
_cell_length_c   3.93216239
_cell_angle_alpha   87.80736283
_cell_angle_beta   92.19263717
_cell_angle_gamma   91.80841891
_symmetry_Int_Tables_number   1
_chemical_formula_structural   KCN
_chemical_formula_sum   'K1 C1 N1'
_cell_volume   61.25984367
_cell_formula_units_Z   1
loop_
 _symmetry_equiv_pos_site_id
 _symmetry_equiv_pos_as_xyz
  1  'x, y, z'
loop_
 _atom_site_type_symbol
 _atom_site_label
 _atom_site_symmetry_multiplicity
 _atom_site_fract_x
 _atom_site_fract_y
 _atom_site_fract_z
 _atom_site_occupancy
  K  K0  1  -0.00638739  0.00638739  0.03728479  1.0
  C  C1  1  0.42340163  -0.42340163  0.60821025  1.0
  N  N2  1  0.59198576  -0.59198576  0.44550496  1.0
