# generated using pymatgen
data_KMn(PO3)4
_symmetry_space_group_name_H-M   'P 1'
_cell_length_a   10.42859303
_cell_length_b   10.42859303
_cell_length_c   5.34544210
_cell_angle_alpha   80.98263967
_cell_angle_beta   99.01736033
_cell_angle_gamma   106.71443565
_symmetry_Int_Tables_number   1
_chemical_formula_structural   KMn(PO3)4
_chemical_formula_sum   'K2 Mn2 P8 O24'
_cell_volume   546.05875115
_cell_formula_units_Z   2
loop_
 _symmetry_equiv_pos_site_id
 _symmetry_equiv_pos_as_xyz
  1  'x, y, z'
loop_
 _atom_site_type_symbol
 _atom_site_label
 _atom_site_symmetry_multiplicity
 _atom_site_fract_x
 _atom_site_fract_y
 _atom_site_fract_z
 _atom_site_occupancy
  K  K0  1  0.59859670  -0.59859670  0.72349714  1.0
  K  K1  1  0.40140330  -0.40140330  0.27650286  1.0
  Mn  Mn2  1  1.50000000  0.00000000  -0.00000000  1.0
  Mn  Mn3  1  1.00000000  -0.50000000  -0.00000000  1.0
  P  P4  1  0.64536275  -0.20219639  0.82663677  1.0
  P  P5  1  1.20219639  0.35463725  0.82663677  1.0
  P  P6  1  0.79780361  -0.35463725  0.17336323  1.0
  P  P7  1  1.35463725  0.20219639  0.17336323  1.0
  P  P8  1  1.69407089  0.06749720  0.51518330  1.0
  P  P9  1  0.93250280  -0.69407089  0.51518330  1.0
  P  P10  1  1.06749720  0.69407089  0.48481670  1.0
  P  P11  1  0.30592911  -0.06749720  0.48481670  1.0
  O  O12  1  0.57277204  -0.32755815  0.71166181  1.0
  O  O13  1  1.32755815  0.42722796  0.71166181  1.0
  O  O14  1  0.67244185  -0.42722796  0.28833819  1.0
  O  O15  1  1.42722796  0.32755815  0.28833819  1.0
  O  O16  1  0.70900377  -0.08169534  0.61408599  1.0
  O  O17  1  1.08169534  0.29099623  0.61408599  1.0
  O  O18  1  0.91830466  -0.29099623  0.38591401  1.0
  O  O19  1  1.29099623  0.08169534  0.38591401  1.0
  O  O20  1  1.60723387  0.10929354  0.66952321  1.0
  O  O21  1  0.89070646  -0.60723387  0.66952321  1.0
  O  O22  1  1.10929354  0.60723387  0.33047679  1.0
  O  O23  1  0.39276613  -0.10929354  0.33047679  1.0
  O  O24  1  0.34088962  -0.07833662  0.77329923  1.0
  O  O25  1  1.07833662  0.65911038  0.77329923  1.0
  O  O26  1  0.92166338  -0.65911038  0.22670077  1.0
  O  O27  1  1.65911038  0.07833662  0.22670077  1.0
  O  O28  1  1.43249849  0.15089272  0.00708609  1.0
  O  O29  1  0.84910728  -0.43249849  0.00708609  1.0
  O  O30  1  1.15089272  0.43249849  0.99291391  1.0
  O  O31  1  0.56750151  -0.15089272  0.99291391  1.0
  O  O32  1  0.85057930  -0.85057930  0.56879589  1.0
  O  O33  1  0.14942070  -0.14942070  0.43120411  1.0
  O  O34  1  0.78503643  -0.21496357  -0.00000000  1.0
  O  O35  1  1.21496357  0.21496357  0.00000000  1.0
