# generated using pymatgen
data_CaV(Si2O7)2
_symmetry_space_group_name_H-M   'P 1'
_cell_length_a   8.61367026
_cell_length_b   8.61367026
_cell_length_c   9.12518124
_cell_angle_alpha   90.00000000
_cell_angle_beta   90.00000000
_cell_angle_gamma   74.87026698
_symmetry_Int_Tables_number   1
_chemical_formula_structural   CaV(Si2O7)2
_chemical_formula_sum   'Ca2 V2 Si8 O28'
_cell_volume   653.57747836
_cell_formula_units_Z   2
loop_
 _symmetry_equiv_pos_site_id
 _symmetry_equiv_pos_as_xyz
  1  'x, y, z'
loop_
 _atom_site_type_symbol
 _atom_site_label
 _atom_site_symmetry_multiplicity
 _atom_site_fract_x
 _atom_site_fract_y
 _atom_site_fract_z
 _atom_site_occupancy
  V  V0  1  0.04914730  0.95085270  0.02355974  1.0
  V  V1  1  -0.04914730  1.04914730  0.52355974  1.0
  Si  Si2  1  -0.11279139  1.68655886  0.48701547  1.0
  Si  Si3  1  0.68655886  0.88720861  0.98701547  1.0
  Si  Si4  1  -0.68655886  1.11279139  0.48701547  1.0
  Si  Si5  1  0.11279139  0.31344114  0.98701547  1.0
  Si  Si6  1  -0.06978456  1.64026163  0.14845997  1.0
  Si  Si7  1  0.64026163  0.93021544  0.64845997  1.0
  Si  Si8  1  -0.64026163  1.06978456  0.14845997  1.0
  Si  Si9  1  0.06978456  0.35973837  0.64845997  1.0
  Ca  Ca10  1  0.22441501  0.77558499  0.34129530  1.0
  Ca  Ca11  1  -0.22441501  1.22441501  0.84129530  1.0
  O  O12  1  -0.00928333  0.82237106  0.49000421  1.0
  O  O13  1  -0.17762894  0.99071667  0.99000421  1.0
  O  O14  1  0.17762894  1.00928333  0.49000421  1.0
  O  O15  1  0.00928333  1.17762894  0.99000421  1.0
  O  O16  1  0.03945681  0.77181727  0.14267375  1.0
  O  O17  1  -0.22818273  1.03945681  0.64267375  1.0
  O  O18  1  0.22818273  0.96054319  0.14267375  1.0
  O  O19  1  -0.03945681  1.22818273  0.64267375  1.0
  O  O20  1  -0.11681576  1.62121510  0.31970804  1.0
  O  O21  1  0.62121510  0.88318424  0.81970804  1.0
  O  O22  1  -0.62121510  1.11681576  0.31970804  1.0
  O  O23  1  0.11681576  0.37878490  0.81970804  1.0
  O  O24  1  0.03042146  0.46450975  0.09205945  1.0
  O  O25  1  -0.53549025  1.03042146  0.59205945  1.0
  O  O26  1  0.53549025  0.96957854  0.09205945  1.0
  O  O27  1  -0.03042146  1.53549025  0.59205945  1.0
  O  O28  1  -0.22901519  1.70652070  0.04690743  1.0
  O  O29  1  0.70652070  0.77098481  0.54690743  1.0
  O  O30  1  -0.70652070  1.22901519  0.04690743  1.0
  O  O31  1  0.22901519  0.29347930  0.54690743  1.0
  O  O32  1  0.12408785  0.87591215  0.87323478  1.0
  O  O33  1  -0.12408785  1.12408785  0.37323478  1.0
  O  O34  1  -0.39402823  1.39402823  -0.02276609  1.0
  O  O35  1  0.39402823  0.60597177  0.47723391  1.0
  O  O36  1  0.40125543  0.50783411  0.21520981  1.0
  O  O37  1  -0.49216589  1.40125543  0.71520981  1.0
  O  O38  1  0.49216589  0.59874457  0.21520981  1.0
  O  O39  1  -0.40125543  1.49216589  0.71520981  1.0
