# generated using pymatgen
data_Na4Al3Si3O13
_symmetry_space_group_name_H-M   'P 1'
_cell_length_a   12.51354007
_cell_length_b   12.51354007
_cell_length_c   5.14912461
_cell_angle_alpha   90.00000000
_cell_angle_beta   90.00000000
_cell_angle_gamma   120.00000000
_symmetry_Int_Tables_number   1
_chemical_formula_structural   Na4Al3Si3O13
_chemical_formula_sum   'Na8 Al6 Si6 O26'
_cell_volume   698.27165107
_cell_formula_units_Z   2
loop_
 _symmetry_equiv_pos_site_id
 _symmetry_equiv_pos_as_xyz
  1  'x, y, z'
loop_
 _atom_site_type_symbol
 _atom_site_label
 _atom_site_symmetry_multiplicity
 _atom_site_fract_x
 _atom_site_fract_y
 _atom_site_fract_z
 _atom_site_occupancy
  Al  Al0  1  0.07375384  0.66275275  0.25939890  1.0
  Al  Al1  1  0.33724725  0.41100109  0.25939890  1.0
  Al  Al2  1  0.58899891  0.92624616  0.25939890  1.0
  Al  Al3  1  0.92624616  0.33724725  0.75939890  1.0
  Al  Al4  1  0.66275275  0.58899891  0.75939890  1.0
  Al  Al5  1  0.41100109  0.07375384  0.75939890  1.0
  Si  Si6  1  0.08275357  0.40816163  0.26087349  1.0
  Si  Si7  1  0.59183837  0.67459193  0.26087349  1.0
  Si  Si8  1  0.32540807  0.91724643  0.26087349  1.0
  Si  Si9  1  0.91724643  0.59183837  0.76087349  1.0
  Si  Si10  1  0.40816163  0.32540807  0.76087349  1.0
  Si  Si11  1  0.67459193  0.08275357  0.76087349  1.0
  O  O12  1  0.12208060  0.55357479  0.29228664  1.0
  O  O13  1  0.44642521  0.56850581  0.29228664  1.0
  O  O14  1  0.43149419  0.87791940  0.29228664  1.0
  O  O15  1  0.87791940  0.44642521  0.79228664  1.0
  O  O16  1  0.55357479  0.43149419  0.79228664  1.0
  O  O17  1  0.56850581  0.12208060  0.79228664  1.0
  O  O18  1  0.19681799  0.39299114  0.36825235  1.0
  O  O19  1  0.60700886  0.80382685  0.36825235  1.0
  O  O20  1  0.19617315  0.80318201  0.36825235  1.0
  O  O21  1  0.80318201  0.60700886  0.86825235  1.0
  O  O22  1  0.39299114  0.19617315  0.86825235  1.0
  O  O23  1  0.80382685  0.19681799  0.86825235  1.0
  O  O24  1  0.96334044  0.31625311  0.44077996  1.0
  O  O25  1  0.68374689  0.64708732  0.44077996  1.0
  O  O26  1  0.35291268  0.03665956  0.44077996  1.0
  O  O27  1  0.03665956  0.68374689  0.94077996  1.0
  O  O28  1  0.31625311  0.35291268  0.94077996  1.0
  O  O29  1  0.64708732  0.96334044  0.94077996  1.0
  O  O30  1  0.05073392  0.36017684  0.95987868  1.0
  O  O31  1  0.63982316  0.69055708  0.95987868  1.0
  O  O32  1  0.30944292  0.94926608  0.95987868  1.0
  O  O33  1  0.94926608  0.63982316  0.45987868  1.0
  O  O34  1  0.36017684  0.30944292  0.45987868  1.0
  O  O35  1  0.69055708  0.05073392  0.45987868  1.0
  O  O36  1  0.00000000  0.00000000  0.49129260  1.0
  O  O37  1  0.00000000  0.00000000  -0.00870740  1.0
  Na  Na38  1  0.33333333  0.66666667  0.42583047  1.0
  Na  Na39  1  0.66666667  0.33333333  0.92583047  1.0
  Na  Na40  1  0.11695408  0.23126658  0.72068897  1.0
  Na  Na41  1  0.76873342  0.88568750  0.72068897  1.0
  Na  Na42  1  0.11431250  0.88304592  0.72068897  1.0
  Na  Na43  1  0.88304592  0.76873342  0.22068897  1.0
  Na  Na44  1  0.23126658  0.11431250  0.22068897  1.0
  Na  Na45  1  0.88568750  0.11695408  0.22068897  1.0
