# generated using pymatgen
data_PtC12Cl
_symmetry_space_group_name_H-M   'P 1'
_cell_length_a   7.89149133
_cell_length_b   8.76568494
_cell_length_c   5.71895624
_cell_angle_alpha   90.00000000
_cell_angle_beta   114.18948430
_cell_angle_gamma   90.00000000
_symmetry_Int_Tables_number   1
_chemical_formula_structural   PtC12Cl
_chemical_formula_sum   'Pt2 C24 Cl2'
_cell_volume   360.86898800
_cell_formula_units_Z   2
loop_
 _symmetry_equiv_pos_site_id
 _symmetry_equiv_pos_as_xyz
  1  'x, y, z'
loop_
 _atom_site_type_symbol
 _atom_site_label
 _atom_site_symmetry_multiplicity
 _atom_site_fract_x
 _atom_site_fract_y
 _atom_site_fract_z
 _atom_site_occupancy
  Pt  Pt0  1  0.42272166  0.75000000  0.78109159  1.0
  Pt  Pt1  1  0.57727834  0.25000000  0.21890841  1.0
  C  C2  1  0.71651473  0.75000000  0.89509391  1.0
  C  C3  1  0.28348527  0.25000000  0.10490609  1.0
  C  C4  1  0.78256337  0.61912735  0.78051101  1.0
  C  C5  1  0.21743663  0.11912735  0.21948899  1.0
  C  C6  1  0.21743663  0.38087265  0.21948899  1.0
  C  C7  1  0.78256337  0.88087265  0.78051101  1.0
  C  C8  1  0.73330965  0.66688011  0.51557783  1.0
  C  C9  1  0.26669035  0.16688011  0.48442217  1.0
  C  C10  1  0.26669035  0.33311989  0.48442217  1.0
  C  C11  1  0.73330965  0.83311989  0.51557783  1.0
  C  C12  1  0.43557329  0.51640952  0.87055011  1.0
  C  C13  1  0.56442671  0.01640952  0.12944989  1.0
  C  C14  1  0.56442671  0.48359048  0.12944989  1.0
  C  C15  1  0.43557329  0.98359048  0.87055011  1.0
  C  C16  1  0.66465066  0.75000000  0.10831763  1.0
  C  C17  1  0.33534934  0.25000000  0.89168237  1.0
  C  C18  1  0.66930736  0.61173246  0.26335355  1.0
  C  C19  1  0.33069264  0.11173246  0.73664645  1.0
  C  C20  1  0.33069264  0.38826754  0.73664645  1.0
  C  C21  1  0.66930736  0.88826754  0.26335355  1.0
  C  C22  1  0.92642915  0.53142632  0.92425607  1.0
  C  C23  1  0.07357085  0.03142632  0.07574393  1.0
  C  C24  1  0.07357085  0.46857368  0.07574393  1.0
  C  C25  1  0.92642915  0.96857368  0.92425607  1.0
  Cl  Cl26  1  0.11794871  0.75000000  0.50699094  1.0
  Cl  Cl27  1  0.88205129  0.25000000  0.49300906  1.0
