# generated using pymatgen
data_RbMoP2O7
_symmetry_space_group_name_H-M   'P 1'
_cell_length_a   7.67446663
_cell_length_b   10.50577348
_cell_length_c   8.55214220
_cell_angle_alpha   90.00000000
_cell_angle_beta   106.24694543
_cell_angle_gamma   90.00000000
_symmetry_Int_Tables_number   1
_chemical_formula_structural   RbMoP2O7
_chemical_formula_sum   'Rb4 Mo4 P8 O28'
_cell_volume   661.99038531
_cell_formula_units_Z   4
loop_
 _symmetry_equiv_pos_site_id
 _symmetry_equiv_pos_as_xyz
  1  'x, y, z'
loop_
 _atom_site_type_symbol
 _atom_site_label
 _atom_site_symmetry_multiplicity
 _atom_site_fract_x
 _atom_site_fract_y
 _atom_site_fract_z
 _atom_site_occupancy
  Rb  Rb0  1  0.81427499  0.81983377  0.44231429  1.0
  Rb  Rb1  1  0.81427499  0.68016623  0.94231429  1.0
  Rb  Rb2  1  0.18572501  0.31983377  0.05768571  1.0
  Rb  Rb3  1  0.18572501  0.18016623  0.55768571  1.0
  Mo  Mo4  1  0.76294487  0.39905196  0.24115687  1.0
  Mo  Mo5  1  0.76294487  0.10094804  0.74115687  1.0
  Mo  Mo6  1  0.23705513  0.89905196  0.25884313  1.0
  Mo  Mo7  1  0.23705513  0.60094804  0.75884313  1.0
  P  P8  1  0.87116203  0.09967732  0.17260251  1.0
  P  P9  1  0.87116203  0.40032268  0.67260251  1.0
  P  P10  1  0.12883797  0.59967732  0.32739749  1.0
  P  P11  1  0.12883797  0.90032268  0.82739749  1.0
  P  P12  1  0.56546494  0.13353876  0.30915424  1.0
  P  P13  1  0.56546494  0.36646124  0.80915424  1.0
  P  P14  1  0.43453506  0.63353876  0.19084576  1.0
  P  P15  1  0.43453506  0.86646124  0.69084576  1.0
  O  O16  1  -0.00393024  0.50219551  0.22285047  1.0
  O  O17  1  -0.00393024  -0.00219551  0.72285047  1.0
  O  O18  1  1.00393024  1.00219551  0.27714953  1.0
  O  O19  1  1.00393024  0.49780449  0.77714953  1.0
  O  O20  1  0.92064130  0.23367008  0.24737950  1.0
  O  O21  1  0.92064130  0.26632992  0.74737950  1.0
  O  O22  1  0.07935870  0.73367008  0.25262050  1.0
  O  O23  1  0.07935870  0.76632992  0.75262050  1.0
  O  O24  1  0.86034418  0.40577970  0.49332539  1.0
  O  O25  1  0.86034418  0.09422030  0.99332539  1.0
  O  O26  1  0.13965582  0.90577970  0.00667461  1.0
  O  O27  1  0.13965582  0.59422030  0.50667461  1.0
  O  O28  1  0.67816028  0.10345211  0.48289096  1.0
  O  O29  1  0.67816028  0.39654789  0.98289096  1.0
  O  O30  1  0.32183972  0.60345211  0.01710904  1.0
  O  O31  1  0.32183972  0.89654789  0.51710904  1.0
  O  O32  1  0.67142772  0.06195527  0.19106822  1.0
  O  O33  1  0.67142772  0.43804473  0.69106822  1.0
  O  O34  1  0.32857228  0.56195527  0.30893178  1.0
  O  O35  1  0.32857228  0.93804473  0.80893178  1.0
  O  O36  1  0.55150911  0.27614929  0.26259335  1.0
  O  O37  1  0.55150911  0.22385071  0.76259335  1.0
  O  O38  1  0.44849089  0.77614929  0.23740665  1.0
  O  O39  1  0.44849089  0.72385071  0.73740665  1.0
  O  O40  1  0.37345209  0.07681676  0.26144712  1.0
  O  O41  1  0.37345209  0.42318324  0.76144712  1.0
  O  O42  1  0.62654791  0.57681676  0.23855288  1.0
  O  O43  1  0.62654791  0.92318324  0.73855288  1.0
