# generated using pymatgen
data_Ba3SiI2
_symmetry_space_group_name_H-M   'P 1'
_cell_length_a   16.52312415
_cell_length_b   15.76039946
_cell_length_c   8.74746567
_cell_angle_alpha   79.15163515
_cell_angle_beta   69.51971513
_cell_angle_gamma   31.32864971
_symmetry_Int_Tables_number   1
_chemical_formula_structural   Ba3SiI2
_chemical_formula_sum   'Ba12 Si4 I8'
_cell_volume   1080.52713204
_cell_formula_units_Z   4
loop_
 _symmetry_equiv_pos_site_id
 _symmetry_equiv_pos_as_xyz
  1  'x, y, z'
loop_
 _atom_site_type_symbol
 _atom_site_label
 _atom_site_symmetry_multiplicity
 _atom_site_fract_x
 _atom_site_fract_y
 _atom_site_fract_z
 _atom_site_occupancy
  Ba  Ba0  1  -0.20629798  1.20629798  0.20629798  1.0
  Ba  Ba1  1  0.20629798  0.79370202  -0.20629798  1.0
  Ba  Ba2  1  0.45629798  0.04370202  0.04370202  1.0
  Ba  Ba3  1  0.04370202  0.45629798  0.45629798  1.0
  Ba  Ba4  1  0.30469893  0.87869501  0.15466662  1.0
  Ba  Ba5  1  0.66193944  0.15466662  0.87869501  1.0
  Ba  Ba6  1  0.15466662  0.66193944  0.30469893  1.0
  Ba  Ba7  1  0.87869501  0.30469893  0.66193944  1.0
  Ba  Ba8  1  -0.05469893  0.37130499  0.09533338  1.0
  Ba  Ba9  1  0.58806056  0.09533338  0.37130499  1.0
  Ba  Ba10  1  0.09533338  0.58806056  -0.05469893  1.0
  Ba  Ba11  1  0.37130499  -0.05469893  0.58806056  1.0
  Si  Si12  1  -0.08410352  0.91589648  0.08410352  1.0
  Si  Si13  1  0.08410352  1.08410352  -0.08410352  1.0
  Si  Si14  1  0.33410352  0.33410352  0.16589648  1.0
  Si  Si15  1  0.16589648  0.16589648  0.33410352  1.0
  I  I16  1  0.57775182  0.57775182  0.42224818  1.0
  I  I17  1  0.42224818  0.42224818  0.57775182  1.0
  I  I18  1  0.67224818  -0.32775182  0.82775182  1.0
  I  I19  1  0.82775182  -0.17224818  0.67224818  1.0
  I  I20  1  -0.25369942  0.74630058  0.25369942  1.0
  I  I21  1  0.25369942  0.25369942  -0.25369942  1.0
  I  I22  1  0.50369942  0.50369942  -0.00369942  1.0
  I  I23  1  -0.00369942  0.99630058  0.50369942  1.0
