# generated using pymatgen
data_Gd12Co6Pb
_symmetry_space_group_name_H-M   'P 1'
_cell_length_a   8.48127567
_cell_length_b   8.48127567
_cell_length_c   8.48127567
_cell_angle_alpha   109.47122063
_cell_angle_beta   109.47122063
_cell_angle_gamma   109.47122063
_symmetry_Int_Tables_number   1
_chemical_formula_structural   Gd12Co6Pb
_chemical_formula_sum   'Gd12 Co6 Pb1'
_cell_volume   469.63628867
_cell_formula_units_Z   1
loop_
 _symmetry_equiv_pos_site_id
 _symmetry_equiv_pos_as_xyz
  1  'x, y, z'
loop_
 _atom_site_type_symbol
 _atom_site_label
 _atom_site_symmetry_multiplicity
 _atom_site_fract_x
 _atom_site_fract_y
 _atom_site_fract_z
 _atom_site_occupancy
  Gd  Gd0  1  0.80550383  1.30472833  1.11023216  1.0
  Gd  Gd1  1  0.80550383  0.69527167  0.50077550  1.0
  Gd  Gd2  1  0.19449617  0.30472833  0.49922450  1.0
  Gd  Gd3  1  0.19449617  0.69527167  0.88976784  1.0
  Gd  Gd4  1  0.50077550  0.80550383  0.69527167  1.0
  Gd  Gd5  1  1.11023216  0.80550383  1.30472833  1.0
  Gd  Gd6  1  0.69527167  0.88976784  0.19449617  1.0
  Gd  Gd7  1  0.69527167  0.50077550  0.80550383  1.0
  Gd  Gd8  1  0.88976784  0.19449617  0.69527167  1.0
  Gd  Gd9  1  0.49922450  0.19449617  0.30472833  1.0
  Gd  Gd10  1  0.30472833  0.49922450  0.19449617  1.0
  Gd  Gd11  1  1.30472833  1.11023216  0.80550383  1.0
  Co  Co12  1  0.88744646  0.38744646  0.50000000  1.0
  Co  Co13  1  0.50000000  0.11255354  0.61255354  1.0
  Co  Co14  1  0.50000000  0.88744646  0.38744646  1.0
  Co  Co15  1  0.38744646  0.50000000  0.88744646  1.0
  Co  Co16  1  0.61255354  0.50000000  0.11255354  1.0
  Co  Co17  1  0.11255354  0.61255354  0.50000000  1.0
  Pb  Pb18  1  0.00000000  0.00000000  0.00000000  1.0
