# generated using pymatgen
data_PrMnSi
_symmetry_space_group_name_H-M   'P 1'
_cell_length_a   3.97188027
_cell_length_b   3.97188027
_cell_length_c   7.26589807
_cell_angle_alpha   90.00000000
_cell_angle_beta   90.00000000
_cell_angle_gamma   90.00000000
_symmetry_Int_Tables_number   1
_chemical_formula_structural   PrMnSi
_chemical_formula_sum   'Pr2 Mn2 Si2'
_cell_volume   114.62559341
_cell_formula_units_Z   2
loop_
 _symmetry_equiv_pos_site_id
 _symmetry_equiv_pos_as_xyz
  1  'x, y, z'
loop_
 _atom_site_type_symbol
 _atom_site_label
 _atom_site_symmetry_multiplicity
 _atom_site_fract_x
 _atom_site_fract_y
 _atom_site_fract_z
 _atom_site_occupancy
  Pr  Pr0  1  0.50000000  0.00000000  0.66608046  1.0
  Pr  Pr1  1  0.00000000  0.50000000  0.33391954  1.0
  Mn  Mn2  1  0.00000000  0.00000000  0.00000000  1.0
  Mn  Mn3  1  0.50000000  0.50000000  0.00000000  1.0
  Si  Si4  1  0.50000000  0.00000000  0.18816821  1.0
  Si  Si5  1  0.00000000  0.50000000  0.81183179  1.0
