# generated using pymatgen
data_LiCN
_symmetry_space_group_name_H-M   'P 1'
_cell_length_a   8.64773255
_cell_length_b   3.70905863
_cell_length_c   6.78448858
_cell_angle_alpha   90.00000000
_cell_angle_beta   90.00000000
_cell_angle_gamma   90.00000000
_symmetry_Int_Tables_number   1
_chemical_formula_structural   LiCN
_chemical_formula_sum   'Li4 C4 N4'
_cell_volume   217.61211198
_cell_formula_units_Z   4
loop_
 _symmetry_equiv_pos_site_id
 _symmetry_equiv_pos_as_xyz
  1  'x, y, z'
loop_
 _atom_site_type_symbol
 _atom_site_label
 _atom_site_symmetry_multiplicity
 _atom_site_fract_x
 _atom_site_fract_y
 _atom_site_fract_z
 _atom_site_occupancy
  Li  Li0  1  0.12403988  0.75000000  0.53138617  1.0
  Li  Li1  1  0.62403988  0.75000000  0.96861383  1.0
  Li  Li2  1  0.87596012  0.25000000  0.46861383  1.0
  Li  Li3  1  0.37596012  0.25000000  0.03138617  1.0
  C  C4  1  0.30039767  0.75000000  0.74836252  1.0
  C  C5  1  0.80039767  0.75000000  0.75163748  1.0
  C  C6  1  0.69960233  0.25000000  0.25163748  1.0
  C  C7  1  0.19960233  0.25000000  0.24836252  1.0
  N  N8  1  0.39852953  0.75000000  0.86851393  1.0
  N  N9  1  0.89852953  0.75000000  0.63148607  1.0
  N  N10  1  0.60147047  0.25000000  0.13148607  1.0
  N  N11  1  0.10147047  0.25000000  0.36851393  1.0
