# generated using pymatgen
data_Ni5Mo12C
_symmetry_space_group_name_H-M   'P 1'
_cell_length_a   9.58142681
_cell_length_b   9.58142681
_cell_length_c   9.58142681
_cell_angle_alpha   60.00000000
_cell_angle_beta   60.00000000
_cell_angle_gamma   60.00000000
_symmetry_Int_Tables_number   1
_chemical_formula_structural   Ni5Mo12C
_chemical_formula_sum   'Ni10 Mo24 C2'
_cell_volume   621.97877121
_cell_formula_units_Z   2
loop_
 _symmetry_equiv_pos_site_id
 _symmetry_equiv_pos_as_xyz
  1  'x, y, z'
loop_
 _atom_site_type_symbol
 _atom_site_label
 _atom_site_symmetry_multiplicity
 _atom_site_fract_x
 _atom_site_fract_y
 _atom_site_fract_z
 _atom_site_occupancy
  Ni  Ni0  1  0.66601487  -0.33398513  1.00195539  1.0
  Ni  Ni1  1  0.66601487  0.00195539  0.66601487  1.0
  Ni  Ni2  1  0.58398513  -0.41601487  0.58398513  1.0
  Ni  Ni3  1  1.24804461  -0.41601487  0.58398513  1.0
  Ni  Ni4  1  1.00195539  -0.33398513  0.66601487  1.0
  Ni  Ni5  1  0.66601487  -0.33398513  0.66601487  1.0
  Ni  Ni6  1  0.58398513  0.24804461  0.58398513  1.0
  Ni  Ni7  1  0.58398513  -0.41601487  1.24804461  1.0
  Ni  Ni8  1  0.50000000  0.50000000  -0.50000000  1.0
  Ni  Ni9  1  0.75000000  -0.25000000  0.75000000  1.0
  Mo  Mo10  1  0.95923852  -0.60610105  0.68762400  1.0
  Mo  Mo11  1  -0.04076148  0.68762400  0.39389895  1.0
  Mo  Mo12  1  -0.14389895  0.29076148  0.29076148  1.0
  Mo  Mo13  1  0.56237600  0.29076148  0.29076148  1.0
  Mo  Mo14  1  -0.60610105  0.95923852  0.68762400  1.0
  Mo  Mo15  1  0.95923852  -0.04076148  0.68762400  1.0
  Mo  Mo16  1  0.95923852  -0.31237600  0.95923852  1.0
  Mo  Mo17  1  -0.60610105  0.68762400  0.95923852  1.0
  Mo  Mo18  1  0.29076148  -0.14389895  0.29076148  1.0
  Mo  Mo19  1  0.29076148  0.29076148  -0.14389895  1.0
  Mo  Mo20  1  0.56237600  0.29076148  -0.14389895  1.0
  Mo  Mo21  1  0.56237600  -0.14389895  0.29076148  1.0
  Mo  Mo22  1  0.68762400  -0.04076148  0.95923852  1.0
  Mo  Mo23  1  -0.60610105  0.95923852  0.95923852  1.0
  Mo  Mo24  1  0.29076148  0.56237600  -0.14389895  1.0
  Mo  Mo25  1  0.29076148  -0.14389895  0.56237600  1.0
  Mo  Mo26  1  -0.31237600  0.95923852  0.39389895  1.0
  Mo  Mo27  1  0.68762400  -0.60610105  0.95923852  1.0
  Mo  Mo28  1  0.95923852  -0.60610105  0.95923852  1.0
  Mo  Mo29  1  -0.04076148  0.95923852  0.39389895  1.0
  Mo  Mo30  1  0.29076148  0.56237600  0.29076148  1.0
  Mo  Mo31  1  -0.14389895  0.56237600  0.29076148  1.0
  Mo  Mo32  1  -0.14389895  0.29076148  0.56237600  1.0
  Mo  Mo33  1  0.29076148  0.29076148  0.56237600  1.0
  C  C34  1  0.00000000  1.00000000  -0.00000000  1.0
  C  C35  1  0.25000000  0.25000000  0.25000000  1.0
