# generated using pymatgen
data_Cs2H4Pt
_symmetry_space_group_name_H-M   'P 1'
_cell_length_a   6.23530779
_cell_length_b   6.23530779
_cell_length_c   8.91971499
_cell_angle_alpha   90.00000000
_cell_angle_beta   90.00000000
_cell_angle_gamma   90.00000000
_symmetry_Int_Tables_number   1
_chemical_formula_structural   Cs2H4Pt
_chemical_formula_sum   'Cs4 H8 Pt2'
_cell_volume   346.79016271
_cell_formula_units_Z   2
loop_
 _symmetry_equiv_pos_site_id
 _symmetry_equiv_pos_as_xyz
  1  'x, y, z'
loop_
 _atom_site_type_symbol
 _atom_site_label
 _atom_site_symmetry_multiplicity
 _atom_site_fract_x
 _atom_site_fract_y
 _atom_site_fract_z
 _atom_site_occupancy
  Cs  Cs0  1  0.50000000  0.00000000  0.25000000  1.0
  Cs  Cs1  1  0.50000000  0.00000000  0.75000000  1.0
  Cs  Cs2  1  0.00000000  0.50000000  0.75000000  1.0
  Cs  Cs3  1  0.00000000  0.50000000  0.25000000  1.0
  H  H4  1  0.31156805  0.68843195  0.50000000  1.0
  H  H5  1  0.81156805  0.81156805  0.00000000  1.0
  H  H6  1  0.68843195  0.31156805  0.50000000  1.0
  H  H7  1  0.18843195  0.18843195  0.00000000  1.0
  H  H8  1  0.50000000  0.50000000  0.31381476  1.0
  H  H9  1  0.50000000  0.50000000  0.68618524  1.0
  H  H10  1  0.00000000  0.00000000  0.81381476  1.0
  H  H11  1  0.00000000  0.00000000  0.18618524  1.0
  Pt  Pt12  1  0.50000000  0.50000000  0.50000000  1.0
  Pt  Pt13  1  0.00000000  0.00000000  0.00000000  1.0
