# generated using pymatgen
data_KNaZnP2O7
_symmetry_space_group_name_H-M   'P 1'
_cell_length_a   7.59148139
_cell_length_b   7.35325709
_cell_length_c   14.98592934
_cell_angle_alpha   90.00000000
_cell_angle_beta   121.16083565
_cell_angle_gamma   90.00000000
_symmetry_Int_Tables_number   1
_chemical_formula_structural   KNaZnP2O7
_chemical_formula_sum   'K4 Na4 Zn4 P8 O28'
_cell_volume   715.84782443
_cell_formula_units_Z   4
loop_
 _symmetry_equiv_pos_site_id
 _symmetry_equiv_pos_as_xyz
  1  'x, y, z'
loop_
 _atom_site_type_symbol
 _atom_site_label
 _atom_site_symmetry_multiplicity
 _atom_site_fract_x
 _atom_site_fract_y
 _atom_site_fract_z
 _atom_site_occupancy
  K  K0  1  0.99800922  0.70440547  0.89436630  1.0
  K  K1  1  0.99800922  0.79559453  0.39436630  1.0
  K  K2  1  0.00199078  0.20440547  0.60563370  1.0
  K  K3  1  0.00199078  0.29559453  0.10563370  1.0
  Na  Na4  1  0.51423739  0.47615248  0.88708293  1.0
  Na  Na5  1  0.51423739  0.02384752  0.38708293  1.0
  Na  Na6  1  0.48576261  0.97615248  0.61291707  1.0
  Na  Na7  1  0.48576261  0.52384752  0.11291707  1.0
  Zn  Zn8  1  0.45313498  0.47972071  0.62145918  1.0
  Zn  Zn9  1  0.45313498  0.02027929  0.12145918  1.0
  Zn  Zn10  1  0.54686502  0.97972071  0.87854082  1.0
  Zn  Zn11  1  0.54686502  0.52027929  0.37854082  1.0
  P  P12  1  0.77304201  0.21834383  0.80060406  1.0
  P  P13  1  0.77304201  0.28165617  0.30060406  1.0
  P  P14  1  0.22695799  0.71834383  0.69939594  1.0
  P  P15  1  0.22695799  0.78165617  0.19939594  1.0
  P  P16  1  0.22772644  0.21274747  0.90093738  1.0
  P  P17  1  0.22772644  0.28725253  0.40093738  1.0
  P  P18  1  0.77227356  0.71274747  0.59906262  1.0
  P  P19  1  0.77227356  0.78725253  0.09906262  1.0
  O  O20  1  0.79204162  0.36123260  0.87820089  1.0
  O  O21  1  0.79204162  0.13876740  0.37820089  1.0
  O  O22  1  0.20795838  0.86123260  0.62179911  1.0
  O  O23  1  0.20795838  0.63876740  0.12179911  1.0
  O  O24  1  0.72878670  0.02218366  0.82236435  1.0
  O  O25  1  0.72878670  0.47781634  0.32236435  1.0
  O  O26  1  0.27121330  0.52218366  0.67763565  1.0
  O  O27  1  0.27121330  0.97781634  0.17763565  1.0
  O  O28  1  0.61733448  0.26125382  0.68420833  1.0
  O  O29  1  0.61733448  0.23874618  0.18420833  1.0
  O  O30  1  0.38266552  0.76125382  0.81579167  1.0
  O  O31  1  0.38266552  0.73874618  0.31579167  1.0
  O  O32  1  0.24843118  0.05259843  0.97260238  1.0
  O  O33  1  0.24843118  0.44740157  0.47260238  1.0
  O  O34  1  0.75156882  0.55259843  0.52739762  1.0
  O  O35  1  0.75156882  0.94740157  0.02739762  1.0
  O  O36  1  0.26831884  0.40133805  0.94897627  1.0
  O  O37  1  0.26831884  0.09866195  0.44897627  1.0
  O  O38  1  0.73168116  0.90133805  0.55102373  1.0
  O  O39  1  0.73168116  0.59866195  0.05102373  1.0
  O  O40  1  0.99003594  0.20309706  0.80137333  1.0
  O  O41  1  0.99003594  0.29690294  0.30137333  1.0
  O  O42  1  0.00996406  0.70309706  0.69862667  1.0
  O  O43  1  0.00996406  0.79690294  0.19862667  1.0
  O  O44  1  0.35332497  0.18119183  0.84679033  1.0
  O  O45  1  0.35332497  0.31880817  0.34679033  1.0
  O  O46  1  0.64667503  0.68119183  0.65320967  1.0
  O  O47  1  0.64667503  0.81880817  0.15320967  1.0
