# generated using pymatgen
data_Mn3Se3O10
_symmetry_space_group_name_H-M   'P 1'
_cell_length_a   8.72238461
_cell_length_b   8.72238461
_cell_length_c   9.88515745
_cell_angle_alpha   62.87906151
_cell_angle_beta   117.12093849
_cell_angle_gamma   134.70211643
_symmetry_Int_Tables_number   1
_chemical_formula_structural   Mn3Se3O10
_chemical_formula_sum   'Mn6 Se6 O20'
_cell_volume   464.77855469
_cell_formula_units_Z   2
loop_
 _symmetry_equiv_pos_site_id
 _symmetry_equiv_pos_as_xyz
  1  'x, y, z'
loop_
 _atom_site_type_symbol
 _atom_site_label
 _atom_site_symmetry_multiplicity
 _atom_site_fract_x
 _atom_site_fract_y
 _atom_site_fract_z
 _atom_site_occupancy
  Mn  Mn0  1  0.88208015  0.11791985  0.91627685  1.0
  Mn  Mn1  1  1.11791985  -0.11791985  0.08372315  1.0
  Mn  Mn2  1  0.50000000  0.00000000  0.50000000  1.0
  Mn  Mn3  1  1.00000000  0.50000000  0.50000000  1.0
  Mn  Mn4  1  1.50000000  -0.00000000  0.00000000  1.0
  Mn  Mn5  1  1.00000000  -0.50000000  0.00000000  1.0
  Se  Se6  1  0.96520127  -0.96520127  0.66586240  1.0
  Se  Se7  1  0.03479873  -0.03479873  0.33413760  1.0
  Se  Se8  1  0.63897205  0.36102795  0.67237187  1.0
  Se  Se9  1  1.36102795  -0.36102795  0.32762813  1.0
  Se  Se10  1  0.38626506  -0.38626506  0.82784929  1.0
  Se  Se11  1  0.61373494  -0.61373494  0.17215071  1.0
  O  O12  1  1.68908283  -0.09480132  0.58958240  1.0
  O  O13  1  1.09480132  -0.68908283  0.58958240  1.0
  O  O14  1  0.90519868  0.68908283  0.41041760  1.0
  O  O15  1  0.31091717  0.09480132  0.41041760  1.0
  O  O16  1  0.56015858  -0.16645466  0.91793578  1.0
  O  O17  1  1.16645466  0.43984142  0.91793578  1.0
  O  O18  1  0.83354534  -0.43984142  0.08206422  1.0
  O  O19  1  1.43984142  0.16645466  0.08206422  1.0
  O  O20  1  0.44838325  0.14580315  0.78717686  1.0
  O  O21  1  0.85419685  0.55161675  0.78717686  1.0
  O  O22  1  1.14580315  -0.55161675  0.21282314  1.0
  O  O23  1  1.55161675  -0.14580315  0.21282314  1.0
  O  O24  1  0.98131487  -0.98131487  0.85775051  1.0
  O  O25  1  0.01868513  -0.01868513  0.14224949  1.0
  O  O26  1  0.74773571  0.25226429  0.66783194  1.0
  O  O27  1  1.25226429  -0.25226429  0.33216806  1.0
  O  O28  1  0.71820911  -0.71820911  0.35318520  1.0
  O  O29  1  0.28179089  -0.28179089  0.64681480  1.0
  O  O30  1  0.19413482  -0.19413482  0.98507759  1.0
  O  O31  1  0.80586518  -0.80586518  0.01492241  1.0
