# generated using pymatgen
data_Cu3Ni(ClO3)2
_symmetry_space_group_name_H-M   'P 1'
_cell_length_a   5.70926810
_cell_length_b   5.70926810
_cell_length_c   5.70926810
_cell_angle_alpha   67.57331962
_cell_angle_beta   67.57331962
_cell_angle_gamma   67.57331962
_symmetry_Int_Tables_number   1
_chemical_formula_structural   Cu3Ni(ClO3)2
_chemical_formula_sum   'Cu3 Ni1 Cl2 O6'
_cell_volume   152.82935531
_cell_formula_units_Z   1
loop_
 _symmetry_equiv_pos_site_id
 _symmetry_equiv_pos_as_xyz
  1  'x, y, z'
loop_
 _atom_site_type_symbol
 _atom_site_label
 _atom_site_symmetry_multiplicity
 _atom_site_fract_x
 _atom_site_fract_y
 _atom_site_fract_z
 _atom_site_occupancy
  Cu  Cu0  1  1.00000000  1.50000000  -0.00000000  1.0
  Cu  Cu1  1  1.00000000  0.00000000  -0.50000000  1.0
  Cu  Cu2  1  0.50000000  0.00000000  -0.00000000  1.0
  Ni  Ni3  1  0.00000000  -0.00000000  -0.00000000  1.0
  Cl  Cl4  1  0.69576540  0.69576540  -0.30423460  1.0
  Cl  Cl5  1  1.30423460  1.30423460  0.30423460  1.0
  O  O6  1  0.22575364  0.22575364  -0.16389916  1.0
  O  O7  1  0.22575364  0.83610084  -0.77424636  1.0
  O  O8  1  1.16389916  -0.22575364  -0.22575364  1.0
  O  O9  1  0.77424636  0.16389916  -0.22575364  1.0
  O  O10  1  0.77424636  -0.22575364  0.16389916  1.0
  O  O11  1  0.83610084  0.22575364  -0.77424636  1.0
