# generated using pymatgen
data_In5AgTe8
_symmetry_space_group_name_H-M   'P 1'
_cell_length_a   6.32699744
_cell_length_b   6.32699744
_cell_length_c   12.83922903
_cell_angle_alpha   90.00000000
_cell_angle_beta   90.00000000
_cell_angle_gamma   90.00000000
_symmetry_Int_Tables_number   1
_chemical_formula_structural   In5AgTe8
_chemical_formula_sum   'In5 Ag1 Te8'
_cell_volume   513.96585038
_cell_formula_units_Z   1
loop_
 _symmetry_equiv_pos_site_id
 _symmetry_equiv_pos_as_xyz
  1  'x, y, z'
loop_
 _atom_site_type_symbol
 _atom_site_label
 _atom_site_symmetry_multiplicity
 _atom_site_fract_x
 _atom_site_fract_y
 _atom_site_fract_z
 _atom_site_occupancy
  In  In0  1  0.50000000  0.00000000  0.25527203  1.0
  In  In1  1  0.50000000  0.00000000  0.74472797  1.0
  In  In2  1  0.00000000  0.50000000  0.25527203  1.0
  In  In3  1  0.00000000  0.50000000  0.74472797  1.0
  In  In4  1  0.00000000  0.00000000  0.00000000  1.0
  Ag  Ag5  1  0.50000000  0.50000000  0.50000000  1.0
  Te  Te6  1  0.22865917  0.77134083  0.61272446  1.0
  Te  Te7  1  0.77134083  0.77134083  0.38727554  1.0
  Te  Te8  1  0.22865917  0.22865917  0.38727554  1.0
  Te  Te9  1  0.77134083  0.22865917  0.61272446  1.0
  Te  Te10  1  0.27654041  0.72345959  0.11219886  1.0
  Te  Te11  1  0.72345959  0.72345959  0.88780114  1.0
  Te  Te12  1  0.27654041  0.27654041  0.88780114  1.0
  Te  Te13  1  0.72345959  0.27654041  0.11219886  1.0
