# generated using pymatgen
data_Re6Ni4Mo5
_symmetry_space_group_name_H-M   'P 1'
_cell_length_a   9.32991349
_cell_length_b   9.32991349
_cell_length_c   4.83626073
_cell_angle_alpha   90.00000000
_cell_angle_beta   90.00000000
_cell_angle_gamma   90.00000000
_symmetry_Int_Tables_number   1
_chemical_formula_structural   Re6Ni4Mo5
_chemical_formula_sum   'Re12 Ni8 Mo10'
_cell_volume   420.98336928
_cell_formula_units_Z   2
loop_
 _symmetry_equiv_pos_site_id
 _symmetry_equiv_pos_as_xyz
  1  'x, y, z'
loop_
 _atom_site_type_symbol
 _atom_site_label
 _atom_site_symmetry_multiplicity
 _atom_site_fract_x
 _atom_site_fract_y
 _atom_site_fract_z
 _atom_site_occupancy
  Re  Re0  1  0.10510023  0.89489977  0.50000000  1.0
  Re  Re1  1  0.89489977  0.10510023  0.50000000  1.0
  Re  Re2  1  0.39489977  0.39489977  0.00000000  1.0
  Re  Re3  1  0.60510023  0.60510023  0.00000000  1.0
  Re  Re4  1  0.36845059  0.96471004  0.50000000  1.0
  Re  Re5  1  0.63154941  0.03528996  0.50000000  1.0
  Re  Re6  1  0.13154941  0.46471004  0.00000000  1.0
  Re  Re7  1  0.86845059  0.53528996  0.00000000  1.0
  Re  Re8  1  0.96471004  0.36845059  0.50000000  1.0
  Re  Re9  1  0.03528996  0.63154941  0.50000000  1.0
  Re  Re10  1  0.46471004  0.13154941  0.00000000  1.0
  Re  Re11  1  0.53528996  0.86845059  0.00000000  1.0
  Ni  Ni12  1  0.43461188  0.23997171  0.50000000  1.0
  Ni  Ni13  1  0.56538812  0.76002829  0.50000000  1.0
  Ni  Ni14  1  0.06538812  0.73997171  0.00000000  1.0
  Ni  Ni15  1  0.93461188  0.26002829  0.00000000  1.0
  Ni  Ni16  1  0.23997171  0.43461188  0.50000000  1.0
  Ni  Ni17  1  0.76002829  0.56538812  0.50000000  1.0
  Ni  Ni18  1  0.73997171  0.06538812  0.00000000  1.0
  Ni  Ni19  1  0.26002829  0.93461188  0.00000000  1.0
  Mo  Mo20  1  0.50000000  0.50000000  0.50000000  1.0
  Mo  Mo21  1  0.00000000  0.00000000  0.00000000  1.0
  Mo  Mo22  1  0.31401757  0.68598243  0.25033021  1.0
  Mo  Mo23  1  0.68598243  0.31401757  0.25033021  1.0
  Mo  Mo24  1  0.18598243  0.18598243  0.75033021  1.0
  Mo  Mo25  1  0.81401757  0.81401757  0.75033021  1.0
  Mo  Mo26  1  0.68598243  0.31401757  0.74966979  1.0
  Mo  Mo27  1  0.31401757  0.68598243  0.74966979  1.0
  Mo  Mo28  1  0.81401757  0.81401757  0.24966979  1.0
  Mo  Mo29  1  0.18598243  0.18598243  0.24966979  1.0
