# generated using pymatgen
data_Mg(B6C)2
_symmetry_space_group_name_H-M   'P 1'
_cell_length_a   6.90216160
_cell_length_b   6.90216160
_cell_length_c   6.90216160
_cell_angle_alpha   132.02579087
_cell_angle_beta   89.42055337
_cell_angle_gamma   109.91636015
_symmetry_Int_Tables_number   1
_chemical_formula_structural   Mg(B6C)2
_chemical_formula_sum   'Mg2 B24 C4'
_cell_volume   218.18390531
_cell_formula_units_Z   2
loop_
 _symmetry_equiv_pos_site_id
 _symmetry_equiv_pos_as_xyz
  1  'x, y, z'
loop_
 _atom_site_type_symbol
 _atom_site_label
 _atom_site_symmetry_multiplicity
 _atom_site_fract_x
 _atom_site_fract_y
 _atom_site_fract_z
 _atom_site_occupancy
  Mg  Mg0  1  1.38956203  0.63956203  0.75000000  1.0
  Mg  Mg1  1  0.61043797  0.36043797  0.25000000  1.0
  B  B2  1  0.81276061  0.97968858  0.83307203  1.0
  B  B3  1  1.18723939  1.02031142  1.16692797  1.0
  B  B4  1  1.35338345  1.02031142  1.33307203  1.0
  B  B5  1  0.64661655  0.97968858  0.66692797  1.0
  B  B6  1  1.08822406  0.18179295  0.90643111  1.0
  B  B7  1  0.91177594  0.81820705  0.09356889  1.0
  B  B8  1  1.22463817  0.81820705  1.40643111  1.0
  B  B9  1  0.77536183  1.18179295  0.59356889  1.0
  B  B10  1  0.96706022  0.79145773  0.65433693  1.0
  B  B11  1  1.03293978  0.68727672  0.82439751  1.0
  B  B12  1  1.36287921  0.68727672  1.15433693  1.0
  B  B13  1  0.63712079  0.79145773  0.32439751  1.0
  B  B14  1  1.03293978  1.20854227  1.34566307  1.0
  B  B15  1  0.96706022  1.31272328  1.17560249  1.0
  B  B16  1  0.63712079  1.31272328  0.84566307  1.0
  B  B17  1  1.36287921  1.20854227  1.67560249  1.0
  B  B18  1  1.77558418  1.67814810  1.77455738  1.0
  B  B19  1  0.22441582  0.99897320  0.90256392  1.0
  B  B20  1  1.59640928  0.99897320  1.27455738  1.0
  B  B21  1  0.40359072  0.67814810  0.40256392  1.0
  B  B22  1  0.22441582  0.32185190  0.22544262  1.0
  B  B23  1  1.77558418  1.00102680  1.09743608  1.0
  B  B24  1  0.40359072  1.00102680  0.72544262  1.0
  B  B25  1  1.59640928  1.32185190  1.59743608  1.0
  C  C26  1  1.20882376  0.37113400  0.83768975  1.0
  C  C27  1  0.79117624  0.62886600  0.16231025  1.0
  C  C28  1  0.96655575  0.62886600  0.33768975  1.0
  C  C29  1  1.03344425  0.37113400  0.66231025  1.0
