# generated using pymatgen
data_SrGd2Al2O7
_symmetry_space_group_name_H-M   'P 1'
_cell_length_a   10.28141349
_cell_length_b   10.28141349
_cell_length_c   10.28141349
_cell_angle_alpha   159.00816103
_cell_angle_beta   159.00816103
_cell_angle_gamma   29.85788525
_symmetry_Int_Tables_number   1
_chemical_formula_structural   SrGd2Al2O7
_chemical_formula_sum   'Sr1 Gd2 Al2 O7'
_cell_volume   139.39219722
_cell_formula_units_Z   1
loop_
 _symmetry_equiv_pos_site_id
 _symmetry_equiv_pos_as_xyz
  1  'x, y, z'
loop_
 _atom_site_type_symbol
 _atom_site_label
 _atom_site_symmetry_multiplicity
 _atom_site_fract_x
 _atom_site_fract_y
 _atom_site_fract_z
 _atom_site_occupancy
  Sr  Sr0  1  0.50000000  0.50000000  1.00000000  1.0
  Gd  Gd1  1  0.68174229  0.68174229  1.00000000  1.0
  Gd  Gd2  1  0.31825771  0.31825771  0.00000000  1.0
  Al  Al3  1  0.90494687  0.90494687  1.00000000  1.0
  Al  Al4  1  0.09505313  0.09505313  -0.00000000  1.0
  O  O5  1  0.39564525  0.89564525  0.50000000  1.0
  O  O6  1  0.60435475  0.10435475  0.50000000  1.0
  O  O7  1  0.89564525  0.39564525  0.50000000  1.0
  O  O8  1  0.10435475  0.60435475  0.50000000  1.0
  O  O9  1  0.79618662  0.79618662  1.00000000  1.0
  O  O10  1  0.20381338  0.20381338  0.00000000  1.0
  O  O11  1  0.00000000  0.00000000  0.00000000  1.0
