# generated using pymatgen
data_NaAl(PS3)2
_symmetry_space_group_name_H-M   'P 1'
_cell_length_a   11.86479563
_cell_length_b   11.29180291
_cell_length_c   6.97854372
_cell_angle_alpha   77.00780885
_cell_angle_beta   68.02442683
_cell_angle_gamma   34.96776431
_symmetry_Int_Tables_number   1
_chemical_formula_structural   NaAl(PS3)2
_chemical_formula_sum   'Na2 Al2 P4 S12'
_cell_volume   490.97606954
_cell_formula_units_Z   2
loop_
 _symmetry_equiv_pos_site_id
 _symmetry_equiv_pos_as_xyz
  1  'x, y, z'
loop_
 _atom_site_type_symbol
 _atom_site_label
 _atom_site_symmetry_multiplicity
 _atom_site_fract_x
 _atom_site_fract_y
 _atom_site_fract_z
 _atom_site_occupancy
  Na  Na0  1  0.66411902  -0.33588098  0.33588098  1.0
  Na  Na1  1  0.91411902  -0.08588098  0.58588098  1.0
  Al  Al2  1  1.00150707  0.00150707  -0.00150707  1.0
  Al  Al3  1  0.25150707  0.25150707  0.24849293  1.0
  P  P4  1  0.67250310  0.00891448  0.20829795  1.0
  P  P5  1  0.04170205  0.13971553  0.57749690  1.0
  P  P6  1  0.00891448  0.67250310  0.11028447  1.0
  P  P7  1  0.13971553  0.04170205  0.24108552  1.0
  S  S8  1  0.56320756  0.10211967  0.96959373  1.0
  S  S9  1  0.28040627  -0.11507904  0.68679244  1.0
  S  S10  1  0.10211967  0.56320756  0.36507904  1.0
  S  S11  1  -0.11507904  0.28040627  1.14788033  1.0
  S  S12  1  0.69949753  0.15122873  0.27897141  1.0
  S  S13  1  -0.02897141  0.37969767  1.55050247  1.0
  S  S14  1  0.15122873  0.69949753  0.87030233  1.0
  S  S15  1  0.37969767  -0.02897141  0.09877127  1.0
  S  S16  1  0.48226667  0.04553617  0.45799753  1.0
  S  S17  1  0.79200247  -0.76419962  0.76773333  1.0
  S  S18  1  0.04553617  0.48226667  0.01419962  1.0
  S  S19  1  -0.76419962  0.79200247  1.20446383  1.0
