# generated using pymatgen
data_YbReB4
_symmetry_space_group_name_H-M   'P 1'
_cell_length_a   5.96337166
_cell_length_b   11.52958498
_cell_length_c   3.53884987
_cell_angle_alpha   90.00000000
_cell_angle_beta   90.00000000
_cell_angle_gamma   90.00000000
_symmetry_Int_Tables_number   1
_chemical_formula_structural   YbReB4
_chemical_formula_sum   'Yb4 Re4 B16'
_cell_volume   243.31433189
_cell_formula_units_Z   4
loop_
 _symmetry_equiv_pos_site_id
 _symmetry_equiv_pos_as_xyz
  1  'x, y, z'
loop_
 _atom_site_type_symbol
 _atom_site_label
 _atom_site_symmetry_multiplicity
 _atom_site_fract_x
 _atom_site_fract_y
 _atom_site_fract_z
 _atom_site_occupancy
  Yb  Yb0  1  0.12760293  0.65016312  0.50000000  1.0
  Yb  Yb1  1  0.62760293  0.84983688  0.50000000  1.0
  Yb  Yb2  1  0.87239707  0.34983688  0.50000000  1.0
  Yb  Yb3  1  0.37239707  0.15016312  0.50000000  1.0
  Re  Re4  1  0.13221161  0.91417087  0.50000000  1.0
  Re  Re5  1  0.63221161  0.58582913  0.50000000  1.0
  Re  Re6  1  0.86778839  0.08582913  0.50000000  1.0
  Re  Re7  1  0.36778839  0.41417087  0.50000000  1.0
  B  B8  1  0.47651658  0.69370315  0.00000000  1.0
  B  B9  1  0.97651658  0.80629685  0.00000000  1.0
  B  B10  1  0.52348342  0.30629685  0.00000000  1.0
  B  B11  1  0.02348342  0.19370315  0.00000000  1.0
  B  B12  1  0.38474628  0.54814576  0.00000000  1.0
  B  B13  1  0.88474628  0.95185424  0.00000000  1.0
  B  B14  1  0.61525372  0.45185424  0.00000000  1.0
  B  B15  1  0.11525372  0.04814576  0.00000000  1.0
  B  B16  1  0.36649044  0.96827022  0.00000000  1.0
  B  B17  1  0.86649044  0.53172978  0.00000000  1.0
  B  B18  1  0.63350956  0.03172978  0.00000000  1.0
  B  B19  1  0.13350956  0.46827022  0.00000000  1.0
  B  B20  1  0.28792209  0.81392973  0.00000000  1.0
  B  B21  1  0.78792209  0.68607027  0.00000000  1.0
  B  B22  1  0.71207791  0.18607027  0.00000000  1.0
  B  B23  1  0.21207791  0.31392973  0.00000000  1.0
