# generated using pymatgen
data_ScBiO12
_symmetry_space_group_name_H-M   'P 1'
_cell_length_a   7.41688796
_cell_length_b   7.41688796
_cell_length_c   7.41688796
_cell_angle_alpha   60.00000000
_cell_angle_beta   60.00000000
_cell_angle_gamma   60.00000000
_symmetry_Int_Tables_number   1
_chemical_formula_structural   ScBiO12
_chemical_formula_sum   'Sc2 Bi2 O24'
_cell_volume   288.50288321
_cell_formula_units_Z   2
loop_
 _symmetry_equiv_pos_site_id
 _symmetry_equiv_pos_as_xyz
  1  'x, y, z'
loop_
 _atom_site_type_symbol
 _atom_site_label
 _atom_site_symmetry_multiplicity
 _atom_site_fract_x
 _atom_site_fract_y
 _atom_site_fract_z
 _atom_site_occupancy
  Sc  Sc0  1  0.50000000  0.50000000  -0.50000000  1.0
  Sc  Sc1  1  0.75000000  -0.25000000  0.75000000  1.0
  Bi  Bi2  1  0.00000000  1.00000000  -0.00000000  1.0
  Bi  Bi3  1  0.25000000  0.25000000  0.25000000  1.0
  O  O4  1  0.77795765  -0.59109652  1.03518123  1.0
  O  O5  1  -0.22204235  1.03518123  0.40890348  1.0
  O  O6  1  -0.15890348  0.47204235  0.47204235  1.0
  O  O7  1  0.21481877  0.47204235  0.47204235  1.0
  O  O8  1  -0.59109652  0.77795765  1.03518123  1.0
  O  O9  1  0.77795765  -0.22204235  1.03518123  1.0
  O  O10  1  0.77795765  0.03518123  0.77795765  1.0
  O  O11  1  -0.59109652  1.03518123  0.77795765  1.0
  O  O12  1  0.47204235  -0.15890348  0.47204235  1.0
  O  O13  1  0.47204235  0.47204235  -0.15890348  1.0
  O  O14  1  0.21481877  0.47204235  -0.15890348  1.0
  O  O15  1  0.21481877  -0.15890348  0.47204235  1.0
  O  O16  1  1.03518123  -0.22204235  0.77795765  1.0
  O  O17  1  -0.59109652  0.77795765  0.77795765  1.0
  O  O18  1  0.47204235  0.21481877  -0.15890348  1.0
  O  O19  1  0.47204235  -0.15890348  0.21481877  1.0
  O  O20  1  0.03518123  0.77795765  0.40890348  1.0
  O  O21  1  1.03518123  -0.59109652  0.77795765  1.0
  O  O22  1  0.77795765  -0.59109652  0.77795765  1.0
  O  O23  1  -0.22204235  0.77795765  0.40890348  1.0
  O  O24  1  0.47204235  0.21481877  0.47204235  1.0
  O  O25  1  -0.15890348  0.21481877  0.47204235  1.0
  O  O26  1  -0.15890348  0.47204235  0.21481877  1.0
  O  O27  1  0.47204235  0.47204235  0.21481877  1.0
