# generated using pymatgen
data_Ba4Li2(CdAs2)3
_symmetry_space_group_name_H-M   'P 1'
_cell_length_a   10.55846767
_cell_length_b   10.55846767
_cell_length_c   17.29138745
_cell_angle_alpha   90.00000000
_cell_angle_beta   90.00000000
_cell_angle_gamma   154.54570090
_symmetry_Int_Tables_number   1
_chemical_formula_structural   Ba4Li2(CdAs2)3
_chemical_formula_sum   'Ba8 Li4 Cd6 As12'
_cell_volume   828.49325621
_cell_formula_units_Z   2
loop_
 _symmetry_equiv_pos_site_id
 _symmetry_equiv_pos_as_xyz
  1  'x, y, z'
loop_
 _atom_site_type_symbol
 _atom_site_label
 _atom_site_symmetry_multiplicity
 _atom_site_fract_x
 _atom_site_fract_y
 _atom_site_fract_z
 _atom_site_occupancy
  Ba  Ba0  1  0.01699937  0.98300063  0.87843655  1.0
  Ba  Ba1  1  0.01699937  0.98300063  0.62156345  1.0
  Ba  Ba2  1  -0.01699937  0.01699937  0.37843655  1.0
  Ba  Ba3  1  -0.01699937  0.01699937  0.12156345  1.0
  Ba  Ba4  1  0.17317266  0.82682734  0.42990889  1.0
  Ba  Ba5  1  0.17317266  0.82682734  0.07009111  1.0
  Ba  Ba6  1  -0.17317266  0.17317266  0.92990889  1.0
  Ba  Ba7  1  -0.17317266  0.17317266  0.57009111  1.0
  Li  Li8  1  0.15026109  0.84973891  0.75000000  1.0
  Li  Li9  1  -0.15026109  0.15026109  0.25000000  1.0
  Li  Li10  1  0.43629259  0.56370741  0.75000000  1.0
  Li  Li11  1  -0.43629259  0.43629259  0.25000000  1.0
  Cd  Cd12  1  -0.35106157  0.35106157  0.87652434  1.0
  Cd  Cd13  1  -0.35106157  0.35106157  0.62347566  1.0
  Cd  Cd14  1  0.35106157  0.64893843  0.37652434  1.0
  Cd  Cd15  1  0.35106157  0.64893843  0.12347566  1.0
  Cd  Cd16  1  0.29660063  0.70339937  0.75000000  1.0
  Cd  Cd17  1  -0.29660063  0.29660063  0.25000000  1.0
  As  As18  1  0.21963400  0.78036600  0.88263326  1.0
  As  As19  1  0.21963400  0.78036600  0.61736674  1.0
  As  As20  1  -0.21963400  0.21963400  0.38263326  1.0
  As  As21  1  -0.21963400  0.21963400  0.11736674  1.0
  As  As22  1  0.43945144  0.56054856  0.98631131  1.0
  As  As23  1  0.43945144  0.56054856  0.51368869  1.0
  As  As24  1  -0.43945144  0.43945144  0.48631131  1.0
  As  As25  1  -0.43945144  0.43945144  0.01368869  1.0
  As  As26  1  -0.43219308  0.43219308  0.75000000  1.0
  As  As27  1  0.43219308  0.56780692  0.25000000  1.0
  As  As28  1  -0.11906551  0.11906551  0.75000000  1.0
  As  As29  1  0.11906551  0.88093449  0.25000000  1.0
