# generated using pymatgen
data_LuAg4
_symmetry_space_group_name_H-M   'P 1'
_cell_length_a   5.22652155
_cell_length_b   5.22652155
_cell_length_c   5.22652155
_cell_angle_alpha   99.19500761
_cell_angle_beta   99.19500761
_cell_angle_gamma   132.87566296
_symmetry_Int_Tables_number   1
_chemical_formula_structural   LuAg4
_chemical_formula_sum   'Lu1 Ag4'
_cell_volume   95.90367147
_cell_formula_units_Z   1
loop_
 _symmetry_equiv_pos_site_id
 _symmetry_equiv_pos_as_xyz
  1  'x, y, z'
loop_
 _atom_site_type_symbol
 _atom_site_label
 _atom_site_symmetry_multiplicity
 _atom_site_fract_x
 _atom_site_fract_y
 _atom_site_fract_z
 _atom_site_occupancy
  Lu  Lu0  1  0.00000000  0.00000000  0.00000000  1.0
  Ag  Ag1  1  0.80352550  0.59752036  0.40104586  1.0
  Ag  Ag2  1  0.59752036  0.19647450  0.79399485  1.0
  Ag  Ag3  1  1.19647450  1.40247964  1.59895414  1.0
  Ag  Ag4  1  0.40247964  0.80352550  1.20600515  1.0
