# generated using pymatgen
data_Cs8In2O7
_symmetry_space_group_name_H-M   'P 1'
_cell_length_a   7.53773299
_cell_length_b   19.15811603
_cell_length_c   7.37507014
_cell_angle_alpha   90.00000000
_cell_angle_beta   118.73126596
_cell_angle_gamma   90.00000000
_symmetry_Int_Tables_number   1
_chemical_formula_structural   Cs8In2O7
_chemical_formula_sum   'Cs16 In4 O14'
_cell_volume   933.90314634
_cell_formula_units_Z   2
loop_
 _symmetry_equiv_pos_site_id
 _symmetry_equiv_pos_as_xyz
  1  'x, y, z'
loop_
 _atom_site_type_symbol
 _atom_site_label
 _atom_site_symmetry_multiplicity
 _atom_site_fract_x
 _atom_site_fract_y
 _atom_site_fract_z
 _atom_site_occupancy
  Cs  Cs0  1  0.21505754  0.69267608  0.94977025  1.0
  Cs  Cs1  1  0.21505754  0.80732392  0.44977025  1.0
  Cs  Cs2  1  0.78494246  0.19267608  0.55022975  1.0
  Cs  Cs3  1  0.78494246  0.30732392  0.05022975  1.0
  Cs  Cs4  1  0.23252206  0.49631140  0.96368983  1.0
  Cs  Cs5  1  0.23252206  0.00368860  0.46368983  1.0
  Cs  Cs6  1  0.76747794  0.99631140  0.53631017  1.0
  Cs  Cs7  1  0.76747794  0.50368860  0.03631017  1.0
  Cs  Cs8  1  0.23649055  0.29523805  0.95363138  1.0
  Cs  Cs9  1  0.23649055  0.20476195  0.45363138  1.0
  Cs  Cs10  1  0.76350945  0.79523805  0.54636862  1.0
  Cs  Cs11  1  0.76350945  0.70476195  0.04636862  1.0
  Cs  Cs12  1  0.64179425  0.41455742  0.49474624  1.0
  Cs  Cs13  1  0.64179425  0.08544258  0.99474624  1.0
  Cs  Cs14  1  0.35820575  0.91455742  0.00525376  1.0
  Cs  Cs15  1  0.35820575  0.58544258  0.50525376  1.0
  In  In16  1  0.14688599  0.09797764  -0.00003912  1.0
  In  In17  1  0.14688599  0.40202236  0.49996088  1.0
  In  In18  1  0.85311401  0.59797764  0.50003912  1.0
  In  In19  1  0.85311401  0.90202236  1.00003912  1.0
  O  O20  1  0.42974894  0.09874197  0.26690557  1.0
  O  O21  1  0.42974894  0.40125803  0.76690557  1.0
  O  O22  1  0.57025106  0.59874197  0.23309443  1.0
  O  O23  1  0.57025106  0.90125803  0.73309443  1.0
  O  O24  1  0.04250480  0.82215000  0.98902137  1.0
  O  O25  1  0.04250480  0.67785000  0.48902137  1.0
  O  O26  1  0.95749520  0.32215000  0.51097863  1.0
  O  O27  1  0.95749520  0.17785000  0.01097863  1.0
  O  O28  1  0.15575449  0.10635405  0.72050473  1.0
  O  O29  1  0.15575449  0.39364595  0.22050473  1.0
  O  O30  1  0.84424551  0.60635405  0.77949527  1.0
  O  O31  1  0.84424551  0.89364595  0.27949527  1.0
  O  O32  1  0.00000000  0.00000000  0.00000000  1.0
  O  O33  1  -0.00000000  0.50000000  0.50000000  1.0
