# generated using pymatgen
data_V5Si3
_symmetry_space_group_name_H-M   'P 1'
_cell_length_a   7.04364035
_cell_length_b   7.04364035
_cell_length_c   7.04364035
_cell_angle_alpha   96.45002207
_cell_angle_beta   96.45002207
_cell_angle_gamma   140.83468920
_symmetry_Int_Tables_number   1
_chemical_formula_structural   V5Si3
_chemical_formula_sum   'V10 Si6'
_cell_volume   207.93630290
_cell_formula_units_Z   2
loop_
 _symmetry_equiv_pos_site_id
 _symmetry_equiv_pos_as_xyz
  1  'x, y, z'
loop_
 _atom_site_type_symbol
 _atom_site_label
 _atom_site_symmetry_multiplicity
 _atom_site_fract_x
 _atom_site_fract_y
 _atom_site_fract_z
 _atom_site_occupancy
  V  V0  1  0.27525652  0.42519956  0.70045609  1.0
  V  V1  1  1.22474348  0.92519956  1.14994304  1.0
  V  V2  1  0.92519956  0.77525652  1.70045609  1.0
  V  V3  1  0.57480044  1.27525652  0.85005696  1.0
  V  V4  1  0.77525652  1.07480044  0.85005696  1.0
  V  V5  1  0.72474348  0.57480044  1.29954391  1.0
  V  V6  1  1.42519956  0.72474348  1.14994304  1.0
  V  V7  1  0.07480044  0.22474348  0.29954391  1.0
  V  V8  1  0.75000000  1.25000000  0.50000000  1.0
  V  V9  1  0.25000000  0.75000000  0.50000000  1.0
  Si  Si10  1  0.83427131  0.33427131  1.16854262  1.0
  Si  Si11  1  0.66572869  0.83427131  0.50000000  1.0
  Si  Si12  1  1.33427131  1.16572869  1.50000000  1.0
  Si  Si13  1  0.16572869  0.66572869  0.83145738  1.0
  Si  Si14  1  0.25000000  0.25000000  -0.00000000  1.0
  Si  Si15  1  0.75000000  0.75000000  -0.00000000  1.0
