# generated using pymatgen
data_In4Se3
_symmetry_space_group_name_H-M   'P 1'
_cell_length_a   12.55307148
_cell_length_b   15.64307536
_cell_length_c   4.17502848
_cell_angle_alpha   90.00000000
_cell_angle_beta   90.00000000
_cell_angle_gamma   90.00000000
_symmetry_Int_Tables_number   1
_chemical_formula_structural   In4Se3
_chemical_formula_sum   'In16 Se12'
_cell_volume   819.84467731
_cell_formula_units_Z   4
loop_
 _symmetry_equiv_pos_site_id
 _symmetry_equiv_pos_as_xyz
  1  'x, y, z'
loop_
 _atom_site_type_symbol
 _atom_site_label
 _atom_site_symmetry_multiplicity
 _atom_site_fract_x
 _atom_site_fract_y
 _atom_site_fract_z
 _atom_site_occupancy
  In  In0  1  0.47700858  0.68641341  0.50000000  1.0
  In  In1  1  0.97700858  0.81358659  0.00000000  1.0
  In  In2  1  0.52299142  0.31358659  0.50000000  1.0
  In  In3  1  0.02299142  0.18641341  0.00000000  1.0
  In  In4  1  0.39192339  0.92455983  0.50000000  1.0
  In  In5  1  0.89192339  0.57544017  0.00000000  1.0
  In  In6  1  0.60807661  0.07544017  0.50000000  1.0
  In  In7  1  0.10807661  0.42455983  0.00000000  1.0
  In  In8  1  0.35586332  0.53460828  0.50000000  1.0
  In  In9  1  0.85586332  0.96539172  0.00000000  1.0
  In  In10  1  0.64413668  0.46539172  0.50000000  1.0
  In  In11  1  0.14413668  0.03460828  0.00000000  1.0
  In  In12  1  0.33619641  0.21011507  0.50000000  1.0
  In  In13  1  0.83619641  0.28988493  0.00000000  1.0
  In  In14  1  0.66380359  0.78988493  0.50000000  1.0
  In  In15  1  0.16380359  0.71011507  0.00000000  1.0
  Se  Se16  1  0.15366468  0.92733428  0.50000000  1.0
  Se  Se17  1  0.65366468  0.57266572  0.00000000  1.0
  Se  Se18  1  0.84633532  0.07266572  0.50000000  1.0
  Se  Se19  1  0.34633532  0.42733428  0.00000000  1.0
  Se  Se20  1  0.15127925  0.59719611  0.50000000  1.0
  Se  Se21  1  0.65127925  0.90280389  0.00000000  1.0
  Se  Se22  1  0.84872075  0.40280389  0.50000000  1.0
  Se  Se23  1  0.34872075  0.09719611  0.00000000  1.0
  Se  Se24  1  0.86394433  0.72929047  0.50000000  1.0
  Se  Se25  1  0.36394433  0.77070953  0.00000000  1.0
  Se  Se26  1  0.13605567  0.27070953  0.50000000  1.0
  Se  Se27  1  0.63605567  0.22929047  0.00000000  1.0
