# generated using pymatgen
data_CsVH12(C2O7)2
_symmetry_space_group_name_H-M   'P 1'
_cell_length_a   6.01626262
_cell_length_b   6.01626262
_cell_length_c   10.84719576
_cell_angle_alpha   79.28546124
_cell_angle_beta   100.71453876
_cell_angle_gamma   103.17741390
_symmetry_Int_Tables_number   1
_chemical_formula_structural   CsVH12(C2O7)2
_chemical_formula_sum   'Cs1 V1 H12 C4 O14'
_cell_volume   371.36438337
_cell_formula_units_Z   1
loop_
 _symmetry_equiv_pos_site_id
 _symmetry_equiv_pos_as_xyz
  1  'x, y, z'
loop_
 _atom_site_type_symbol
 _atom_site_label
 _atom_site_symmetry_multiplicity
 _atom_site_fract_x
 _atom_site_fract_y
 _atom_site_fract_z
 _atom_site_occupancy
  Cs  Cs0  1  0.00000000  0.00000000  0.00000000  1.0
  V  V1  1  0.50000000  0.50000000  0.50000000  1.0
  H  H2  1  0.70246112  0.29753888  0.36786448  1.0
  H  H3  1  1.29753888  -0.29753888  0.63213552  1.0
  H  H4  1  0.78946488  0.21053512  0.52646430  1.0
  H  H5  1  1.21053512  -0.21053512  0.47353570  1.0
  H  H6  1  0.83711938  0.37640773  0.19300516  1.0
  H  H7  1  0.62359227  0.16288062  0.19300516  1.0
  H  H8  1  1.16288062  -0.37640773  0.80699484  1.0
  H  H9  1  1.37640773  -0.16288062  0.80699484  1.0
  H  H10  1  1.09713971  -0.88408328  0.64530722  1.0
  H  H11  1  1.88408328  -0.09713971  0.64530722  1.0
  H  H12  1  0.90286029  0.88408328  0.35469278  1.0
  H  H13  1  0.11591672  0.09713971  0.35469278  1.0
  C  C14  1  0.74474245  0.46264439  0.75214287  1.0
  C  C15  1  0.53735561  0.25525755  0.75214287  1.0
  C  C16  1  1.25525755  -0.46264439  0.24785713  1.0
  C  C17  1  1.46264439  -0.25525755  0.24785713  1.0
  O  O18  1  0.69290926  0.30709074  0.46058868  1.0
  O  O19  1  1.30709074  -0.30709074  0.53941132  1.0
  O  O20  1  0.74671765  0.60117325  0.64514023  1.0
  O  O21  1  0.39882675  0.25328235  0.64514023  1.0
  O  O22  1  1.25328235  -0.60117325  0.35485977  1.0
  O  O23  1  1.60117325  -0.25328235  0.35485977  1.0
  O  O24  1  0.89276343  0.48486938  0.84780404  1.0
  O  O25  1  0.51513062  0.10723657  0.84780404  1.0
  O  O26  1  1.10723657  -0.48486938  0.15219596  1.0
  O  O27  1  1.48486938  -0.10723657  0.15219596  1.0
  O  O28  1  0.68655481  0.31344519  0.22392245  1.0
  O  O29  1  1.31344519  -0.31344519  0.77607755  1.0
  O  O30  1  0.92852105  0.07147895  0.64536189  1.0
  O  O31  1  1.07147895  -0.07147895  0.35463811  1.0
