# generated using pymatgen
data_Zr9Re4P
_symmetry_space_group_name_H-M   'P 1'
_cell_length_a   8.54537111
_cell_length_b   8.54537111
_cell_length_c   8.81275179
_cell_angle_alpha   90.00000000
_cell_angle_beta   90.00000000
_cell_angle_gamma   120.00000000
_symmetry_Int_Tables_number   1
_chemical_formula_structural   Zr9Re4P
_chemical_formula_sum   'Zr18 Re8 P2'
_cell_volume   557.31922754
_cell_formula_units_Z   2
loop_
 _symmetry_equiv_pos_site_id
 _symmetry_equiv_pos_as_xyz
  1  'x, y, z'
loop_
 _atom_site_type_symbol
 _atom_site_label
 _atom_site_symmetry_multiplicity
 _atom_site_fract_x
 _atom_site_fract_y
 _atom_site_fract_z
 _atom_site_occupancy
  Zr  Zr0  1  0.19758567  0.80241433  0.45222307  1.0
  Zr  Zr1  1  0.19758567  0.80241433  0.04777693  1.0
  Zr  Zr2  1  0.19758567  0.39517134  0.45222307  1.0
  Zr  Zr3  1  0.19758567  0.39517134  0.04777693  1.0
  Zr  Zr4  1  0.80241433  0.19758567  0.95222307  1.0
  Zr  Zr5  1  0.80241433  0.19758567  0.54777693  1.0
  Zr  Zr6  1  0.80241433  0.60482866  0.95222307  1.0
  Zr  Zr7  1  0.80241433  0.60482866  0.54777693  1.0
  Zr  Zr8  1  0.60482866  0.80241433  0.45222307  1.0
  Zr  Zr9  1  0.60482866  0.80241433  0.04777693  1.0
  Zr  Zr10  1  0.39517134  0.19758567  0.95222307  1.0
  Zr  Zr11  1  0.39517134  0.19758567  0.54777693  1.0
  Zr  Zr12  1  0.53631455  0.46368545  0.25000000  1.0
  Zr  Zr13  1  0.53631455  0.07262910  0.25000000  1.0
  Zr  Zr14  1  0.46368545  0.53631455  0.75000000  1.0
  Zr  Zr15  1  0.46368545  0.92737090  0.75000000  1.0
  Zr  Zr16  1  0.92737090  0.46368545  0.25000000  1.0
  Zr  Zr17  1  0.07262910  0.53631455  0.75000000  1.0
  Re  Re18  1  0.89367563  0.10632437  0.25000000  1.0
  Re  Re19  1  0.89367563  0.78735126  0.25000000  1.0
  Re  Re20  1  0.10632437  0.89367563  0.75000000  1.0
  Re  Re21  1  0.10632437  0.21264874  0.75000000  1.0
  Re  Re22  1  0.21264874  0.10632437  0.25000000  1.0
  Re  Re23  1  0.78735126  0.89367563  0.75000000  1.0
  Re  Re24  1  -0.00000000  -0.00000000  0.50000000  1.0
  Re  Re25  1  -0.00000000  -0.00000000  0.00000000  1.0
  P  P26  1  0.33333333  0.66666667  0.25000000  1.0
  P  P27  1  0.66666667  0.33333333  0.75000000  1.0
