# generated using pymatgen
data_Zr2Ir
_symmetry_space_group_name_H-M   'P 1'
_cell_length_a   8.84511652
_cell_length_b   8.84511652
_cell_length_c   8.84511652
_cell_angle_alpha   60.00000000
_cell_angle_beta   60.00000000
_cell_angle_gamma   60.00000000
_symmetry_Int_Tables_number   1
_chemical_formula_structural   Zr2Ir
_chemical_formula_sum   'Zr16 Ir8'
_cell_volume   489.32305400
_cell_formula_units_Z   8
loop_
 _symmetry_equiv_pos_site_id
 _symmetry_equiv_pos_as_xyz
  1  'x, y, z'
loop_
 _atom_site_type_symbol
 _atom_site_label
 _atom_site_symmetry_multiplicity
 _atom_site_fract_x
 _atom_site_fract_y
 _atom_site_fract_z
 _atom_site_occupancy
  Zr  Zr0  1  1.12500000  0.62500000  0.62500000  1.0
  Zr  Zr1  1  0.62500000  1.12500000  -0.37500000  1.0
  Zr  Zr2  1  -0.37500000  0.62500000  1.12500000  1.0
  Zr  Zr3  1  -0.37500000  0.62500000  0.62500000  1.0
  Zr  Zr4  1  0.81278790  0.81278790  -0.81278790  1.0
  Zr  Zr5  1  0.18721210  1.18721210  -0.18721210  1.0
  Zr  Zr6  1  0.81278790  -0.81278790  0.81278790  1.0
  Zr  Zr7  1  0.18721210  -0.18721210  0.18721210  1.0
  Zr  Zr8  1  -0.81278790  0.81278790  0.81278790  1.0
  Zr  Zr9  1  -0.18721210  0.18721210  0.18721210  1.0
  Zr  Zr10  1  0.43721210  1.43721210  0.06278790  1.0
  Zr  Zr11  1  0.06278790  0.06278790  0.43721210  1.0
  Zr  Zr12  1  0.43721210  1.06278790  0.43721210  1.0
  Zr  Zr13  1  0.06278790  1.43721210  0.06278790  1.0
  Zr  Zr14  1  0.06278790  1.43721210  0.43721210  1.0
  Zr  Zr15  1  0.43721210  1.06278790  0.06278790  1.0
  Ir  Ir16  1  -0.20586981  0.40195660  0.40195660  1.0
  Ir  Ir17  1  0.40195660  -0.20586981  0.40195660  1.0
  Ir  Ir18  1  0.40195660  1.40195660  -0.20586981  1.0
  Ir  Ir19  1  0.40195660  1.40195660  0.40195660  1.0
  Ir  Ir20  1  0.45586981  0.84804340  -0.15195660  1.0
  Ir  Ir21  1  0.84804340  0.45586981  0.84804340  1.0
  Ir  Ir22  1  0.84804340  0.84804340  -0.54413019  1.0
  Ir  Ir23  1  0.84804340  0.84804340  0.84804340  1.0
