# generated using pymatgen
data_CdSbS2Br
_symmetry_space_group_name_H-M   'P 1'
_cell_length_a   6.91519460
_cell_length_b   6.91519460
_cell_length_c   9.86159889
_cell_angle_alpha   88.51785617
_cell_angle_beta   91.48214383
_cell_angle_gamma   146.58626396
_symmetry_Int_Tables_number   1
_chemical_formula_structural   CdSbS2Br
_chemical_formula_sum   'Cd2 Sb2 S4 Br2'
_cell_volume   259.59583199
_cell_formula_units_Z   2
loop_
 _symmetry_equiv_pos_site_id
 _symmetry_equiv_pos_as_xyz
  1  'x, y, z'
loop_
 _atom_site_type_symbol
 _atom_site_label
 _atom_site_symmetry_multiplicity
 _atom_site_fract_x
 _atom_site_fract_y
 _atom_site_fract_z
 _atom_site_occupancy
  Cd  Cd0  1  0.00000000  -0.00000000  0.50000000  1.0
  Cd  Cd1  1  0.00000000  0.00000000  0.00000000  1.0
  Sb  Sb2  1  0.71278759  0.28721241  0.31739626  1.0
  Sb  Sb3  1  0.28721241  -0.28721241  0.68260374  1.0
  S  S4  1  0.91505562  0.08494438  0.73633380  1.0
  S  S5  1  0.08494438  -0.08494438  0.26366620  1.0
  S  S6  1  0.64627710  0.35372290  0.55235022  1.0
  S  S7  1  0.35372290  -0.35372290  0.44764978  1.0
  Br  Br8  1  0.63309436  0.36690564  0.92625602  1.0
  Br  Br9  1  0.36690564  -0.36690564  0.07374398  1.0
