# generated using pymatgen
data_Cs2Mo3O10
_symmetry_space_group_name_H-M   'P 1'
_cell_length_a   8.64130837
_cell_length_b   8.64130837
_cell_length_c   9.57181179
_cell_angle_alpha   83.89574759
_cell_angle_beta   96.10425241
_cell_angle_gamma   118.98520062
_symmetry_Int_Tables_number   1
_chemical_formula_structural   Cs2Mo3O10
_chemical_formula_sum   'Cs4 Mo6 O20'
_cell_volume   620.44201436
_cell_formula_units_Z   2
loop_
 _symmetry_equiv_pos_site_id
 _symmetry_equiv_pos_as_xyz
  1  'x, y, z'
loop_
 _atom_site_type_symbol
 _atom_site_label
 _atom_site_symmetry_multiplicity
 _atom_site_fract_x
 _atom_site_fract_y
 _atom_site_fract_z
 _atom_site_occupancy
  Cs  Cs0  1  0.59253269  0.23727263  0.66315639  1.0
  Cs  Cs1  1  0.76272737  0.40746731  0.16315639  1.0
  Cs  Cs2  1  1.23727263  0.59253269  0.83684361  1.0
  Cs  Cs3  1  0.40746731  -0.23727263  0.33684361  1.0
  Mo  Mo4  1  0.82963544  0.03489692  0.97761189  1.0
  Mo  Mo5  1  0.96510308  0.17036456  0.47761189  1.0
  Mo  Mo6  1  1.03489692  0.82963544  0.52238811  1.0
  Mo  Mo7  1  0.17036456  -0.03489692  0.02238811  1.0
  Mo  Mo8  1  0.73317042  0.73317042  0.75000000  1.0
  Mo  Mo9  1  0.26682958  0.26682958  0.25000000  1.0
  O  O10  1  0.90604527  -0.04553644  0.59416647  1.0
  O  O11  1  1.04553644  0.09395473  0.09416647  1.0
  O  O12  1  0.95446356  0.90604527  0.90583353  1.0
  O  O13  1  0.09395473  0.04553644  0.40583353  1.0
  O  O14  1  0.56172187  -0.34084771  0.62113678  1.0
  O  O15  1  1.34084771  0.43827813  0.12113678  1.0
  O  O16  1  0.65915229  0.56172187  0.87886322  1.0
  O  O17  1  0.43827813  0.34084771  0.37886322  1.0
  O  O18  1  0.68094452  -0.09357487  0.81896935  1.0
  O  O19  1  1.09357487  0.31905548  0.31896935  1.0
  O  O20  1  0.90642513  0.68094452  0.68103065  1.0
  O  O21  1  0.31905548  0.09357487  0.18103065  1.0
  O  O22  1  0.75278914  0.13672395  0.42442536  1.0
  O  O23  1  0.86327605  0.24721086  0.92442536  1.0
  O  O24  1  1.13672395  0.75278914  0.07557464  1.0
  O  O25  1  0.24721086  -0.13672395  0.57557464  1.0
  O  O26  1  0.32228947  0.05212963  0.89442568  1.0
  O  O27  1  0.94787037  0.67771053  0.39442568  1.0
  O  O28  1  1.05212963  0.32228947  0.60557432  1.0
  O  O29  1  0.67771053  -0.05212963  0.10557432  1.0
