# generated using pymatgen
data_LiYSiO4
_symmetry_space_group_name_H-M   'P 1'
_cell_length_a   10.92833437
_cell_length_b   6.35200842
_cell_length_c   4.96208284
_cell_angle_alpha   90.00000000
_cell_angle_beta   90.00000000
_cell_angle_gamma   90.00000000
_symmetry_Int_Tables_number   1
_chemical_formula_structural   LiYSiO4
_chemical_formula_sum   'Li4 Y4 Si4 O16'
_cell_volume   344.45226876
_cell_formula_units_Z   4
loop_
 _symmetry_equiv_pos_site_id
 _symmetry_equiv_pos_as_xyz
  1  'x, y, z'
loop_
 _atom_site_type_symbol
 _atom_site_label
 _atom_site_symmetry_multiplicity
 _atom_site_fract_x
 _atom_site_fract_y
 _atom_site_fract_z
 _atom_site_occupancy
  Li  Li0  1  0.00000000  0.50000000  0.00000000  1.0
  Li  Li1  1  0.00000000  0.00000000  0.00000000  1.0
  Li  Li2  1  0.50000000  0.50000000  0.50000000  1.0
  Li  Li3  1  0.50000000  0.00000000  0.50000000  1.0
  Y  Y4  1  0.77820417  0.25000000  0.52720109  1.0
  Y  Y5  1  0.27820417  0.25000000  0.97279891  1.0
  Y  Y6  1  0.22179583  0.75000000  0.47279891  1.0
  Y  Y7  1  0.72179583  0.75000000  0.02720109  1.0
  Si  Si8  1  0.58677896  0.25000000  0.08984429  1.0
  Si  Si9  1  0.08677896  0.25000000  0.41015571  1.0
  Si  Si10  1  0.41322104  0.75000000  0.91015571  1.0
  Si  Si11  1  0.91322104  0.75000000  0.58984429  1.0
  O  O12  1  0.66064916  0.45273915  0.23211518  1.0
  O  O13  1  0.66064916  0.04726085  0.23211518  1.0
  O  O14  1  0.16064916  0.45273915  0.26788482  1.0
  O  O15  1  0.16064916  0.04726085  0.26788482  1.0
  O  O16  1  0.33935084  0.95273915  0.76788482  1.0
  O  O17  1  0.33935084  0.54726085  0.76788482  1.0
  O  O18  1  0.83935084  0.95273915  0.73211518  1.0
  O  O19  1  0.83935084  0.54726085  0.73211518  1.0
  O  O20  1  0.94897107  0.25000000  0.28105002  1.0
  O  O21  1  0.44897107  0.25000000  0.21894998  1.0
  O  O22  1  0.05102893  0.75000000  0.71894998  1.0
  O  O23  1  0.55102893  0.75000000  0.78105002  1.0
  O  O24  1  0.59677250  0.25000000  0.76336635  1.0
  O  O25  1  0.09677250  0.25000000  0.73663365  1.0
  O  O26  1  0.40322750  0.75000000  0.23663365  1.0
  O  O27  1  0.90322750  0.75000000  0.26336635  1.0
