# generated using pymatgen
data_N2
_symmetry_space_group_name_H-M   'P 1'
_cell_length_a   7.41086275
_cell_length_b   7.41086275
_cell_length_c   7.41086275
_cell_angle_alpha   87.27759658
_cell_angle_beta   87.27759658
_cell_angle_gamma   87.27759658
_symmetry_Int_Tables_number   1
_chemical_formula_structural   N2
_chemical_formula_sum   N16
_cell_volume   405.67526789
_cell_formula_units_Z   8
loop_
 _symmetry_equiv_pos_site_id
 _symmetry_equiv_pos_as_xyz
  1  'x, y, z'
loop_
 _atom_site_type_symbol
 _atom_site_label
 _atom_site_symmetry_multiplicity
 _atom_site_fract_x
 _atom_site_fract_y
 _atom_site_fract_z
 _atom_site_occupancy
  N  N0  1  1.21779098  1.54131916  0.05455180  1.0
  N  N1  1  0.71779098  -0.44544820  0.04131916  1.0
  N  N2  1  0.44544820  0.95868084  -0.71779098  1.0
  N  N3  1  0.94544820  0.78220902  -0.54131916  1.0
  N  N4  1  0.45868084  0.94544820  -0.21779098  1.0
  N  N5  1  0.95868084  0.28220902  -0.55455180  1.0
  N  N6  1  0.78220902  0.45868084  -0.05455180  1.0
  N  N7  1  0.28220902  0.44544820  -0.04131916  1.0
  N  N8  1  1.05455180  1.21779098  0.54131916  1.0
  N  N9  1  0.55455180  0.04131916  -0.28220902  1.0
  N  N10  1  1.04131916  -0.28220902  -0.44544820  1.0
  N  N11  1  1.54131916  1.05455180  0.21779098  1.0
  N  N12  1  0.45887282  0.45887282  -0.54112718  1.0
  N  N13  1  0.95887282  0.95887282  -0.04112718  1.0
  N  N14  1  1.04112718  1.04112718  0.04112718  1.0
  N  N15  1  0.54112718  0.54112718  -0.45887282  1.0
