# generated using pymatgen
data_Co3Se4
_symmetry_space_group_name_H-M   'P 1'
_cell_length_a   6.95224554
_cell_length_b   6.95224554
_cell_length_c   6.95224554
_cell_angle_alpha   60.00000000
_cell_angle_beta   60.00000000
_cell_angle_gamma   60.00000000
_symmetry_Int_Tables_number   1
_chemical_formula_structural   Co3Se4
_chemical_formula_sum   'Co6 Se8'
_cell_volume   237.60758995
_cell_formula_units_Z   2
loop_
 _symmetry_equiv_pos_site_id
 _symmetry_equiv_pos_as_xyz
  1  'x, y, z'
loop_
 _atom_site_type_symbol
 _atom_site_label
 _atom_site_symmetry_multiplicity
 _atom_site_fract_x
 _atom_site_fract_y
 _atom_site_fract_z
 _atom_site_occupancy
  Co  Co0  1  0.62500000  1.12500000  0.12500000  1.0
  Co  Co1  1  0.12500000  1.62500000  0.12500000  1.0
  Co  Co2  1  0.12500000  0.12500000  1.62500000  1.0
  Co  Co3  1  0.12500000  0.12500000  0.12500000  1.0
  Co  Co4  1  0.50000000  -0.50000000  0.50000000  1.0
  Co  Co5  1  0.75000000  0.75000000  0.75000000  1.0
  Se  Se6  1  -0.10239893  1.36746631  0.36746631  1.0
  Se  Se7  1  0.36746631  0.89760107  0.36746631  1.0
  Se  Se8  1  0.36746631  1.36746631  -0.10239893  1.0
  Se  Se9  1  0.36746631  1.36746631  0.36746631  1.0
  Se  Se10  1  -0.64760107  0.88253369  0.88253369  1.0
  Se  Se11  1  0.88253369  -0.64760107  0.88253369  1.0
  Se  Se12  1  0.88253369  0.88253369  -0.64760107  1.0
  Se  Se13  1  0.88253369  0.88253369  0.88253369  1.0
