# generated using pymatgen
data_SmS3(NO3)3
_symmetry_space_group_name_H-M   'P 1'
_cell_length_a   10.05695673
_cell_length_b   10.05695673
_cell_length_c   5.87032016
_cell_angle_alpha   90.00000000
_cell_angle_beta   90.00000000
_cell_angle_gamma   120.00000000
_symmetry_Int_Tables_number   1
_chemical_formula_structural   SmS3(NO3)3
_chemical_formula_sum   'Sm2 S6 N6 O18'
_cell_volume   514.19231628
_cell_formula_units_Z   2
loop_
 _symmetry_equiv_pos_site_id
 _symmetry_equiv_pos_as_xyz
  1  'x, y, z'
loop_
 _atom_site_type_symbol
 _atom_site_label
 _atom_site_symmetry_multiplicity
 _atom_site_fract_x
 _atom_site_fract_y
 _atom_site_fract_z
 _atom_site_occupancy
  Sm  Sm0  1  0.66666667  0.33333333  0.25000000  1.0
  Sm  Sm1  1  0.33333333  0.66666667  0.75000000  1.0
  S  S2  1  0.31757416  0.91300356  0.25000000  1.0
  S  S3  1  0.91300356  0.59542940  0.75000000  1.0
  S  S4  1  0.59542940  0.68242584  0.25000000  1.0
  S  S5  1  0.08699644  0.40457060  0.25000000  1.0
  S  S6  1  0.68242584  0.08699644  0.75000000  1.0
  S  S7  1  0.40457060  0.31757416  0.75000000  1.0
  N  N8  1  0.13481859  0.86891856  0.25000000  1.0
  N  N9  1  0.86891856  0.73409997  0.75000000  1.0
  N  N10  1  0.73409997  0.86518141  0.25000000  1.0
  N  N11  1  0.13108144  0.26590003  0.25000000  1.0
  N  N12  1  0.86518141  0.13108144  0.75000000  1.0
  N  N13  1  0.26590003  0.13481859  0.75000000  1.0
  O  O14  1  0.67552410  0.59432115  0.25000000  1.0
  O  O15  1  0.59432115  0.91879705  0.75000000  1.0
  O  O16  1  0.91879705  0.32447590  0.25000000  1.0
  O  O17  1  0.40567885  0.08120295  0.25000000  1.0
  O  O18  1  0.32447590  0.40567885  0.75000000  1.0
  O  O19  1  0.08120295  0.67552410  0.75000000  1.0
  O  O20  1  0.33809944  0.84410468  0.45884825  1.0
  O  O21  1  0.33809944  0.84410468  0.04115175  1.0
  O  O22  1  0.84410468  0.50600524  0.95884825  1.0
  O  O23  1  0.84410468  0.50600524  0.54115175  1.0
  O  O24  1  0.50600524  0.66190056  0.45884825  1.0
  O  O25  1  0.50600524  0.66190056  0.04115175  1.0
  O  O26  1  0.15589532  0.49399476  0.45884825  1.0
  O  O27  1  0.15589532  0.49399476  0.04115175  1.0
  O  O28  1  0.66190056  0.15589532  0.95884825  1.0
  O  O29  1  0.66190056  0.15589532  0.54115175  1.0
  O  O30  1  0.49399476  0.33809944  0.95884825  1.0
  O  O31  1  0.49399476  0.33809944  0.54115175  1.0
