# generated using pymatgen
data_Nb2PdS5
_symmetry_space_group_name_H-M   'P 1'
_cell_length_a   6.47749492
_cell_length_b   6.47749492
_cell_length_c   15.68929029
_cell_angle_alpha   73.46632502
_cell_angle_beta   106.53367498
_cell_angle_gamma   150.46366704
_symmetry_Int_Tables_number   1
_chemical_formula_structural   Nb2PdS5
_chemical_formula_sum   'Nb4 Pd2 S10'
_cell_volume   310.14878366
_cell_formula_units_Z   2
loop_
 _symmetry_equiv_pos_site_id
 _symmetry_equiv_pos_as_xyz
  1  'x, y, z'
loop_
 _atom_site_type_symbol
 _atom_site_label
 _atom_site_symmetry_multiplicity
 _atom_site_fract_x
 _atom_site_fract_y
 _atom_site_fract_z
 _atom_site_occupancy
  Nb  Nb0  1  0.57023157  0.42976843  0.68178019  1.0
  Nb  Nb1  1  1.42976843  -0.42976843  0.31821981  1.0
  Nb  Nb2  1  0.14565748  -0.14565748  0.87575747  1.0
  Nb  Nb3  1  0.85434252  -0.85434252  0.12424253  1.0
  Pd  Pd4  1  0.00000000  -0.00000000  0.50000000  1.0
  Pd  Pd5  1  0.00000000  0.00000000  0.00000000  1.0
  S  S6  1  0.92135271  -0.92135271  0.61866243  1.0
  S  S7  1  0.07864729  -0.07864729  0.38133757  1.0
  S  S8  1  0.83040909  -0.83040909  0.38468990  1.0
  S  S9  1  0.16959091  -0.16959091  0.61531010  1.0
  S  S10  1  0.74421984  0.25578016  0.80743801  1.0
  S  S11  1  1.25578016  -0.25578016  0.19256199  1.0
  S  S12  1  1.49504231  -0.49504231  0.81058538  1.0
  S  S13  1  0.50495769  0.49504231  0.18941462  1.0
  S  S14  1  0.35286941  -0.35286941  0.99603128  1.0
  S  S15  1  0.64713059  -0.64713059  0.00396872  1.0
