# generated using pymatgen
data_Tl5Se3
_symmetry_space_group_name_H-M   'P 1'
_cell_length_a   8.52227885
_cell_length_b   8.52227885
_cell_length_c   13.67285462
_cell_angle_alpha   90.00000000
_cell_angle_beta   90.00000000
_cell_angle_gamma   90.00000000
_symmetry_Int_Tables_number   1
_chemical_formula_structural   Tl5Se3
_chemical_formula_sum   'Tl20 Se12'
_cell_volume   993.04899549
_cell_formula_units_Z   4
loop_
 _symmetry_equiv_pos_site_id
 _symmetry_equiv_pos_as_xyz
  1  'x, y, z'
loop_
 _atom_site_type_symbol
 _atom_site_label
 _atom_site_symmetry_multiplicity
 _atom_site_fract_x
 _atom_site_fract_y
 _atom_site_fract_z
 _atom_site_occupancy
  Tl  Tl0  1  0.61314729  0.32826782  0.10153698  1.0
  Tl  Tl1  1  0.38685271  0.67173218  0.10153698  1.0
  Tl  Tl2  1  0.11314729  0.82826782  0.89846302  1.0
  Tl  Tl3  1  0.88685271  0.17173218  0.89846302  1.0
  Tl  Tl4  1  0.32826782  0.38685271  0.89846302  1.0
  Tl  Tl5  1  0.67173218  0.61314729  0.89846302  1.0
  Tl  Tl6  1  0.82826782  0.88685271  0.10153698  1.0
  Tl  Tl7  1  0.17173218  0.11314729  0.10153698  1.0
  Tl  Tl8  1  0.61398889  0.68075872  0.59978757  1.0
  Tl  Tl9  1  0.38601111  0.31924128  0.59978757  1.0
  Tl  Tl10  1  0.11398889  0.18075872  0.40021243  1.0
  Tl  Tl11  1  0.88601111  0.81924128  0.40021243  1.0
  Tl  Tl12  1  0.68075872  0.38601111  0.40021243  1.0
  Tl  Tl13  1  0.31924128  0.61398889  0.40021243  1.0
  Tl  Tl14  1  0.18075872  0.88601111  0.59978757  1.0
  Tl  Tl15  1  0.81924128  0.11398889  0.59978757  1.0
  Tl  Tl16  1  0.00000000  0.50000000  0.70774918  1.0
  Tl  Tl17  1  0.50000000  0.00000000  0.29225082  1.0
  Tl  Tl18  1  0.00000000  0.50000000  0.19458169  1.0
  Tl  Tl19  1  0.50000000  0.00000000  0.80541831  1.0
  Se  Se20  1  0.84896929  0.18903872  0.24355052  1.0
  Se  Se21  1  0.15103071  0.81096128  0.24355052  1.0
  Se  Se22  1  0.34896929  0.68903872  0.75644948  1.0
  Se  Se23  1  0.65103071  0.31096128  0.75644948  1.0
  Se  Se24  1  0.18903872  0.15103071  0.75644948  1.0
  Se  Se25  1  0.81096128  0.84896929  0.75644948  1.0
  Se  Se26  1  0.68903872  0.65103071  0.24355052  1.0
  Se  Se27  1  0.31096128  0.34896929  0.24355052  1.0
  Se  Se28  1  0.00000000  0.50000000  0.98808429  1.0
  Se  Se29  1  0.50000000  0.00000000  0.01191571  1.0
  Se  Se30  1  0.00000000  0.50000000  0.48728315  1.0
  Se  Se31  1  0.50000000  0.00000000  0.51271685  1.0
