# generated using pymatgen
data_Cs2In3
_symmetry_space_group_name_H-M   'P 1'
_cell_length_a   9.80825757
_cell_length_b   9.80825757
_cell_length_c   9.80825757
_cell_angle_alpha   137.66259723
_cell_angle_beta   137.66259723
_cell_angle_gamma   61.42014140
_symmetry_Int_Tables_number   1
_chemical_formula_structural   Cs2In3
_chemical_formula_sum   'Cs4 In6'
_cell_volume   423.16104045
_cell_formula_units_Z   2
loop_
 _symmetry_equiv_pos_site_id
 _symmetry_equiv_pos_as_xyz
  1  'x, y, z'
loop_
 _atom_site_type_symbol
 _atom_site_label
 _atom_site_symmetry_multiplicity
 _atom_site_fract_x
 _atom_site_fract_y
 _atom_site_fract_z
 _atom_site_occupancy
  Cs  Cs0  1  0.13851410  0.63851410  0.50000000  1.0
  Cs  Cs1  1  0.36148590  0.86148590  0.50000000  1.0
  Cs  Cs2  1  0.50000000  0.50000000  1.00000000  1.0
  Cs  Cs3  1  0.00000000  0.00000000  0.00000000  1.0
  In  In4  1  0.45502598  0.24991595  0.20511004  1.0
  In  In5  1  0.75008405  0.54497402  0.79488996  1.0
  In  In6  1  0.75008405  0.95519409  1.20511004  1.0
  In  In7  1  1.04480591  0.24991595  0.79488996  1.0
  In  In8  1  0.60903069  0.10903069  0.50000000  1.0
  In  In9  1  0.89096931  0.39096931  0.50000000  1.0
