# generated using pymatgen
data_VAs2H4O9
_symmetry_space_group_name_H-M   'P 1'
_cell_length_a   9.24436463
_cell_length_b   9.24436463
_cell_length_c   8.42705409
_cell_angle_alpha   90.00000000
_cell_angle_beta   90.00000000
_cell_angle_gamma   90.00000000
_symmetry_Int_Tables_number   1
_chemical_formula_structural   VAs2H4O9
_chemical_formula_sum   'V4 As8 H16 O36'
_cell_volume   720.16152698
_cell_formula_units_Z   4
loop_
 _symmetry_equiv_pos_site_id
 _symmetry_equiv_pos_as_xyz
  1  'x, y, z'
loop_
 _atom_site_type_symbol
 _atom_site_label
 _atom_site_symmetry_multiplicity
 _atom_site_fract_x
 _atom_site_fract_y
 _atom_site_fract_z
 _atom_site_occupancy
  V  V0  1  0.00000000  0.50000000  0.30682805  1.0
  V  V1  1  0.00000000  0.50000000  0.80682805  1.0
  V  V2  1  0.50000000  0.00000000  0.69317195  1.0
  V  V3  1  0.50000000  0.00000000  0.19317195  1.0
  As  As4  1  0.28519841  0.71480159  0.25000000  1.0
  As  As5  1  0.71480159  0.71480159  0.75000000  1.0
  As  As6  1  0.28519841  0.28519841  0.75000000  1.0
  As  As7  1  0.71480159  0.28519841  0.25000000  1.0
  As  As8  1  0.21480159  0.78519841  0.75000000  1.0
  As  As9  1  0.78519841  0.78519841  0.25000000  1.0
  As  As10  1  0.21480159  0.21480159  0.25000000  1.0
  As  As11  1  0.78519841  0.21480159  0.75000000  1.0
  H  H12  1  0.46032987  0.67179822  0.44346364  1.0
  H  H13  1  0.53967013  0.67179822  0.94346364  1.0
  H  H14  1  0.46032987  0.32820178  0.94346364  1.0
  H  H15  1  0.53967013  0.32820178  0.44346364  1.0
  H  H16  1  0.17179822  0.96032987  0.94346364  1.0
  H  H17  1  0.82820178  0.96032987  0.44346364  1.0
  H  H18  1  0.17179822  0.03967013  0.44346364  1.0
  H  H19  1  0.82820178  0.03967013  0.94346364  1.0
  H  H20  1  0.03967013  0.82820178  0.55653636  1.0
  H  H21  1  0.96032987  0.82820178  0.05653636  1.0
  H  H22  1  0.03967013  0.17179822  0.05653636  1.0
  H  H23  1  0.96032987  0.17179822  0.55653636  1.0
  H  H24  1  0.32820178  0.53967013  0.05653636  1.0
  H  H25  1  0.67179822  0.53967013  0.55653636  1.0
  H  H26  1  0.32820178  0.46032987  0.55653636  1.0
  H  H27  1  0.67179822  0.46032987  0.05653636  1.0
  O  O28  1  0.36249842  0.63304769  0.42220897  1.0
  O  O29  1  0.63750158  0.63304769  0.92220897  1.0
  O  O30  1  0.36249842  0.36695231  0.92220897  1.0
  O  O31  1  0.63750158  0.36695231  0.42220897  1.0
  O  O32  1  0.13304769  0.86249842  0.92220897  1.0
  O  O33  1  0.86695231  0.86249842  0.42220897  1.0
  O  O34  1  0.13304769  0.13750158  0.42220897  1.0
  O  O35  1  0.86695231  0.13750158  0.92220897  1.0
  O  O36  1  0.13750158  0.86695231  0.57779103  1.0
  O  O37  1  0.86249842  0.86695231  0.07779103  1.0
  O  O38  1  0.13750158  0.13304769  0.07779103  1.0
  O  O39  1  0.86249842  0.13304769  0.57779103  1.0
  O  O40  1  0.36695231  0.63750158  0.07779103  1.0
  O  O41  1  0.63304769  0.63750158  0.57779103  1.0
  O  O42  1  0.36695231  0.36249842  0.57779103  1.0
  O  O43  1  0.63304769  0.36249842  0.07779103  1.0
  O  O44  1  0.10272858  0.68227238  0.25613537  1.0
  O  O45  1  0.89727142  0.68227238  0.75613537  1.0
  O  O46  1  0.10272858  0.31772762  0.75613537  1.0
  O  O47  1  0.89727142  0.31772762  0.25613537  1.0
  O  O48  1  0.18227238  0.60272858  0.75613537  1.0
  O  O49  1  0.81772762  0.60272858  0.25613537  1.0
  O  O50  1  0.18227238  0.39727142  0.25613537  1.0
  O  O51  1  0.81772762  0.39727142  0.75613537  1.0
  O  O52  1  0.39727142  0.81772762  0.74386463  1.0
  O  O53  1  0.60272858  0.81772762  0.24386463  1.0
  O  O54  1  0.39727142  0.18227238  0.24386463  1.0
  O  O55  1  0.60272858  0.18227238  0.74386463  1.0
  O  O56  1  0.31772762  0.89727142  0.24386463  1.0
  O  O57  1  0.68227238  0.89727142  0.74386463  1.0
  O  O58  1  0.31772762  0.10272858  0.74386463  1.0
  O  O59  1  0.68227238  0.10272858  0.24386463  1.0
  O  O60  1  0.00000000  0.50000000  0.49704750  1.0
  O  O61  1  0.00000000  0.50000000  -0.00295250  1.0
  O  O62  1  0.50000000  0.00000000  0.50295250  1.0
  O  O63  1  0.50000000  0.00000000  1.00295250  1.0
