# generated using pymatgen
data_LiGaSe2
_symmetry_space_group_name_H-M   'P 1'
_cell_length_a   6.95515972
_cell_length_b   8.33167968
_cell_length_c   6.65179129
_cell_angle_alpha   90.00000000
_cell_angle_beta   90.00000000
_cell_angle_gamma   90.00000000
_symmetry_Int_Tables_number   1
_chemical_formula_structural   LiGaSe2
_chemical_formula_sum   'Li4 Ga4 Se8'
_cell_volume   385.45908577
_cell_formula_units_Z   4
loop_
 _symmetry_equiv_pos_site_id
 _symmetry_equiv_pos_as_xyz
  1  'x, y, z'
loop_
 _atom_site_type_symbol
 _atom_site_label
 _atom_site_symmetry_multiplicity
 _atom_site_fract_x
 _atom_site_fract_y
 _atom_site_fract_z
 _atom_site_occupancy
  Li  Li0  1  0.41145794  0.12168846  0.57850346  1.0
  Li  Li1  1  0.91145794  0.37831154  0.57850346  1.0
  Li  Li2  1  0.58854206  0.87831154  0.07850346  1.0
  Li  Li3  1  0.08854206  0.62168846  0.07850346  1.0
  Ga  Ga4  1  0.42680164  0.62594598  0.58114248  1.0
  Ga  Ga5  1  0.92680164  0.87405402  0.58114248  1.0
  Ga  Ga6  1  0.57319836  0.37405402  0.08114248  1.0
  Ga  Ga7  1  0.07319836  0.12594598  0.08114248  1.0
  Se  Se8  1  0.43263355  0.61996227  0.94962284  1.0
  Se  Se9  1  0.93263355  0.88003773  0.94962284  1.0
  Se  Se10  1  0.56736645  0.38003773  0.44962284  1.0
  Se  Se11  1  0.06736645  0.11996227  0.44962284  1.0
  Se  Se12  1  0.09301180  0.63319792  0.46403122  1.0
  Se  Se13  1  0.59301180  0.86680208  0.46403122  1.0
  Se  Se14  1  0.90698820  0.36680208  -0.03596878  1.0
  Se  Se15  1  0.40698820  0.13319792  -0.03596878  1.0
