# generated using pymatgen
data_K4Al2O
_symmetry_space_group_name_H-M   'P 1'
_cell_length_a   9.15964548
_cell_length_b   9.15964548
_cell_length_c   9.15964548
_cell_angle_alpha   60.00000000
_cell_angle_beta   60.00000000
_cell_angle_gamma   60.00000000
_symmetry_Int_Tables_number   1
_chemical_formula_structural   K4Al2O
_chemical_formula_sum   'K8 Al4 O2'
_cell_volume   543.40170574
_cell_formula_units_Z   2
loop_
 _symmetry_equiv_pos_site_id
 _symmetry_equiv_pos_as_xyz
  1  'x, y, z'
loop_
 _atom_site_type_symbol
 _atom_site_label
 _atom_site_symmetry_multiplicity
 _atom_site_fract_x
 _atom_site_fract_y
 _atom_site_fract_z
 _atom_site_occupancy
  K  K0  1  -0.12319762  0.87680238  0.36959286  1.0
  K  K1  1  0.87680238  -0.63040714  0.87680238  1.0
  K  K2  1  0.37319762  0.37319762  0.37319762  1.0
  K  K3  1  -0.11959286  0.37319762  0.37319762  1.0
  K  K4  1  -0.63040714  0.87680238  0.87680238  1.0
  K  K5  1  0.87680238  -0.12319762  0.87680238  1.0
  K  K6  1  0.37319762  -0.11959286  0.37319762  1.0
  K  K7  1  0.37319762  0.37319762  -0.11959286  1.0
  Al  Al8  1  0.62500000  -0.37500000  1.12500000  1.0
  Al  Al9  1  0.62500000  0.12500000  0.62500000  1.0
  Al  Al10  1  0.62500000  -0.37500000  0.62500000  1.0
  Al  Al11  1  1.12500000  -0.37500000  0.62500000  1.0
  O  O12  1  0.50000000  0.50000000  -0.50000000  1.0
  O  O13  1  0.75000000  -0.25000000  0.75000000  1.0
