# generated using pymatgen
data_Sr5P3O12F
_symmetry_space_group_name_H-M   'P 1'
_cell_length_a   9.84684007
_cell_length_b   9.84684007
_cell_length_c   7.35562371
_cell_angle_alpha   90.00000000
_cell_angle_beta   90.00000000
_cell_angle_gamma   120.00000000
_symmetry_Int_Tables_number   1
_chemical_formula_structural   Sr5P3O12F
_chemical_formula_sum   'Sr10 P6 O24 F2'
_cell_volume   617.65207477
_cell_formula_units_Z   2
loop_
 _symmetry_equiv_pos_site_id
 _symmetry_equiv_pos_as_xyz
  1  'x, y, z'
loop_
 _atom_site_type_symbol
 _atom_site_label
 _atom_site_symmetry_multiplicity
 _atom_site_fract_x
 _atom_site_fract_y
 _atom_site_fract_z
 _atom_site_occupancy
  Sr  Sr0  1  0.01075405  0.75800527  0.25000000  1.0
  Sr  Sr1  1  0.75800527  0.74725122  0.75000000  1.0
  Sr  Sr2  1  0.74725122  0.98924595  0.25000000  1.0
  Sr  Sr3  1  0.24199473  0.25274878  0.25000000  1.0
  Sr  Sr4  1  0.98924595  0.24199473  0.75000000  1.0
  Sr  Sr5  1  0.25274878  0.01075405  0.75000000  1.0
  Sr  Sr6  1  0.33333333  0.66666667  0.50051047  1.0
  Sr  Sr7  1  0.33333333  0.66666667  -0.00051047  1.0
  Sr  Sr8  1  0.66666667  0.33333333  0.00051047  1.0
  Sr  Sr9  1  0.66666667  0.33333333  0.49948953  1.0
  P  P10  1  0.63207777  0.60109754  0.25000000  1.0
  P  P11  1  0.60109754  0.96901976  0.75000000  1.0
  P  P12  1  0.96901976  0.36792223  0.25000000  1.0
  P  P13  1  0.39890246  0.03098024  0.25000000  1.0
  P  P14  1  0.36792223  0.39890246  0.75000000  1.0
  P  P15  1  0.03098024  0.63207777  0.75000000  1.0
  O  O16  1  0.73980079  0.65616688  0.42168438  1.0
  O  O17  1  0.73980079  0.65616688  0.07831562  1.0
  O  O18  1  0.65616688  0.91636609  0.92168438  1.0
  O  O19  1  0.65616688  0.91636609  0.57831562  1.0
  O  O20  1  0.91636609  0.26019921  0.42168438  1.0
  O  O21  1  0.91636609  0.26019921  0.07831562  1.0
  O  O22  1  0.34383312  0.08363391  0.42168438  1.0
  O  O23  1  0.34383312  0.08363391  0.07831562  1.0
  O  O24  1  0.26019921  0.34383312  0.92168438  1.0
  O  O25  1  0.26019921  0.34383312  0.57831562  1.0
  O  O26  1  0.08363391  0.73980079  0.92168438  1.0
  O  O27  1  0.08363391  0.73980079  0.57831562  1.0
  O  O28  1  0.32978053  0.84943859  0.25000000  1.0
  O  O29  1  0.84943859  0.51965806  0.75000000  1.0
  O  O30  1  0.51965806  0.67021947  0.25000000  1.0
  O  O31  1  0.15056141  0.48034194  0.25000000  1.0
  O  O32  1  0.67021947  0.15056141  0.75000000  1.0
  O  O33  1  0.48034194  0.32978053  0.75000000  1.0
  O  O34  1  0.53652954  0.41750187  0.25000000  1.0
  O  O35  1  0.41750187  0.88097232  0.75000000  1.0
  O  O36  1  0.88097232  0.46347046  0.25000000  1.0
  O  O37  1  0.58249813  0.11902768  0.25000000  1.0
  O  O38  1  0.46347046  0.58249813  0.75000000  1.0
  O  O39  1  0.11902768  0.53652954  0.75000000  1.0
  F  F40  1  0.00000000  0.00000000  0.25000000  1.0
  F  F41  1  0.00000000  0.00000000  0.75000000  1.0
