# generated using pymatgen
data_Ca2InPd2
_symmetry_space_group_name_H-M   'P 1'
_cell_length_a   5.87955551
_cell_length_b   5.87955551
_cell_length_c   8.22722383
_cell_angle_alpha   77.10170295
_cell_angle_beta   102.89829705
_cell_angle_gamma   121.29452453
_symmetry_Int_Tables_number   1
_chemical_formula_structural   Ca2InPd2
_chemical_formula_sum   'Ca4 In2 Pd4'
_cell_volume   234.92439159
_cell_formula_units_Z   2
loop_
 _symmetry_equiv_pos_site_id
 _symmetry_equiv_pos_as_xyz
  1  'x, y, z'
loop_
 _atom_site_type_symbol
 _atom_site_label
 _atom_site_symmetry_multiplicity
 _atom_site_fract_x
 _atom_site_fract_y
 _atom_site_fract_z
 _atom_site_occupancy
  Ca  Ca0  1  0.50217569  0.20402016  0.64938248  1.0
  Ca  Ca1  1  0.79597984  0.49782431  0.14938248  1.0
  Ca  Ca2  1  1.20402016  0.50217569  0.85061752  1.0
  Ca  Ca3  1  0.49782431  -0.20402016  0.35061752  1.0
  In  In4  1  0.84530514  0.84530514  0.75000000  1.0
  In  In5  1  0.15469486  0.15469486  0.25000000  1.0
  Pd  Pd6  1  0.72781403  -0.00381798  0.99711985  1.0
  Pd  Pd7  1  1.00381798  0.27218597  0.49711985  1.0
  Pd  Pd8  1  0.99618202  0.72781403  0.50288015  1.0
  Pd  Pd9  1  0.27218597  0.00381798  0.00288015  1.0
