# generated using pymatgen
data_Ca4In3Au10
_symmetry_space_group_name_H-M   'P 1'
_cell_length_a   8.63877356
_cell_length_b   8.63877356
_cell_length_c   10.30311058
_cell_angle_alpha   90.00000000
_cell_angle_beta   90.00000000
_cell_angle_gamma   72.27953431
_symmetry_Int_Tables_number   1
_chemical_formula_structural   Ca4In3Au10
_chemical_formula_sum   'Ca8 In6 Au20'
_cell_volume   732.42238587
_cell_formula_units_Z   2
loop_
 _symmetry_equiv_pos_site_id
 _symmetry_equiv_pos_as_xyz
  1  'x, y, z'
loop_
 _atom_site_type_symbol
 _atom_site_label
 _atom_site_symmetry_multiplicity
 _atom_site_fract_x
 _atom_site_fract_y
 _atom_site_fract_z
 _atom_site_occupancy
  Ca  Ca0  1  -0.19723149  1.19723149  0.29746991  1.0
  Ca  Ca1  1  0.30276851  0.69723149  0.20253009  1.0
  Ca  Ca2  1  0.19723149  0.80276851  0.70253009  1.0
  Ca  Ca3  1  -0.30276851  1.30276851  0.79746991  1.0
  Ca  Ca4  1  0.19649651  1.19649651  0.50000000  1.0
  Ca  Ca5  1  -0.30350349  0.69649651  0.00000000  1.0
  Ca  Ca6  1  -0.19649651  0.80350349  0.50000000  1.0
  Ca  Ca7  1  0.30350349  1.30350349  0.00000000  1.0
  In  In8  1  -0.48081882  0.98081882  0.25000000  1.0
  In  In9  1  0.01918118  1.48081882  0.25000000  1.0
  In  In10  1  -0.01918118  0.51918118  0.75000000  1.0
  In  In11  1  0.48081882  1.01918118  0.75000000  1.0
  In  In12  1  -0.50000000  0.50000000  0.50000000  1.0
  In  In13  1  -0.00000000  1.00000000  0.00000000  1.0
  Au  Au14  1  0.38393344  1.33273296  0.29244839  1.0
  Au  Au15  1  -0.11606656  0.83273296  0.20755161  1.0
  Au  Au16  1  0.33273296  1.38393344  0.70755161  1.0
  Au  Au17  1  -0.16726704  0.88393344  0.79244839  1.0
  Au  Au18  1  -0.33273296  0.61606656  0.29244839  1.0
  Au  Au19  1  0.16726704  1.11606656  0.20755161  1.0
  Au  Au20  1  -0.38393344  0.66726704  0.70755161  1.0
  Au  Au21  1  0.11606656  1.16726704  0.79244839  1.0
  Au  Au22  1  0.43486291  0.84913695  0.48460956  1.0
  Au  Au23  1  -0.06513709  1.34913695  0.01539044  1.0
  Au  Au24  1  -0.15086305  1.43486291  0.51539044  1.0
  Au  Au25  1  0.34913695  0.93486291  0.98460956  1.0
  Au  Au26  1  0.15086305  0.56513709  0.48460956  1.0
  Au  Au27  1  -0.34913695  1.06513709  0.01539044  1.0
  Au  Au28  1  -0.43486291  1.15086305  0.51539044  1.0
  Au  Au29  1  0.06513709  0.65086305  0.98460956  1.0
  Au  Au30  1  -0.40141099  1.40141099  0.09607899  1.0
  Au  Au31  1  0.09858901  0.90141099  0.40392101  1.0
  Au  Au32  1  0.40141099  0.59858901  0.90392101  1.0
  Au  Au33  1  -0.09858901  1.09858901  0.59607899  1.0
