# generated using pymatgen
data_VMoO5
_symmetry_space_group_name_H-M   'P 1'
_cell_length_a   6.65292479
_cell_length_b   6.65292479
_cell_length_c   4.76572603
_cell_angle_alpha   90.00000000
_cell_angle_beta   90.00000000
_cell_angle_gamma   90.00000000
_symmetry_Int_Tables_number   1
_chemical_formula_structural   VMoO5
_chemical_formula_sum   'V2 Mo2 O10'
_cell_volume   210.93774546
_cell_formula_units_Z   2
loop_
 _symmetry_equiv_pos_site_id
 _symmetry_equiv_pos_as_xyz
  1  'x, y, z'
loop_
 _atom_site_type_symbol
 _atom_site_label
 _atom_site_symmetry_multiplicity
 _atom_site_fract_x
 _atom_site_fract_y
 _atom_site_fract_z
 _atom_site_occupancy
  V  V0  1  0.00000000  0.50000000  0.17759184  1.0
  V  V1  1  0.50000000  0.00000000  0.82240816  1.0
  Mo  Mo2  1  0.50000000  0.50000000  0.50000000  1.0
  Mo  Mo3  1  0.00000000  0.00000000  0.50000000  1.0
  O  O4  1  0.00000000  0.50000000  0.84273250  1.0
  O  O5  1  0.50000000  0.00000000  0.15726750  1.0
  O  O6  1  0.78251231  0.99995191  0.71810293  1.0
  O  O7  1  0.21748769  0.00004809  0.71810293  1.0
  O  O8  1  0.49995191  0.71748769  0.71810293  1.0
  O  O9  1  0.50004809  0.28251231  0.71810293  1.0
  O  O10  1  0.71748769  0.50004809  0.28189707  1.0
  O  O11  1  0.28251231  0.49995191  0.28189707  1.0
  O  O12  1  0.00004809  0.78251231  0.28189707  1.0
  O  O13  1  0.99995191  0.21748769  0.28189707  1.0
