# generated using pymatgen
data_K3Bi(AsSe2)6
_symmetry_space_group_name_H-M   'P 1'
_cell_length_a   9.92932764
_cell_length_b   9.92932764
_cell_length_c   8.03567998
_cell_angle_alpha   90.00000000
_cell_angle_beta   90.00000000
_cell_angle_gamma   120.00000000
_symmetry_Int_Tables_number   1
_chemical_formula_structural   K3Bi(AsSe2)6
_chemical_formula_sum   'K3 Bi1 As6 Se12'
_cell_volume   686.10873328
_cell_formula_units_Z   1
loop_
 _symmetry_equiv_pos_site_id
 _symmetry_equiv_pos_as_xyz
  1  'x, y, z'
loop_
 _atom_site_type_symbol
 _atom_site_label
 _atom_site_symmetry_multiplicity
 _atom_site_fract_x
 _atom_site_fract_y
 _atom_site_fract_z
 _atom_site_occupancy
  K  K0  1  0.33333333  0.66666667  0.35856969  1.0
  K  K1  1  0.66666667  0.33333333  0.64143031  1.0
  K  K2  1  0.00000000  0.00000000  0.50000000  1.0
  Bi  Bi3  1  0.00000000  0.00000000  0.00000000  1.0
  As  As4  1  0.70671474  0.54821559  0.12249104  1.0
  As  As5  1  0.54821559  0.84150086  0.87750896  1.0
  As  As6  1  0.84150086  0.29328526  0.12249104  1.0
  As  As7  1  0.45178441  0.15849914  0.12249104  1.0
  As  As8  1  0.29328526  0.45178441  0.87750896  1.0
  As  As9  1  0.15849914  0.70671474  0.87750896  1.0
  Se  Se10  1  0.21304038  0.94161757  0.21281092  1.0
  Se  Se11  1  0.94161757  0.72857719  0.78718908  1.0
  Se  Se12  1  0.72857719  0.78695962  0.21281092  1.0
  Se  Se13  1  0.05838243  0.27142281  0.21281092  1.0
  Se  Se14  1  0.78695962  0.05838243  0.78718908  1.0
  Se  Se15  1  0.27142281  0.21304038  0.78718908  1.0
  Se  Se16  1  0.90645264  0.52967343  0.28838115  1.0
  Se  Se17  1  0.52967343  0.62322079  0.71161885  1.0
  Se  Se18  1  0.62322079  0.09354736  0.28838115  1.0
  Se  Se19  1  0.47032657  0.37677921  0.28838115  1.0
  Se  Se20  1  0.09354736  0.47032657  0.71161885  1.0
  Se  Se21  1  0.37677921  0.90645264  0.71161885  1.0
