# generated using pymatgen
data_Sc2BeB2Rh5
_symmetry_space_group_name_H-M   'P 1'
_cell_length_a   9.21392096
_cell_length_b   9.21392096
_cell_length_c   2.98716215
_cell_angle_alpha   90.00000000
_cell_angle_beta   90.00000000
_cell_angle_gamma   90.00000000
_symmetry_Int_Tables_number   1
_chemical_formula_structural   Sc2BeB2Rh5
_chemical_formula_sum   'Sc4 Be2 B4 Rh10'
_cell_volume   253.59913132
_cell_formula_units_Z   2
loop_
 _symmetry_equiv_pos_site_id
 _symmetry_equiv_pos_as_xyz
  1  'x, y, z'
loop_
 _atom_site_type_symbol
 _atom_site_label
 _atom_site_symmetry_multiplicity
 _atom_site_fract_x
 _atom_site_fract_y
 _atom_site_fract_z
 _atom_site_occupancy
  Sc  Sc0  1  0.32468098  0.17531902  0.00000000  1.0
  Sc  Sc1  1  0.82468098  0.32468098  0.00000000  1.0
  Sc  Sc2  1  0.67531902  0.82468098  0.00000000  1.0
  Sc  Sc3  1  0.17531902  0.67531902  0.00000000  1.0
  Be  Be4  1  0.50000000  0.50000000  0.00000000  1.0
  Be  Be5  1  0.00000000  0.00000000  0.00000000  1.0
  B  B6  1  0.87204381  0.62795619  0.00000000  1.0
  B  B7  1  0.37204381  0.87204381  0.00000000  1.0
  B  B8  1  0.12795619  0.37204381  0.00000000  1.0
  B  B9  1  0.62795619  0.12795619  0.00000000  1.0
  Rh  Rh10  1  0.50000000  0.00000000  0.50000000  1.0
  Rh  Rh11  1  0.00000000  0.50000000  0.50000000  1.0
  Rh  Rh12  1  0.43126323  0.70961738  0.50000000  1.0
  Rh  Rh13  1  0.93126323  0.79038262  0.50000000  1.0
  Rh  Rh14  1  0.29038262  0.43126323  0.50000000  1.0
  Rh  Rh15  1  0.79038262  0.06873677  0.50000000  1.0
  Rh  Rh16  1  0.56873677  0.29038262  0.50000000  1.0
  Rh  Rh17  1  0.06873677  0.20961738  0.50000000  1.0
  Rh  Rh18  1  0.70961738  0.56873677  0.50000000  1.0
  Rh  Rh19  1  0.20961738  0.93126323  0.50000000  1.0
