# generated using pymatgen
data_YbInAu
_symmetry_space_group_name_H-M   'P 1'
_cell_length_a   7.79157714
_cell_length_b   7.79157714
_cell_length_c   4.02069972
_cell_angle_alpha   90.00000000
_cell_angle_beta   90.00000000
_cell_angle_gamma   120.00000000
_symmetry_Int_Tables_number   1
_chemical_formula_structural   YbInAu
_chemical_formula_sum   'Yb3 In3 Au3'
_cell_volume   211.38930975
_cell_formula_units_Z   3
loop_
 _symmetry_equiv_pos_site_id
 _symmetry_equiv_pos_as_xyz
  1  'x, y, z'
loop_
 _atom_site_type_symbol
 _atom_site_label
 _atom_site_symmetry_multiplicity
 _atom_site_fract_x
 _atom_site_fract_y
 _atom_site_fract_z
 _atom_site_occupancy
  Yb  Yb0  1  0.40513359  0.40513359  -0.00000000  1.0
  Yb  Yb1  1  -0.00000000  0.59486641  0.00000000  1.0
  Yb  Yb2  1  0.59486641  -0.00000000  0.00000000  1.0
  In  In3  1  0.73860237  0.73860237  0.50000000  1.0
  In  In4  1  -0.00000000  0.26139763  0.50000000  1.0
  In  In5  1  0.26139763  0.00000000  0.50000000  1.0
  Au  Au6  1  0.33333333  0.66666667  0.50000000  1.0
  Au  Au7  1  0.66666667  0.33333333  0.50000000  1.0
  Au  Au8  1  0.00000000  -0.00000000  0.00000000  1.0
