# generated using pymatgen
data_YNiGe3
_symmetry_space_group_name_H-M   'P 1'
_cell_length_a   11.03987434
_cell_length_b   11.03987434
_cell_length_c   4.09710493
_cell_angle_alpha   90.00000000
_cell_angle_beta   90.00000000
_cell_angle_gamma   158.53763027
_symmetry_Int_Tables_number   1
_chemical_formula_structural   YNiGe3
_chemical_formula_sum   'Y2 Ni2 Ge6'
_cell_volume   182.70733200
_cell_formula_units_Z   2
loop_
 _symmetry_equiv_pos_site_id
 _symmetry_equiv_pos_as_xyz
  1  'x, y, z'
loop_
 _atom_site_type_symbol
 _atom_site_label
 _atom_site_symmetry_multiplicity
 _atom_site_fract_x
 _atom_site_fract_y
 _atom_site_fract_z
 _atom_site_occupancy
  Y  Y0  1  0.45060114  0.54939886  0.50000000  1.0
  Y  Y1  1  0.11204706  0.88795294  0.50000000  1.0
  Ni  Ni2  1  -0.32930250  0.32930250  0.00000000  1.0
  Ni  Ni3  1  -0.10803507  0.10803507  0.00000000  1.0
  Ge  Ge4  1  -0.16128433  0.16128433  0.50000000  1.0
  Ge  Ge5  1  -0.27603961  0.27603961  0.50000000  1.0
  Ge  Ge6  1  -0.00206282  0.00206282  0.00000000  1.0
  Ge  Ge7  1  -0.43527467  0.43527467  0.00000000  1.0
  Ge  Ge8  1  0.33886974  0.66113026  0.00000000  1.0
  Ge  Ge9  1  0.22378106  0.77621894  0.00000000  1.0
