# generated using pymatgen
data_KNaNbOF5
_symmetry_space_group_name_H-M   'P 1'
_cell_length_a   6.05247221
_cell_length_b   6.05247221
_cell_length_c   8.67073438
_cell_angle_alpha   90.00000000
_cell_angle_beta   90.00000000
_cell_angle_gamma   90.00000000
_symmetry_Int_Tables_number   1
_chemical_formula_structural   KNaNbOF5
_chemical_formula_sum   'K2 Na2 Nb2 O2 F10'
_cell_volume   317.62998228
_cell_formula_units_Z   2
loop_
 _symmetry_equiv_pos_site_id
 _symmetry_equiv_pos_as_xyz
  1  'x, y, z'
loop_
 _atom_site_type_symbol
 _atom_site_label
 _atom_site_symmetry_multiplicity
 _atom_site_fract_x
 _atom_site_fract_y
 _atom_site_fract_z
 _atom_site_occupancy
  K  K0  1  0.00000000  0.00000000  0.00000000  1.0
  K  K1  1  0.50000000  0.50000000  0.00000000  1.0
  Na  Na2  1  0.50000000  0.00000000  0.73077443  1.0
  Na  Na3  1  0.00000000  0.50000000  0.26922557  1.0
  Nb  Nb4  1  0.50000000  0.00000000  0.26332999  1.0
  Nb  Nb5  1  0.00000000  0.50000000  0.73667001  1.0
  O  O6  1  0.50000000  0.00000000  0.46362356  1.0
  O  O7  1  0.00000000  0.50000000  0.53637644  1.0
  F  F8  1  0.72817890  0.22817890  0.22666576  1.0
  F  F9  1  0.72817890  0.77182110  0.22666576  1.0
  F  F10  1  0.22817890  0.72817890  0.77333424  1.0
  F  F11  1  0.22817890  0.27182110  0.77333424  1.0
  F  F12  1  0.77182110  0.72817890  0.77333424  1.0
  F  F13  1  0.77182110  0.27182110  0.77333424  1.0
  F  F14  1  0.27182110  0.22817890  0.22666576  1.0
  F  F15  1  0.27182110  0.77182110  0.22666576  1.0
  F  F16  1  0.50000000  0.00000000  0.01110099  1.0
  F  F17  1  0.00000000  0.50000000  0.98889901  1.0
