# generated using pymatgen
data_BaIrO3
_symmetry_space_group_name_H-M   'P 1'
_cell_length_a   5.84610157
_cell_length_b   5.84610157
_cell_length_c   15.17089422
_cell_angle_alpha   78.23764156
_cell_angle_beta   101.76235844
_cell_angle_gamma   120.46974979
_symmetry_Int_Tables_number   1
_chemical_formula_structural   BaIrO3
_chemical_formula_sum   'Ba6 Ir6 O18'
_cell_volume   434.39143178
_cell_formula_units_Z   6
loop_
 _symmetry_equiv_pos_site_id
 _symmetry_equiv_pos_as_xyz
  1  'x, y, z'
loop_
 _atom_site_type_symbol
 _atom_site_label
 _atom_site_symmetry_multiplicity
 _atom_site_fract_x
 _atom_site_fract_y
 _atom_site_fract_z
 _atom_site_occupancy
  Ir  Ir0  1  0.00000000  0.00000000  0.00000000  1.0
  Ir  Ir1  1  0.52970411  0.47029589  0.67552485  1.0
  Ir  Ir2  1  1.47029589  -0.47029589  0.32447515  1.0
  Ir  Ir3  1  0.91481333  -0.91481333  0.82461009  1.0
  Ir  Ir4  1  0.08518667  -0.08518667  0.17538991  1.0
  Ir  Ir5  1  0.50000000  0.50000000  0.50000000  1.0
  O  O6  1  1.69094457  -0.18939370  0.73679088  1.0
  O  O7  1  1.18939370  -0.69094457  0.73679088  1.0
  O  O8  1  0.81060630  0.69094457  0.26320912  1.0
  O  O9  1  0.30905543  0.18939370  0.26320912  1.0
  O  O10  1  0.64516126  -0.12341597  0.91693210  1.0
  O  O11  1  1.12341597  0.35483874  0.91693210  1.0
  O  O12  1  0.87658403  -0.35483874  0.08306790  1.0
  O  O13  1  1.35483874  0.12341597  0.08306790  1.0
  O  O14  1  0.36551681  0.17264045  0.59603975  1.0
  O  O15  1  0.82735955  0.63448319  0.59603975  1.0
  O  O16  1  1.17264045  -0.63448319  0.40396025  1.0
  O  O17  1  1.63448319  -0.17264045  0.40396025  1.0
  O  O18  1  0.64463116  0.35536884  0.42650405  1.0
  O  O19  1  1.35536884  -0.35536884  0.57349595  1.0
  O  O20  1  0.70508270  0.29491730  0.77349073  1.0
  O  O21  1  1.29491730  -0.29491730  0.22650927  1.0
  O  O22  1  0.10766979  -0.10766979  0.90136623  1.0
  O  O23  1  0.89233021  -0.89233021  0.09863377  1.0
  Ba  Ba24  1  0.85009739  -0.85009739  0.57833501  1.0
  Ba  Ba25  1  0.14990261  -0.14990261  0.42166499  1.0
  Ba  Ba26  1  0.77792206  -0.77792206  0.24798450  1.0
  Ba  Ba27  1  0.22207794  -0.22207794  0.75201550  1.0
  Ba  Ba28  1  0.63114309  0.36885691  0.92721530  1.0
  Ba  Ba29  1  1.36885691  -0.36885691  0.07278470  1.0
