# generated using pymatgen
data_Tl2CrO4
_symmetry_space_group_name_H-M   'P 1'
_cell_length_a   8.06927954
_cell_length_b   5.89205094
_cell_length_c   11.43798062
_cell_angle_alpha   90.00000000
_cell_angle_beta   90.00000000
_cell_angle_gamma   90.00000000
_symmetry_Int_Tables_number   1
_chemical_formula_structural   Tl2CrO4
_chemical_formula_sum   'Tl8 Cr4 O16'
_cell_volume   543.81428317
_cell_formula_units_Z   4
loop_
 _symmetry_equiv_pos_site_id
 _symmetry_equiv_pos_as_xyz
  1  'x, y, z'
loop_
 _atom_site_type_symbol
 _atom_site_label
 _atom_site_symmetry_multiplicity
 _atom_site_fract_x
 _atom_site_fract_y
 _atom_site_fract_z
 _atom_site_occupancy
  Tl  Tl0  1  0.81519909  0.75000000  0.42603560  1.0
  Tl  Tl1  1  0.31519909  0.75000000  0.07396440  1.0
  Tl  Tl2  1  0.18480091  0.25000000  0.57396440  1.0
  Tl  Tl3  1  0.68480091  0.25000000  0.92603560  1.0
  Tl  Tl4  1  0.51212564  0.75000000  0.72085988  1.0
  Tl  Tl5  1  0.01212564  0.75000000  0.77914012  1.0
  Tl  Tl6  1  0.48787436  0.25000000  0.27914012  1.0
  Tl  Tl7  1  0.98787436  0.25000000  0.22085988  1.0
  Cr  Cr8  1  0.78634698  0.75000000  0.07378168  1.0
  Cr  Cr9  1  0.28634698  0.75000000  0.42621832  1.0
  Cr  Cr10  1  0.21365302  0.25000000  0.92621832  1.0
  Cr  Cr11  1  0.71365302  0.25000000  0.57378168  1.0
  O  O12  1  0.69759718  0.98273403  0.12668844  1.0
  O  O13  1  0.69759718  0.51726597  0.12668844  1.0
  O  O14  1  0.19759718  0.98273403  0.37331156  1.0
  O  O15  1  0.19759718  0.51726597  0.37331156  1.0
  O  O16  1  0.30240282  0.48273403  0.87331156  1.0
  O  O17  1  0.30240282  0.01726597  0.87331156  1.0
  O  O18  1  0.80240282  0.48273403  0.62668844  1.0
  O  O19  1  0.80240282  0.01726597  0.62668844  1.0
  O  O20  1  0.98526680  0.75000000  0.10788997  1.0
  O  O21  1  0.48526680  0.75000000  0.39211003  1.0
  O  O22  1  0.01473320  0.25000000  0.89211003  1.0
  O  O23  1  0.51473320  0.25000000  0.60788997  1.0
  O  O24  1  0.26176372  0.75000000  0.57120960  1.0
  O  O25  1  0.76176372  0.75000000  0.92879040  1.0
  O  O26  1  0.73823628  0.25000000  0.42879040  1.0
  O  O27  1  0.23823628  0.25000000  0.07120960  1.0
