# generated using pymatgen
data_La2ZnRhO6
_symmetry_space_group_name_H-M   'P 1'
_cell_length_a   5.59183113
_cell_length_b   5.77849255
_cell_length_c   9.70904330
_cell_angle_alpha   90.00000000
_cell_angle_beta   125.10571821
_cell_angle_gamma   90.00000000
_symmetry_Int_Tables_number   1
_chemical_formula_structural   La2ZnRhO6
_chemical_formula_sum   'La4 Zn2 Rh2 O12'
_cell_volume   256.65360145
_cell_formula_units_Z   2
loop_
 _symmetry_equiv_pos_site_id
 _symmetry_equiv_pos_as_xyz
  1  'x, y, z'
loop_
 _atom_site_type_symbol
 _atom_site_label
 _atom_site_symmetry_multiplicity
 _atom_site_fract_x
 _atom_site_fract_y
 _atom_site_fract_z
 _atom_site_occupancy
  La  La0  1  0.23758734  0.44400557  0.25064243  1.0
  La  La1  1  0.23758734  0.05599443  0.75064243  1.0
  La  La2  1  0.76241266  0.94400557  0.24935757  1.0
  La  La3  1  0.76241266  0.55599443  0.74935757  1.0
  Zn  Zn4  1  0.50000000  0.00000000  0.50000000  1.0
  Zn  Zn5  1  0.50000000  0.50000000  0.00000000  1.0
  Rh  Rh6  1  0.00000000  0.00000000  0.00000000  1.0
  Rh  Rh7  1  -0.00000000  0.50000000  0.50000000  1.0
  O  O8  1  0.33713261  0.02571630  0.24578994  1.0
  O  O9  1  0.33713261  0.47428370  0.74578994  1.0
  O  O10  1  0.66286739  0.52571630  0.25421006  1.0
  O  O11  1  0.66286739  0.97428370  0.75421006  1.0
  O  O12  1  0.85587037  0.71048257  0.04940822  1.0
  O  O13  1  0.85587037  0.78951743  0.54940822  1.0
  O  O14  1  0.14412963  0.21048257  0.45059178  1.0
  O  O15  1  0.14412963  0.28951743  0.95059178  1.0
  O  O16  1  0.75464654  0.19859254  0.04786142  1.0
  O  O17  1  0.75464654  0.30140746  0.54786142  1.0
  O  O18  1  0.24535346  0.69859254  0.45213858  1.0
  O  O19  1  0.24535346  0.80140746  0.95213858  1.0
