# generated using pymatgen
data_Gd2MoO6
_symmetry_space_group_name_H-M   'P 1'
_cell_length_a   10.10854262
_cell_length_b   10.10854262
_cell_length_c   5.47611663
_cell_angle_alpha   74.66481649
_cell_angle_beta   105.33518351
_cell_angle_gamma   111.94309513
_symmetry_Int_Tables_number   1
_chemical_formula_structural   Gd2MoO6
_chemical_formula_sum   'Gd8 Mo4 O24'
_cell_volume   491.89078905
_cell_formula_units_Z   4
loop_
 _symmetry_equiv_pos_site_id
 _symmetry_equiv_pos_as_xyz
  1  'x, y, z'
loop_
 _atom_site_type_symbol
 _atom_site_label
 _atom_site_symmetry_multiplicity
 _atom_site_fract_x
 _atom_site_fract_y
 _atom_site_fract_z
 _atom_site_occupancy
  Gd  Gd0  1  1.71552819  0.05086807  0.62096168  1.0
  Gd  Gd1  1  0.94913193  -0.71552819  0.12096168  1.0
  Gd  Gd2  1  1.05086807  0.71552819  0.87903832  1.0
  Gd  Gd3  1  0.28447181  -0.05086807  0.37903832  1.0
  Gd  Gd4  1  0.63625287  -0.36374713  0.75000000  1.0
  Gd  Gd5  1  1.36374713  0.36374713  0.25000000  1.0
  Gd  Gd6  1  1.10923239  0.10923239  0.75000000  1.0
  Gd  Gd7  1  0.89076761  -0.10923239  0.25000000  1.0
  Mo  Mo8  1  1.51509982  0.20551462  0.94145441  1.0
  Mo  Mo9  1  0.79448538  -0.51509982  0.44145441  1.0
  Mo  Mo10  1  1.20551462  0.51509982  0.55854559  1.0
  Mo  Mo11  1  0.48490018  -0.20551462  0.05854559  1.0
  O  O12  1  0.69346133  -0.16403815  0.91122589  1.0
  O  O13  1  1.16403815  0.30653867  0.41122589  1.0
  O  O14  1  0.83596185  -0.30653867  0.58877411  1.0
  O  O15  1  1.30653867  0.16403815  0.08877411  1.0
  O  O16  1  1.89001467  0.07409911  0.42061225  1.0
  O  O17  1  0.92590089  -0.89001467  0.92061225  1.0
  O  O18  1  1.07409911  0.89001467  0.07938775  1.0
  O  O19  1  0.10998533  -0.07409911  0.57938775  1.0
  O  O20  1  0.47596186  -0.07269460  0.75998323  1.0
  O  O21  1  1.07269460  0.52403814  0.25998323  1.0
  O  O22  1  0.92730540  -0.52403814  0.74001677  1.0
  O  O23  1  1.52403814  0.07269460  0.24001677  1.0
  O  O24  1  1.67967900  0.21129772  0.86369316  1.0
  O  O25  1  0.78870228  -0.67967900  0.36369316  1.0
  O  O26  1  1.21129772  0.67967900  0.63630684  1.0
  O  O27  1  0.32032100  -0.21129772  0.13630684  1.0
  O  O28  1  1.38619295  0.17194625  0.64426359  1.0
  O  O29  1  0.82805375  -0.38619295  0.14426359  1.0
  O  O30  1  1.17194625  0.38619295  0.85573641  1.0
  O  O31  1  0.61380705  -0.17194625  0.35573641  1.0
  O  O32  1  1.54785364  0.38597326  0.98395440  1.0
  O  O33  1  0.61402674  -0.54785364  0.48395440  1.0
  O  O34  1  1.38597326  0.54785364  0.51604560  1.0
  O  O35  1  0.45214636  -0.38597326  0.01604560  1.0
