# generated using pymatgen
data_Ge3Rh2S3
_symmetry_space_group_name_H-M   'P 1'
_cell_length_a   8.36856843
_cell_length_b   8.36856843
_cell_length_c   8.36856843
_cell_angle_alpha   89.87817187
_cell_angle_beta   89.87817187
_cell_angle_gamma   89.87817187
_symmetry_Int_Tables_number   1
_chemical_formula_structural   Ge3Rh2S3
_chemical_formula_sum   'Ge12 Rh8 S12'
_cell_volume   586.07146147
_cell_formula_units_Z   4
loop_
 _symmetry_equiv_pos_site_id
 _symmetry_equiv_pos_as_xyz
  1  'x, y, z'
loop_
 _atom_site_type_symbol
 _atom_site_label
 _atom_site_symmetry_multiplicity
 _atom_site_fract_x
 _atom_site_fract_y
 _atom_site_fract_z
 _atom_site_occupancy
  Ge  Ge0  1  0.59567461  0.74198907  -0.60066223  1.0
  Ge  Ge1  1  0.74198907  0.39933777  -0.40432539  1.0
  Ge  Ge2  1  0.39933777  0.59567461  -0.25801093  1.0
  Ge  Ge3  1  0.24294286  0.89853548  -0.61422312  1.0
  Ge  Ge4  1  0.89853548  0.38577688  -0.75705714  1.0
  Ge  Ge5  1  0.38577688  0.24294286  -0.10146452  1.0
  Ge  Ge6  1  1.09494452  1.23779360  0.58220138  1.0
  Ge  Ge7  1  1.23779360  1.58220138  0.09494452  1.0
  Ge  Ge8  1  1.58220138  1.09494452  0.23779360  1.0
  Ge  Ge9  1  1.08135716  -0.11488491  -0.26126190  1.0
  Ge  Ge10  1  0.88511509  -0.26126190  0.08135716  1.0
  Ge  Ge11  1  0.73873810  0.08135716  -0.11488491  1.0
  Rh  Rh12  1  0.49455867  0.99430883  -0.50717604  1.0
  Rh  Rh13  1  0.99430883  0.49282396  -0.50544133  1.0
  Rh  Rh14  1  0.49282396  0.49455867  -0.00569117  1.0
  Rh  Rh15  1  0.98790008  -0.01382406  0.48640661  1.0
  Rh  Rh16  1  0.98617594  0.48640661  -0.01209992  1.0
  Rh  Rh17  1  1.48640661  -0.01209992  -0.01382406  1.0
  Rh  Rh18  1  -0.00717049  -0.00717049  -0.00717049  1.0
  Rh  Rh19  1  0.48791333  0.48791333  -0.51208667  1.0
  S  S20  1  0.23718186  0.88652376  -0.90089206  1.0
  S  S21  1  0.88652376  0.09910794  -0.76281814  1.0
  S  S22  1  0.09910794  0.23718186  -0.11347624  1.0
  S  S23  1  0.38162488  0.24357514  -0.40580591  1.0
  S  S24  1  0.24357514  0.59419409  -0.61837512  1.0
  S  S25  1  0.59419409  0.38162488  -0.75642486  1.0
  S  S26  1  0.88247904  0.73952840  -0.61363860  1.0
  S  S27  1  0.73952840  0.38636140  -0.11752096  1.0
  S  S28  1  0.38636140  0.88247904  -0.26047160  1.0
  S  S29  1  0.74121025  0.09428170  -0.40169191  1.0
  S  S30  1  1.09428170  -0.40169191  -0.25878975  1.0
  S  S31  1  0.59830809  -0.25878975  0.09428170  1.0
