# generated using pymatgen
data_ZnH6(CO3)2
_symmetry_space_group_name_H-M   'P 1'
_cell_length_a   8.77404848
_cell_length_b   7.18002524
_cell_length_c   9.45058295
_cell_angle_alpha   90.00000000
_cell_angle_beta   97.64026554
_cell_angle_gamma   90.00000000
_symmetry_Int_Tables_number   1
_chemical_formula_structural   ZnH6(CO3)2
_chemical_formula_sum   'Zn4 H24 C8 O24'
_cell_volume   590.08132342
_cell_formula_units_Z   4
loop_
 _symmetry_equiv_pos_site_id
 _symmetry_equiv_pos_as_xyz
  1  'x, y, z'
loop_
 _atom_site_type_symbol
 _atom_site_label
 _atom_site_symmetry_multiplicity
 _atom_site_fract_x
 _atom_site_fract_y
 _atom_site_fract_z
 _atom_site_occupancy
  Zn  Zn0  1  0.00000000  0.00000000  0.00000000  1.0
  Zn  Zn1  1  0.00000000  0.50000000  0.50000000  1.0
  Zn  Zn2  1  0.50000000  0.50000000  -0.00000000  1.0
  Zn  Zn3  1  0.50000000  0.00000000  0.50000000  1.0
  H  H4  1  0.78704507  0.60641284  0.99093613  1.0
  H  H5  1  0.21295493  0.10641284  0.50906387  1.0
  H  H6  1  0.21295493  0.39358716  0.00906387  1.0
  H  H7  1  0.78704507  0.89358716  0.49093613  1.0
  H  H8  1  0.76213796  0.38942809  0.95663784  1.0
  H  H9  1  0.23786204  0.88942809  0.54336216  1.0
  H  H10  1  0.23786204  0.61057191  0.04336216  1.0
  H  H11  1  0.76213796  0.11057191  0.45663784  1.0
  H  H12  1  0.47112940  0.34632677  0.72795893  1.0
  H  H13  1  0.52887060  0.84632677  0.77204107  1.0
  H  H14  1  0.52887060  0.65367323  0.27204107  1.0
  H  H15  1  0.47112940  0.15367323  0.22795893  1.0
  H  H16  1  0.30472277  0.39816049  0.76835586  1.0
  H  H17  1  0.69527723  0.89816049  0.73164414  1.0
  H  H18  1  0.69527723  0.60183951  0.23164414  1.0
  H  H19  1  0.30472277  0.10183951  0.26835586  1.0
  H  H20  1  0.32134599  1.02894325  0.88049298  1.0
  H  H21  1  0.67865401  0.52894325  0.61950702  1.0
  H  H22  1  0.67865401  -0.02894325  0.11950702  1.0
  H  H23  1  0.32134599  0.47105675  0.38049298  1.0
  H  H24  1  0.93162122  0.28750946  0.22653745  1.0
  H  H25  1  0.06837878  0.78750946  0.27346255  1.0
  H  H26  1  0.06837878  0.71249054  0.77346255  1.0
  H  H27  1  0.93162122  0.21249054  0.72653745  1.0
  C  C28  1  0.32211029  0.88764526  0.92705801  1.0
  C  C29  1  0.67788971  0.38764526  0.57294199  1.0
  C  C30  1  0.67788971  0.11235474  0.07294199  1.0
  C  C31  1  0.32211029  0.61235474  0.42705801  1.0
  C  C32  1  0.03730452  0.21899637  0.27738755  1.0
  C  C33  1  0.96269548  0.71899637  0.22261245  1.0
  C  C34  1  0.96269548  0.78100363  0.72261245  1.0
  C  C35  1  0.03730452  0.28100363  0.77738755  1.0
  O  O36  1  0.21004854  0.84139364  0.99325124  1.0
  O  O37  1  0.78995146  0.34139364  0.50674876  1.0
  O  O38  1  0.78995146  0.15860636  0.00674876  1.0
  O  O39  1  0.21004854  0.65860636  0.49325124  1.0
  O  O40  1  0.43389939  0.78255076  0.90967434  1.0
  O  O41  1  0.56610061  0.28255076  0.59032566  1.0
  O  O42  1  0.56610061  0.21744924  0.09032566  1.0
  O  O43  1  0.43389939  0.71744924  0.40967434  1.0
  O  O44  1  0.10126994  0.09940960  0.20618356  1.0
  O  O45  1  0.89873006  0.59940960  0.29381644  1.0
  O  O46  1  0.89873006  0.90059040  0.79381644  1.0
  O  O47  1  0.10126994  0.40059040  0.70618356  1.0
  O  O48  1  0.08865583  0.26533836  0.40469970  1.0
  O  O49  1  0.91134417  0.76533836  0.09530030  1.0
  O  O50  1  0.91134417  0.73466164  0.59530030  1.0
  O  O51  1  0.08865583  0.23466164  0.90469970  1.0
  O  O52  1  0.71987654  0.51635134  0.93224926  1.0
  O  O53  1  0.28012346  0.01635134  0.56775074  1.0
  O  O54  1  0.28012346  0.48364866  0.06775074  1.0
  O  O55  1  0.71987654  0.98364866  0.43224926  1.0
  O  O56  1  0.41210441  0.37180120  0.80916293  1.0
  O  O57  1  0.58789559  0.87180120  0.69083707  1.0
  O  O58  1  0.58789559  0.62819880  0.19083707  1.0
  O  O59  1  0.41210441  0.12819880  0.30916293  1.0
