# generated using pymatgen
data_GdGePd2
_symmetry_space_group_name_H-M   'P 1'
_cell_length_a   7.50243428
_cell_length_b   7.11230224
_cell_length_c   5.64698584
_cell_angle_alpha   90.00000000
_cell_angle_beta   90.00000000
_cell_angle_gamma   90.00000000
_symmetry_Int_Tables_number   1
_chemical_formula_structural   GdGePd2
_chemical_formula_sum   'Gd4 Ge4 Pd8'
_cell_volume   301.32079353
_cell_formula_units_Z   4
loop_
 _symmetry_equiv_pos_site_id
 _symmetry_equiv_pos_as_xyz
  1  'x, y, z'
loop_
 _atom_site_type_symbol
 _atom_site_label
 _atom_site_symmetry_multiplicity
 _atom_site_fract_x
 _atom_site_fract_y
 _atom_site_fract_z
 _atom_site_occupancy
  Gd  Gd0  1  0.97013910  0.25000000  0.64547702  1.0
  Gd  Gd1  1  0.47013910  0.25000000  0.85452298  1.0
  Gd  Gd2  1  0.02986090  0.75000000  0.35452298  1.0
  Gd  Gd3  1  0.52986090  0.75000000  0.14547702  1.0
  Ge  Ge4  1  0.61999311  0.25000000  0.35390090  1.0
  Ge  Ge5  1  0.11999311  0.25000000  0.14609910  1.0
  Ge  Ge6  1  0.38000689  0.75000000  0.64609910  1.0
  Ge  Ge7  1  0.88000689  0.75000000  0.85390090  1.0
  Pd  Pd8  1  0.81949899  0.44827216  0.08843853  1.0
  Pd  Pd9  1  0.81949899  0.05172784  0.08843853  1.0
  Pd  Pd10  1  0.31949899  0.44827216  0.41156147  1.0
  Pd  Pd11  1  0.31949899  0.05172784  0.41156147  1.0
  Pd  Pd12  1  0.18050101  0.94827216  0.91156147  1.0
  Pd  Pd13  1  0.18050101  0.55172784  0.91156147  1.0
  Pd  Pd14  1  0.68050101  0.94827216  0.58843853  1.0
  Pd  Pd15  1  0.68050101  0.55172784  0.58843853  1.0
