# generated using pymatgen
data_ScI3
_symmetry_space_group_name_H-M   'P 1'
_cell_length_a   8.66740681
_cell_length_b   8.66740681
_cell_length_c   8.66740681
_cell_angle_alpha   50.12780359
_cell_angle_beta   50.12780359
_cell_angle_gamma   50.12780359
_symmetry_Int_Tables_number   1
_chemical_formula_structural   ScI3
_chemical_formula_sum   'Sc2 I6'
_cell_volume   353.05390638
_cell_formula_units_Z   2
loop_
 _symmetry_equiv_pos_site_id
 _symmetry_equiv_pos_as_xyz
  1  'x, y, z'
loop_
 _atom_site_type_symbol
 _atom_site_label
 _atom_site_symmetry_multiplicity
 _atom_site_fract_x
 _atom_site_fract_y
 _atom_site_fract_z
 _atom_site_occupancy
  Sc  Sc0  1  0.16666676  0.16666676  0.16666676  1.0
  Sc  Sc1  1  0.83333324  -0.16666676  -0.16666676  1.0
  I  I2  1  0.42589366  0.06834798  -0.21677592  1.0
  I  I3  1  0.21677592  0.57410634  -0.06834798  1.0
  I  I4  1  0.93165202  0.21677592  -0.42589366  1.0
  I  I5  1  0.57410634  0.93165202  -0.78322408  1.0
  I  I6  1  0.78322408  -0.57410634  0.06834798  1.0
  I  I7  1  1.06834798  -0.21677592  -0.57410634  1.0
