# generated using pymatgen
data_FeP3H5NO10
_symmetry_space_group_name_H-M   'P 1'
_cell_length_a   7.50564337
_cell_length_b   7.50564337
_cell_length_c   9.67801873
_cell_angle_alpha   70.75683516
_cell_angle_beta   109.24316484
_cell_angle_gamma   111.90892725
_symmetry_Int_Tables_number   1
_chemical_formula_structural   FeP3H5NO10
_chemical_formula_sum   'Fe2 P6 H10 N2 O20'
_cell_volume   464.09651392
_cell_formula_units_Z   2
loop_
 _symmetry_equiv_pos_site_id
 _symmetry_equiv_pos_as_xyz
  1  'x, y, z'
loop_
 _atom_site_type_symbol
 _atom_site_label
 _atom_site_symmetry_multiplicity
 _atom_site_fract_x
 _atom_site_fract_y
 _atom_site_fract_z
 _atom_site_occupancy
  Fe  Fe0  1  1.50000000  -0.00000000  0.00000000  1.0
  Fe  Fe1  1  1.00000000  0.50000000  0.50000000  1.0
  N  N2  1  0.93915863  0.93915863  0.75000000  1.0
  N  N3  1  0.06084137  0.06084137  0.25000000  1.0
  P  P4  1  1.36191255  -0.21847653  0.70670412  1.0
  P  P5  1  1.21847653  -0.36191255  0.20670412  1.0
  P  P6  1  0.78152347  0.36191255  0.79329588  1.0
  P  P7  1  0.63808745  0.21847653  0.29329588  1.0
  P  P8  1  0.37954114  0.37954114  0.75000000  1.0
  P  P9  1  0.62045886  0.62045886  0.25000000  1.0
  O  O10  1  1.53397284  -0.09641771  0.62736931  1.0
  O  O11  1  1.09641771  -0.53397284  0.12736931  1.0
  O  O12  1  0.90358229  0.53397284  0.87263069  1.0
  O  O13  1  0.46602716  0.09641771  0.37263069  1.0
  O  O14  1  0.57416488  0.41482493  0.69801193  1.0
  O  O15  1  0.58517507  0.42583512  0.19801193  1.0
  O  O16  1  1.41482493  -0.42583512  0.80198807  1.0
  O  O17  1  1.42583512  -0.41482493  0.30198807  1.0
  O  O18  1  0.35801707  0.20958293  0.88818057  1.0
  O  O19  1  0.79041707  0.64198293  0.38818057  1.0
  O  O20  1  1.20958293  -0.64198293  0.61181943  1.0
  O  O21  1  1.64198293  -0.20958293  0.11181943  1.0
  O  O22  1  0.73250339  0.16117041  0.90503944  1.0
  O  O23  1  0.83882959  0.26749661  0.40503944  1.0
  O  O24  1  1.16117041  -0.26749661  0.59496057  1.0
  O  O25  1  1.26749661  -0.16117041  0.09496057  1.0
  O  O26  1  1.35753093  -0.12992938  0.82541336  1.0
  O  O27  1  1.12992938  -0.35753093  0.32541336  1.0
  O  O28  1  0.87007062  0.35753093  0.67458664  1.0
  O  O29  1  0.64246907  0.12992938  0.17458664  1.0
  H  H30  1  1.79255435  -0.05750163  0.71353818  1.0
  H  H31  1  1.05750163  -0.79255435  0.21353818  1.0
  H  H32  1  0.94249837  0.79255435  0.78646182  1.0
  H  H33  1  0.20744565  0.05750163  0.28646182  1.0
  H  H34  1  1.01542799  0.00886149  0.83649210  1.0
  H  H35  1  0.99113851  -0.01542799  0.33649210  1.0
  H  H36  1  1.00886149  0.01542799  0.66350790  1.0
  H  H37  1  0.98457201  -0.00886149  0.16350790  1.0
  H  H38  1  1.50000000  -0.00000000  0.50000000  1.0
  H  H39  1  1.00000000  0.50000000  0.00000000  1.0
