# generated using pymatgen
data_VCo2BO5
_symmetry_space_group_name_H-M   'P 1'
_cell_length_a   9.42100269
_cell_length_b   12.34409781
_cell_length_c   2.93614127
_cell_angle_alpha   90.00000000
_cell_angle_beta   90.00000000
_cell_angle_gamma   90.00000000
_symmetry_Int_Tables_number   1
_chemical_formula_structural   VCo2BO5
_chemical_formula_sum   'V4 Co8 B4 O20'
_cell_volume   341.45496344
_cell_formula_units_Z   4
loop_
 _symmetry_equiv_pos_site_id
 _symmetry_equiv_pos_as_xyz
  1  'x, y, z'
loop_
 _atom_site_type_symbol
 _atom_site_label
 _atom_site_symmetry_multiplicity
 _atom_site_fract_x
 _atom_site_fract_y
 _atom_site_fract_z
 _atom_site_occupancy
  B  B0  1  0.23007334  0.64006729  -0.00000000  1.0
  B  B1  1  0.73007334  0.85993271  0.00000000  1.0
  B  B2  1  0.76992666  0.35993271  -0.00000000  1.0
  B  B3  1  0.26992666  0.14006729  0.00000000  1.0
  O  O4  1  0.39179429  0.85305552  0.50000000  1.0
  O  O5  1  0.89179429  0.64694448  0.50000000  1.0
  O  O6  1  0.60820571  0.14694448  0.50000000  1.0
  O  O7  1  0.10820571  0.35305552  0.50000000  1.0
  O  O8  1  0.16050127  0.73870390  -0.00000000  1.0
  O  O9  1  0.66050127  0.76129610  -0.00000000  1.0
  O  O10  1  0.83949873  0.26129610  -0.00000000  1.0
  O  O11  1  0.33949873  0.23870390  -0.00000000  1.0
  O  O12  1  0.15391032  0.54382948  0.00000000  1.0
  O  O13  1  0.65391032  0.95617052  0.00000000  1.0
  O  O14  1  0.84608968  0.45617052  0.00000000  1.0
  O  O15  1  0.34608968  0.04382948  0.00000000  1.0
  O  O16  1  0.37665977  0.63826587  -0.00000000  1.0
  O  O17  1  0.87665977  0.86173413  0.00000000  1.0
  O  O18  1  0.62334023  0.36173413  -0.00000000  1.0
  O  O19  1  0.12334023  0.13826587  0.00000000  1.0
  O  O20  1  0.12712230  0.92343428  0.50000000  1.0
  O  O21  1  0.62712230  0.57656572  0.50000000  1.0
  O  O22  1  0.87287770  0.07656572  0.50000000  1.0
  O  O23  1  0.37287770  0.42343428  0.50000000  1.0
  Co  Co24  1  0.50000000  0.50000000  0.00000000  1.0
  Co  Co25  1  0.00000000  0.00000000  0.00000000  1.0
  Co  Co26  1  0.50131388  0.71454634  0.50000000  1.0
  Co  Co27  1  1.00131388  0.78545366  0.50000000  1.0
  Co  Co28  1  0.49868612  0.28545366  0.50000000  1.0
  Co  Co29  1  -0.00131388  0.21454634  0.50000000  1.0
  Co  Co30  1  0.50000000  0.00000000  0.50000000  1.0
  Co  Co31  1  0.00000000  0.50000000  0.50000000  1.0
  V  V32  1  0.26493362  0.88711919  0.00000000  1.0
  V  V33  1  0.76493362  0.61288081  -0.00000000  1.0
  V  V34  1  0.73506638  0.11288081  0.00000000  1.0
  V  V35  1  0.23506638  0.38711919  -0.00000000  1.0
