# generated using pymatgen
data_Rb3Sb2Br9
_symmetry_space_group_name_H-M   'P 1'
_cell_length_a   14.06027407
_cell_length_b   7.93987449
_cell_length_c   23.98734294
_cell_angle_alpha   90.00000000
_cell_angle_beta   123.54473883
_cell_angle_gamma   90.00000000
_symmetry_Int_Tables_number   1
_chemical_formula_structural   Rb3Sb2Br9
_chemical_formula_sum   'Rb12 Sb8 Br36'
_cell_volume   2231.88345339
_cell_formula_units_Z   4
loop_
 _symmetry_equiv_pos_site_id
 _symmetry_equiv_pos_as_xyz
  1  'x, y, z'
loop_
 _atom_site_type_symbol
 _atom_site_label
 _atom_site_symmetry_multiplicity
 _atom_site_fract_x
 _atom_site_fract_y
 _atom_site_fract_z
 _atom_site_occupancy
  Rb  Rb0  1  0.69840516  0.97871107  0.72424682  1.0
  Rb  Rb1  1  0.69840516  0.52128893  0.22424682  1.0
  Rb  Rb2  1  0.30159484  0.02128893  0.27575318  1.0
  Rb  Rb3  1  0.30159484  0.47871107  0.77575318  1.0
  Rb  Rb4  1  0.37279807  -0.01702019  0.06072265  1.0
  Rb  Rb5  1  0.37279807  0.51702019  0.56072265  1.0
  Rb  Rb6  1  0.62720193  1.01702019  0.93927735  1.0
  Rb  Rb7  1  0.62720193  0.48297981  0.43927735  1.0
  Rb  Rb8  1  0.96118975  0.01725453  0.60521620  1.0
  Rb  Rb9  1  0.96118975  0.48274547  0.10521620  1.0
  Rb  Rb10  1  0.03881025  0.98274547  0.39478380  1.0
  Rb  Rb11  1  0.03881025  0.51725453  0.89478380  1.0
  Sb  Sb12  1  0.16892667  0.00004410  0.83838770  1.0
  Sb  Sb13  1  0.16892667  0.49995590  0.33838770  1.0
  Sb  Sb14  1  0.83107333  0.99995590  0.16161230  1.0
  Sb  Sb15  1  0.83107333  0.50004410  0.66161230  1.0
  Sb  Sb16  1  0.67138328  -0.00571571  0.33898943  1.0
  Sb  Sb17  1  0.67138328  0.50571571  0.83898943  1.0
  Sb  Sb18  1  0.32861672  1.00571571  0.66101057  1.0
  Sb  Sb19  1  0.32861672  0.49428429  0.16101057  1.0
  Br  Br20  1  0.76414453  0.40839630  0.75703711  1.0
  Br  Br21  1  0.76414453  0.09160370  0.25703711  1.0
  Br  Br22  1  0.23585547  0.59160370  0.24296289  1.0
  Br  Br23  1  0.23585547  0.90839630  0.74296289  1.0
  Br  Br24  1  0.41758509  0.42650744  0.08853345  1.0
  Br  Br25  1  0.41758509  0.07349256  0.58853345  1.0
  Br  Br26  1  0.58241491  0.57349256  0.91146655  1.0
  Br  Br27  1  0.58241491  0.92650744  0.41146655  1.0
  Br  Br28  1  0.90500289  0.57221625  0.58204854  1.0
  Br  Br29  1  0.90500289  0.92778375  0.08204854  1.0
  Br  Br30  1  0.09499711  0.42778375  0.41795146  1.0
  Br  Br31  1  0.09499711  0.07221625  0.91795146  1.0
  Br  Br32  1  0.16317461  0.68665447  0.06225776  1.0
  Br  Br33  1  0.16317461  0.81334553  0.56225776  1.0
  Br  Br34  1  0.83682539  0.31334553  0.93774224  1.0
  Br  Br35  1  0.83682539  0.18665447  0.43774224  1.0
  Br  Br36  1  0.64003622  0.68628000  0.58646384  1.0
  Br  Br37  1  0.64003622  0.81372000  0.08646384  1.0
  Br  Br38  1  0.35996378  0.31372000  0.41353616  1.0
  Br  Br39  1  0.35996378  0.18628000  0.91353616  1.0
  Br  Br40  1  0.80522000  0.71872367  0.38410138  1.0
  Br  Br41  1  0.80522000  0.78127633  0.88410138  1.0
  Br  Br42  1  0.19478000  0.28127633  0.61589862  1.0
  Br  Br43  1  0.19478000  0.21872367  0.11589862  1.0
  Br  Br44  1  0.27766612  0.72089092  0.91008160  1.0
  Br  Br45  1  0.27766612  0.77910908  0.41008160  1.0
  Br  Br46  1  0.72233388  0.27910908  0.08991840  1.0
  Br  Br47  1  0.72233388  0.22089092  0.58991840  1.0
  Br  Br48  1  0.48259152  0.69806622  0.71851273  1.0
  Br  Br49  1  0.48259152  0.80193378  0.21851273  1.0
  Br  Br50  1  0.51740848  0.30193378  0.28148727  1.0
  Br  Br51  1  0.51740848  0.19806622  0.78148727  1.0
  Br  Br52  1  0.94912769  0.69376912  0.24770190  1.0
  Br  Br53  1  0.94912769  0.80623088  0.74770190  1.0
  Br  Br54  1  0.05087231  0.30623088  0.75229810  1.0
  Br  Br55  1  0.05087231  0.19376912  0.25229810  1.0
