# generated using pymatgen
data_Ga7Te10
_symmetry_space_group_name_H-M   'P 1'
_cell_length_a   10.42596802
_cell_length_b   10.42596802
_cell_length_c   10.42596802
_cell_angle_alpha   89.69482539
_cell_angle_beta   89.69482539
_cell_angle_gamma   89.69482539
_symmetry_Int_Tables_number   1
_chemical_formula_structural   Ga7Te10
_chemical_formula_sum   'Ga14 Te20'
_cell_volume   1133.26310388
_cell_formula_units_Z   2
loop_
 _symmetry_equiv_pos_site_id
 _symmetry_equiv_pos_as_xyz
  1  'x, y, z'
loop_
 _atom_site_type_symbol
 _atom_site_label
 _atom_site_symmetry_multiplicity
 _atom_site_fract_x
 _atom_site_fract_y
 _atom_site_fract_z
 _atom_site_occupancy
  Ga  Ga0  1  0.84145700  0.24346502  -0.33318758  1.0
  Ga  Ga1  1  0.33318758  0.75653498  -0.84145700  1.0
  Ga  Ga2  1  0.75653498  0.15854300  -0.66681242  1.0
  Ga  Ga3  1  0.15854300  0.33318758  -0.24346502  1.0
  Ga  Ga4  1  0.66681242  -0.15854300  0.24346502  1.0
  Ga  Ga5  1  1.24346502  -0.33318758  -0.15854300  1.0
  Ga  Ga6  1  0.65326359  0.92109933  -0.38694522  1.0
  Ga  Ga7  1  1.38694522  1.07890067  0.34673641  1.0
  Ga  Ga8  1  1.07890067  1.34673641  0.38694522  1.0
  Ga  Ga9  1  1.34673641  1.38694522  0.07890067  1.0
  Ga  Ga10  1  0.61305478  0.65326359  -0.07890067  1.0
  Ga  Ga11  1  0.92109933  0.61305478  -0.34673641  1.0
  Ga  Ga12  1  0.93044827  0.93044827  -0.06955173  1.0
  Ga  Ga13  1  1.06955173  1.06955173  0.06955173  1.0
  Te  Te14  1  0.73621124  0.06050679  -0.18486007  1.0
  Te  Te15  1  0.18486007  0.93949321  -0.73621124  1.0
  Te  Te16  1  0.93949321  0.26378876  -0.81513993  1.0
  Te  Te17  1  0.26378876  0.18486007  -0.06050679  1.0
  Te  Te18  1  0.81513993  -0.26378876  0.06050679  1.0
  Te  Te19  1  1.06050679  -0.18486007  -0.26378876  1.0
  Te  Te20  1  1.57499493  1.07363559  0.16969389  1.0
  Te  Te21  1  0.83030611  0.92636441  -0.57499493  1.0
  Te  Te22  1  0.92636441  0.42500507  -0.16969389  1.0
  Te  Te23  1  0.42500507  0.83030611  -0.07363559  1.0
  Te  Te24  1  1.16969389  1.57499493  0.07363559  1.0
  Te  Te25  1  1.07363559  1.16969389  0.57499493  1.0
  Te  Te26  1  0.32431565  0.50000000  -0.32431565  1.0
  Te  Te27  1  0.50000000  0.67568435  -0.67568435  1.0
  Te  Te28  1  0.67568435  0.32431565  -0.50000000  1.0
  Te  Te29  1  0.41606145  1.00000000  -0.41606145  1.0
  Te  Te30  1  -0.00000000  0.58393855  -0.58393855  1.0
  Te  Te31  1  0.58393855  -0.58393855  0.00000000  1.0
  Te  Te32  1  0.66594650  0.66594650  -0.33405350  1.0
  Te  Te33  1  1.33405350  1.33405350  0.33405350  1.0
