# generated using pymatgen
data_FeF12
_symmetry_space_group_name_H-M   'P 1'
_cell_length_a   8.29876745
_cell_length_b   8.29876745
_cell_length_c   8.29876745
_cell_angle_alpha   60.00000000
_cell_angle_beta   60.00000000
_cell_angle_gamma   60.00000000
_symmetry_Int_Tables_number   1
_chemical_formula_structural   FeF12
_chemical_formula_sum   'Fe2 F24'
_cell_volume   404.13436926
_cell_formula_units_Z   2
loop_
 _symmetry_equiv_pos_site_id
 _symmetry_equiv_pos_as_xyz
  1  'x, y, z'
loop_
 _atom_site_type_symbol
 _atom_site_label
 _atom_site_symmetry_multiplicity
 _atom_site_fract_x
 _atom_site_fract_y
 _atom_site_fract_z
 _atom_site_occupancy
  Fe  Fe0  1  0.50000000  0.50000000  -0.50000000  1.0
  Fe  Fe1  1  0.75000000  -0.25000000  0.75000000  1.0
  F  F2  1  0.76400833  -0.54085532  1.01283865  1.0
  F  F3  1  -0.23599167  1.01283865  0.45914468  1.0
  F  F4  1  -0.20914468  0.48599167  0.48599167  1.0
  F  F5  1  0.23716135  0.48599167  0.48599167  1.0
  F  F6  1  -0.54085532  0.76400833  1.01283865  1.0
  F  F7  1  0.76400833  -0.23599167  1.01283865  1.0
  F  F8  1  0.76400833  0.01283865  0.76400833  1.0
  F  F9  1  -0.54085532  1.01283865  0.76400833  1.0
  F  F10  1  0.48599167  -0.20914468  0.48599167  1.0
  F  F11  1  0.48599167  0.48599167  -0.20914468  1.0
  F  F12  1  0.23716135  0.48599167  -0.20914468  1.0
  F  F13  1  0.23716135  -0.20914468  0.48599167  1.0
  F  F14  1  1.01283865  -0.23599167  0.76400833  1.0
  F  F15  1  -0.54085532  0.76400833  0.76400833  1.0
  F  F16  1  0.48599167  0.23716135  -0.20914468  1.0
  F  F17  1  0.48599167  -0.20914468  0.23716135  1.0
  F  F18  1  0.01283865  0.76400833  0.45914468  1.0
  F  F19  1  1.01283865  -0.54085532  0.76400833  1.0
  F  F20  1  0.76400833  -0.54085532  0.76400833  1.0
  F  F21  1  -0.23599167  0.76400833  0.45914468  1.0
  F  F22  1  0.48599167  0.23716135  0.48599167  1.0
  F  F23  1  -0.20914468  0.23716135  0.48599167  1.0
  F  F24  1  -0.20914468  0.48599167  0.23716135  1.0
  F  F25  1  0.48599167  0.48599167  0.23716135  1.0
