# generated using pymatgen
data_Gd2TiO5
_symmetry_space_group_name_H-M   'P 1'
_cell_length_a   10.57422137
_cell_length_b   3.76878017
_cell_length_c   11.42434407
_cell_angle_alpha   90.00000000
_cell_angle_beta   90.00000000
_cell_angle_gamma   90.00000000
_symmetry_Int_Tables_number   1
_chemical_formula_structural   Gd2TiO5
_chemical_formula_sum   'Gd8 Ti4 O20'
_cell_volume   455.28199764
_cell_formula_units_Z   4
loop_
 _symmetry_equiv_pos_site_id
 _symmetry_equiv_pos_as_xyz
  1  'x, y, z'
loop_
 _atom_site_type_symbol
 _atom_site_label
 _atom_site_symmetry_multiplicity
 _atom_site_fract_x
 _atom_site_fract_y
 _atom_site_fract_z
 _atom_site_occupancy
  Gd  Gd0  1  0.88852482  0.75000000  0.72218198  1.0
  Gd  Gd1  1  0.38852482  0.75000000  0.77781802  1.0
  Gd  Gd2  1  0.11147518  0.25000000  0.27781802  1.0
  Gd  Gd3  1  0.61147518  0.25000000  0.22218198  1.0
  Gd  Gd4  1  0.86317869  0.75000000  0.05565966  1.0
  Gd  Gd5  1  0.36317869  0.75000000  0.44434034  1.0
  Gd  Gd6  1  0.13682131  0.25000000  0.94434034  1.0
  Gd  Gd7  1  0.63682131  0.25000000  0.55565966  1.0
  Ti  Ti8  1  0.82236832  0.75000000  0.37857748  1.0
  Ti  Ti9  1  0.32236832  0.75000000  0.12142252  1.0
  Ti  Ti10  1  0.17763168  0.25000000  0.62142252  1.0
  Ti  Ti11  1  0.67763168  0.25000000  0.87857748  1.0
  O  O12  1  0.98645986  0.75000000  0.34435692  1.0
  O  O13  1  0.48645986  0.75000000  0.15564308  1.0
  O  O14  1  0.01354014  0.25000000  0.65564308  1.0
  O  O15  1  0.51354014  0.25000000  0.84435692  1.0
  O  O16  1  0.77629048  0.75000000  0.53982687  1.0
  O  O17  1  0.27629048  0.75000000  0.96017313  1.0
  O  O18  1  0.22370952  0.25000000  0.46017313  1.0
  O  O19  1  0.72370952  0.25000000  0.03982687  1.0
  O  O20  1  0.73555869  0.75000000  0.88134325  1.0
  O  O21  1  0.23555869  0.75000000  0.61865675  1.0
  O  O22  1  0.26444131  0.25000000  0.11865676  1.0
  O  O23  1  0.76444131  0.25000000  0.38134325  1.0
  O  O24  1  0.73913063  0.75000000  0.22947878  1.0
  O  O25  1  0.23913063  0.75000000  0.27052122  1.0
  O  O26  1  0.26086937  0.25000000  0.77052122  1.0
  O  O27  1  0.76086937  0.25000000  0.72947878  1.0
  O  O28  1  0.50687853  0.75000000  0.60451362  1.0
  O  O29  1  0.00687853  0.75000000  0.89548638  1.0
  O  O30  1  0.49312147  0.25000000  0.39548638  1.0
  O  O31  1  0.99312147  0.25000000  0.10451362  1.0
