# generated using pymatgen
data_LiFeSiO4
_symmetry_space_group_name_H-M   'P 1'
_cell_length_a   10.36722594
_cell_length_b   6.74330879
_cell_length_c   5.09583832
_cell_angle_alpha   90.00000000
_cell_angle_beta   90.00000000
_cell_angle_gamma   90.00000000
_symmetry_Int_Tables_number   1
_chemical_formula_structural   LiFeSiO4
_chemical_formula_sum   'Li4 Fe4 Si4 O16'
_cell_volume   356.24702915
_cell_formula_units_Z   4
loop_
 _symmetry_equiv_pos_site_id
 _symmetry_equiv_pos_as_xyz
  1  'x, y, z'
loop_
 _atom_site_type_symbol
 _atom_site_label
 _atom_site_symmetry_multiplicity
 _atom_site_fract_x
 _atom_site_fract_y
 _atom_site_fract_z
 _atom_site_occupancy
  Li  Li0  1  0.84675598  0.99307444  0.26034129  1.0
  Li  Li1  1  0.15324402  0.00692556  0.76034129  1.0
  Li  Li2  1  0.65324402  0.49307444  0.76034129  1.0
  Li  Li3  1  0.34675598  0.50692556  0.26034129  1.0
  Fe  Fe4  1  0.83206712  0.49239919  0.26173773  1.0
  Fe  Fe5  1  0.16793288  0.50760081  0.76173773  1.0
  Fe  Fe6  1  0.66793288  0.99239919  0.76173773  1.0
  Fe  Fe7  1  0.33206712  0.00760081  0.26173773  1.0
  Si  Si8  1  0.59273305  0.23525267  0.26362697  1.0
  Si  Si9  1  0.40726695  0.76474733  0.76362697  1.0
  Si  Si10  1  0.90726695  0.73525267  0.76362697  1.0
  Si  Si11  1  0.09273305  0.26474733  0.26362697  1.0
  O  O12  1  0.62041782  0.22668726  0.58294455  1.0
  O  O13  1  0.37958218  0.77331274  0.08294455  1.0
  O  O14  1  0.87958218  0.72668726  0.08294455  1.0
  O  O15  1  0.12041782  0.27331274  0.58294455  1.0
  O  O16  1  0.43698162  0.23711881  0.20429766  1.0
  O  O17  1  0.56301838  0.76288119  0.70429766  1.0
  O  O18  1  0.06301838  0.73711881  0.70429766  1.0
  O  O19  1  0.93698162  0.26288119  0.20429766  1.0
  O  O20  1  0.66618778  0.04445487  0.12628495  1.0
  O  O21  1  0.33381222  0.95554513  0.62628495  1.0
  O  O22  1  0.83381222  0.54445487  0.62628495  1.0
  O  O23  1  0.16618778  0.45554513  0.12628495  1.0
  O  O24  1  0.66090136  0.43790883  0.14650684  1.0
  O  O25  1  0.33909864  0.56209117  0.64650684  1.0
  O  O26  1  0.83909864  0.93790883  0.64650684  1.0
  O  O27  1  0.16090136  0.06209117  0.14650684  1.0
