# generated using pymatgen
data_Cs2Mn(TeS3)2
_symmetry_space_group_name_H-M   'P 1'
_cell_length_a   7.00463869
_cell_length_b   7.00463869
_cell_length_c   16.36143092
_cell_angle_alpha   90.00000000
_cell_angle_beta   90.00000000
_cell_angle_gamma   120.00000000
_symmetry_Int_Tables_number   1
_chemical_formula_structural   Cs2Mn(TeS3)2
_chemical_formula_sum   'Cs4 Mn2 Te4 S12'
_cell_volume   695.22181563
_cell_formula_units_Z   2
loop_
 _symmetry_equiv_pos_site_id
 _symmetry_equiv_pos_as_xyz
  1  'x, y, z'
loop_
 _atom_site_type_symbol
 _atom_site_label
 _atom_site_symmetry_multiplicity
 _atom_site_fract_x
 _atom_site_fract_y
 _atom_site_fract_z
 _atom_site_occupancy
  Cs  Cs0  1  0.33333333  0.66666667  0.28812098  1.0
  Cs  Cs1  1  0.33333333  0.66666667  0.78812098  1.0
  Cs  Cs2  1  0.66666667  0.33333333  0.21187902  1.0
  Cs  Cs3  1  0.66666667  0.33333333  0.71187902  1.0
  Mn  Mn4  1  0.00000000  0.00000000  0.00000000  1.0
  Mn  Mn5  1  0.00000000  0.00000000  0.50000000  1.0
  Te  Te6  1  0.33333333  0.66666667  0.03309341  1.0
  Te  Te7  1  0.33333333  0.66666667  0.53309341  1.0
  Te  Te8  1  0.66666667  0.33333333  0.46690659  1.0
  Te  Te9  1  0.66666667  0.33333333  0.96690659  1.0
  S  S10  1  0.23497795  0.91334025  0.09954017  1.0
  S  S11  1  0.23497795  0.32163770  0.59954017  1.0
  S  S12  1  0.91334025  0.23497795  0.40045983  1.0
  S  S13  1  0.91334025  0.67836230  0.90045983  1.0
  S  S14  1  0.67836230  0.91334025  0.59954017  1.0
  S  S15  1  0.67836230  0.76502205  0.09954017  1.0
  S  S16  1  0.08665975  0.76502205  0.59954017  1.0
  S  S17  1  0.08665975  0.32163770  0.09954017  1.0
  S  S18  1  0.76502205  0.67836230  0.40045983  1.0
  S  S19  1  0.76502205  0.08665975  0.90045983  1.0
  S  S20  1  0.32163770  0.23497795  0.90045983  1.0
  S  S21  1  0.32163770  0.08665975  0.40045983  1.0
