# generated using pymatgen
data_K6Na14MgTl18
_symmetry_space_group_name_H-M   'P 1'
_cell_length_a   10.77326055
_cell_length_b   10.77326055
_cell_length_c   10.77326055
_cell_angle_alpha   90.00000000
_cell_angle_beta   90.00000000
_cell_angle_gamma   90.00000000
_symmetry_Int_Tables_number   1
_chemical_formula_structural   K6Na14MgTl18
_chemical_formula_sum   'K6 Na14 Mg1 Tl18'
_cell_volume   1250.37847939
_cell_formula_units_Z   1
loop_
 _symmetry_equiv_pos_site_id
 _symmetry_equiv_pos_as_xyz
  1  'x, y, z'
loop_
 _atom_site_type_symbol
 _atom_site_label
 _atom_site_symmetry_multiplicity
 _atom_site_fract_x
 _atom_site_fract_y
 _atom_site_fract_z
 _atom_site_occupancy
  K  K0  1  0.81124638  0.00000000  0.50000000  1.0
  K  K1  1  0.00000000  0.50000000  0.81124638  1.0
  K  K2  1  0.00000000  0.50000000  0.18875362  1.0
  K  K3  1  0.50000000  0.81124638  0.00000000  1.0
  K  K4  1  0.50000000  0.18875362  0.00000000  1.0
  K  K5  1  0.18875362  0.00000000  0.50000000  1.0
  Na  Na6  1  0.71901593  0.71901593  0.71901593  1.0
  Na  Na7  1  0.71901593  0.71901593  0.28098407  1.0
  Na  Na8  1  0.71901593  0.28098407  0.71901593  1.0
  Na  Na9  1  0.71901593  0.28098407  0.28098407  1.0
  Na  Na10  1  0.28098407  0.71901593  0.71901593  1.0
  Na  Na11  1  0.28098407  0.71901593  0.28098407  1.0
  Na  Na12  1  0.28098407  0.28098407  0.71901593  1.0
  Na  Na13  1  0.28098407  0.28098407  0.28098407  1.0
  Na  Na14  1  0.66850633  0.50000000  0.00000000  1.0
  Na  Na15  1  0.50000000  0.00000000  0.66850633  1.0
  Na  Na16  1  0.50000000  0.00000000  0.33149367  1.0
  Na  Na17  1  0.00000000  0.66850633  0.50000000  1.0
  Na  Na18  1  0.00000000  0.33149367  0.50000000  1.0
  Na  Na19  1  0.33149367  0.50000000  0.00000000  1.0
  Mg  Mg20  1  0.00000000  0.00000000  0.00000000  1.0
  Tl  Tl21  1  0.00000000  0.84479480  0.74519951  1.0
  Tl  Tl22  1  0.00000000  0.84479480  0.25480049  1.0
  Tl  Tl23  1  0.00000000  0.15520520  0.74519951  1.0
  Tl  Tl24  1  0.00000000  0.15520520  0.25480049  1.0
  Tl  Tl25  1  0.84479480  0.74519951  0.00000000  1.0
  Tl  Tl26  1  0.84479480  0.25480049  0.00000000  1.0
  Tl  Tl27  1  0.74519951  0.00000000  0.84479480  1.0
  Tl  Tl28  1  0.74519951  0.00000000  0.15520520  1.0
  Tl  Tl29  1  0.15520520  0.74519951  0.00000000  1.0
  Tl  Tl30  1  0.15520520  0.25480049  0.00000000  1.0
  Tl  Tl31  1  0.25480049  0.00000000  0.84479480  1.0
  Tl  Tl32  1  0.25480049  0.00000000  0.15520520  1.0
  Tl  Tl33  1  0.72231523  0.50000000  0.50000000  1.0
  Tl  Tl34  1  0.50000000  0.50000000  0.72231523  1.0
  Tl  Tl35  1  0.50000000  0.50000000  0.27768477  1.0
  Tl  Tl36  1  0.50000000  0.72231523  0.50000000  1.0
  Tl  Tl37  1  0.50000000  0.27768477  0.50000000  1.0
  Tl  Tl38  1  0.27768477  0.50000000  0.50000000  1.0
