# generated using pymatgen
data_Rb2TiF6
_symmetry_space_group_name_H-M   'P 1'
_cell_length_a   6.04081751
_cell_length_b   6.04081751
_cell_length_c   4.95002595
_cell_angle_alpha   90.00000000
_cell_angle_beta   90.00000000
_cell_angle_gamma   120.00000000
_symmetry_Int_Tables_number   1
_chemical_formula_structural   Rb2TiF6
_chemical_formula_sum   'Rb2 Ti1 F6'
_cell_volume   156.43341962
_cell_formula_units_Z   1
loop_
 _symmetry_equiv_pos_site_id
 _symmetry_equiv_pos_as_xyz
  1  'x, y, z'
loop_
 _atom_site_type_symbol
 _atom_site_label
 _atom_site_symmetry_multiplicity
 _atom_site_fract_x
 _atom_site_fract_y
 _atom_site_fract_z
 _atom_site_occupancy
  Rb  Rb0  1  0.33333333  0.66666667  0.30171515  1.0
  Rb  Rb1  1  0.66666667  0.33333333  0.69828485  1.0
  Ti  Ti2  1  0.00000000  0.00000000  0.00000000  1.0
  F  F3  1  0.29974300  0.14987150  0.21439835  1.0
  F  F4  1  0.14987150  0.29974300  0.78560165  1.0
  F  F5  1  0.14987150  0.85012850  0.78560165  1.0
  F  F6  1  0.85012850  0.14987150  0.21439835  1.0
  F  F7  1  0.85012850  0.70025700  0.21439835  1.0
  F  F8  1  0.70025700  0.85012850  0.78560165  1.0
