# generated using pymatgen
data_FeHgC4(SN)4
_symmetry_space_group_name_H-M   'P 1'
_cell_length_a   8.44299920
_cell_length_b   8.44299920
_cell_length_c   8.44299920
_cell_angle_alpha   96.14060018
_cell_angle_beta   96.14060018
_cell_angle_gamma   141.81907412
_symmetry_Int_Tables_number   1
_chemical_formula_structural   FeHgC4(SN)4
_chemical_formula_sum   'Fe1 Hg1 C4 S4 N4'
_cell_volume   351.57273321
_cell_formula_units_Z   1
loop_
 _symmetry_equiv_pos_site_id
 _symmetry_equiv_pos_as_xyz
  1  'x, y, z'
loop_
 _atom_site_type_symbol
 _atom_site_label
 _atom_site_symmetry_multiplicity
 _atom_site_fract_x
 _atom_site_fract_y
 _atom_site_fract_z
 _atom_site_occupancy
  Fe  Fe0  1  0.00000000  0.00000000  0.00000000  1.0
  Hg  Hg1  1  0.75000000  0.25000000  0.50000000  1.0
  C  C2  1  0.61378319  0.44862387  0.73070371  1.0
  C  C3  1  1.11692052  0.38621681  0.83484068  1.0
  C  C4  1  0.71792016  0.88307948  1.26929629  1.0
  C  C5  1  0.55137613  1.28207984  1.16515932  1.0
  S  S6  1  1.56681571  1.81012553  1.41071754  1.0
  S  S7  1  0.84390183  1.43318429  1.24330982  1.0
  S  S8  1  1.39940799  1.15609817  0.58928246  1.0
  S  S9  1  1.18987447  0.60059201  0.75669018  1.0
  N  N10  1  0.76240737  0.65766950  0.83269713  1.0
  N  N11  1  1.07028976  0.23759263  0.89526213  1.0
  N  N12  1  0.82497237  0.92971024  1.16730287  1.0
  N  N13  1  0.34233050  1.17502763  1.10473787  1.0
