# generated using pymatgen
data_CuBi2(SeO3)4
_symmetry_space_group_name_H-M   'P 1'
_cell_length_a   4.42178594
_cell_length_b   16.31612744
_cell_length_c   8.57673062
_cell_angle_alpha   90.00000000
_cell_angle_beta   95.70891302
_cell_angle_gamma   90.00000000
_symmetry_Int_Tables_number   1
_chemical_formula_structural   CuBi2(SeO3)4
_chemical_formula_sum   'Cu2 Bi4 Se8 O24'
_cell_volume   615.71135082
_cell_formula_units_Z   2
loop_
 _symmetry_equiv_pos_site_id
 _symmetry_equiv_pos_as_xyz
  1  'x, y, z'
loop_
 _atom_site_type_symbol
 _atom_site_label
 _atom_site_symmetry_multiplicity
 _atom_site_fract_x
 _atom_site_fract_y
 _atom_site_fract_z
 _atom_site_occupancy
  Cu  Cu0  1  -0.00000000  0.50000000  0.50000000  1.0
  Cu  Cu1  1  0.00000000  0.00000000  0.00000000  1.0
  Bi  Bi2  1  0.51729631  0.23326108  0.05330533  1.0
  Bi  Bi3  1  0.51729631  0.26673892  0.55330533  1.0
  Bi  Bi4  1  0.48270369  0.73326108  0.44669467  1.0
  Bi  Bi5  1  0.48270369  0.76673892  0.94669467  1.0
  Se  Se6  1  0.96077882  0.62832600  0.12161727  1.0
  Se  Se7  1  0.96077882  0.87167400  0.62161727  1.0
  Se  Se8  1  0.03922118  0.12832600  0.37838273  1.0
  Se  Se9  1  0.03922118  0.37167400  0.87838273  1.0
  Se  Se10  1  0.44328440  0.42406145  0.27011358  1.0
  Se  Se11  1  0.44328440  0.07593855  0.77011358  1.0
  Se  Se12  1  0.55671560  0.92406145  0.22988642  1.0
  Se  Se13  1  0.55671560  0.57593855  0.72988642  1.0
  O  O14  1  0.97079666  0.21535382  0.49368064  1.0
  O  O15  1  0.97079666  0.28464618  0.99368064  1.0
  O  O16  1  0.02920334  0.71535382  0.00631936  1.0
  O  O17  1  0.02920334  0.78464618  0.50631936  1.0
  O  O18  1  0.95983100  0.15933813  0.18995493  1.0
  O  O19  1  0.95983100  0.34066187  0.68995493  1.0
  O  O20  1  0.04016900  0.65933813  0.31004507  1.0
  O  O21  1  0.04016900  0.84066187  0.81004507  1.0
  O  O22  1  0.78620350  0.47373221  0.29298099  1.0
  O  O23  1  0.78620350  0.02626779  0.79298099  1.0
  O  O24  1  0.21379650  0.97373221  0.20701901  1.0
  O  O25  1  0.21379650  0.52626779  0.70701901  1.0
  O  O26  1  0.54594117  0.31956022  0.27595781  1.0
  O  O27  1  0.54594117  0.18043978  0.77595781  1.0
  O  O28  1  0.45405883  0.81956022  0.22404219  1.0
  O  O29  1  0.45405883  0.68043978  0.72404219  1.0
  O  O30  1  0.42978706  0.14502478  0.40896935  1.0
  O  O31  1  0.42978706  0.35497522  0.90896935  1.0
  O  O32  1  0.57021294  0.64502478  0.09103065  1.0
  O  O33  1  0.57021294  0.85497522  0.59103065  1.0
  O  O34  1  0.32884667  0.42449700  0.45676271  1.0
  O  O35  1  0.32884667  0.07550300  0.95676271  1.0
  O  O36  1  0.67115333  0.92449700  0.04323729  1.0
  O  O37  1  0.67115333  0.57550300  0.54323729  1.0
