# generated using pymatgen
data_GaCuCCl4O
_symmetry_space_group_name_H-M   'P 1'
_cell_length_a   7.07246069
_cell_length_b   7.52483766
_cell_length_c   9.31301093
_cell_angle_alpha   67.83037075
_cell_angle_beta   83.28166975
_cell_angle_gamma   88.39776920
_symmetry_Int_Tables_number   1
_chemical_formula_structural   GaCuCCl4O
_chemical_formula_sum   'Ga2 Cu2 C2 Cl8 O2'
_cell_volume   455.76631571
_cell_formula_units_Z   2
loop_
 _symmetry_equiv_pos_site_id
 _symmetry_equiv_pos_as_xyz
  1  'x, y, z'
loop_
 _atom_site_type_symbol
 _atom_site_label
 _atom_site_symmetry_multiplicity
 _atom_site_fract_x
 _atom_site_fract_y
 _atom_site_fract_z
 _atom_site_occupancy
  Ga  Ga0  1  -0.75160432  -0.19437422  -0.77598672  1.0
  Ga  Ga1  1  -0.24839568  -0.80562578  -0.22401328  1.0
  Cu  Cu2  1  -0.74841784  -0.01690799  -0.21193172  1.0
  Cu  Cu3  1  -0.25158216  -0.98309201  -0.78806828  1.0
  C  C4  1  -0.78858008  -0.25671888  -0.20689690  1.0
  C  C5  1  -0.21141992  -0.74328112  -0.79310310  1.0
  Cl  Cl6  1  -0.75276520  -0.92818187  -0.99403784  1.0
  Cl  Cl7  1  -0.24723480  -0.07181813  -0.00596216  1.0
  Cl  Cl8  1  -0.96255682  -0.78155656  -0.36138103  1.0
  Cl  Cl9  1  -0.03744318  -0.21844344  -0.63861897  1.0
  Cl  Cl10  1  -0.45688079  -0.86392381  -0.36479576  1.0
  Cl  Cl11  1  -0.54311921  -0.13607619  -0.63520424  1.0
  Cl  Cl12  1  -0.68566268  -0.44919525  -0.82403851  1.0
  Cl  Cl13  1  -0.31433732  -0.55080475  -0.17596149  1.0
  O  O14  1  -0.81677904  -0.40377350  -0.21033908  1.0
  O  O15  1  -0.18322096  -0.59622650  -0.78966092  1.0
