# generated using pymatgen
data_HBr
_symmetry_space_group_name_H-M   'P 1'
_cell_length_a   4.77824563
_cell_length_b   4.77824563
_cell_length_c   5.44737300
_cell_angle_alpha   90.00000000
_cell_angle_beta   90.00000000
_cell_angle_gamma   73.19664830
_symmetry_Int_Tables_number   1
_chemical_formula_structural   HBr
_chemical_formula_sum   'H2 Br2'
_cell_volume   119.06203176
_cell_formula_units_Z   2
loop_
 _symmetry_equiv_pos_site_id
 _symmetry_equiv_pos_as_xyz
  1  'x, y, z'
loop_
 _atom_site_type_symbol
 _atom_site_label
 _atom_site_symmetry_multiplicity
 _atom_site_fract_x
 _atom_site_fract_y
 _atom_site_fract_z
 _atom_site_occupancy
  H  H0  1  0.04952791  0.95047209  -0.01222749  1.0
  H  H1  1  -0.04952791  1.04952791  0.48777251  1.0
  Br  Br2  1  0.22921445  0.77078555  0.18222749  1.0
  Br  Br3  1  -0.22921445  1.22921445  0.68222749  1.0
