# generated using pymatgen
data_Hf6Be15Ni8
_symmetry_space_group_name_H-M   'P 1'
_cell_length_a   7.76284724
_cell_length_b   7.76284724
_cell_length_c   7.76284724
_cell_angle_alpha   60.00000000
_cell_angle_beta   60.00000000
_cell_angle_gamma   60.00000000
_symmetry_Int_Tables_number   1
_chemical_formula_structural   Hf6Be15Ni8
_chemical_formula_sum   'Hf6 Be15 Ni8'
_cell_volume   330.78676248
_cell_formula_units_Z   1
loop_
 _symmetry_equiv_pos_site_id
 _symmetry_equiv_pos_as_xyz
  1  'x, y, z'
loop_
 _atom_site_type_symbol
 _atom_site_label
 _atom_site_symmetry_multiplicity
 _atom_site_fract_x
 _atom_site_fract_y
 _atom_site_fract_z
 _atom_site_occupancy
  Hf  Hf0  1  -0.70890786  0.70890786  0.70890786  1.0
  Hf  Hf1  1  -0.29109214  0.29109214  0.70890786  1.0
  Hf  Hf2  1  0.70890786  0.70890786  -0.70890786  1.0
  Hf  Hf3  1  0.29109214  1.29109214  -0.29109214  1.0
  Hf  Hf4  1  0.29109214  -0.29109214  1.29109214  1.0
  Hf  Hf5  1  -0.29109214  0.29109214  0.29109214  1.0
  Be  Be6  1  0.67685218  0.67685218  -0.32314782  1.0
  Be  Be7  1  1.32314782  0.32314782  0.03055655  1.0
  Be  Be8  1  1.32314782  0.03055655  0.32314782  1.0
  Be  Be9  1  0.96944345  0.67685218  -0.32314782  1.0
  Be  Be10  1  1.03055655  0.32314782  0.32314782  1.0
  Be  Be11  1  0.67685218  0.96944345  -0.32314782  1.0
  Be  Be12  1  0.67685218  0.67685218  -0.03055655  1.0
  Be  Be13  1  1.32314782  0.32314782  0.32314782  1.0
  Be  Be14  1  1.50000000  0.00000000  -0.00000000  1.0
  Be  Be15  1  1.00000000  0.50000000  -0.50000000  1.0
  Be  Be16  1  0.00000000  1.50000000  -0.00000000  1.0
  Be  Be17  1  0.50000000  1.00000000  -0.50000000  1.0
  Be  Be18  1  -0.00000000  -0.00000000  0.50000000  1.0
  Be  Be19  1  0.50000000  -0.50000000  1.00000000  1.0
  Be  Be20  1  0.00000000  0.00000000  0.00000000  1.0
  Ni  Ni21  1  0.87597457  0.87597457  -0.12402543  1.0
  Ni  Ni22  1  1.12402543  0.12402543  0.62792372  1.0
  Ni  Ni23  1  1.12402543  0.62792372  0.12402543  1.0
  Ni  Ni24  1  0.37207628  0.87597457  -0.12402543  1.0
  Ni  Ni25  1  1.62792372  0.12402543  0.12402543  1.0
  Ni  Ni26  1  0.87597457  0.37207628  -0.12402543  1.0
  Ni  Ni27  1  0.87597457  0.87597457  -0.62792372  1.0
  Ni  Ni28  1  1.12402543  0.12402543  0.12402543  1.0
