# generated using pymatgen
data_Hf5FeTe3
_symmetry_space_group_name_H-M   'P 1'
_cell_length_a   18.08892578
_cell_length_b   3.69143070
_cell_length_c   13.38418696
_cell_angle_alpha   90.00000000
_cell_angle_beta   90.00000000
_cell_angle_gamma   90.00000000
_symmetry_Int_Tables_number   1
_chemical_formula_structural   Hf5FeTe3
_chemical_formula_sum   'Hf20 Fe4 Te12'
_cell_volume   893.71591429
_cell_formula_units_Z   4
loop_
 _symmetry_equiv_pos_site_id
 _symmetry_equiv_pos_as_xyz
  1  'x, y, z'
loop_
 _atom_site_type_symbol
 _atom_site_label
 _atom_site_symmetry_multiplicity
 _atom_site_fract_x
 _atom_site_fract_y
 _atom_site_fract_z
 _atom_site_occupancy
  Hf  Hf0  1  0.58855161  0.75000000  0.34938799  1.0
  Hf  Hf1  1  0.08855161  0.75000000  0.15061201  1.0
  Hf  Hf2  1  0.41144839  0.25000000  0.65061201  1.0
  Hf  Hf3  1  0.91144839  0.25000000  0.84938799  1.0
  Hf  Hf4  1  0.37630545  0.75000000  0.27722389  1.0
  Hf  Hf5  1  0.87630545  0.75000000  0.22277611  1.0
  Hf  Hf6  1  0.62369455  0.25000000  0.72277611  1.0
  Hf  Hf7  1  0.12369455  0.25000000  0.77722389  1.0
  Hf  Hf8  1  0.25767340  0.75000000  0.64273672  1.0
  Hf  Hf9  1  0.75767340  0.75000000  0.85726328  1.0
  Hf  Hf10  1  0.74232660  0.25000000  0.35726328  1.0
  Hf  Hf11  1  0.24232660  0.25000000  0.14273672  1.0
  Hf  Hf12  1  0.21022398  0.75000000  0.94233397  1.0
  Hf  Hf13  1  0.71022398  0.75000000  0.55766603  1.0
  Hf  Hf14  1  0.78977602  0.25000000  0.05766603  1.0
  Hf  Hf15  1  0.28977602  0.25000000  0.44233397  1.0
  Hf  Hf16  1  0.04321813  0.75000000  0.93088454  1.0
  Hf  Hf17  1  0.54321813  0.75000000  0.56911546  1.0
  Hf  Hf18  1  0.95678187  0.25000000  0.06911546  1.0
  Hf  Hf19  1  0.45678187  0.25000000  0.43088454  1.0
  Fe  Fe20  1  0.37006255  0.75000000  0.52374283  1.0
  Fe  Fe21  1  0.87006255  0.75000000  0.97625717  1.0
  Fe  Fe22  1  0.62993745  0.25000000  0.47625717  1.0
  Fe  Fe23  1  0.12993745  0.25000000  0.02374283  1.0
  Te  Te24  1  0.35097292  0.75000000  0.05982315  1.0
  Te  Te25  1  0.85097292  0.75000000  0.44017685  1.0
  Te  Te26  1  0.64902708  0.25000000  0.94017685  1.0
  Te  Te27  1  0.14902708  0.25000000  0.55982315  1.0
  Te  Te28  1  0.20505199  0.75000000  0.30843687  1.0
  Te  Te29  1  0.70505199  0.75000000  0.19156313  1.0
  Te  Te30  1  0.79494801  0.25000000  0.69156313  1.0
  Te  Te31  1  0.29494801  0.25000000  0.80843687  1.0
  Te  Te32  1  1.00081605  0.75000000  0.71442227  1.0
  Te  Te33  1  0.50081605  0.75000000  0.78557773  1.0
  Te  Te34  1  -0.00081605  0.25000000  0.28557773  1.0
  Te  Te35  1  0.49918395  0.25000000  0.21442227  1.0
