# generated using pymatgen
data_Ga2Se3
_symmetry_space_group_name_H-M   'P 1'
_cell_length_a   6.87859974
_cell_length_b   6.87859974
_cell_length_c   6.75926743
_cell_angle_alpha   80.90399134
_cell_angle_beta   99.09600866
_cell_angle_gamma   59.24258619
_symmetry_Int_Tables_number   1
_chemical_formula_structural   Ga2Se3
_chemical_formula_sum   'Ga4 Se6'
_cell_volume   260.39337272
_cell_formula_units_Z   2
loop_
 _symmetry_equiv_pos_site_id
 _symmetry_equiv_pos_as_xyz
  1  'x, y, z'
loop_
 _atom_site_type_symbol
 _atom_site_label
 _atom_site_symmetry_multiplicity
 _atom_site_fract_x
 _atom_site_fract_y
 _atom_site_fract_z
 _atom_site_occupancy
  Ga  Ga0  1  1.28251312  -0.45344441  0.63777751  1.0
  Ga  Ga1  1  0.45344441  -0.28251312  0.13777751  1.0
  Ga  Ga2  1  1.14931946  -0.65120554  0.14169777  1.0
  Ga  Ga3  1  0.65120554  -0.14931946  0.64169777  1.0
  Se  Se4  1  0.91561467  -0.08679469  0.49896238  1.0
  Se  Se5  1  0.08679469  0.08438533  -0.00103762  1.0
  Se  Se6  1  0.61019172  -0.45465151  0.52390650  1.0
  Se  Se7  1  0.45465151  0.38980828  0.02390650  1.0
  Se  Se8  1  0.25397078  0.22930588  0.52925583  1.0
  Se  Se9  1  0.77069412  -0.25397078  0.02925583  1.0
