# generated using pymatgen
data_CsB6
_symmetry_space_group_name_H-M   'P 1'
_cell_length_a   7.86152428
_cell_length_b   7.86152428
_cell_length_c   7.86152428
_cell_angle_alpha   60.00000000
_cell_angle_beta   60.00000000
_cell_angle_gamma   60.00000000
_symmetry_Int_Tables_number   1
_chemical_formula_structural   CsB6
_chemical_formula_sum   'Cs2 B12'
_cell_volume   343.56212617
_cell_formula_units_Z   2
loop_
 _symmetry_equiv_pos_site_id
 _symmetry_equiv_pos_as_xyz
  1  'x, y, z'
loop_
 _atom_site_type_symbol
 _atom_site_label
 _atom_site_symmetry_multiplicity
 _atom_site_fract_x
 _atom_site_fract_y
 _atom_site_fract_z
 _atom_site_occupancy
  Cs  Cs0  1  0.25000000  0.25000000  0.25000000  1.0
  Cs  Cs1  1  0.75000000  0.75000000  -0.25000000  1.0
  B  B2  1  1.04801815  0.79625250  -0.79625250  1.0
  B  B3  1  0.79625250  1.04801815  -0.04801815  1.0
  B  B4  1  0.20374750  -0.04801815  0.04801815  1.0
  B  B5  1  -0.04801815  0.20374750  0.79625250  1.0
  B  B6  1  -0.04801815  0.79625250  0.04801815  1.0
  B  B7  1  0.20374750  1.04801815  -0.20374750  1.0
  B  B8  1  -0.79625250  0.79625250  0.95198185  1.0
  B  B9  1  0.04801815  -0.04801815  0.79625250  1.0
  B  B10  1  -0.20374750  0.95198185  0.20374750  1.0
  B  B11  1  0.04801815  1.20374750  -0.04801815  1.0
  B  B12  1  -0.04801815  0.04801815  0.20374750  1.0
  B  B13  1  -0.20374750  0.20374750  1.04801815  1.0
