# generated using pymatgen
data_H12PtN6(ClO3)2
_symmetry_space_group_name_H-M   'P 1'
_cell_length_a   6.86868223
_cell_length_b   6.68458031
_cell_length_c   7.23388635
_cell_angle_alpha   99.56105592
_cell_angle_beta   115.36678572
_cell_angle_gamma   97.35228683
_symmetry_Int_Tables_number   1
_chemical_formula_structural   H12PtN6(ClO3)2
_chemical_formula_sum   'H12 Pt1 N6 Cl2 O6'
_cell_volume   288.46119549
_cell_formula_units_Z   1
loop_
 _symmetry_equiv_pos_site_id
 _symmetry_equiv_pos_as_xyz
  1  'x, y, z'
loop_
 _atom_site_type_symbol
 _atom_site_label
 _atom_site_symmetry_multiplicity
 _atom_site_fract_x
 _atom_site_fract_y
 _atom_site_fract_z
 _atom_site_occupancy
  H  H0  1  0.75811125  0.75660391  0.82280529  1.0
  H  H1  1  0.24188875  0.24339609  0.17719471  1.0
  H  H2  1  0.24684082  0.24561101  0.94718016  1.0
  H  H3  1  0.75315918  0.75438899  0.05281984  1.0
  H  H4  1  0.59617571  0.55933361  0.83996974  1.0
  H  H5  1  0.40382429  0.44066639  0.16003026  1.0
  H  H6  1  0.78893310  0.44059338  0.58726437  1.0
  H  H7  1  0.21106690  0.55940662  0.41273563  1.0
  H  H8  1  0.80820886  0.20498696  0.64479848  1.0
  H  H9  1  0.19179114  0.79501304  0.35520152  1.0
  H  H10  1  1.02515744  0.36614190  0.65688061  1.0
  H  H11  1  -0.02515744  0.63385810  0.34311939  1.0
  Pt  Pt12  1  0.00000000  0.50000000  0.00000000  1.0
  N  N13  1  0.72844957  0.81551647  0.43551730  1.0
  N  N14  1  0.27155043  0.18448353  0.56448270  1.0
  N  N15  1  0.74840950  0.66222506  0.92009436  1.0
  N  N16  1  0.25159050  0.33777494  0.07990564  1.0
  N  N17  1  0.88912753  0.35964720  0.68455609  1.0
  N  N18  1  0.11087247  0.64035280  0.31544391  1.0
  Cl  Cl19  1  0.22860443  0.76633792  0.96742770  1.0
  Cl  Cl20  1  0.77139557  0.23366208  0.03257230  1.0
  O  O21  1  0.70553859  0.61658622  0.38955844  1.0
  O  O22  1  0.29446141  0.38341378  0.61044156  1.0
  O  O23  1  0.71295323  0.90256369  0.59548889  1.0
  O  O24  1  0.28704677  0.09743631  0.40451111  1.0
  O  O25  1  0.76726471  0.91867707  0.32141561  1.0
  O  O26  1  0.23273529  0.08132293  0.67858439  1.0
