# generated using pymatgen
data_Sc2CI3
_symmetry_space_group_name_H-M   'P 1'
_cell_length_a   14.27313175
_cell_length_b   11.30689183
_cell_length_c   11.35346714
_cell_angle_alpha   58.48440081
_cell_angle_beta   71.85936576
_cell_angle_gamma   73.65806151
_symmetry_Int_Tables_number   1
_chemical_formula_structural   Sc2CI3
_chemical_formula_sum   'Sc16 C8 I24'
_cell_volume   1468.37497074
_cell_formula_units_Z   8
loop_
 _symmetry_equiv_pos_site_id
 _symmetry_equiv_pos_as_xyz
  1  'x, y, z'
loop_
 _atom_site_type_symbol
 _atom_site_label
 _atom_site_symmetry_multiplicity
 _atom_site_fract_x
 _atom_site_fract_y
 _atom_site_fract_z
 _atom_site_occupancy
  Sc  Sc0  1  0.83697248  -0.57539415  1.22053304  1.0
  Sc  Sc1  1  0.16302752  -0.42460585  0.77946696  1.0
  Sc  Sc2  1  0.88035852  -0.19608718  0.71542306  1.0
  Sc  Sc3  1  0.11964148  -0.80391282  1.28457694  1.0
  Sc  Sc4  1  0.66309925  -0.83696279  1.37492746  1.0
  Sc  Sc5  1  0.33690075  -0.16303721  0.62507254  1.0
  Sc  Sc6  1  0.60756970  -0.69488924  1.60343403  1.0
  Sc  Sc7  1  0.39243030  -0.30511076  0.39656597  1.0
  Sc  Sc8  1  0.38139873  -0.64888845  1.49332897  1.0
  Sc  Sc9  1  0.61860127  -0.35111155  0.50667103  1.0
  Sc  Sc10  1  0.60038819  -0.48633237  1.29458397  1.0
  Sc  Sc11  1  0.39961181  -0.51366763  0.70541603  1.0
  Sc  Sc12  1  0.89537349  -0.83779048  1.55235743  1.0
  Sc  Sc13  1  0.10462651  -0.16220952  0.44764257  1.0
  Sc  Sc14  1  0.89788869  -0.93642686  1.34626305  1.0
  Sc  Sc15  1  0.10211131  -0.06357314  0.65373695  1.0
  C  C16  1  0.70816698  -0.66956591  1.38410797  1.0
  C  C17  1  0.29183302  -0.33043409  0.61589203  1.0
  C  C18  1  0.47088756  -0.53987284  1.49870177  1.0
  C  C19  1  0.52911244  -0.46012716  0.50129823  1.0
  C  C20  1  0.79176339  -0.78145310  1.39652395  1.0
  C  C21  1  0.20823661  -0.21854690  0.60347605  1.0
  C  C22  1  0.97010122  -0.05101080  0.55414213  1.0
  C  C23  1  0.02989878  -0.94898920  1.44585787  1.0
  I  I24  1  0.50564480  -0.91968954  1.63634010  1.0
  I  I25  1  0.49435520  -0.08031046  0.36365990  1.0
  I  I26  1  0.99920514  -0.28375180  0.92315669  1.0
  I  I27  1  0.00079486  -0.71624820  1.07684331  1.0
  I  I28  1  0.75015949  -0.43670282  0.97320842  1.0
  I  I29  1  0.24984051  -0.56329718  1.02679158  1.0
  I  I30  1  0.74895766  -0.30260180  1.23369499  1.0
  I  I31  1  0.25104234  -0.69739820  0.76630501  1.0
  I  I32  1  0.24495392  -0.40718803  1.34760480  1.0
  I  I33  1  0.75504608  -0.59281197  0.65239520  1.0
  I  I34  1  0.99344117  -0.86175268  1.75364747  1.0
  I  I35  1  0.00655883  -0.13824732  0.24635253  1.0
  I  I36  1  0.49352862  -0.22893422  1.10616176  1.0
  I  I37  1  0.50647138  -0.77106578  0.89383824  1.0
  I  I38  1  0.74366802  -0.99441974  1.79534354  1.0
  I  I39  1  0.25633198  -0.00558026  0.20465646  1.0
  I  I40  1  0.99286973  -0.57666981  1.34317090  1.0
  I  I41  1  0.00713027  -0.42333019  0.65682910  1.0
  I  I42  1  0.50055823  -0.64033299  1.22691386  1.0
  I  I43  1  0.49944177  -0.35966701  0.77308614  1.0
  I  I44  1  0.25237740  -0.84721883  1.46505150  1.0
  I  I45  1  0.74762260  -0.15278117  0.53494850  1.0
  I  I46  1  0.76201595  -0.86940250  1.13802496  1.0
  I  I47  1  0.23798405  -0.13059750  0.86197504  1.0
