# generated using pymatgen
data_NaCr2Fe3O14
_symmetry_space_group_name_H-M   'P 1'
_cell_length_a   7.37071490
_cell_length_b   7.37071490
_cell_length_c   7.37071490
_cell_angle_alpha   55.62357929
_cell_angle_beta   55.62357929
_cell_angle_gamma   55.62357929
_symmetry_Int_Tables_number   1
_chemical_formula_structural   NaCr2Fe3O14
_chemical_formula_sum   'Na1 Cr2 Fe3 O14'
_cell_volume   254.39217973
_cell_formula_units_Z   1
loop_
 _symmetry_equiv_pos_site_id
 _symmetry_equiv_pos_as_xyz
  1  'x, y, z'
loop_
 _atom_site_type_symbol
 _atom_site_label
 _atom_site_symmetry_multiplicity
 _atom_site_fract_x
 _atom_site_fract_y
 _atom_site_fract_z
 _atom_site_occupancy
  Cr  Cr0  1  0.79789522  0.79789522  -0.20210478  1.0
  Cr  Cr1  1  1.20210478  1.20210478  0.20210478  1.0
  O  O2  1  0.36656189  0.36656189  -0.03788398  1.0
  O  O3  1  0.36656189  0.96211602  -0.63343811  1.0
  O  O4  1  1.03788398  -0.36656189  -0.36656189  1.0
  O  O5  1  0.63343811  0.03788398  -0.36656189  1.0
  O  O6  1  0.63343811  -0.36656189  0.03788398  1.0
  O  O7  1  0.96211602  0.36656189  -0.63343811  1.0
  O  O8  1  0.88194430  0.88194430  -0.11805570  1.0
  O  O9  1  1.11805570  1.11805570  0.11805570  1.0
  O  O10  1  0.22452307  0.22452307  -0.39942223  1.0
  O  O11  1  0.22452307  0.60057777  -0.77547693  1.0
  O  O12  1  0.39942223  0.77547693  -0.22452307  1.0
  O  O13  1  0.77547693  0.39942223  -0.22452307  1.0
  O  O14  1  0.77547693  0.77547693  -0.60057777  1.0
  O  O15  1  0.60057777  0.22452307  -0.77547693  1.0
  Na  Na16  1  0.50000000  0.50000000  -0.50000000  1.0
  Fe  Fe17  1  0.50000000  1.00000000  -0.50000000  1.0
  Fe  Fe18  1  0.50000000  -0.50000000  0.00000000  1.0
  Fe  Fe19  1  0.00000000  0.50000000  -0.50000000  1.0
