# generated using pymatgen
data_Li2B3O4F3
_symmetry_space_group_name_H-M   'P 1'
_cell_length_a   5.01621767
_cell_length_b   8.80906785
_cell_length_c   12.43911368
_cell_angle_alpha   90.00000000
_cell_angle_beta   90.00000000
_cell_angle_gamma   90.00000000
_symmetry_Int_Tables_number   1
_chemical_formula_structural   Li2B3O4F3
_chemical_formula_sum   'Li8 B12 O16 F12'
_cell_volume   549.66206537
_cell_formula_units_Z   4
loop_
 _symmetry_equiv_pos_site_id
 _symmetry_equiv_pos_as_xyz
  1  'x, y, z'
loop_
 _atom_site_type_symbol
 _atom_site_label
 _atom_site_symmetry_multiplicity
 _atom_site_fract_x
 _atom_site_fract_y
 _atom_site_fract_z
 _atom_site_occupancy
  Li  Li0  1  0.42407745  0.64472748  0.60312056  1.0
  Li  Li1  1  0.92407745  0.85527252  0.39687944  1.0
  Li  Li2  1  0.57592255  0.14472748  0.89687944  1.0
  Li  Li3  1  0.07592255  0.35527252  0.10312056  1.0
  Li  Li4  1  0.33842527  0.71156069  0.07264836  1.0
  Li  Li5  1  0.83842527  0.78843932  0.92735164  1.0
  Li  Li6  1  0.66157473  0.21156068  0.42735164  1.0
  Li  Li7  1  0.16157473  0.28843932  0.57264836  1.0
  B  B8  1  0.47512925  0.42037584  0.76991541  1.0
  B  B9  1  0.97512925  0.07962416  0.23008459  1.0
  B  B10  1  0.52487075  0.92037584  0.73008459  1.0
  B  B11  1  0.02487075  0.57962416  0.26991541  1.0
  B  B12  1  0.41787602  0.68183047  0.83927378  1.0
  B  B13  1  0.91787602  0.81816953  0.16072622  1.0
  B  B14  1  0.58212398  0.18183047  0.66072622  1.0
  B  B15  1  0.08212398  0.31816953  0.33927378  1.0
  B  B16  1  0.42023466  0.96882414  0.53829224  1.0
  B  B17  1  0.92023466  0.53117586  0.46170776  1.0
  B  B18  1  0.57976534  0.46882414  0.96170776  1.0
  B  B19  1  0.07976534  0.03117586  0.03829224  1.0
  O  O20  1  0.46494014  0.86639155  0.62876082  1.0
  O  O21  1  0.96494014  0.63360845  0.37123918  1.0
  O  O22  1  0.53505986  0.36639155  0.87123918  1.0
  O  O23  1  0.03505986  0.13360845  0.12876082  1.0
  O  O24  1  0.44720445  0.32540074  0.68335597  1.0
  O  O25  1  0.94720445  0.17459926  0.31664403  1.0
  O  O26  1  0.55279555  0.82540074  0.81664403  1.0
  O  O27  1  0.05279555  0.67459926  0.18335597  1.0
  O  O28  1  0.43865450  0.57272747  0.75148934  1.0
  O  O29  1  0.93865450  0.92727253  0.24851066  1.0
  O  O30  1  0.56134550  0.07272747  0.74851066  1.0
  O  O31  1  0.06134550  0.42727253  0.25148934  1.0
  O  O32  1  0.03067062  0.87274033  0.05953738  1.0
  O  O33  1  0.53067062  0.62725967  0.94046262  1.0
  O  O34  1  0.96932938  0.37274033  0.44046262  1.0
  O  O35  1  0.46932938  0.12725967  0.55953738  1.0
  F  F36  1  0.15103245  0.94766112  0.50015546  1.0
  F  F37  1  0.65103245  0.55233888  0.49984454  1.0
  F  F38  1  0.84896755  0.44766112  0.99984454  1.0
  F  F39  1  0.34896755  0.05233888  0.00015546  1.0
  F  F40  1  0.13339858  0.71384703  0.85386000  1.0
  F  F41  1  0.63339858  0.78615297  0.14614000  1.0
  F  F42  1  0.86660142  0.21384703  0.64614000  1.0
  F  F43  1  0.36660142  0.28615297  0.35386000  1.0
  F  F44  1  0.08807453  0.57870194  0.55111184  1.0
  F  F45  1  0.58807453  0.92129806  0.44888816  1.0
  F  F46  1  0.91192547  0.07870194  0.94888816  1.0
  F  F47  1  0.41192547  0.42129806  0.05111184  1.0
