# generated using pymatgen
data_Hf5AlNi4
_symmetry_space_group_name_H-M   'P 1'
_cell_length_a   7.15546608
_cell_length_b   7.15546608
_cell_length_c   6.55001285
_cell_angle_alpha   90.00000000
_cell_angle_beta   90.00000000
_cell_angle_gamma   90.00000000
_symmetry_Int_Tables_number   1
_chemical_formula_structural   Hf5AlNi4
_chemical_formula_sum   'Hf10 Al2 Ni8'
_cell_volume   335.36520956
_cell_formula_units_Z   2
loop_
 _symmetry_equiv_pos_site_id
 _symmetry_equiv_pos_as_xyz
  1  'x, y, z'
loop_
 _atom_site_type_symbol
 _atom_site_label
 _atom_site_symmetry_multiplicity
 _atom_site_fract_x
 _atom_site_fract_y
 _atom_site_fract_z
 _atom_site_occupancy
  Hf  Hf0  1  0.85277345  0.31275968  0.00000000  1.0
  Hf  Hf1  1  0.31275968  0.14722655  0.50000000  1.0
  Hf  Hf2  1  0.14722655  0.68724032  0.00000000  1.0
  Hf  Hf3  1  0.68724032  0.85277345  0.50000000  1.0
  Hf  Hf4  1  0.68728717  0.85270800  0.00000000  1.0
  Hf  Hf5  1  0.85270800  0.31271283  0.50000000  1.0
  Hf  Hf6  1  0.31271283  0.14729200  0.00000000  1.0
  Hf  Hf7  1  0.14729200  0.68728717  0.50000000  1.0
  Hf  Hf8  1  0.50000000  0.50000000  0.75000000  1.0
  Hf  Hf9  1  0.50000000  0.50000000  0.25000000  1.0
  Al  Al10  1  0.00000000  0.00000000  0.75000000  1.0
  Al  Al11  1  0.00000000  0.00000000  0.25000000  1.0
  Ni  Ni12  1  0.86492161  0.62035964  0.74993895  1.0
  Ni  Ni13  1  0.86492161  0.62035964  0.25006105  1.0
  Ni  Ni14  1  0.62035964  0.13507839  0.24993895  1.0
  Ni  Ni15  1  0.62035964  0.13507839  0.75006105  1.0
  Ni  Ni16  1  0.13507839  0.37964036  0.74993895  1.0
  Ni  Ni17  1  0.13507839  0.37964036  0.25006105  1.0
  Ni  Ni18  1  0.37964036  0.86492161  0.24993895  1.0
  Ni  Ni19  1  0.37964036  0.86492161  0.75006105  1.0
