# generated using pymatgen
data_Po(Br3N)2
_symmetry_space_group_name_H-M   'P 1'
_cell_length_a   7.59363803
_cell_length_b   7.59363803
_cell_length_c   7.59363803
_cell_angle_alpha   60.00000000
_cell_angle_beta   60.00000000
_cell_angle_gamma   60.00000000
_symmetry_Int_Tables_number   1
_chemical_formula_structural   Po(Br3N)2
_chemical_formula_sum   'Po1 Br6 N2'
_cell_volume   309.62404312
_cell_formula_units_Z   1
loop_
 _symmetry_equiv_pos_site_id
 _symmetry_equiv_pos_as_xyz
  1  'x, y, z'
loop_
 _atom_site_type_symbol
 _atom_site_label
 _atom_site_symmetry_multiplicity
 _atom_site_fract_x
 _atom_site_fract_y
 _atom_site_fract_z
 _atom_site_occupancy
  Po  Po0  1  0.00000000  0.00000000  0.00000000  1.0
  Br  Br1  1  -0.74244906  0.74244906  0.74244906  1.0
  Br  Br2  1  -0.25755094  0.25755094  0.74244906  1.0
  Br  Br3  1  0.74244906  0.74244906  -0.74244906  1.0
  Br  Br4  1  0.25755094  1.25755094  -0.25755094  1.0
  Br  Br5  1  0.25755094  -0.25755094  1.25755094  1.0
  Br  Br6  1  -0.25755094  0.25755094  0.25755094  1.0
  N  N7  1  0.75000000  0.75000000  -0.25000000  1.0
  N  N8  1  1.25000000  0.25000000  0.25000000  1.0
