# generated using pymatgen
data_Nb4CrS8
_symmetry_space_group_name_H-M   'P 1'
_cell_length_a   6.67334807
_cell_length_b   6.67334807
_cell_length_c   12.06206867
_cell_angle_alpha   90.00000000
_cell_angle_beta   90.00000000
_cell_angle_gamma   120.00000000
_symmetry_Int_Tables_number   1
_chemical_formula_structural   Nb4CrS8
_chemical_formula_sum   'Nb8 Cr2 S16'
_cell_volume   465.20029693
_cell_formula_units_Z   2
loop_
 _symmetry_equiv_pos_site_id
 _symmetry_equiv_pos_as_xyz
  1  'x, y, z'
loop_
 _atom_site_type_symbol
 _atom_site_label
 _atom_site_symmetry_multiplicity
 _atom_site_fract_x
 _atom_site_fract_y
 _atom_site_fract_z
 _atom_site_occupancy
  Cr  Cr0  1  0.00000000  0.00000000  0.50000000  1.0
  Cr  Cr1  1  0.00000000  0.00000000  0.00000000  1.0
  S  S2  1  0.16612292  0.83387708  0.37990585  1.0
  S  S3  1  0.16612292  0.83387708  0.12009415  1.0
  S  S4  1  0.16612292  0.33224585  0.37990585  1.0
  S  S5  1  0.16612292  0.33224585  0.12009415  1.0
  S  S6  1  0.83387708  0.16612292  0.87990585  1.0
  S  S7  1  0.83387708  0.16612292  0.62009415  1.0
  S  S8  1  0.83387708  0.66775415  0.87990585  1.0
  S  S9  1  0.83387708  0.66775415  0.62009415  1.0
  S  S10  1  0.66775415  0.83387708  0.37990585  1.0
  S  S11  1  0.66775415  0.83387708  0.12009415  1.0
  S  S12  1  0.33224585  0.16612292  0.87990585  1.0
  S  S13  1  0.33224585  0.16612292  0.62009415  1.0
  S  S14  1  0.33333333  0.66666667  0.88298240  1.0
  S  S15  1  0.33333333  0.66666667  0.61701760  1.0
  S  S16  1  0.66666667  0.33333333  0.38298240  1.0
  S  S17  1  0.66666667  0.33333333  0.11701760  1.0
  Nb  Nb18  1  0.50623366  0.49376634  0.25000000  1.0
  Nb  Nb19  1  0.50623366  0.01246733  0.25000000  1.0
  Nb  Nb20  1  0.49376634  0.50623366  0.75000000  1.0
  Nb  Nb21  1  0.49376634  -0.01246733  0.75000000  1.0
  Nb  Nb22  1  -0.01246733  0.49376634  0.25000000  1.0
  Nb  Nb23  1  0.01246733  0.50623366  0.75000000  1.0
  Nb  Nb24  1  0.00000000  0.00000000  0.25000000  1.0
  Nb  Nb25  1  0.00000000  0.00000000  0.75000000  1.0
