# generated using pymatgen
data_RbBi2SeO3F5
_symmetry_space_group_name_H-M   'P 1'
_cell_length_a   8.93033935
_cell_length_b   10.15456010
_cell_length_c   8.98231512
_cell_angle_alpha   87.97822373
_cell_angle_beta   90.00065355
_cell_angle_gamma   90.00222446
_symmetry_Int_Tables_number   1
_chemical_formula_structural   RbBi2SeO3F5
_chemical_formula_sum   'Rb4 Bi8 Se4 O12 F20'
_cell_volume   814.04221310
_cell_formula_units_Z   4
loop_
 _symmetry_equiv_pos_site_id
 _symmetry_equiv_pos_as_xyz
  1  'x, y, z'
loop_
 _atom_site_type_symbol
 _atom_site_label
 _atom_site_symmetry_multiplicity
 _atom_site_fract_x
 _atom_site_fract_y
 _atom_site_fract_z
 _atom_site_occupancy
  Rb  Rb0  1  -0.74404216  -0.48324428  -0.51572753  1.0
  Rb  Rb1  1  -0.25595784  -0.51675572  -0.48427247  1.0
  Rb  Rb2  1  -0.75594411  -0.48323972  -0.01572875  1.0
  Rb  Rb3  1  -0.24405589  -0.51676028  -0.98427125  1.0
  Bi  Bi4  1  -0.03387553  -0.19321065  -0.27111749  1.0
  Bi  Bi5  1  -0.96612447  -0.80678935  -0.72888251  1.0
  Bi  Bi6  1  -0.46611142  -0.19322988  -0.77112648  1.0
  Bi  Bi7  1  -0.53388858  -0.80677012  -0.22887352  1.0
  Bi  Bi8  1  -0.99256463  -0.75958406  -0.23557251  1.0
  Bi  Bi9  1  -0.00743537  -0.24041594  -0.76442749  1.0
  Bi  Bi10  1  -0.49254903  -0.24042075  -0.26443982  1.0
  Bi  Bi11  1  -0.50745097  -0.75957925  -0.73556018  1.0
  Se  Se12  1  -0.24238674  -0.98069469  -0.52388133  1.0
  Se  Se13  1  -0.75761326  -0.01930531  -0.47611867  1.0
  Se  Se14  1  -0.25762034  -0.98069522  -0.02388759  1.0
  Se  Se15  1  -0.74237966  -0.01930478  -0.97611241  1.0
  O  O16  1  -0.39253399  -0.00949978  -0.63944430  1.0
  O  O17  1  -0.60746601  -0.99050022  -0.36055570  1.0
  O  O18  1  -0.23292777  -0.12801144  -0.42279582  1.0
  O  O19  1  -0.76707223  -0.87198856  -0.57720418  1.0
  O  O20  1  -0.10745912  -0.00950924  -0.13943186  1.0
  O  O21  1  -0.89254088  -0.99049076  -0.86056814  1.0
  O  O22  1  -0.26707241  -0.12800423  -0.92278382  1.0
  O  O23  1  -0.73292759  -0.87199577  -0.07721618  1.0
  O  O24  1  -0.09066051  -0.99779245  -0.64258579  1.0
  O  O25  1  -0.90933949  -0.00220755  -0.35741421  1.0
  O  O26  1  -0.40934480  -0.99779520  -0.14259228  1.0
  O  O27  1  -0.59065520  -0.00220480  -0.85740772  1.0
  F  F28  1  -0.52187125  -0.28425881  -0.00713010  1.0
  F  F29  1  -0.47812875  -0.71574119  -0.99286990  1.0
  F  F30  1  -0.01495597  -0.54863565  -0.23872403  1.0
  F  F31  1  -0.98504403  -0.45136435  -0.76127597  1.0
  F  F32  1  -0.51493671  -0.45138011  -0.26126865  1.0
  F  F33  1  -0.48506329  -0.54861989  -0.73873135  1.0
  F  F34  1  -0.97811995  -0.28427246  -0.50714184  1.0
  F  F35  1  -0.02188005  -0.71572754  -0.49285816  1.0
  F  F36  1  -0.25279069  -0.32173065  -0.72282964  1.0
  F  F37  1  -0.74720931  -0.67826935  -0.27717036  1.0
  F  F38  1  -0.51589273  -0.27644409  -0.51221265  1.0
  F  F39  1  -0.48410727  -0.72355591  -0.48778735  1.0
  F  F40  1  -0.01590716  -0.72355673  -0.98778531  1.0
  F  F41  1  -0.98409284  -0.27644327  -0.01221469  1.0
  F  F42  1  -0.74571459  -0.25624552  -0.26353323  1.0
  F  F43  1  -0.25428541  -0.74375448  -0.73646677  1.0
  F  F44  1  -0.24722572  -0.32172562  -0.22283825  1.0
  F  F45  1  -0.75277428  -0.67827438  -0.77716175  1.0
  F  F46  1  -0.24572962  -0.74374399  -0.23646828  1.0
  F  F47  1  -0.75427038  -0.25625601  -0.76353172  1.0
