# generated using pymatgen
data_Co(NO3)2
_symmetry_space_group_name_H-M   'P 1'
_cell_length_a   7.53271565
_cell_length_b   7.53271565
_cell_length_c   7.53271565
_cell_angle_alpha   90.00000000
_cell_angle_beta   90.00000000
_cell_angle_gamma   90.00000000
_symmetry_Int_Tables_number   1
_chemical_formula_structural   Co(NO3)2
_chemical_formula_sum   'Co4 N8 O24'
_cell_volume   427.41988333
_cell_formula_units_Z   4
loop_
 _symmetry_equiv_pos_site_id
 _symmetry_equiv_pos_as_xyz
  1  'x, y, z'
loop_
 _atom_site_type_symbol
 _atom_site_label
 _atom_site_symmetry_multiplicity
 _atom_site_fract_x
 _atom_site_fract_y
 _atom_site_fract_z
 _atom_site_occupancy
  Co  Co0  1  0.50000000  0.00000000  0.50000000  1.0
  Co  Co1  1  0.50000000  0.50000000  0.00000000  1.0
  Co  Co2  1  0.00000000  0.00000000  0.00000000  1.0
  Co  Co3  1  0.00000000  0.50000000  0.50000000  1.0
  N  N4  1  0.17673549  0.67673549  0.82326451  1.0
  N  N5  1  0.17673549  0.82326451  0.32326451  1.0
  N  N6  1  0.67673549  0.67673549  0.67673549  1.0
  N  N7  1  0.67673549  0.82326451  0.17673549  1.0
  N  N8  1  0.82326451  0.17673549  0.67673549  1.0
  N  N9  1  0.82326451  0.32326451  0.17673549  1.0
  N  N10  1  0.32326451  0.17673549  0.82326451  1.0
  N  N11  1  0.32326451  0.32326451  0.32326451  1.0
  O  O12  1  0.29487770  0.67764282  0.94209828  1.0
  O  O13  1  0.29487770  0.82235718  0.44209828  1.0
  O  O14  1  0.79487770  0.67764282  0.55790172  1.0
  O  O15  1  0.79487770  0.82235718  0.05790172  1.0
  O  O16  1  0.17764282  0.55790172  0.70512230  1.0
  O  O17  1  0.17764282  0.94209828  0.20512230  1.0
  O  O18  1  0.67764282  0.55790172  0.79487770  1.0
  O  O19  1  0.67764282  0.94209828  0.29487770  1.0
  O  O20  1  0.05790172  0.79487770  0.82235718  1.0
  O  O21  1  0.05790172  0.70512230  0.32235718  1.0
  O  O22  1  0.55790172  0.79487770  0.67764282  1.0
  O  O23  1  0.55790172  0.70512230  0.17764282  1.0
  O  O24  1  0.70512230  0.17764282  0.55790172  1.0
  O  O25  1  0.70512230  0.32235718  0.05790172  1.0
  O  O26  1  0.20512230  0.17764282  0.94209828  1.0
  O  O27  1  0.20512230  0.32235718  0.44209828  1.0
  O  O28  1  0.82235718  0.05790172  0.79487770  1.0
  O  O29  1  0.82235718  0.44209828  0.29487770  1.0
  O  O30  1  0.32235718  0.05790172  0.70512230  1.0
  O  O31  1  0.32235718  0.44209828  0.20512230  1.0
  O  O32  1  0.94209828  0.29487770  0.67764282  1.0
  O  O33  1  0.94209828  0.20512230  0.17764282  1.0
  O  O34  1  0.44209828  0.29487770  0.82235718  1.0
  O  O35  1  0.44209828  0.20512230  0.32235718  1.0
