# generated using pymatgen
data_Cd2Hg2Se2O11
_symmetry_space_group_name_H-M   'P 1'
_cell_length_a   8.03569745
_cell_length_b   6.38665104
_cell_length_c   12.01106346
_cell_angle_alpha   90.00000000
_cell_angle_beta   116.81096926
_cell_angle_gamma   90.00000000
_symmetry_Int_Tables_number   1
_chemical_formula_structural   Cd2Hg2Se2O11
_chemical_formula_sum   'Cd4 Hg4 Se4 O22'
_cell_volume   550.15643702
_cell_formula_units_Z   2
loop_
 _symmetry_equiv_pos_site_id
 _symmetry_equiv_pos_as_xyz
  1  'x, y, z'
loop_
 _atom_site_type_symbol
 _atom_site_label
 _atom_site_symmetry_multiplicity
 _atom_site_fract_x
 _atom_site_fract_y
 _atom_site_fract_z
 _atom_site_occupancy
  O  O0  1  0.99056587  0.29384771  0.07199357  1.0
  O  O1  1  0.99056587  0.70615229  0.57199357  1.0
  O  O2  1  0.00943413  0.29384771  0.42800643  1.0
  O  O3  1  0.00943413  0.70615229  0.92800643  1.0
  O  O4  1  0.72874811  0.55968629  0.23510987  1.0
  O  O5  1  0.72874811  0.44031371  0.73510987  1.0
  O  O6  1  0.27125189  0.55968629  0.26489013  1.0
  O  O7  1  0.27125189  0.44031371  0.76489013  1.0
  O  O8  1  0.77060935  0.76563041  0.05642925  1.0
  O  O9  1  0.77060935  0.23436959  0.55642925  1.0
  O  O10  1  0.22939065  0.76563041  0.44357075  1.0
  O  O11  1  0.22939065  0.23436959  0.94357075  1.0
  O  O12  1  0.56942117  0.77055329  0.43954474  1.0
  O  O13  1  0.56942117  0.22944671  0.93954474  1.0
  O  O14  1  0.43057883  0.77055329  0.06045526  1.0
  O  O15  1  0.43057883  0.22944671  0.56045526  1.0
  O  O16  1  0.50000000  0.35998238  0.25000000  1.0
  O  O17  1  0.50000000  0.64001762  0.75000000  1.0
  O  O18  1  0.73436685  -0.00918183  0.23657476  1.0
  O  O19  1  0.73436685  1.00918183  0.73657476  1.0
  O  O20  1  0.26563315  -0.00918183  0.26342524  1.0
  O  O21  1  0.26563315  1.00918183  0.76342524  1.0
  Se  Se22  1  0.66069046  0.78286207  0.14645049  1.0
  Se  Se23  1  0.66069046  0.21713793  0.64645049  1.0
  Se  Se24  1  0.33930954  0.78286207  0.35354951  1.0
  Se  Se25  1  0.33930954  0.21713793  0.85354951  1.0
  Cd  Cd26  1  0.75200925  0.49984164  0.42959051  1.0
  Cd  Cd27  1  0.75200925  0.50015836  0.92959051  1.0
  Cd  Cd28  1  0.24799075  0.49984164  0.07040949  1.0
  Cd  Cd29  1  0.24799075  0.50015836  0.57040949  1.0
  Hg  Hg30  1  -0.00000000  0.27537814  0.25000000  1.0
  Hg  Hg31  1  0.00000000  0.72462186  0.75000000  1.0
  Hg  Hg32  1  -0.00000000  0.00000000  0.50000000  1.0
  Hg  Hg33  1  0.00000000  0.00000000  0.00000000  1.0
