# generated using pymatgen
data_Sc2(SO4)3
_symmetry_space_group_name_H-M   'P 1'
_cell_length_a   9.22194690
_cell_length_b   9.22194690
_cell_length_c   9.22194690
_cell_angle_alpha   57.37196371
_cell_angle_beta   57.37196371
_cell_angle_gamma   57.37196371
_symmetry_Int_Tables_number   1
_chemical_formula_structural   Sc2(SO4)3
_chemical_formula_sum   'Sc4 S6 O24'
_cell_volume   521.02359706
_cell_formula_units_Z   2
loop_
 _symmetry_equiv_pos_site_id
 _symmetry_equiv_pos_as_xyz
  1  'x, y, z'
loop_
 _atom_site_type_symbol
 _atom_site_label
 _atom_site_symmetry_multiplicity
 _atom_site_fract_x
 _atom_site_fract_y
 _atom_site_fract_z
 _atom_site_occupancy
  Sc  Sc0  1  0.14485398  0.14485398  0.14485398  1.0
  Sc  Sc1  1  0.85514602  -0.14485398  -0.14485398  1.0
  Sc  Sc2  1  0.35511660  0.35511660  -0.64488340  1.0
  Sc  Sc3  1  0.64488340  0.64488340  -0.35511660  1.0
  S  S4  1  0.53611067  0.25002651  -0.03618145  1.0
  S  S5  1  1.03618145  -0.53611067  -0.25002651  1.0
  S  S6  1  0.74997349  0.03618145  -0.53611067  1.0
  S  S7  1  0.46388933  -0.25002651  0.03618145  1.0
  S  S8  1  0.96381855  -0.46388933  0.25002651  1.0
  S  S9  1  1.25002651  -0.03618145  -0.46388933  1.0
  O  O10  1  0.23141332  0.99063071  -0.62791513  1.0
  O  O11  1  0.62791513  -0.23141332  0.00936929  1.0
  O  O12  1  1.00936929  -0.37208487  -0.23141332  1.0
  O  O13  1  0.76858668  0.00936929  -0.37208487  1.0
  O  O14  1  0.37208487  0.23141332  -0.00936929  1.0
  O  O15  1  0.99063071  0.37208487  -0.76858668  1.0
  O  O16  1  0.58457797  0.20083397  -0.56452569  1.0
  O  O17  1  0.56452569  0.41542203  -0.20083397  1.0
  O  O18  1  0.79916603  0.56452569  -0.58457797  1.0
  O  O19  1  0.41542203  0.79916603  -0.43547431  1.0
  O  O20  1  0.43547431  0.58457797  -0.79916603  1.0
  O  O21  1  0.20083397  0.43547431  -0.41542203  1.0
  O  O22  1  0.29904811  0.91513365  -0.93504947  1.0
  O  O23  1  0.93504947  -0.29904811  0.08486635  1.0
  O  O24  1  1.08486635  -0.06495053  -0.29904811  1.0
  O  O25  1  0.70095189  0.08486635  -0.06495053  1.0
  O  O26  1  0.06495053  0.29904811  -0.08486635  1.0
  O  O27  1  0.91513365  0.06495053  -0.70095189  1.0
  O  O28  1  0.50934070  0.26839424  0.12797006  1.0
  O  O29  1  0.87202994  -0.50934070  -0.26839424  1.0
  O  O30  1  0.73160576  -0.12797006  -0.50934070  1.0
  O  O31  1  0.49065930  -0.26839424  -0.12797006  1.0
  O  O32  1  1.12797006  -0.49065930  0.26839424  1.0
  O  O33  1  1.26839424  0.12797006  -0.49065930  1.0
