# generated using pymatgen
data_CrAg(PS3)2
_symmetry_space_group_name_H-M   'P 1'
_cell_length_a   7.61568371
_cell_length_b   10.67598519
_cell_length_c   5.97309001
_cell_angle_alpha   90.00000000
_cell_angle_beta   104.40268656
_cell_angle_gamma   90.00000000
_symmetry_Int_Tables_number   1
_chemical_formula_structural   CrAg(PS3)2
_chemical_formula_sum   'Cr2 Ag2 P4 S12'
_cell_volume   470.37865530
_cell_formula_units_Z   2
loop_
 _symmetry_equiv_pos_site_id
 _symmetry_equiv_pos_as_xyz
  1  'x, y, z'
loop_
 _atom_site_type_symbol
 _atom_site_label
 _atom_site_symmetry_multiplicity
 _atom_site_fract_x
 _atom_site_fract_y
 _atom_site_fract_z
 _atom_site_occupancy
  Cr  Cr0  1  0.50000000  0.91772349  0.75000000  1.0
  Cr  Cr1  1  0.50000000  0.08227651  0.25000000  1.0
  Ag  Ag2  1  0.50000000  0.56053546  0.75000000  1.0
  Ag  Ag3  1  0.50000000  0.43946454  0.25000000  1.0
  P  P4  1  0.65048160  0.75559842  0.29195709  1.0
  P  P5  1  0.65048160  0.24440158  0.79195709  1.0
  P  P6  1  0.34951840  0.75559842  0.20804291  1.0
  P  P7  1  0.34951840  0.24440158  0.70804291  1.0
  S  S8  1  0.75396161  0.39350429  0.97598096  1.0
  S  S9  1  0.75396161  0.60649571  0.47598096  1.0
  S  S10  1  0.24603839  0.39350429  0.52401904  1.0
  S  S11  1  0.24603839  0.60649571  0.02401904  1.0
  S  S12  1  0.71077861  0.76844427  0.97699538  1.0
  S  S13  1  0.71077861  0.23155573  0.47699538  1.0
  S  S14  1  0.28922139  0.76844427  0.52300462  1.0
  S  S15  1  0.28922139  0.23155573  0.02300462  1.0
  S  S16  1  0.69686872  0.92621655  0.48355275  1.0
  S  S17  1  0.69686872  0.07378345  0.98355275  1.0
  S  S18  1  0.30313128  0.92621655  0.01644725  1.0
  S  S19  1  0.30313128  0.07378345  0.51644725  1.0
