# generated using pymatgen
data_NbPCl8O
_symmetry_space_group_name_H-M   'P 1'
_cell_length_a   17.13634065
_cell_length_b   8.91548717
_cell_length_c   9.58943759
_cell_angle_alpha   90.00000000
_cell_angle_beta   90.00000000
_cell_angle_gamma   90.00000000
_symmetry_Int_Tables_number   1
_chemical_formula_structural   NbPCl8O
_chemical_formula_sum   'Nb4 P4 Cl32 O4'
_cell_volume   1465.06300856
_cell_formula_units_Z   4
loop_
 _symmetry_equiv_pos_site_id
 _symmetry_equiv_pos_as_xyz
  1  'x, y, z'
loop_
 _atom_site_type_symbol
 _atom_site_label
 _atom_site_symmetry_multiplicity
 _atom_site_fract_x
 _atom_site_fract_y
 _atom_site_fract_z
 _atom_site_occupancy
  Nb  Nb0  1  0.34827752  0.75000000  0.08990704  1.0
  Nb  Nb1  1  0.84827752  0.75000000  0.41009296  1.0
  Nb  Nb2  1  0.65172248  0.25000000  0.91009296  1.0
  Nb  Nb3  1  0.15172248  0.25000000  0.58990704  1.0
  P  P4  1  0.41778840  0.75000000  0.73209190  1.0
  P  P5  1  0.91778840  0.75000000  0.76790810  1.0
  P  P6  1  0.58221160  0.25000000  0.26790810  1.0
  P  P7  1  0.08221160  0.25000000  0.23209190  1.0
  Cl  Cl8  1  0.36726830  0.92856559  0.64591492  1.0
  Cl  Cl9  1  0.36726830  0.57143441  0.64591492  1.0
  Cl  Cl10  1  0.86726830  0.92856559  0.85408508  1.0
  Cl  Cl11  1  0.86726830  0.57143441  0.85408508  1.0
  Cl  Cl12  1  0.63273170  0.42856559  0.35408508  1.0
  Cl  Cl13  1  0.63273170  0.07143441  0.35408508  1.0
  Cl  Cl14  1  0.13273170  0.42856559  0.14591492  1.0
  Cl  Cl15  1  0.13273170  0.07143441  0.14591492  1.0
  Cl  Cl16  1  0.14577872  0.98893053  0.56429384  1.0
  Cl  Cl17  1  0.14577872  0.51106947  0.56429384  1.0
  Cl  Cl18  1  0.64577872  0.98893053  0.93570616  1.0
  Cl  Cl19  1  0.64577872  0.51106947  0.93570616  1.0
  Cl  Cl20  1  0.85422128  0.48893053  0.43570616  1.0
  Cl  Cl21  1  0.85422128  0.01106947  0.43570616  1.0
  Cl  Cl22  1  0.35422128  0.48893053  0.06429384  1.0
  Cl  Cl23  1  0.35422128  0.01106947  0.06429384  1.0
  Cl  Cl24  1  0.47242260  0.75000000  0.19134730  1.0
  Cl  Cl25  1  0.97242260  0.75000000  0.30865270  1.0
  Cl  Cl26  1  0.52757740  0.25000000  0.80865270  1.0
  Cl  Cl27  1  0.02757740  0.25000000  0.69134730  1.0
  Cl  Cl28  1  0.28074828  0.75000000  0.29523359  1.0
  Cl  Cl29  1  0.78074828  0.75000000  0.20476641  1.0
  Cl  Cl30  1  0.71925172  0.25000000  0.70476641  1.0
  Cl  Cl31  1  0.21925172  0.25000000  0.79523359  1.0
  Cl  Cl32  1  0.23382857  0.75000000  0.94906088  1.0
  Cl  Cl33  1  0.73382857  0.75000000  0.55093912  1.0
  Cl  Cl34  1  0.76617143  0.25000000  0.05093912  1.0
  Cl  Cl35  1  0.26617143  0.25000000  0.44906088  1.0
  Cl  Cl36  1  0.02806284  0.75000000  0.83306259  1.0
  Cl  Cl37  1  0.52806284  0.75000000  0.66693741  1.0
  Cl  Cl38  1  0.97193716  0.25000000  0.16693741  1.0
  Cl  Cl39  1  0.47193716  0.25000000  0.33306259  1.0
  O  O40  1  0.41370773  0.75000000  0.88761978  1.0
  O  O41  1  0.91370773  0.75000000  0.61238022  1.0
  O  O42  1  0.58629227  0.25000000  0.11238022  1.0
  O  O43  1  0.08629227  0.25000000  0.38761978  1.0
