# generated using pymatgen
data_H2O
_symmetry_space_group_name_H-M   'P 1'
_cell_length_a   8.29772337
_cell_length_b   8.26127875
_cell_length_c   3.98972491
_cell_angle_alpha   90.00263792
_cell_angle_beta   90.00016369
_cell_angle_gamma   89.99975838
_symmetry_Int_Tables_number   1
_chemical_formula_structural   H2O
_chemical_formula_sum   'H24 O12'
_cell_volume   273.49486761
_cell_formula_units_Z   12
loop_
 _symmetry_equiv_pos_site_id
 _symmetry_equiv_pos_as_xyz
  1  'x, y, z'
loop_
 _atom_site_type_symbol
 _atom_site_label
 _atom_site_symmetry_multiplicity
 _atom_site_fract_x
 _atom_site_fract_y
 _atom_site_fract_z
 _atom_site_occupancy
  H  H0  1  -0.90466280  -0.95791873  -0.13922438  1.0
  H  H1  1  -0.94915544  -0.08649872  -0.85918793  1.0
  H  H2  1  -0.28155191  -0.77547125  -0.29846368  1.0
  H  H3  1  -0.42478157  -0.65850985  -0.23126265  1.0
  H  H4  1  -0.34778111  -0.41918608  -0.77075993  1.0
  H  H5  1  -0.22682501  -0.28099387  -0.69067859  1.0
  H  H6  1  -0.57526014  -0.15847039  -0.01890346  1.0
  H  H7  1  -0.71847704  -0.27546165  -0.95163846  1.0
  H  H8  1  -0.84782327  -0.58078686  -0.97929253  1.0
  H  H9  1  -0.72684660  -0.71894976  -0.05944653  1.0
  H  H10  1  -0.05088715  -0.58646990  -0.39075192  1.0
  H  H11  1  -0.09537399  -0.45786643  -0.11075196  1.0
  H  H12  1  -0.65225921  -0.91918127  -0.47940365  1.0
  H  H13  1  -0.77324101  -0.78102103  -0.55942632  1.0
  H  H14  1  -0.27321759  -0.21891511  -0.19070556  1.0
  H  H15  1  -0.15221719  -0.08078991  -0.27080348  1.0
  H  H16  1  -0.59536396  -0.54209121  -0.63917051  1.0
  H  H17  1  -0.55084831  -0.41351250  -0.35919862  1.0
  H  H18  1  -0.92474112  -0.34147949  -0.51880712  1.0
  H  H19  1  -0.78148262  -0.22453861  -0.45160997  1.0
  H  H20  1  -0.21854425  -0.72455073  -0.79841425  1.0
  H  H21  1  -0.07530043  -0.84151501  -0.73119199  1.0
  H  H22  1  -0.40467344  -0.04203172  -0.61104934  1.0
  H  H23  1  -0.44920046  -0.91346598  -0.89106315  1.0
  O  O24  1  -0.99479273  -0.99816446  -0.99876063  1.0
  O  O25  1  -0.36165022  -0.74655571  -0.12300967  1.0
  O  O26  1  -0.25433240  -0.36087380  -0.86898534  1.0
  O  O27  1  -0.63835799  -0.24657340  -0.12706446  1.0
  O  O28  1  -0.75436272  -0.63909876  -0.88109648  1.0
  O  O29  1  -0.00523596  -0.49814221  -0.25117414  1.0
  O  O30  1  -0.74572443  -0.86090434  -0.38114925  1.0
  O  O31  1  -0.24569174  -0.13906444  -0.36903045  1.0
  O  O32  1  -0.50520886  -0.50185288  -0.49876859  1.0
  O  O33  1  -0.86159630  -0.25344393  -0.62704531  1.0
  O  O34  1  -0.13841343  -0.75343201  -0.62300682  1.0
  O  O35  1  -0.49481762  -0.00181800  -0.75150289  1.0
