# generated using pymatgen
data_MoSBr
_symmetry_space_group_name_H-M   'P 1'
_cell_length_a   7.11230316
_cell_length_b   7.11230316
_cell_length_c   7.11230316
_cell_angle_alpha   60.00000000
_cell_angle_beta   60.00000000
_cell_angle_gamma   60.00000000
_symmetry_Int_Tables_number   1
_chemical_formula_structural   MoSBr
_chemical_formula_sum   'Mo4 S4 Br4'
_cell_volume   254.39922374
_cell_formula_units_Z   4
loop_
 _symmetry_equiv_pos_site_id
 _symmetry_equiv_pos_as_xyz
  1  'x, y, z'
loop_
 _atom_site_type_symbol
 _atom_site_label
 _atom_site_symmetry_multiplicity
 _atom_site_fract_x
 _atom_site_fract_y
 _atom_site_fract_z
 _atom_site_occupancy
  Mo  Mo0  1  -0.34803855  0.65196145  0.65196145  1.0
  Mo  Mo1  1  1.04411565  0.65196145  -0.34803855  1.0
  Mo  Mo2  1  -0.34803855  0.65196145  1.04411565  1.0
  Mo  Mo3  1  0.65196145  1.04411565  -0.34803855  1.0
  S  S4  1  0.88100566  0.88100566  -0.11899434  1.0
  S  S5  1  0.35698301  0.88100566  -0.11899434  1.0
  S  S6  1  0.88100566  0.88100566  -0.64301699  1.0
  S  S7  1  0.88100566  0.35698301  -0.11899434  1.0
  Br  Br8  1  0.37857300  1.37857300  0.37857300  1.0
  Br  Br9  1  -0.13571901  0.37857300  0.37857300  1.0
  Br  Br10  1  0.37857300  1.37857300  -0.13571901  1.0
  Br  Br11  1  0.37857300  -0.13571901  0.37857300  1.0
