# generated using pymatgen
data_HgClO3
_symmetry_space_group_name_H-M   'P 1'
_cell_length_a   8.91243129
_cell_length_b   6.43274163
_cell_length_c   16.21779428
_cell_angle_alpha   90.00000000
_cell_angle_beta   118.05546581
_cell_angle_gamma   90.00000000
_symmetry_Int_Tables_number   1
_chemical_formula_structural   HgClO3
_chemical_formula_sum   'Hg8 Cl8 O24'
_cell_volume   820.53141397
_cell_formula_units_Z   8
loop_
 _symmetry_equiv_pos_site_id
 _symmetry_equiv_pos_as_xyz
  1  'x, y, z'
loop_
 _atom_site_type_symbol
 _atom_site_label
 _atom_site_symmetry_multiplicity
 _atom_site_fract_x
 _atom_site_fract_y
 _atom_site_fract_z
 _atom_site_occupancy
  Hg  Hg0  1  0.68010046  0.30896100  0.18762572  1.0
  Hg  Hg1  1  0.68010046  0.19103900  0.68762572  1.0
  Hg  Hg2  1  0.31989954  0.80896100  0.31237428  1.0
  Hg  Hg3  1  0.31989954  0.69103900  0.81237428  1.0
  Hg  Hg4  1  0.29729058  0.17605660  0.36710089  1.0
  Hg  Hg5  1  0.29729058  0.32394340  0.86710089  1.0
  Hg  Hg6  1  0.70270942  0.67605660  0.13289911  1.0
  Hg  Hg7  1  0.70270942  0.82394340  0.63289911  1.0
  Cl  Cl8  1  0.84356356  0.98192483  0.35331149  1.0
  Cl  Cl9  1  0.84356356  0.51807517  0.85331149  1.0
  Cl  Cl10  1  0.15643644  0.48192483  0.14668851  1.0
  Cl  Cl11  1  0.15643644  0.01807517  0.64668851  1.0
  Cl  Cl12  1  0.75386435  0.48329174  0.49850026  1.0
  Cl  Cl13  1  0.75386435  0.01670826  0.99850026  1.0
  Cl  Cl14  1  0.24613565  0.98329174  0.00149974  1.0
  Cl  Cl15  1  0.24613565  0.51670826  0.50149974  1.0
  O  O16  1  0.94488863  0.17684215  0.36888400  1.0
  O  O17  1  0.94488863  0.32315785  0.86888400  1.0
  O  O18  1  0.05511137  0.67684215  0.13111600  1.0
  O  O19  1  0.05511137  0.82315785  0.63111600  1.0
  O  O20  1  0.92482681  0.80725573  0.32918402  1.0
  O  O21  1  0.92482681  0.69274427  0.82918402  1.0
  O  O22  1  0.07517319  0.30725573  0.17081598  1.0
  O  O23  1  0.07517319  0.19274427  0.67081598  1.0
  O  O24  1  0.73108713  0.98926017  0.09134617  1.0
  O  O25  1  0.73108713  0.51073983  0.59134617  1.0
  O  O26  1  0.26891287  0.48926017  0.40865383  1.0
  O  O27  1  0.26891287  0.01073983  0.90865383  1.0
  O  O28  1  0.66877624  0.02584732  0.26147120  1.0
  O  O29  1  0.66877624  0.47415268  0.76147120  1.0
  O  O30  1  0.33122376  0.52584732  0.23852880  1.0
  O  O31  1  0.33122376  0.97415268  0.73852880  1.0
  O  O32  1  0.66283667  0.28692257  0.45719334  1.0
  O  O33  1  0.66283667  0.21307743  0.95719334  1.0
  O  O34  1  0.33716333  0.78692257  0.04280666  1.0
  O  O35  1  0.33716333  0.71307743  0.54280666  1.0
  O  O36  1  0.33302096  0.16619600  0.06107405  1.0
  O  O37  1  0.33302096  0.33380400  0.56107405  1.0
  O  O38  1  0.66697904  0.66619600  0.43892595  1.0
  O  O39  1  0.66697904  0.83380400  0.93892595  1.0
