# generated using pymatgen
data_Ta3N5
_symmetry_space_group_name_H-M   'P 1'
_cell_length_a   9.40243116
_cell_length_b   6.05662042
_cell_length_c   5.65147277
_cell_angle_alpha   90.00000000
_cell_angle_beta   90.00000000
_cell_angle_gamma   90.00000000
_symmetry_Int_Tables_number   1
_chemical_formula_structural   Ta3N5
_chemical_formula_sum   'Ta12 N20'
_cell_volume   321.83417459
_cell_formula_units_Z   4
loop_
 _symmetry_equiv_pos_site_id
 _symmetry_equiv_pos_as_xyz
  1  'x, y, z'
loop_
 _atom_site_type_symbol
 _atom_site_label
 _atom_site_symmetry_multiplicity
 _atom_site_fract_x
 _atom_site_fract_y
 _atom_site_fract_z
 _atom_site_occupancy
  Ta  Ta0  1  0.32079715  0.49848604  0.50171239  1.0
  Ta  Ta1  1  0.82079715  0.00151396  0.99828761  1.0
  Ta  Ta2  1  0.67920285  0.99848604  0.49828761  1.0
  Ta  Ta3  1  0.17920285  0.50151396  0.00171239  1.0
  Ta  Ta4  1  0.67920285  0.50151396  0.49828761  1.0
  Ta  Ta5  1  0.17920285  0.99848604  0.00171239  1.0
  Ta  Ta6  1  0.32079715  0.00151396  0.50171239  1.0
  Ta  Ta7  1  0.82079715  0.49848604  0.99828761  1.0
  Ta  Ta8  1  0.49968063  0.75000000  0.07536470  1.0
  Ta  Ta9  1  0.99968063  0.75000000  0.42463530  1.0
  Ta  Ta10  1  0.50031937  0.25000000  0.92463530  1.0
  Ta  Ta11  1  0.00031937  0.25000000  0.57536470  1.0
  N  N12  1  0.61104843  0.97240048  0.85162453  1.0
  N  N13  1  0.11104843  0.52759952  0.64837547  1.0
  N  N14  1  0.38895157  0.47240048  0.14837547  1.0
  N  N15  1  0.88895157  0.02759952  0.35162453  1.0
  N  N16  1  0.38895157  0.02759952  0.14837547  1.0
  N  N17  1  0.88895157  0.47240048  0.35162453  1.0
  N  N18  1  0.61104843  0.52759952  0.85162453  1.0
  N  N19  1  0.11104843  0.97240048  0.64837547  1.0
  N  N20  1  0.70793845  0.75000000  0.21023288  1.0
  N  N21  1  0.20793845  0.75000000  0.28976712  1.0
  N  N22  1  0.29206155  0.25000000  0.78976712  1.0
  N  N23  1  0.79206155  0.25000000  0.71023288  1.0
  N  N24  1  0.50025117  0.75000000  0.45473167  1.0
  N  N25  1  1.00025117  0.75000000  0.04526833  1.0
  N  N26  1  0.49974883  0.25000000  0.54526833  1.0
  N  N27  1  -0.00025117  0.25000000  0.95473167  1.0
  N  N28  1  0.31743646  0.75000000  0.80197422  1.0
  N  N29  1  0.81743646  0.75000000  0.69802578  1.0
  N  N30  1  0.68256354  0.25000000  0.19802578  1.0
  N  N31  1  0.18256354  0.25000000  0.30197422  1.0
