# generated using pymatgen
data_Sr2MnGe2S6O
_symmetry_space_group_name_H-M   'P 1'
_cell_length_a   9.60277418
_cell_length_b   9.60277418
_cell_length_c   6.24566667
_cell_angle_alpha   90.00000000
_cell_angle_beta   90.00000000
_cell_angle_gamma   90.00000000
_symmetry_Int_Tables_number   1
_chemical_formula_structural   Sr2MnGe2S6O
_chemical_formula_sum   'Sr4 Mn2 Ge4 S12 O2'
_cell_volume   575.93335960
_cell_formula_units_Z   2
loop_
 _symmetry_equiv_pos_site_id
 _symmetry_equiv_pos_as_xyz
  1  'x, y, z'
loop_
 _atom_site_type_symbol
 _atom_site_label
 _atom_site_symmetry_multiplicity
 _atom_site_fract_x
 _atom_site_fract_y
 _atom_site_fract_z
 _atom_site_occupancy
  Sr  Sr0  1  0.65806143  0.84193857  0.50207656  1.0
  Sr  Sr1  1  0.15806143  0.65806143  0.49792344  1.0
  Sr  Sr2  1  0.34193857  0.15806143  0.50207656  1.0
  Sr  Sr3  1  0.84193857  0.34193857  0.49792344  1.0
  Mn  Mn4  1  0.50000000  0.50000000  0.00000000  1.0
  Mn  Mn5  1  0.00000000  0.00000000  0.00000000  1.0
  Ge  Ge6  1  0.12575525  0.37424475  0.92049679  1.0
  Ge  Ge7  1  0.62575525  0.12575525  0.07950321  1.0
  Ge  Ge8  1  0.87424475  0.62575525  0.92049679  1.0
  Ge  Ge9  1  0.37424475  0.87424475  0.07950321  1.0
  S  S10  1  0.13341903  0.36658097  0.26844139  1.0
  S  S11  1  0.63341903  0.13341903  0.73155861  1.0
  S  S12  1  0.86658097  0.63341903  0.26844139  1.0
  S  S13  1  0.36658097  0.86658097  0.73155861  1.0
  S  S14  1  0.56271329  0.32163517  0.24818412  1.0
  S  S15  1  0.06271329  0.17836483  0.75181588  1.0
  S  S16  1  0.43728671  0.67836483  0.24818412  1.0
  S  S17  1  0.93728671  0.82163517  0.75181588  1.0
  S  S18  1  0.67836483  0.56271329  0.75181588  1.0
  S  S19  1  0.17836483  0.93728671  0.24818412  1.0
  S  S20  1  0.32163517  0.43728671  0.75181588  1.0
  S  S21  1  0.82163517  0.06271329  0.24818412  1.0
  O  O22  1  0.50000000  0.00000000  0.20119644  1.0
  O  O23  1  0.00000000  0.50000000  0.79880356  1.0
