# generated using pymatgen
data_FeP2PbO7
_symmetry_space_group_name_H-M   'P 1'
_cell_length_a   5.48131247
_cell_length_b   8.38721609
_cell_length_c   14.05954834
_cell_angle_alpha   90.00000000
_cell_angle_beta   111.88349353
_cell_angle_gamma   90.00000000
_symmetry_Int_Tables_number   1
_chemical_formula_structural   FeP2PbO7
_chemical_formula_sum   'Fe4 P8 Pb4 O28'
_cell_volume   599.78468955
_cell_formula_units_Z   4
loop_
 _symmetry_equiv_pos_site_id
 _symmetry_equiv_pos_as_xyz
  1  'x, y, z'
loop_
 _atom_site_type_symbol
 _atom_site_label
 _atom_site_symmetry_multiplicity
 _atom_site_fract_x
 _atom_site_fract_y
 _atom_site_fract_z
 _atom_site_occupancy
  Fe  Fe0  1  0.92289867  0.65081718  0.10338739  1.0
  Fe  Fe1  1  0.92289867  0.84918282  0.60338739  1.0
  Fe  Fe2  1  0.07710133  0.15081718  0.39661261  1.0
  Fe  Fe3  1  0.07710133  0.34918282  0.89661261  1.0
  P  P4  1  0.70567950  0.30025138  0.01800802  1.0
  P  P5  1  0.70567950  0.19974862  0.51800802  1.0
  P  P6  1  0.29432050  0.80025138  0.48199198  1.0
  P  P7  1  0.29432050  0.69974862  0.98199198  1.0
  P  P8  1  0.91599100  0.03716593  0.16505162  1.0
  P  P9  1  0.91599100  0.46283407  0.66505162  1.0
  P  P10  1  0.08400900  0.53716593  0.33494838  1.0
  P  P11  1  0.08400900  0.96283407  0.83494838  1.0
  Pb  Pb12  1  0.43537431  0.32310088  0.22207331  1.0
  Pb  Pb13  1  0.43537431  0.17689912  0.72207331  1.0
  Pb  Pb14  1  0.56462569  0.82310088  0.27792669  1.0
  Pb  Pb15  1  0.56462569  0.67689912  0.77792669  1.0
  O  O16  1  0.71053280  0.18939277  0.40903630  1.0
  O  O17  1  0.71053280  0.31060723  0.90903630  1.0
  O  O18  1  0.28946720  0.68939277  0.09096370  1.0
  O  O19  1  0.28946720  0.81060723  0.59096370  1.0
  O  O20  1  0.21529003  0.05887063  0.20194394  1.0
  O  O21  1  0.21529003  0.44112937  0.70194394  1.0
  O  O22  1  0.78470997  0.55887063  0.29805606  1.0
  O  O23  1  0.78470997  0.94112937  0.79805606  1.0
  O  O24  1  0.91933213  0.40722899  0.09543805  1.0
  O  O25  1  0.91933213  0.09277101  0.59543805  1.0
  O  O26  1  0.08066787  0.90722899  0.40456195  1.0
  O  O27  1  0.08066787  0.59277101  0.90456195  1.0
  O  O28  1  0.78800140  0.11592077  0.05175858  1.0
  O  O29  1  0.78800140  0.38407923  0.55175858  1.0
  O  O30  1  0.21199860  0.61592077  0.44824142  1.0
  O  O31  1  0.21199860  0.88407923  0.94824142  1.0
  O  O32  1  0.16829697  0.36083724  0.34842404  1.0
  O  O33  1  0.16829697  0.13916276  0.84842404  1.0
  O  O34  1  0.83170303  0.86083724  0.15157596  1.0
  O  O35  1  0.83170303  0.63916276  0.65157596  1.0
  O  O36  1  0.43373462  0.32790943  0.02392479  1.0
  O  O37  1  0.43373462  0.17209057  0.52392479  1.0
  O  O38  1  0.56626538  0.82790943  0.47607521  1.0
  O  O39  1  0.56626538  0.67209057  0.97607521  1.0
  O  O40  1  0.79467447  0.11984981  0.23557683  1.0
  O  O41  1  0.79467447  0.38015019  0.73557683  1.0
  O  O42  1  0.20532553  0.61984981  0.26442317  1.0
  O  O43  1  0.20532553  0.88015019  0.76442317  1.0
