# generated using pymatgen
data_Ca3NbO6
_symmetry_space_group_name_H-M   'P 1'
_cell_length_a   5.66092820
_cell_length_b   5.92705850
_cell_length_c   9.83342768
_cell_angle_alpha   90.00000000
_cell_angle_beta   124.72562476
_cell_angle_gamma   90.00000000
_symmetry_Int_Tables_number   1
_chemical_formula_structural   Ca3NbO6
_chemical_formula_sum   'Ca6 Nb2 O12'
_cell_volume   271.17218737
_cell_formula_units_Z   2
loop_
 _symmetry_equiv_pos_site_id
 _symmetry_equiv_pos_as_xyz
  1  'x, y, z'
loop_
 _atom_site_type_symbol
 _atom_site_label
 _atom_site_symmetry_multiplicity
 _atom_site_fract_x
 _atom_site_fract_y
 _atom_site_fract_z
 _atom_site_occupancy
  Ca  Ca0  1  0.71804112  0.05845624  0.24117528  1.0
  Ca  Ca1  1  0.71804112  0.44154376  0.74117528  1.0
  Ca  Ca2  1  0.28195888  0.55845624  0.25882472  1.0
  Ca  Ca3  1  0.28195888  0.94154376  0.75882472  1.0
  Ca  Ca4  1  0.50000000  0.50000000  0.00000000  1.0
  Ca  Ca5  1  0.50000000  -0.00000000  0.50000000  1.0
  Nb  Nb6  1  0.00000000  0.50000000  0.50000000  1.0
  Nb  Nb7  1  0.00000000  0.00000000  0.00000000  1.0
  O  O8  1  0.74101833  0.77436138  0.41838849  1.0
  O  O9  1  0.74101833  0.72563862  0.91838849  1.0
  O  O10  1  0.25898167  0.27436138  0.08161151  1.0
  O  O11  1  0.25898167  0.22563862  0.58161151  1.0
  O  O12  1  0.66042839  0.31453298  0.44128015  1.0
  O  O13  1  0.66042839  0.18546702  0.94128015  1.0
  O  O14  1  0.33957161  0.81453298  0.05871985  1.0
  O  O15  1  0.33957161  0.68546702  0.55871985  1.0
  O  O16  1  0.90465852  0.43842071  0.27393572  1.0
  O  O17  1  0.90465852  0.06157929  0.77393572  1.0
  O  O18  1  0.09534148  0.93842071  0.22606428  1.0
  O  O19  1  0.09534148  0.56157929  0.72606428  1.0
