# generated using pymatgen
data_ZrGa2Fe
_symmetry_space_group_name_H-M   'P 1'
_cell_length_a   9.98538962
_cell_length_b   8.43024112
_cell_length_c   9.02126900
_cell_angle_alpha   90.00000000
_cell_angle_beta   90.00000000
_cell_angle_gamma   90.00000000
_symmetry_Int_Tables_number   1
_chemical_formula_structural   ZrGa2Fe
_chemical_formula_sum   'Zr12 Ga24 Fe12'
_cell_volume   759.40358736
_cell_formula_units_Z   12
loop_
 _symmetry_equiv_pos_site_id
 _symmetry_equiv_pos_as_xyz
  1  'x, y, z'
loop_
 _atom_site_type_symbol
 _atom_site_label
 _atom_site_symmetry_multiplicity
 _atom_site_fract_x
 _atom_site_fract_y
 _atom_site_fract_z
 _atom_site_occupancy
  Zr  Zr0  1  0.45442354  0.97629310  0.82959765  1.0
  Zr  Zr1  1  0.45442354  0.52370690  0.82959765  1.0
  Zr  Zr2  1  0.95442354  0.97629310  0.67040235  1.0
  Zr  Zr3  1  0.95442354  0.52370690  0.67040235  1.0
  Zr  Zr4  1  0.54557646  0.47629310  0.17040235  1.0
  Zr  Zr5  1  0.54557646  0.02370690  0.17040235  1.0
  Zr  Zr6  1  0.04557646  0.47629310  0.32959765  1.0
  Zr  Zr7  1  0.04557646  0.02370690  0.32959765  1.0
  Zr  Zr8  1  0.18082484  0.75000000  0.83821046  1.0
  Zr  Zr9  1  0.68082484  0.75000000  0.66178954  1.0
  Zr  Zr10  1  0.81917516  0.25000000  0.16178954  1.0
  Zr  Zr11  1  0.31917516  0.25000000  0.33821046  1.0
  Ga  Ga12  1  0.18349267  0.41927102  0.83089811  1.0
  Ga  Ga13  1  0.18349267  0.08072898  0.83089811  1.0
  Ga  Ga14  1  0.68349267  0.41927102  0.66910189  1.0
  Ga  Ga15  1  0.68349267  0.08072898  0.66910189  1.0
  Ga  Ga16  1  0.81650733  0.91927102  0.16910189  1.0
  Ga  Ga17  1  0.81650733  0.58072898  0.16910189  1.0
  Ga  Ga18  1  0.31650733  0.91927102  0.33089811  1.0
  Ga  Ga19  1  0.31650733  0.58072898  0.33089811  1.0
  Ga  Ga20  1  0.39542191  0.75000000  0.61106947  1.0
  Ga  Ga21  1  0.89542191  0.75000000  0.88893053  1.0
  Ga  Ga22  1  0.60457809  0.25000000  0.38893053  1.0
  Ga  Ga23  1  0.10457809  0.25000000  0.11106947  1.0
  Ga  Ga24  1  0.37921934  0.75000000  0.06507017  1.0
  Ga  Ga25  1  0.87921934  0.75000000  0.43492983  1.0
  Ga  Ga26  1  0.62078066  0.25000000  0.93492983  1.0
  Ga  Ga27  1  0.12078066  0.25000000  0.56507017  1.0
  Ga  Ga28  1  0.13168913  0.75000000  0.52113480  1.0
  Ga  Ga29  1  0.63168913  0.75000000  0.97886520  1.0
  Ga  Ga30  1  0.86831087  0.25000000  0.47886520  1.0
  Ga  Ga31  1  0.36831087  0.25000000  0.02113480  1.0
  Ga  Ga32  1  0.09466285  0.75000000  0.13919651  1.0
  Ga  Ga33  1  0.59466285  0.75000000  0.36080349  1.0
  Ga  Ga34  1  0.90533715  0.25000000  0.86080349  1.0
  Ga  Ga35  1  0.40533715  0.25000000  0.63919651  1.0
  Fe  Fe36  1  0.25488205  0.00175145  0.58277293  1.0
  Fe  Fe37  1  0.25488205  0.49824855  0.58277293  1.0
  Fe  Fe38  1  0.75488205  0.00175145  0.91722707  1.0
  Fe  Fe39  1  0.75488205  0.49824855  0.91722707  1.0
  Fe  Fe40  1  0.74511795  0.50175145  0.41722707  1.0
  Fe  Fe41  1  0.74511795  -0.00175145  0.41722707  1.0
  Fe  Fe42  1  0.24511795  0.50175145  0.08277293  1.0
  Fe  Fe43  1  0.24511795  -0.00175145  0.08277293  1.0
  Fe  Fe44  1  0.50000000  0.00000000  0.50000000  1.0
  Fe  Fe45  1  0.50000000  0.50000000  0.50000000  1.0
  Fe  Fe46  1  0.00000000  0.00000000  0.00000000  1.0
  Fe  Fe47  1  0.00000000  0.50000000  0.00000000  1.0
