# generated using pymatgen
data_BaAg2SnSe4
_symmetry_space_group_name_H-M   'P 1'
_cell_length_a   6.77655450
_cell_length_b   6.77655450
_cell_length_c   6.77655450
_cell_angle_alpha   116.22304536
_cell_angle_beta   110.88457316
_cell_angle_gamma   101.63327814
_symmetry_Int_Tables_number   1
_chemical_formula_structural   BaAg2SnSe4
_chemical_formula_sum   'Ba1 Ag2 Sn1 Se4'
_cell_volume   235.66068692
_cell_formula_units_Z   1
loop_
 _symmetry_equiv_pos_site_id
 _symmetry_equiv_pos_as_xyz
  1  'x, y, z'
loop_
 _atom_site_type_symbol
 _atom_site_label
 _atom_site_symmetry_multiplicity
 _atom_site_fract_x
 _atom_site_fract_y
 _atom_site_fract_z
 _atom_site_occupancy
  Ba  Ba0  1  0.50000000  0.50000000  -0.00000000  1.0
  Ag  Ag1  1  0.82156447  1.32156447  0.50000000  1.0
  Ag  Ag2  1  1.17843553  0.67843553  0.50000000  1.0
  Sn  Sn3  1  0.00000000  0.00000000  0.00000000  1.0
  Se  Se4  1  0.98243495  0.96871334  0.60071376  1.0
  Se  Se5  1  1.01756505  1.61827880  0.98627838  1.0
  Se  Se6  1  0.63200042  1.03128666  1.01372162  1.0
  Se  Se7  1  0.36799958  0.38172120  0.39928624  1.0
