# generated using pymatgen
data_Nb(SeI)2
_symmetry_space_group_name_H-M   'P 1'
_cell_length_a   7.08505530
_cell_length_b   7.08505530
_cell_length_c   8.25094670
_cell_angle_alpha   79.78605877
_cell_angle_beta   100.21394123
_cell_angle_gamma   61.67852475
_symmetry_Int_Tables_number   1
_chemical_formula_structural   Nb(SeI)2
_chemical_formula_sum   'Nb2 Se4 I4'
_cell_volume   342.09566583
_cell_formula_units_Z   2
loop_
 _symmetry_equiv_pos_site_id
 _symmetry_equiv_pos_as_xyz
  1  'x, y, z'
loop_
 _atom_site_type_symbol
 _atom_site_label
 _atom_site_symmetry_multiplicity
 _atom_site_fract_x
 _atom_site_fract_y
 _atom_site_fract_z
 _atom_site_occupancy
  Nb  Nb0  1  0.87837034  -0.12162966  -0.00000000  1.0
  Nb  Nb1  1  0.12162966  0.12162966  0.00000000  1.0
  Se  Se2  1  0.68225665  -0.68225665  0.88799289  1.0
  Se  Se3  1  0.31774335  -0.31774335  0.11200711  1.0
  Se  Se4  1  0.87598903  -0.87598903  0.71670697  1.0
  Se  Se5  1  0.12401097  -0.12401097  0.28329303  1.0
  I  I6  1  0.43426672  -0.02561374  0.78547951  1.0
  I  I7  1  1.02561374  -0.43426672  0.78547951  1.0
  I  I8  1  0.97438626  -0.56573328  0.21452049  1.0
  I  I9  1  0.56573328  0.02561374  0.21452049  1.0
