# generated using pymatgen
data_LuMn2SiC
_symmetry_space_group_name_H-M   'P 1'
_cell_length_a   5.56098708
_cell_length_b   5.56098708
_cell_length_c   6.95419500
_cell_angle_alpha   90.00000000
_cell_angle_beta   90.00000000
_cell_angle_gamma   141.95972378
_symmetry_Int_Tables_number   1
_chemical_formula_structural   LuMn2SiC
_chemical_formula_sum   'Lu2 Mn4 Si2 C2'
_cell_volume   132.52050559
_cell_formula_units_Z   2
loop_
 _symmetry_equiv_pos_site_id
 _symmetry_equiv_pos_as_xyz
  1  'x, y, z'
loop_
 _atom_site_type_symbol
 _atom_site_label
 _atom_site_symmetry_multiplicity
 _atom_site_fract_x
 _atom_site_fract_y
 _atom_site_fract_z
 _atom_site_occupancy
  Lu  Lu0  1  0.45825818  0.54174182  0.75000000  1.0
  Lu  Lu1  1  -0.45825818  0.45825818  0.25000000  1.0
  Mn  Mn2  1  0.16782906  0.83217094  0.93921618  1.0
  Mn  Mn3  1  0.16782906  0.83217094  0.56078382  1.0
  Mn  Mn4  1  -0.16782906  0.16782906  0.43921618  1.0
  Mn  Mn5  1  -0.16782906  0.16782906  0.06078382  1.0
  Si  Si6  1  -0.26261619  0.26261619  0.75000000  1.0
  Si  Si7  1  0.26261619  0.73738381  0.25000000  1.0
  C  C8  1  0.00000000  0.00000000  0.00000000  1.0
  C  C9  1  0.00000000  0.00000000  0.50000000  1.0
