# generated using pymatgen
data_Ba5Al2In2IrClO13
_symmetry_space_group_name_H-M   'P 1'
_cell_length_a   5.93224466
_cell_length_b   5.93224466
_cell_length_c   25.52090728
_cell_angle_alpha   90.00000000
_cell_angle_beta   90.00000000
_cell_angle_gamma   120.00000000
_symmetry_Int_Tables_number   1
_chemical_formula_structural   Ba5Al2In2IrClO13
_chemical_formula_sum   'Ba10 Al4 In4 Ir2 Cl2 O26'
_cell_volume   777.79446751
_cell_formula_units_Z   2
loop_
 _symmetry_equiv_pos_site_id
 _symmetry_equiv_pos_as_xyz
  1  'x, y, z'
loop_
 _atom_site_type_symbol
 _atom_site_label
 _atom_site_symmetry_multiplicity
 _atom_site_fract_x
 _atom_site_fract_y
 _atom_site_fract_z
 _atom_site_occupancy
  Cl  Cl0  1  0.33333333  0.66666667  0.75000000  1.0
  Cl  Cl1  1  0.66666667  0.33333333  0.25000000  1.0
  Al  Al2  1  0.33333333  0.66666667  0.31814332  1.0
  Al  Al3  1  0.33333333  0.66666667  0.18185668  1.0
  Al  Al4  1  0.66666667  0.33333333  0.81814332  1.0
  Al  Al5  1  0.66666667  0.33333333  0.68185668  1.0
  Ir  Ir6  1  -0.00000000  0.00000000  0.50000000  1.0
  Ir  Ir7  1  -0.00000000  -0.00000000  0.00000000  1.0
  In  In8  1  0.00000000  0.00000000  0.38775505  1.0
  In  In9  1  0.00000000  0.00000000  0.11224495  1.0
  In  In10  1  -0.00000000  -0.00000000  0.88775505  1.0
  In  In11  1  -0.00000000  -0.00000000  0.61224495  1.0
  O  O12  1  0.17302293  0.82697707  0.34432229  1.0
  O  O13  1  0.17302293  0.82697707  0.15567771  1.0
  O  O14  1  0.17302293  0.34604587  0.34432229  1.0
  O  O15  1  0.17302293  0.34604587  0.15567771  1.0
  O  O16  1  0.82697707  0.17302293  0.84432229  1.0
  O  O17  1  0.82697707  0.17302293  0.65567771  1.0
  O  O18  1  0.82697707  0.65395413  0.84432229  1.0
  O  O19  1  0.82697707  0.65395413  0.65567771  1.0
  O  O20  1  0.65395413  0.82697707  0.34432229  1.0
  O  O21  1  0.65395413  0.82697707  0.15567771  1.0
  O  O22  1  0.34604587  0.17302293  0.84432229  1.0
  O  O23  1  0.34604587  0.17302293  0.65567771  1.0
  O  O24  1  0.33333333  0.66666667  0.25000000  1.0
  O  O25  1  0.66666667  0.33333333  0.75000000  1.0
  O  O26  1  0.15478234  0.84521766  0.95263955  1.0
  O  O27  1  0.15478234  0.84521766  0.54736045  1.0
  O  O28  1  0.15478234  0.30956469  0.95263955  1.0
  O  O29  1  0.15478234  0.30956469  0.54736045  1.0
  O  O30  1  0.84521766  0.15478234  0.45263955  1.0
  O  O31  1  0.84521766  0.15478234  0.04736045  1.0
  O  O32  1  0.84521766  0.69043531  0.45263955  1.0
  O  O33  1  0.84521766  0.69043531  0.04736045  1.0
  O  O34  1  0.69043531  0.84521766  0.95263955  1.0
  O  O35  1  0.69043531  0.84521766  0.54736045  1.0
  O  O36  1  0.30956469  0.15478234  0.45263955  1.0
  O  O37  1  0.30956469  0.15478234  0.04736045  1.0
  Ba  Ba38  1  0.33333333  0.66666667  0.46085425  1.0
  Ba  Ba39  1  0.33333333  0.66666667  0.03914575  1.0
  Ba  Ba40  1  0.66666667  0.33333333  0.96085425  1.0
  Ba  Ba41  1  0.66666667  0.33333333  0.53914575  1.0
  Ba  Ba42  1  0.33333333  0.66666667  0.86851361  1.0
  Ba  Ba43  1  0.33333333  0.66666667  0.63148639  1.0
  Ba  Ba44  1  0.66666667  0.33333333  0.36851361  1.0
  Ba  Ba45  1  0.66666667  0.33333333  0.13148639  1.0
  Ba  Ba46  1  -0.00000000  -0.00000000  0.25000000  1.0
  Ba  Ba47  1  0.00000000  0.00000000  0.75000000  1.0
