# generated using pymatgen
data_Cs3TaS4
_symmetry_space_group_name_H-M   'P 1'
_cell_length_a   10.04780942
_cell_length_b   11.79312191
_cell_length_c   10.17488476
_cell_angle_alpha   90.00000000
_cell_angle_beta   90.00000000
_cell_angle_gamma   90.00000000
_symmetry_Int_Tables_number   1
_chemical_formula_structural   Cs3TaS4
_chemical_formula_sum   'Cs12 Ta4 S16'
_cell_volume   1205.67339059
_cell_formula_units_Z   4
loop_
 _symmetry_equiv_pos_site_id
 _symmetry_equiv_pos_as_xyz
  1  'x, y, z'
loop_
 _atom_site_type_symbol
 _atom_site_label
 _atom_site_symmetry_multiplicity
 _atom_site_fract_x
 _atom_site_fract_y
 _atom_site_fract_z
 _atom_site_occupancy
  Cs  Cs0  1  0.44959955  0.45825663  0.78927583  1.0
  Cs  Cs1  1  0.44959955  0.04174337  0.78927583  1.0
  Cs  Cs2  1  0.94959955  0.45825663  0.71072417  1.0
  Cs  Cs3  1  0.94959955  0.04174337  0.71072417  1.0
  Cs  Cs4  1  0.55040045  0.95825663  0.21072417  1.0
  Cs  Cs5  1  0.55040045  0.54174337  0.21072417  1.0
  Cs  Cs6  1  0.05040045  0.95825663  0.28927583  1.0
  Cs  Cs7  1  0.05040045  0.54174337  0.28927583  1.0
  Cs  Cs8  1  0.14557748  0.25000000  0.07947359  1.0
  Cs  Cs9  1  0.64557748  0.25000000  0.42052641  1.0
  Cs  Cs10  1  0.85442252  0.75000000  0.92052641  1.0
  Cs  Cs11  1  0.35442252  0.75000000  0.57947359  1.0
  Ta  Ta12  1  0.22124910  0.25000000  0.51480876  1.0
  Ta  Ta13  1  0.72124910  0.25000000  0.98519124  1.0
  Ta  Ta14  1  0.77875090  0.75000000  0.48519124  1.0
  Ta  Ta15  1  0.27875090  0.75000000  0.01480876  1.0
  S  S16  1  0.16766673  0.91013444  0.95162641  1.0
  S  S17  1  0.16766673  0.58986556  0.95162641  1.0
  S  S18  1  0.66766673  0.91013444  0.54837359  1.0
  S  S19  1  0.66766673  0.58986556  0.54837359  1.0
  S  S20  1  0.83233327  0.41013444  0.04837359  1.0
  S  S21  1  0.83233327  0.08986556  0.04837359  1.0
  S  S22  1  0.33233327  0.41013444  0.45162641  1.0
  S  S23  1  0.33233327  0.08986556  0.45162641  1.0
  S  S24  1  0.51174503  0.25000000  0.07426188  1.0
  S  S25  1  0.01174503  0.25000000  0.42573812  1.0
  S  S26  1  0.48825497  0.75000000  0.92573812  1.0
  S  S27  1  0.98825497  0.75000000  0.57426188  1.0
  S  S28  1  0.20426725  0.25000000  0.73930871  1.0
  S  S29  1  0.70426725  0.25000000  0.76069129  1.0
  S  S30  1  0.79573275  0.75000000  0.26069129  1.0
  S  S31  1  0.29573275  0.75000000  0.23930871  1.0
