# generated using pymatgen
data_K2CaP2O7
_symmetry_space_group_name_H-M   'P 1'
_cell_length_a   9.91097786
_cell_length_b   5.75629976
_cell_length_c   14.43775710
_cell_angle_alpha   90.00000000
_cell_angle_beta   117.36301094
_cell_angle_gamma   90.00000000
_symmetry_Int_Tables_number   1
_chemical_formula_structural   K2CaP2O7
_chemical_formula_sum   'K8 Ca4 P8 O28'
_cell_volume   731.52221894
_cell_formula_units_Z   4
loop_
 _symmetry_equiv_pos_site_id
 _symmetry_equiv_pos_as_xyz
  1  'x, y, z'
loop_
 _atom_site_type_symbol
 _atom_site_label
 _atom_site_symmetry_multiplicity
 _atom_site_fract_x
 _atom_site_fract_y
 _atom_site_fract_z
 _atom_site_occupancy
  K  K0  1  0.96577634  0.73464919  0.32199527  1.0
  K  K1  1  0.96577634  0.76535081  0.82199527  1.0
  K  K2  1  0.03422366  0.23464919  0.17800473  1.0
  K  K3  1  0.03422366  0.26535081  0.67800473  1.0
  K  K4  1  0.49186771  0.23740870  0.36597029  1.0
  K  K5  1  0.49186771  0.26259130  0.86597029  1.0
  K  K6  1  0.50813229  0.73740870  0.13402971  1.0
  K  K7  1  0.50813229  0.76259130  0.63402971  1.0
  Ca  Ca8  1  0.23172867  0.26002181  0.48085265  1.0
  Ca  Ca9  1  0.23172867  0.23997819  0.98085265  1.0
  Ca  Ca10  1  0.76827133  0.76002181  0.01914735  1.0
  Ca  Ca11  1  0.76827133  0.73997819  0.51914735  1.0
  P  P12  1  0.82218298  0.22404758  0.37442433  1.0
  P  P13  1  0.82218298  0.27595242  0.87442433  1.0
  P  P14  1  0.17781702  0.72404758  0.12557567  1.0
  P  P15  1  0.17781702  0.77595242  0.62557567  1.0
  P  P16  1  0.67099582  0.24449663  0.14186124  1.0
  P  P17  1  0.67099582  0.25550337  0.64186124  1.0
  P  P18  1  0.32900418  0.74449663  0.35813876  1.0
  P  P19  1  0.32900418  0.75550337  0.85813876  1.0
  O  O20  1  0.97030680  0.24627032  0.36568572  1.0
  O  O21  1  0.97030680  0.25372968  0.86568572  1.0
  O  O22  1  0.02969320  0.74627032  0.13431428  1.0
  O  O23  1  0.02969320  0.75372968  0.63431428  1.0
  O  O24  1  0.80184996  0.40366876  0.44520248  1.0
  O  O25  1  0.80184996  0.09633124  0.94520248  1.0
  O  O26  1  0.19815004  0.90366876  0.05479752  1.0
  O  O27  1  0.19815004  0.59633124  0.55479752  1.0
  O  O28  1  0.78734929  0.97460065  0.39506580  1.0
  O  O29  1  0.78734929  0.52539935  0.89506580  1.0
  O  O30  1  0.21265071  0.47460065  0.10493420  1.0
  O  O31  1  0.21265071  0.02539935  0.60493420  1.0
  O  O32  1  0.74930094  0.01102799  0.14642731  1.0
  O  O33  1  0.74930094  0.48897201  0.64642731  1.0
  O  O34  1  0.25069906  0.51102799  0.35357269  1.0
  O  O35  1  0.25069906  0.98897201  0.85357269  1.0
  O  O36  1  0.75029552  0.45496644  0.12262701  1.0
  O  O37  1  0.75029552  0.04503356  0.62262701  1.0
  O  O38  1  0.24970448  0.95496644  0.37737299  1.0
  O  O39  1  0.24970448  0.54503356  0.87737299  1.0
  O  O40  1  0.68015099  0.29132617  0.25793577  1.0
  O  O41  1  0.68015099  0.20867383  0.75793577  1.0
  O  O42  1  0.31984901  0.79132617  0.24206423  1.0
  O  O43  1  0.31984901  0.70867383  0.74206423  1.0
  O  O44  1  0.49879370  0.24006605  0.07012896  1.0
  O  O45  1  0.49879370  0.25993395  0.57012896  1.0
  O  O46  1  0.50120630  0.74006605  0.42987104  1.0
  O  O47  1  0.50120630  0.75993395  0.92987104  1.0
