# generated using pymatgen
data_GdOF
_symmetry_space_group_name_H-M   'P 1'
_cell_length_a   6.88242151
_cell_length_b   6.88242151
_cell_length_c   6.88242151
_cell_angle_alpha   32.87586721
_cell_angle_beta   32.87586721
_cell_angle_gamma   32.87586721
_symmetry_Int_Tables_number   1
_chemical_formula_structural   GdOF
_chemical_formula_sum   'Gd2 O2 F2'
_cell_volume   85.46680532
_cell_formula_units_Z   2
loop_
 _symmetry_equiv_pos_site_id
 _symmetry_equiv_pos_as_xyz
  1  'x, y, z'
loop_
 _atom_site_type_symbol
 _atom_site_label
 _atom_site_symmetry_multiplicity
 _atom_site_fract_x
 _atom_site_fract_y
 _atom_site_fract_z
 _atom_site_occupancy
  Gd  Gd0  1  0.75913641  0.75913641  0.75913641  1.0
  Gd  Gd1  1  1.24086359  1.24086359  0.24086359  1.0
  O  O2  1  0.87762859  0.87762859  0.87762859  1.0
  O  O3  1  1.12237141  1.12237141  0.12237141  1.0
  F  F4  1  1.62957222  0.62957222  0.62957222  1.0
  F  F5  1  1.37042778  0.37042778  0.37042778  1.0
