# generated using pymatgen
data_NaGa(H2N)4
_symmetry_space_group_name_H-M   'P 1'
_cell_length_a   7.43808216
_cell_length_b   6.31139931
_cell_length_c   13.39669228
_cell_angle_alpha   90.00000000
_cell_angle_beta   95.24591400
_cell_angle_gamma   90.00000000
_symmetry_Int_Tables_number   1
_chemical_formula_structural   NaGa(H2N)4
_chemical_formula_sum   'Na4 Ga4 H32 N16'
_cell_volume   626.26959347
_cell_formula_units_Z   4
loop_
 _symmetry_equiv_pos_site_id
 _symmetry_equiv_pos_as_xyz
  1  'x, y, z'
loop_
 _atom_site_type_symbol
 _atom_site_label
 _atom_site_symmetry_multiplicity
 _atom_site_fract_x
 _atom_site_fract_y
 _atom_site_fract_z
 _atom_site_occupancy
  Na  Na0  1  0.26752418  0.14008729  0.31381238  1.0
  Na  Na1  1  0.26752418  0.35991271  0.81381238  1.0
  Na  Na2  1  0.73247582  0.64008729  0.18618762  1.0
  Na  Na3  1  0.73247582  0.85991271  0.68618762  1.0
  Ga  Ga4  1  0.75768428  0.14193278  0.34286032  1.0
  Ga  Ga5  1  0.75768428  0.35806722  0.84286032  1.0
  Ga  Ga6  1  0.24231572  0.64193278  0.15713968  1.0
  Ga  Ga7  1  0.24231572  0.85806722  0.65713968  1.0
  H  H8  1  0.01228322  0.91619804  0.10985636  1.0
  H  H9  1  0.01228322  0.58380196  0.60985636  1.0
  H  H10  1  0.98771678  0.41619804  0.39014364  1.0
  H  H11  1  0.98771678  0.08380196  0.89014364  1.0
  H  H12  1  0.97613874  0.71435416  0.03619431  1.0
  H  H13  1  0.97613874  0.78564584  0.53619431  1.0
  H  H14  1  0.02386126  0.21435416  0.46380569  1.0
  H  H15  1  0.02386126  0.28564584  0.96380569  1.0
  H  H16  1  0.91203741  0.79657354  0.35840227  1.0
  H  H17  1  0.91203741  0.70342646  0.85840227  1.0
  H  H18  1  0.08796259  0.29657354  0.14159773  1.0
  H  H19  1  0.08796259  0.20342646  0.64159773  1.0
  H  H20  1  0.76217888  0.16396720  0.15710149  1.0
  H  H21  1  0.76217888  0.33603280  0.65710149  1.0
  H  H22  1  0.23782112  0.66396720  0.34289851  1.0
  H  H23  1  0.23782112  0.83603280  0.84289851  1.0
  H  H24  1  0.72522280  0.77735634  0.41168786  1.0
  H  H25  1  0.72522280  0.72264366  0.91168786  1.0
  H  H26  1  0.27477720  0.27735634  0.08831214  1.0
  H  H27  1  0.27477720  0.22264366  0.58831214  1.0
  H  H28  1  0.56703927  0.23950939  0.18903732  1.0
  H  H29  1  0.56703927  0.26049061  0.68903732  1.0
  H  H30  1  0.43296073  0.73950939  0.31096268  1.0
  H  H31  1  0.43296073  0.76049061  0.81096268  1.0
  H  H32  1  0.57176473  0.16864147  0.48712798  1.0
  H  H33  1  0.57176473  0.33135853  0.98712798  1.0
  H  H34  1  0.42823527  0.66864147  0.01287202  1.0
  H  H35  1  0.42823527  0.83135853  0.51287202  1.0
  H  H36  1  0.55260886  0.38582136  0.42255159  1.0
  H  H37  1  0.55260886  0.11417864  0.92255159  1.0
  H  H38  1  0.44739114  0.88582136  0.07744841  1.0
  H  H39  1  0.44739114  0.61417864  0.57744841  1.0
  N  N40  1  0.99462503  0.25414132  0.38994472  1.0
  N  N41  1  0.99462503  0.24585868  0.88994472  1.0
  N  N42  1  0.00537497  0.75414132  0.11005528  1.0
  N  N43  1  0.00537497  0.74585868  0.61005528  1.0
  N  N44  1  0.77736488  0.83337422  0.34865801  1.0
  N  N45  1  0.77736488  0.66662578  0.84865801  1.0
  N  N46  1  0.22263512  0.33337422  0.15134199  1.0
  N  N47  1  0.22263512  0.16662578  0.65134199  1.0
  N  N48  1  0.70298620  0.25368048  0.20864212  1.0
  N  N49  1  0.70298620  0.24631952  0.70864212  1.0
  N  N50  1  0.29701380  0.75368048  0.29135788  1.0
  N  N51  1  0.29701380  0.74631952  0.79135788  1.0
  N  N52  1  0.55281911  0.22429802  0.41513212  1.0
  N  N53  1  0.55281911  0.27570198  0.91513212  1.0
  N  N54  1  0.44718089  0.72429802  0.08486788  1.0
  N  N55  1  0.44718089  0.77570198  0.58486788  1.0
