# generated using pymatgen
data_Li4MnGe2S7
_symmetry_space_group_name_H-M   'P 1'
_cell_length_a   9.17901883
_cell_length_b   9.17901883
_cell_length_c   10.20914974
_cell_angle_alpha   85.89376471
_cell_angle_beta   94.10623529
_cell_angle_gamma   136.97437258
_symmetry_Int_Tables_number   1
_chemical_formula_structural   Li4MnGe2S7
_chemical_formula_sum   'Li8 Mn2 Ge4 S14'
_cell_volume   585.17184720
_cell_formula_units_Z   2
loop_
 _symmetry_equiv_pos_site_id
 _symmetry_equiv_pos_as_xyz
  1  'x, y, z'
loop_
 _atom_site_type_symbol
 _atom_site_label
 _atom_site_symmetry_multiplicity
 _atom_site_fract_x
 _atom_site_fract_y
 _atom_site_fract_z
 _atom_site_occupancy
  Li  Li0  1  1.27286199  0.43314469  0.70718610  1.0
  Li  Li1  1  0.56685531  -0.27286199  0.20718610  1.0
  Li  Li2  1  0.68037915  -0.02515965  0.85932199  1.0
  Li  Li3  1  1.02515965  0.31962085  0.35932199  1.0
  Li  Li4  1  0.30443166  0.02358198  0.78196254  1.0
  Li  Li5  1  0.97641802  0.69556834  0.28196254  1.0
  Li  Li6  1  0.52714616  0.10338039  0.14143307  1.0
  Li  Li7  1  0.89661961  0.47285384  0.64143307  1.0
  Mn  Mn8  1  1.17032391  0.18276995  0.06024695  1.0
  Mn  Mn9  1  0.81723005  -0.17032391  0.56024695  1.0
  Ge  Ge10  1  1.11685142  0.55117540  0.98021749  1.0
  Ge  Ge11  1  0.44882460  -0.11685142  0.48021749  1.0
  Ge  Ge12  1  0.74307226  0.60458930  0.92102461  1.0
  Ge  Ge13  1  0.39541070  0.25692774  0.42102461  1.0
  S  S14  1  0.84904075  0.49307989  0.07069616  1.0
  S  S15  1  0.50692011  0.15095925  0.57069616  1.0
  S  S16  1  0.39433320  0.32453791  0.87425894  1.0
  S  S17  1  0.67546209  0.60566680  0.37425894  1.0
  S  S18  1  0.92192190  0.72697477  0.73567778  1.0
  S  S19  1  0.27302523  0.07807810  0.23567778  1.0
  S  S20  1  0.80012744  -0.14333450  0.01421655  1.0
  S  S21  1  1.14333450  0.19987256  0.51421655  1.0
  S  S22  1  0.98440235  0.34976233  0.80887734  1.0
  S  S23  1  0.65023767  0.01559765  0.30887734  1.0
  S  S24  1  0.39329030  -0.10239244  0.94733542  1.0
  S  S25  1  1.10239244  0.60670970  0.44733542  1.0
  S  S26  1  1.18799452  0.43034697  0.14452505  1.0
  S  S27  1  0.56965303  -0.18799452  0.64452505  1.0
