# generated using pymatgen
data_BaRuO3
_symmetry_space_group_name_H-M   'P 1'
_cell_length_a   5.79262256
_cell_length_b   5.79262256
_cell_length_c   9.57122408
_cell_angle_alpha   90.00000000
_cell_angle_beta   90.00000000
_cell_angle_gamma   120.00000000
_symmetry_Int_Tables_number   1
_chemical_formula_structural   BaRuO3
_chemical_formula_sum   'Ba4 Ru4 O12'
_cell_volume   278.13047611
_cell_formula_units_Z   4
loop_
 _symmetry_equiv_pos_site_id
 _symmetry_equiv_pos_as_xyz
  1  'x, y, z'
loop_
 _atom_site_type_symbol
 _atom_site_label
 _atom_site_symmetry_multiplicity
 _atom_site_fract_x
 _atom_site_fract_y
 _atom_site_fract_z
 _atom_site_occupancy
  Ba  Ba0  1  0.33333333  0.66666667  0.75000000  1.0
  Ba  Ba1  1  0.66666667  0.33333333  0.25000000  1.0
  Ba  Ba2  1  0.00000000  0.00000000  0.50000000  1.0
  Ba  Ba3  1  0.00000000  0.00000000  0.00000000  1.0
  Ru  Ru4  1  0.33333333  0.66666667  0.38280614  1.0
  Ru  Ru5  1  0.33333333  0.66666667  0.11719386  1.0
  Ru  Ru6  1  0.66666667  0.33333333  0.88280614  1.0
  Ru  Ru7  1  0.66666667  0.33333333  0.61719386  1.0
  O  O8  1  0.17809791  0.82190209  0.25000000  1.0
  O  O9  1  0.17809791  0.35619583  0.25000000  1.0
  O  O10  1  0.82190209  0.17809791  0.75000000  1.0
  O  O11  1  0.82190209  0.64380417  0.75000000  1.0
  O  O12  1  0.64380417  0.82190209  0.25000000  1.0
  O  O13  1  0.35619583  0.17809791  0.75000000  1.0
  O  O14  1  0.50000000  0.50000000  0.50000000  1.0
  O  O15  1  0.50000000  0.50000000  0.00000000  1.0
  O  O16  1  0.50000000  0.00000000  0.50000000  1.0
  O  O17  1  0.50000000  0.00000000  0.00000000  1.0
  O  O18  1  -0.00000000  0.50000000  0.50000000  1.0
  O  O19  1  -0.00000000  0.50000000  0.00000000  1.0
