# generated using pymatgen
data_ZnS
_symmetry_space_group_name_H-M   'P 1'
_cell_length_a   3.85027235
_cell_length_b   3.85027236
_cell_length_c   69.19111095
_cell_angle_alpha   90.00000000
_cell_angle_beta   90.00000000
_cell_angle_gamma   120.00000000
_symmetry_Int_Tables_number   1
_chemical_formula_structural   ZnS
_chemical_formula_sum   'Zn22 S22'
_cell_volume   888.30854076
_cell_formula_units_Z   22
loop_
 _symmetry_equiv_pos_site_id
 _symmetry_equiv_pos_as_xyz
  1  'x, y, z'
loop_
 _atom_site_type_symbol
 _atom_site_label
 _atom_site_symmetry_multiplicity
 _atom_site_fract_x
 _atom_site_fract_y
 _atom_site_fract_z
 _atom_site_occupancy
  Zn  Zn0  1  0.00000000  0.00000000  0.04546358  1.0
  Zn  Zn1  1  0.00000000  0.00000000  0.18181421  1.0
  Zn  Zn2  1  0.00000000  0.00000000  0.36363520  1.0
  Zn  Zn3  1  0.00000000  0.00000000  0.49999274  1.0
  Zn  Zn4  1  0.00000000  0.00000000  0.63636078  1.0
  Zn  Zn5  1  0.00000000  0.00000000  0.77272774  1.0
  Zn  Zn6  1  0.00000000  0.00000000  0.90909296  1.0
  Zn  Zn7  1  0.66666667  0.33333333  0.13637260  1.0
  Zn  Zn8  1  0.66666667  0.33333333  0.27271955  1.0
  Zn  Zn9  1  0.66666667  0.33333333  0.40908324  1.0
  Zn  Zn10  1  0.66666667  0.33333333  0.54544733  1.0
  Zn  Zn11  1  0.66666667  0.33333333  0.68181791  1.0
  Zn  Zn12  1  0.66666667  0.33333333  0.81818145  1.0
  Zn  Zn13  1  0.66666667  0.33333333  0.95454488  1.0
  Zn  Zn14  1  0.33333333  0.66666667  -0.00002721  1.0
  Zn  Zn15  1  0.33333333  0.66666667  0.09094989  1.0
  Zn  Zn16  1  0.33333333  0.66666667  0.22723151  1.0
  Zn  Zn17  1  0.33333333  0.66666667  0.31820152  1.0
  Zn  Zn18  1  0.33333333  0.66666667  0.45453995  1.0
  Zn  Zn19  1  0.33333333  0.66666667  0.59090502  1.0
  Zn  Zn20  1  0.33333333  0.66666667  0.72726887  1.0
  Zn  Zn21  1  0.33333333  0.66666667  0.86363763  1.0
  S  S22  1  0.00000000  0.00000000  0.01133167  1.0
  S  S23  1  0.00000000  0.00000000  0.14773256  1.0
  S  S24  1  0.00000000  0.00000000  0.32955393  1.0
  S  S25  1  0.00000000  0.00000000  0.46590517  1.0
  S  S26  1  0.00000000  0.00000000  0.60227216  1.0
  S  S27  1  0.00000000  0.00000000  0.73863802  1.0
  S  S28  1  0.00000000  0.00000000  0.87500541  1.0
  S  S29  1  0.66666667  0.33333333  0.10229607  1.0
  S  S30  1  0.66666667  0.33333333  0.23858858  1.0
  S  S31  1  0.66666667  0.33333333  0.37499735  1.0
  S  S32  1  0.66666667  0.33333333  0.51136000  1.0
  S  S33  1  0.66666667  0.33333333  0.64772944  1.0
  S  S34  1  0.66666667  0.33333333  0.78409383  1.0
  S  S35  1  0.66666667  0.33333333  0.92045744  1.0
  S  S36  1  0.33333333  0.66666667  0.05687707  1.0
  S  S37  1  0.33333333  0.66666667  0.19316589  1.0
  S  S38  1  0.33333333  0.66666667  0.28412997  1.0
  S  S39  1  0.33333333  0.66666667  0.42045257  1.0
  S  S40  1  0.33333333  0.66666667  0.55681605  1.0
  S  S41  1  0.33333333  0.66666667  0.69318227  1.0
  S  S42  1  0.33333333  0.66666667  0.82955012  1.0
  S  S43  1  0.33333333  0.66666667  0.96590306  1.0
