# generated using pymatgen
data_Cs2LiVO4
_symmetry_space_group_name_H-M   'P 1'
_cell_length_a   6.94464380
_cell_length_b   6.94464380
_cell_length_c   8.31109756
_cell_angle_alpha   90.00000000
_cell_angle_beta   90.00000000
_cell_angle_gamma   128.11123846
_symmetry_Int_Tables_number   1
_chemical_formula_structural   Cs2LiVO4
_chemical_formula_sum   'Cs4 Li2 V2 O8'
_cell_volume   315.37727452
_cell_formula_units_Z   2
loop_
 _symmetry_equiv_pos_site_id
 _symmetry_equiv_pos_as_xyz
  1  'x, y, z'
loop_
 _atom_site_type_symbol
 _atom_site_label
 _atom_site_symmetry_multiplicity
 _atom_site_fract_x
 _atom_site_fract_y
 _atom_site_fract_z
 _atom_site_occupancy
  Cs  Cs0  1  0.10746394  0.89253606  0.06339094  1.0
  Cs  Cs1  1  -0.10746394  0.10746394  0.56339094  1.0
  Cs  Cs2  1  -0.42672969  0.42672969  0.69424461  1.0
  Cs  Cs3  1  0.42672969  0.57327031  0.19424461  1.0
  Li  Li4  1  0.29488427  0.70511573  0.78222854  1.0
  Li  Li5  1  -0.29488427  0.29488427  0.28222854  1.0
  V  V6  1  0.20189129  0.79810871  0.50177624  1.0
  V  V7  1  -0.20189129  0.20189129  0.00177624  1.0
  O  O8  1  0.06661868  0.40153929  0.89585794  1.0
  O  O9  1  0.40153929  1.06661868  0.39585794  1.0
  O  O10  1  0.59846071  0.93338132  0.89585794  1.0
  O  O11  1  -0.06661868  0.59846071  0.39585794  1.0
  O  O12  1  0.13971841  0.86028159  0.68733060  1.0
  O  O13  1  -0.13971841  0.13971841  0.18733060  1.0
  O  O14  1  0.33731103  0.66268897  0.54751318  1.0
  O  O15  1  -0.33731103  0.33731103  0.04751318  1.0
