# generated using pymatgen
data_Cs2MgH4
_symmetry_space_group_name_H-M   'P 1'
_cell_length_a   8.12805565
_cell_length_b   8.12805565
_cell_length_c   8.12805565
_cell_angle_alpha   149.17043335
_cell_angle_beta   149.17043335
_cell_angle_gamma   44.16049719
_symmetry_Int_Tables_number   1
_chemical_formula_structural   Cs2MgH4
_chemical_formula_sum   'Cs2 Mg1 H4'
_cell_volume   140.62594240
_cell_formula_units_Z   1
loop_
 _symmetry_equiv_pos_site_id
 _symmetry_equiv_pos_as_xyz
  1  'x, y, z'
loop_
 _atom_site_type_symbol
 _atom_site_label
 _atom_site_symmetry_multiplicity
 _atom_site_fract_x
 _atom_site_fract_y
 _atom_site_fract_z
 _atom_site_occupancy
  Cs  Cs0  1  0.64306655  0.64306655  1.00000000  1.0
  Cs  Cs1  1  0.35693345  0.35693345  0.00000000  1.0
  Mg  Mg2  1  0.00000000  0.00000000  0.00000000  1.0
  H  H3  1  0.87059049  0.87059049  1.00000000  1.0
  H  H4  1  0.12940951  0.12940951  0.00000000  1.0
  H  H5  1  0.50000000  0.00000000  0.50000000  1.0
  H  H6  1  0.00000000  0.50000000  0.50000000  1.0
