# generated using pymatgen
data_Hf(SiO)2
_symmetry_space_group_name_H-M   'P 1'
_cell_length_a   7.48316723
_cell_length_b   7.48316723
_cell_length_c   7.48316723
_cell_angle_alpha   105.69930020
_cell_angle_beta   105.69930020
_cell_angle_gamma   117.31115968
_symmetry_Int_Tables_number   1
_chemical_formula_structural   Hf(SiO)2
_chemical_formula_sum   'Hf4 Si8 O8'
_cell_volume   317.99014457
_cell_formula_units_Z   4
loop_
 _symmetry_equiv_pos_site_id
 _symmetry_equiv_pos_as_xyz
  1  'x, y, z'
loop_
 _atom_site_type_symbol
 _atom_site_label
 _atom_site_symmetry_multiplicity
 _atom_site_fract_x
 _atom_site_fract_y
 _atom_site_fract_z
 _atom_site_occupancy
  Hf  Hf0  1  1.37500000  1.12500000  1.25000000  1.0
  Hf  Hf1  1  0.87500000  1.12500000  0.75000000  1.0
  Hf  Hf2  1  0.87500000  1.12500000  0.25000000  1.0
  Hf  Hf3  1  0.87500000  1.62500000  0.75000000  1.0
  Si  Si4  1  1.18025004  1.47915301  0.70109703  1.0
  Si  Si5  1  0.97194402  0.77084699  0.20109703  1.0
  Si  Si6  1  0.77805598  0.47915301  0.29890297  1.0
  Si  Si7  1  1.56974996  0.77084699  0.79890297  1.0
  Si  Si8  1  0.52084699  0.22194402  0.70109703  1.0
  Si  Si9  1  1.22915301  1.43025004  1.20109703  1.0
  Si  Si10  1  0.52084699  0.81974996  0.29890297  1.0
  Si  Si11  1  1.22915301  1.02805598  0.79890297  1.0
  O  O12  1  1.21562511  1.35878125  0.85684386  1.0
  O  O13  1  1.24806260  0.89121875  1.35684386  1.0
  O  O14  1  0.50193740  0.35878125  0.14315614  1.0
  O  O15  1  0.53437489  0.89121875  0.64315614  1.0
  O  O16  1  0.64121875  0.49806260  0.85684386  1.0
  O  O17  1  1.10878125  1.46562511  0.35684386  1.0
  O  O18  1  0.64121875  0.78437489  0.14315614  1.0
  O  O19  1  1.10878125  1.75193740  0.64315614  1.0
