# generated using pymatgen
data_K2(NbBr3)3
_symmetry_space_group_name_H-M   'P 1'
_cell_length_a   10.42091441
_cell_length_b   10.42091441
_cell_length_c   10.38220155
_cell_angle_alpha   77.69072059
_cell_angle_beta   102.30927941
_cell_angle_gamma   61.78050857
_symmetry_Int_Tables_number   1
_chemical_formula_structural   K2(NbBr3)3
_chemical_formula_sum   'K4 Nb6 Br18'
_cell_volume   903.75041400
_cell_formula_units_Z   2
loop_
 _symmetry_equiv_pos_site_id
 _symmetry_equiv_pos_as_xyz
  1  'x, y, z'
loop_
 _atom_site_type_symbol
 _atom_site_label
 _atom_site_symmetry_multiplicity
 _atom_site_fract_x
 _atom_site_fract_y
 _atom_site_fract_z
 _atom_site_occupancy
  K  K0  1  0.72962968  -0.05032335  0.66537711  1.0
  K  K1  1  1.05032335  0.27037032  0.66537711  1.0
  K  K2  1  0.94967665  -0.27037032  0.33462289  1.0
  K  K3  1  1.27037032  0.05032335  0.33462289  1.0
  Nb  Nb4  1  0.45716604  -0.29109041  0.86531440  1.0
  Nb  Nb5  1  1.29109041  0.54283396  0.86531440  1.0
  Nb  Nb6  1  0.70890959  -0.54283396  0.13468560  1.0
  Nb  Nb7  1  1.54283396  0.29109041  0.13468560  1.0
  Nb  Nb8  1  0.62218961  -0.62218961  0.88424345  1.0
  Nb  Nb9  1  0.37781039  -0.37781039  0.11575655  1.0
  Br  Br10  1  0.81035614  -0.81035614  0.32933671  1.0
  Br  Br11  1  0.18964386  -0.18964386  0.67066329  1.0
  Br  Br12  1  1.39647685  -0.00403449  0.67759305  1.0
  Br  Br13  1  1.00403449  -0.39647685  0.67759305  1.0
  Br  Br14  1  0.99596551  0.39647685  0.32240695  1.0
  Br  Br15  1  0.60352315  0.00403449  0.32240695  1.0
  Br  Br16  1  0.30013851  -0.09477117  0.97701203  1.0
  Br  Br17  1  1.09477117  0.69986149  0.97701203  1.0
  Br  Br18  1  0.90522883  -0.69986149  0.02298797  1.0
  Br  Br19  1  1.69986149  0.09477117  0.02298797  1.0
  Br  Br20  1  0.59500761  -0.39246507  0.69397233  1.0
  Br  Br21  1  1.39246507  0.40499239  0.69397233  1.0
  Br  Br22  1  0.60753493  -0.40499239  0.30602767  1.0
  Br  Br23  1  1.40499239  0.39246507  0.30602767  1.0
  Br  Br24  1  0.70385354  -0.29614646  -0.00000000  1.0
  Br  Br25  1  1.29614646  0.29614646  -0.00000000  1.0
  Br  Br26  1  0.78629874  -0.78629874  0.72915585  1.0
  Br  Br27  1  0.21370126  -0.21370126  0.27084415  1.0
