# generated using pymatgen
data_Re6Ni5Mo4
_symmetry_space_group_name_H-M   'P 1'
_cell_length_a   9.16853008
_cell_length_b   9.16853008
_cell_length_c   4.90608399
_cell_angle_alpha   90.00000000
_cell_angle_beta   90.00000000
_cell_angle_gamma   90.00000000
_symmetry_Int_Tables_number   1
_chemical_formula_structural   Re6Ni5Mo4
_chemical_formula_sum   'Re12 Ni10 Mo8'
_cell_volume   412.41495722
_cell_formula_units_Z   2
loop_
 _symmetry_equiv_pos_site_id
 _symmetry_equiv_pos_as_xyz
  1  'x, y, z'
loop_
 _atom_site_type_symbol
 _atom_site_label
 _atom_site_symmetry_multiplicity
 _atom_site_fract_x
 _atom_site_fract_y
 _atom_site_fract_z
 _atom_site_occupancy
  Re  Re0  1  0.09754206  0.90245794  0.50000000  1.0
  Re  Re1  1  0.90245794  0.09754206  0.50000000  1.0
  Re  Re2  1  0.40245794  0.40245794  0.00000000  1.0
  Re  Re3  1  0.59754206  0.59754206  0.00000000  1.0
  Re  Re4  1  0.31679955  0.68320045  0.25125024  1.0
  Re  Re5  1  0.68320045  0.31679955  0.25125024  1.0
  Re  Re6  1  0.18320045  0.18320045  0.75125024  1.0
  Re  Re7  1  0.81679955  0.81679955  0.75125024  1.0
  Re  Re8  1  0.68320045  0.31679955  0.74874976  1.0
  Re  Re9  1  0.31679955  0.68320045  0.74874976  1.0
  Re  Re10  1  0.81679955  0.81679955  0.24874976  1.0
  Re  Re11  1  0.18320045  0.18320045  0.24874976  1.0
  Ni  Ni12  1  0.50000000  0.50000000  0.50000000  1.0
  Ni  Ni13  1  0.00000000  0.00000000  0.00000000  1.0
  Ni  Ni14  1  0.43420964  0.24312746  0.50000000  1.0
  Ni  Ni15  1  0.56579036  0.75687254  0.50000000  1.0
  Ni  Ni16  1  0.06579036  0.74312746  0.00000000  1.0
  Ni  Ni17  1  0.93420964  0.25687254  0.00000000  1.0
  Ni  Ni18  1  0.24312746  0.43420964  0.50000000  1.0
  Ni  Ni19  1  0.75687254  0.56579036  0.50000000  1.0
  Ni  Ni20  1  0.74312746  0.06579036  0.00000000  1.0
  Ni  Ni21  1  0.25687254  0.93420964  0.00000000  1.0
  Mo  Mo22  1  0.36695692  0.96358200  0.50000000  1.0
  Mo  Mo23  1  0.63304308  0.03641800  0.50000000  1.0
  Mo  Mo24  1  0.13304308  0.46358200  0.00000000  1.0
  Mo  Mo25  1  0.86695692  0.53641800  0.00000000  1.0
  Mo  Mo26  1  0.96358200  0.36695692  0.50000000  1.0
  Mo  Mo27  1  0.03641800  0.63304308  0.50000000  1.0
  Mo  Mo28  1  0.46358200  0.13304308  0.00000000  1.0
  Mo  Mo29  1  0.53641800  0.86695692  0.00000000  1.0
