# generated using pymatgen
data_Na4Ni7(PO4)6
_symmetry_space_group_name_H-M   'P 1'
_cell_length_a   8.87020816
_cell_length_b   8.87020816
_cell_length_c   6.49644556
_cell_angle_alpha   81.06358360
_cell_angle_beta   98.93641640
_cell_angle_gamma   74.39422455
_symmetry_Int_Tables_number   1
_chemical_formula_structural   Na4Ni7(PO4)6
_chemical_formula_sum   'Na4 Ni7 P6 O24'
_cell_volume   475.77261187
_cell_formula_units_Z   1
loop_
 _symmetry_equiv_pos_site_id
 _symmetry_equiv_pos_as_xyz
  1  'x, y, z'
loop_
 _atom_site_type_symbol
 _atom_site_label
 _atom_site_symmetry_multiplicity
 _atom_site_fract_x
 _atom_site_fract_y
 _atom_site_fract_z
 _atom_site_occupancy
  Ni  Ni0  1  1.57553520  0.04927440  0.65950302  1.0
  Ni  Ni1  1  0.95072560  -0.57553520  0.65950302  1.0
  Ni  Ni2  1  1.29385080  0.09235069  0.29810528  1.0
  Ni  Ni3  1  0.90764931  -0.29385080  0.29810528  1.0
  Ni  Ni4  1  0.93198842  -0.93198842  0.47943903  1.0
  Ni  Ni5  1  0.55615046  -0.30682632  0.47638100  1.0
  Ni  Ni6  1  1.30682632  0.44384954  0.47638100  1.0
  O  O7  1  0.13091103  -0.13091103  0.62396936  1.0
  O  O8  1  0.72887309  -0.72887309  0.32808468  1.0
  O  O9  1  1.59476068  0.06772682  0.96894401  1.0
  O  O10  1  0.93227318  -0.59476068  0.96894401  1.0
  O  O11  1  1.53879068  0.05532376  0.33969672  1.0
  O  O12  1  0.94467624  -0.53879068  0.33969672  1.0
  O  O13  1  1.27106674  0.06761932  0.98971767  1.0
  O  O14  1  0.93238068  -0.27106674  0.98971767  1.0
  O  O15  1  0.81968020  -0.03383976  0.68914051  1.0
  O  O16  1  1.03383976  0.18031980  0.68914051  1.0
  O  O17  1  0.64991078  -0.21244154  0.72856684  1.0
  O  O18  1  1.21244154  0.35008922  0.72856684  1.0
  O  O19  1  0.64851908  -0.20883440  0.22877322  1.0
  O  O20  1  1.20883440  0.35148092  0.22877322  1.0
  O  O21  1  0.48033089  -0.48033089  0.28013696  1.0
  O  O22  1  0.37519475  -0.37519475  0.68423586  1.0
  O  O23  1  1.53263733  0.29025548  0.58829024  1.0
  O  O24  1  0.70974452  -0.53263733  0.58829024  1.0
  O  O25  1  0.83383644  -0.04612051  0.27106275  1.0
  O  O26  1  1.04612051  0.16616356  0.27106275  1.0
  O  O27  1  1.32940941  0.08306358  0.62304091  1.0
  O  O28  1  0.91693642  -0.32940941  0.62304091  1.0
  O  O29  1  0.33091752  -0.15084148  0.36946422  1.0
  O  O30  1  1.15084148  0.66908248  0.36946422  1.0
  Na  Na31  1  0.44538375  -0.19584720  0.93835386  1.0
  Na  Na32  1  1.19584720  0.55461625  0.93835386  1.0
  Na  Na33  1  0.65524120  -0.65524120  0.94059299  1.0
  Na  Na34  1  0.00550480  -0.00550480  0.00351583  1.0
  P  P35  1  1.21735512  0.16766238  0.76087851  1.0
  P  P36  1  0.83233762  -0.21735512  0.76087851  1.0
  P  P37  1  0.24062647  -0.24062647  0.51316932  1.0
  P  P38  1  0.61899364  -0.61899364  0.43756414  1.0
  P  P39  1  0.64909855  -0.02685818  0.19932718  1.0
  P  P40  1  1.02685818  0.35090145  0.19932718  1.0
