# generated using pymatgen
data_MoCl2
_symmetry_space_group_name_H-M   'P 1'
_cell_length_a   9.77161727
_cell_length_b   9.77161727
_cell_length_c   11.59207457
_cell_angle_alpha   90.00000000
_cell_angle_beta   90.00000000
_cell_angle_gamma   72.67618148
_symmetry_Int_Tables_number   1
_chemical_formula_structural   MoCl2
_chemical_formula_sum   'Mo12 Cl24'
_cell_volume   1056.65294798
_cell_formula_units_Z   12
loop_
 _symmetry_equiv_pos_site_id
 _symmetry_equiv_pos_as_xyz
  1  'x, y, z'
loop_
 _atom_site_type_symbol
 _atom_site_label
 _atom_site_symmetry_multiplicity
 _atom_site_fract_x
 _atom_site_fract_y
 _atom_site_fract_z
 _atom_site_occupancy
  Mo  Mo0  1  -0.35763186  1.35763186  0.42864306  1.0
  Mo  Mo1  1  0.14236814  0.85763186  0.07135694  1.0
  Mo  Mo2  1  0.35763186  0.64236814  0.57135694  1.0
  Mo  Mo3  1  -0.14236814  1.14236814  0.92864306  1.0
  Mo  Mo4  1  -0.07144908  1.07144908  0.14223165  1.0
  Mo  Mo5  1  0.42855092  0.57144908  0.35776835  1.0
  Mo  Mo6  1  0.07144908  0.92855092  0.85776835  1.0
  Mo  Mo7  1  -0.42855092  1.42855092  0.64223165  1.0
  Mo  Mo8  1  0.38196988  1.38196988  0.50000000  1.0
  Mo  Mo9  1  -0.11803012  0.88196988  0.00000000  1.0
  Mo  Mo10  1  -0.38196988  0.61803012  0.50000000  1.0
  Mo  Mo11  1  0.11803012  1.11803012  0.00000000  1.0
  Cl  Cl12  1  0.45693316  1.32111555  0.29647056  1.0
  Cl  Cl13  1  -0.04306684  0.82111555  0.20352944  1.0
  Cl  Cl14  1  0.32111555  1.45693316  0.70352944  1.0
  Cl  Cl15  1  -0.17888445  0.95693316  0.79647056  1.0
  Cl  Cl16  1  -0.32111555  0.54306684  0.29647056  1.0
  Cl  Cl17  1  0.17888445  1.04306684  0.20352944  1.0
  Cl  Cl18  1  -0.45693316  0.67888445  0.70352944  1.0
  Cl  Cl19  1  0.04306684  1.17888445  0.79647056  1.0
  Cl  Cl20  1  0.40722592  0.81471934  0.43214908  1.0
  Cl  Cl21  1  -0.09277408  1.31471934  0.06785092  1.0
  Cl  Cl22  1  -0.18528066  1.40722592  0.56785092  1.0
  Cl  Cl23  1  0.31471934  0.90722592  0.93214908  1.0
  Cl  Cl24  1  0.18528066  0.59277408  0.43214908  1.0
  Cl  Cl25  1  -0.31471934  1.09277408  0.06785092  1.0
  Cl  Cl26  1  -0.40722592  1.18528066  0.56785092  1.0
  Cl  Cl27  1  0.09277408  0.68528066  0.93214908  1.0
  Cl  Cl28  1  -0.15704126  1.15704126  0.34281363  1.0
  Cl  Cl29  1  0.34295874  0.65704126  0.15718637  1.0
  Cl  Cl30  1  0.15704126  0.84295874  0.65718637  1.0
  Cl  Cl31  1  -0.34295874  1.34295874  0.84281363  1.0
  Cl  Cl32  1  0.23034477  1.23034477  0.50000000  1.0
  Cl  Cl33  1  -0.26965523  0.73034477  0.00000000  1.0
  Cl  Cl34  1  -0.23034477  0.76965523  0.50000000  1.0
  Cl  Cl35  1  0.26965523  1.26965523  0.00000000  1.0
