# generated using pymatgen
data_CaSeO4
_symmetry_space_group_name_H-M   'P 1'
_cell_length_a   6.79780771
_cell_length_b   7.21717468
_cell_length_c   8.42077300
_cell_angle_alpha   90.00000000
_cell_angle_beta   127.07499638
_cell_angle_gamma   90.00000000
_symmetry_Int_Tables_number   1
_chemical_formula_structural   CaSeO4
_chemical_formula_sum   'Ca4 Se4 O16'
_cell_volume   329.61556962
_cell_formula_units_Z   4
loop_
 _symmetry_equiv_pos_site_id
 _symmetry_equiv_pos_as_xyz
  1  'x, y, z'
loop_
 _atom_site_type_symbol
 _atom_site_label
 _atom_site_symmetry_multiplicity
 _atom_site_fract_x
 _atom_site_fract_y
 _atom_site_fract_z
 _atom_site_occupancy
  Ca  Ca0  1  0.80605932  0.85374909  0.21988996  1.0
  Ca  Ca1  1  0.80605932  0.64625091  0.71988996  1.0
  Ca  Ca2  1  0.19394068  0.35374909  0.28011004  1.0
  Ca  Ca3  1  0.19394068  0.14625091  0.78011004  1.0
  Se  Se4  1  0.69149850  0.33889267  0.30540718  1.0
  Se  Se5  1  0.69149850  0.16110733  0.80540718  1.0
  Se  Se6  1  0.30850150  0.83889267  0.19459282  1.0
  Se  Se7  1  0.30850150  0.66110733  0.69459282  1.0
  O  O8  1  0.88045019  0.15518128  0.39542134  1.0
  O  O9  1  0.88045019  0.34481872  0.89542134  1.0
  O  O10  1  0.11954981  0.65518128  0.10457866  1.0
  O  O11  1  0.11954981  0.84481872  0.60457866  1.0
  O  O12  1  0.82724130  0.49782476  0.25731404  1.0
  O  O13  1  0.82724130  0.00217524  0.75731404  1.0
  O  O14  1  0.17275870  0.99782476  0.24268596  1.0
  O  O15  1  0.17275870  0.50217524  0.74268596  1.0
  O  O16  1  0.65428663  0.40139841  0.47681784  1.0
  O  O17  1  0.65428663  0.09860159  0.97681784  1.0
  O  O18  1  0.34571337  0.90139841  0.02318216  1.0
  O  O19  1  0.34571337  0.59860159  0.52318216  1.0
  O  O20  1  0.40194916  0.29179916  0.11289298  1.0
  O  O21  1  0.40194916  0.20820084  0.61289298  1.0
  O  O22  1  0.59805084  0.79179916  0.38710702  1.0
  O  O23  1  0.59805084  0.70820084  0.88710702  1.0
