# generated using pymatgen
data_MgFe2P2(HO)18
_symmetry_space_group_name_H-M   'P 1'
_cell_length_a   5.41975300
_cell_length_b   10.37552707
_cell_length_c   7.37847162
_cell_angle_alpha   73.84036701
_cell_angle_beta   67.70237860
_cell_angle_gamma   78.42324292
_symmetry_Int_Tables_number   1
_chemical_formula_structural   MgFe2P2(HO)18
_chemical_formula_sum   'Mg1 Fe2 P2 H18 O18'
_cell_volume   366.60323005
_cell_formula_units_Z   1
loop_
 _symmetry_equiv_pos_site_id
 _symmetry_equiv_pos_as_xyz
  1  'x, y, z'
loop_
 _atom_site_type_symbol
 _atom_site_label
 _atom_site_symmetry_multiplicity
 _atom_site_fract_x
 _atom_site_fract_y
 _atom_site_fract_z
 _atom_site_occupancy
  Mg  Mg0  1  -0.00000000  -0.50000000  -0.50000000  1.0
  Fe  Fe1  1  -0.50000000  -0.00000000  -0.50000000  1.0
  Fe  Fe2  1  0.00000000  0.00000000  0.00000000  1.0
  P  P3  1  -0.09375875  -0.82691800  -0.42612108  1.0
  P  P4  1  -0.90624125  -0.17308200  -0.57387892  1.0
  H  H5  1  -0.52047904  -0.37704638  -0.51330202  1.0
  H  H6  1  -0.47952096  -0.62295362  -0.48669798  1.0
  H  H7  1  -0.91206038  -0.18398399  -0.19572004  1.0
  H  H8  1  -0.08793962  -0.81601601  -0.80427996  1.0
  H  H9  1  -0.65202542  -0.70502854  -0.53673985  1.0
  H  H10  1  -0.34797458  -0.29497146  -0.46326015  1.0
  H  H11  1  -0.08613949  -0.59385957  -0.09978832  1.0
  H  H12  1  -0.91386051  -0.40614043  -0.90021168  1.0
  H  H13  1  -0.17392338  -0.23201113  -0.01302625  1.0
  H  H14  1  -0.82607662  -0.76798887  -0.98697375  1.0
  H  H15  1  -0.21924531  -0.44397535  -0.11707914  1.0
  H  H16  1  -0.78075469  -0.55602465  -0.88292086  1.0
  H  H17  1  -0.43545283  -0.68199750  -0.15219098  1.0
  H  H18  1  -0.56454717  -0.31800250  -0.84780902  1.0
  H  H19  1  -0.52449980  -0.23215770  -0.06555130  1.0
  H  H20  1  -0.47550020  -0.76784230  -0.93444870  1.0
  H  H21  1  -0.48239981  -0.98389434  -0.17493699  1.0
  H  H22  1  -0.51760019  -0.01610566  -0.82506301  1.0
  O  O23  1  0.00460684  -0.19945646  -0.04537237  1.0
  O  O24  1  -1.00460684  -0.80054354  -0.95462763  1.0
  O  O25  1  -0.63648935  -0.61332626  -0.52826136  1.0
  O  O26  1  -0.36351065  -0.38667374  -0.47173864  1.0
  O  O27  1  -0.07752144  -0.50505600  -0.19145905  1.0
  O  O28  1  -0.92247856  -0.49494400  -0.80854095  1.0
  O  O29  1  -0.43363549  -0.30397763  -0.98757457  1.0
  O  O30  1  -0.56636451  -0.69602237  -0.01242543  1.0
  O  O31  1  -0.19182603  -0.67840473  -0.40583679  1.0
  O  O32  1  -0.80817397  -0.32159527  -0.59416321  1.0
  O  O33  1  -0.36842519  -0.99241174  -0.79833309  1.0
  O  O34  1  -0.63157481  -0.00758826  -0.20166691  1.0
  O  O35  1  -0.17013965  -0.92338686  -0.21228033  1.0
  O  O36  1  -0.82986035  -0.07661314  -0.78771967  1.0
  O  O37  1  -0.23725885  -0.86515653  -0.54981283  1.0
  O  O38  1  -0.76274115  -0.13484347  -0.45018717  1.0
  O  O39  1  -0.78417139  -0.84171075  -0.53718037  1.0
  O  O40  1  -0.21582861  -0.15828925  -0.46281963  1.0
