# generated using pymatgen
data_La(ReSi)2
_symmetry_space_group_name_H-M   'P 1'
_cell_length_a   10.94859907
_cell_length_b   10.94859907
_cell_length_c   10.94859907
_cell_angle_alpha   158.09143684
_cell_angle_beta   157.63219259
_cell_angle_gamma   31.51092756
_symmetry_Int_Tables_number   1
_chemical_formula_structural   La(ReSi)2
_chemical_formula_sum   'La2 Re4 Si4'
_cell_volume   186.21992708
_cell_formula_units_Z   2
loop_
 _symmetry_equiv_pos_site_id
 _symmetry_equiv_pos_as_xyz
  1  'x, y, z'
loop_
 _atom_site_type_symbol
 _atom_site_label
 _atom_site_symmetry_multiplicity
 _atom_site_fract_x
 _atom_site_fract_y
 _atom_site_fract_z
 _atom_site_occupancy
  La  La0  1  0.41308560  0.16308560  0.25000000  1.0
  La  La1  1  0.58691440  0.83691440  0.75000000  1.0
  Re  Re2  1  1.21460302  0.96460302  1.25000000  1.0
  Re  Re3  1  0.78539698  0.03539698  0.75000000  1.0
  Re  Re4  1  0.71158013  0.46158013  0.25000000  1.0
  Re  Re5  1  0.28841987  0.53841987  0.75000000  1.0
  Si  Si6  1  0.97155546  0.72155546  1.25000000  1.0
  Si  Si7  1  1.02844454  0.27844454  0.75000000  1.0
  Si  Si8  1  0.85387865  0.60387865  1.25000000  1.0
  Si  Si9  1  1.14612135  0.39612135  0.75000000  1.0
