# generated using pymatgen
data_Na2Mo(OF2)2
_symmetry_space_group_name_H-M   'P 1'
_cell_length_a   5.64344488
_cell_length_b   5.81610611
_cell_length_c   16.75456614
_cell_angle_alpha   90.00000000
_cell_angle_beta   91.84769682
_cell_angle_gamma   90.00000000
_symmetry_Int_Tables_number   1
_chemical_formula_structural   Na2Mo(OF2)2
_chemical_formula_sum   'Na8 Mo4 O8 F16'
_cell_volume   549.64708791
_cell_formula_units_Z   4
loop_
 _symmetry_equiv_pos_site_id
 _symmetry_equiv_pos_as_xyz
  1  'x, y, z'
loop_
 _atom_site_type_symbol
 _atom_site_label
 _atom_site_symmetry_multiplicity
 _atom_site_fract_x
 _atom_site_fract_y
 _atom_site_fract_z
 _atom_site_occupancy
  Na  Na0  1  0.74264978  0.28846789  0.74897393  1.0
  Na  Na1  1  0.74264978  0.21153211  0.24897393  1.0
  Na  Na2  1  0.25735022  0.78846789  0.75102607  1.0
  Na  Na3  1  0.25735022  0.71153211  0.25102607  1.0
  Na  Na4  1  0.72392196  0.73643759  0.61773797  1.0
  Na  Na5  1  0.72392196  0.76356241  0.11773797  1.0
  Na  Na6  1  0.27607804  0.23643759  0.88226203  1.0
  Na  Na7  1  0.27607804  0.26356241  0.38226203  1.0
  Mo  Mo8  1  0.78118000  0.73442022  0.88119520  1.0
  Mo  Mo9  1  0.78118000  0.76557978  0.38119520  1.0
  Mo  Mo10  1  0.21882000  0.23442022  0.61880480  1.0
  Mo  Mo11  1  0.21882000  0.26557978  0.11880480  1.0
  O  O12  1  0.95657691  0.38549919  0.61258420  1.0
  O  O13  1  0.95657691  0.11450081  0.11258420  1.0
  O  O14  1  0.04342309  0.88549919  0.88741580  1.0
  O  O15  1  0.04342309  0.61450081  0.38741580  1.0
  O  O16  1  0.68049293  0.74448017  0.97639871  1.0
  O  O17  1  0.68049293  0.75551983  0.47639871  1.0
  O  O18  1  0.31950707  0.24448017  0.52360129  1.0
  O  O19  1  0.31950707  0.25551983  0.02360129  1.0
  F  F20  1  0.91689192  0.42832392  0.88674916  1.0
  F  F21  1  0.91689192  0.07167608  0.38674916  1.0
  F  F22  1  0.08310808  0.92832392  0.61325084  1.0
  F  F23  1  0.08310808  0.57167608  0.11325084  1.0
  F  F24  1  0.85248725  0.68454914  0.75702674  1.0
  F  F25  1  0.85248725  0.81545086  0.25702674  1.0
  F  F26  1  0.14751275  0.18454914  0.74297326  1.0
  F  F27  1  0.14751275  0.31545086  0.24297326  1.0
  F  F28  1  0.58755133  0.99128445  0.83858430  1.0
  F  F29  1  0.58755133  0.50871555  0.33858430  1.0
  F  F30  1  0.41244867  0.49128445  0.66141570  1.0
  F  F31  1  0.41244867  0.00871555  0.16141570  1.0
  F  F32  1  0.49036851  0.54631699  0.83645494  1.0
  F  F33  1  0.49036851  0.95368301  0.33645494  1.0
  F  F34  1  0.50963149  0.04631699  0.66354506  1.0
  F  F35  1  0.50963149  0.45368301  0.16354506  1.0
