# generated using pymatgen
data_GePt3
_symmetry_space_group_name_H-M   'P 1'
_cell_length_a   5.62469962
_cell_length_b   5.62469962
_cell_length_c   5.62469962
_cell_angle_alpha   120.70820841
_cell_angle_beta   120.70820841
_cell_angle_gamma   88.77766244
_symmetry_Int_Tables_number   1
_chemical_formula_structural   GePt3
_chemical_formula_sum   'Ge2 Pt6'
_cell_volume   124.45198220
_cell_formula_units_Z   2
loop_
 _symmetry_equiv_pos_site_id
 _symmetry_equiv_pos_as_xyz
  1  'x, y, z'
loop_
 _atom_site_type_symbol
 _atom_site_label
 _atom_site_symmetry_multiplicity
 _atom_site_fract_x
 _atom_site_fract_y
 _atom_site_fract_z
 _atom_site_occupancy
  Ge  Ge0  1  0.25000000  0.75000000  0.50000000  1.0
  Ge  Ge1  1  0.75000000  0.25000000  0.50000000  1.0
  Pt  Pt2  1  0.30556405  0.80556405  1.11112810  1.0
  Pt  Pt3  1  0.19443595  0.30556405  0.50000000  1.0
  Pt  Pt4  1  0.80556405  0.69443595  1.50000000  1.0
  Pt  Pt5  1  0.69443595  0.19443595  0.88887190  1.0
  Pt  Pt6  1  0.75000000  0.75000000  1.00000000  1.0
  Pt  Pt7  1  0.25000000  0.25000000  -0.00000000  1.0
