# generated using pymatgen
data_Zn(CN)2
_symmetry_space_group_name_H-M   'P 1'
_cell_length_a   5.93375904
_cell_length_b   5.93375904
_cell_length_c   5.93375904
_cell_angle_alpha   90.00000000
_cell_angle_beta   90.00000000
_cell_angle_gamma   90.00000000
_symmetry_Int_Tables_number   1
_chemical_formula_structural   Zn(CN)2
_chemical_formula_sum   'Zn2 C4 N4'
_cell_volume   208.92466774
_cell_formula_units_Z   2
loop_
 _symmetry_equiv_pos_site_id
 _symmetry_equiv_pos_as_xyz
  1  'x, y, z'
loop_
 _atom_site_type_symbol
 _atom_site_label
 _atom_site_symmetry_multiplicity
 _atom_site_fract_x
 _atom_site_fract_y
 _atom_site_fract_z
 _atom_site_occupancy
  Zn  Zn0  1  0.00000000  0.00000000  0.00000000  1.0
  Zn  Zn1  1  0.50000000  0.50000000  0.50000000  1.0
  C  C2  1  0.80444600  0.80444600  0.19555400  1.0
  C  C3  1  0.80444600  0.19555400  0.80444600  1.0
  C  C4  1  0.19555400  0.80444600  0.80444600  1.0
  C  C5  1  0.19555400  0.19555400  0.19555400  1.0
  N  N6  1  0.69124037  0.69124037  0.30875963  1.0
  N  N7  1  0.69124037  0.30875963  0.69124037  1.0
  N  N8  1  0.30875963  0.69124037  0.69124037  1.0
  N  N9  1  0.30875963  0.30875963  0.30875963  1.0
