# generated using pymatgen
data_Ca5P3O13
_symmetry_space_group_name_H-M   'P 1'
_cell_length_a   9.56263099
_cell_length_b   9.56263099
_cell_length_c   6.90180883
_cell_angle_alpha   90.00000000
_cell_angle_beta   90.00000000
_cell_angle_gamma   120.00000000
_symmetry_Int_Tables_number   1
_chemical_formula_structural   Ca5P3O13
_chemical_formula_sum   'Ca10 P6 O26'
_cell_volume   546.57322345
_cell_formula_units_Z   2
loop_
 _symmetry_equiv_pos_site_id
 _symmetry_equiv_pos_as_xyz
  1  'x, y, z'
loop_
 _atom_site_type_symbol
 _atom_site_label
 _atom_site_symmetry_multiplicity
 _atom_site_fract_x
 _atom_site_fract_y
 _atom_site_fract_z
 _atom_site_occupancy
  O  O0  1  0.74180484  0.65743103  0.43177421  1.0
  O  O1  1  0.74180484  0.65743103  0.06822579  1.0
  O  O2  1  0.65743103  0.91562618  0.93177421  1.0
  O  O3  1  0.65743103  0.91562618  0.56822579  1.0
  O  O4  1  0.91562618  0.25819516  0.43177421  1.0
  O  O5  1  0.91562618  0.25819516  0.06822579  1.0
  O  O6  1  0.34256897  0.08437382  0.43177421  1.0
  O  O7  1  0.34256897  0.08437382  0.06822579  1.0
  O  O8  1  0.25819516  0.34256897  0.93177421  1.0
  O  O9  1  0.25819516  0.34256897  0.56822579  1.0
  O  O10  1  0.08437382  0.74180484  0.93177421  1.0
  O  O11  1  0.08437382  0.74180484  0.56822579  1.0
  O  O12  1  0.33261911  0.84441073  0.25000000  1.0
  O  O13  1  0.84441073  0.51179161  0.75000000  1.0
  O  O14  1  0.51179161  0.66738089  0.25000000  1.0
  O  O15  1  0.15558927  0.48820839  0.25000000  1.0
  O  O16  1  0.66738089  0.15558927  0.75000000  1.0
  O  O17  1  0.48820839  0.33261911  0.75000000  1.0
  O  O18  1  0.53607273  0.41107689  0.25000000  1.0
  O  O19  1  0.41107689  0.87500416  0.75000000  1.0
  O  O20  1  0.87500416  0.46392727  0.25000000  1.0
  O  O21  1  0.58892311  0.12499584  0.25000000  1.0
  O  O22  1  0.46392727  0.58892311  0.75000000  1.0
  O  O23  1  0.12499584  0.53607273  0.75000000  1.0
  O  O24  1  0.00000000  0.00000000  0.25000000  1.0
  O  O25  1  0.00000000  0.00000000  0.75000000  1.0
  Ca  Ca26  1  0.33333333  0.66666667  0.49836515  1.0
  Ca  Ca27  1  0.33333333  0.66666667  0.00163485  1.0
  Ca  Ca28  1  0.66666667  0.33333333  0.99836515  1.0
  Ca  Ca29  1  0.66666667  0.33333333  0.50163485  1.0
  Ca  Ca30  1  -0.00113776  0.75115839  0.25000000  1.0
  Ca  Ca31  1  0.75115839  0.75229615  0.75000000  1.0
  Ca  Ca32  1  0.75229615  1.00113776  0.25000000  1.0
  Ca  Ca33  1  0.24884161  0.24770385  0.25000000  1.0
  Ca  Ca34  1  1.00113776  0.24884161  0.75000000  1.0
  Ca  Ca35  1  0.24770385  -0.00113776  0.75000000  1.0
  P  P36  1  0.63008974  0.60040632  0.25000000  1.0
  P  P37  1  0.60040632  0.97031658  0.75000000  1.0
  P  P38  1  0.97031658  0.36991026  0.25000000  1.0
  P  P39  1  0.39959368  0.02968342  0.25000000  1.0
  P  P40  1  0.36991026  0.39959368  0.75000000  1.0
  P  P41  1  0.02968342  0.63008974  0.75000000  1.0
