# generated using pymatgen
data_Y4C7
_symmetry_space_group_name_H-M   'P 1'
_cell_length_a   3.71269934
_cell_length_b   13.74608322
_cell_length_c   6.46921826
_cell_angle_alpha   90.00000000
_cell_angle_beta   104.75119878
_cell_angle_gamma   90.00000000
_symmetry_Int_Tables_number   1
_chemical_formula_structural   Y4C7
_chemical_formula_sum   'Y8 C14'
_cell_volume   319.27525924
_cell_formula_units_Z   2
loop_
 _symmetry_equiv_pos_site_id
 _symmetry_equiv_pos_as_xyz
  1  'x, y, z'
loop_
 _atom_site_type_symbol
 _atom_site_label
 _atom_site_symmetry_multiplicity
 _atom_site_fract_x
 _atom_site_fract_y
 _atom_site_fract_z
 _atom_site_occupancy
  Y  Y0  1  0.94386145  0.33744837  0.33948323  1.0
  Y  Y1  1  0.94386145  0.16255163  0.83948323  1.0
  Y  Y2  1  0.05613855  0.83744837  0.16051677  1.0
  Y  Y3  1  0.05613855  0.66255163  0.66051677  1.0
  Y  Y4  1  0.63365929  0.05511539  0.26089662  1.0
  Y  Y5  1  0.63365929  0.44488461  0.76089662  1.0
  Y  Y6  1  0.36634071  0.55511539  0.23910338  1.0
  Y  Y7  1  0.36634071  0.94488461  0.73910338  1.0
  C  C8  1  0.73232340  0.89555944  0.44945353  1.0
  C  C9  1  0.73232340  0.60444056  0.94945353  1.0
  C  C10  1  0.26767660  0.39555944  0.05054647  1.0
  C  C11  1  0.26767660  0.10444056  0.55054647  1.0
  C  C12  1  0.62170205  0.80342335  0.45310446  1.0
  C  C13  1  0.62170205  0.69657665  0.95310446  1.0
  C  C14  1  0.37829795  0.30342335  0.04689554  1.0
  C  C15  1  0.37829795  0.19657665  0.54689554  1.0
  C  C16  1  0.53101823  0.21573482  0.07652279  1.0
  C  C17  1  0.53101823  0.28426518  0.57652279  1.0
  C  C18  1  0.46898177  0.71573482  0.42347721  1.0
  C  C19  1  0.46898177  0.78426518  0.92347721  1.0
  C  C20  1  0.00000000  0.50000000  0.50000000  1.0
  C  C21  1  0.00000000  0.00000000  0.00000000  1.0
