# generated using pymatgen
data_K3BSb4O13
_symmetry_space_group_name_H-M   'P 1'
_cell_length_a   13.51021307
_cell_length_b   7.35232253
_cell_length_c   7.23257530
_cell_angle_alpha   63.15355016
_cell_angle_beta   79.83203996
_cell_angle_gamma   82.62165332
_symmetry_Int_Tables_number   1
_chemical_formula_structural   K3BSb4O13
_chemical_formula_sum   'K6 B2 Sb8 O26'
_cell_volume   629.95277321
_cell_formula_units_Z   2
loop_
 _symmetry_equiv_pos_site_id
 _symmetry_equiv_pos_as_xyz
  1  'x, y, z'
loop_
 _atom_site_type_symbol
 _atom_site_label
 _atom_site_symmetry_multiplicity
 _atom_site_fract_x
 _atom_site_fract_y
 _atom_site_fract_z
 _atom_site_occupancy
  K  K0  1  -0.03143001  -0.78069984  -0.81227555  1.0
  K  K1  1  -0.96856999  -0.21930016  -0.18772445  1.0
  K  K2  1  -0.30779489  -0.79746602  -0.77855696  1.0
  K  K3  1  -0.69220511  -0.20253398  -0.22144304  1.0
  K  K4  1  -0.56190271  -0.56455874  -0.63561106  1.0
  K  K5  1  -0.43809729  -0.43544126  -0.36438894  1.0
  B  B6  1  -0.97587974  -0.73273316  -0.34151227  1.0
  B  B7  1  -0.02412026  -0.26726684  -0.65848773  1.0
  Sb  Sb8  1  -0.60562667  -0.93053842  -0.92502302  1.0
  Sb  Sb9  1  -0.39437333  -0.06946158  -0.07497698  1.0
  Sb  Sb10  1  -0.79386526  -0.70531003  -0.67270033  1.0
  Sb  Sb11  1  -0.20613474  -0.29468997  -0.32729967  1.0
  Sb  Sb12  1  -0.79224836  -0.20838371  -0.66558841  1.0
  Sb  Sb13  1  -0.20775164  -0.79161629  -0.33441159  1.0
  Sb  Sb14  1  -0.78574602  -0.68940272  -0.18737741  1.0
  Sb  Sb15  1  -0.21425398  -0.31059728  -0.81262259  1.0
  O  O16  1  -0.74879347  -0.98557492  -0.96881421  1.0
  O  O17  1  -0.25120653  -0.01442508  -0.03118579  1.0
  O  O18  1  -0.84173283  -0.61714507  -0.95035471  1.0
  O  O19  1  -0.15826717  -0.38285493  -0.04964529  1.0
  O  O20  1  -0.46171435  -0.90663133  -0.91397610  1.0
  O  O21  1  -0.53828565  -0.09336867  -0.08602390  1.0
  O  O22  1  -0.36425849  -0.32846825  -0.81650405  1.0
  O  O23  1  -0.63574151  -0.67153175  -0.18349595  1.0
  O  O24  1  -0.75368316  -0.41521109  -0.77621039  1.0
  O  O25  1  -0.24631684  -0.58478891  -0.22378961  1.0
  O  O26  1  -0.64988729  -0.76709042  -0.76799779  1.0
  O  O27  1  -0.35011271  -0.23290958  -0.23200221  1.0
  O  O28  1  -0.93151971  -0.18141553  -0.73226203  1.0
  O  O29  1  -0.06848029  -0.81858447  -0.26773797  1.0
  O  O30  1  -0.83352271  -0.99450511  -0.56374424  1.0
  O  O31  1  -0.16647729  -0.00549489  -0.43625576  1.0
  O  O32  1  -0.93655338  -0.65565757  -0.55106962  1.0
  O  O33  1  -0.06344662  -0.34434243  -0.44893038  1.0
  O  O34  1  -0.73785582  -0.78455121  -0.40554004  1.0
  O  O35  1  -0.26214418  -0.21544879  -0.59445996  1.0
  O  O36  1  -0.80752232  -0.39439313  -0.36342820  1.0
  O  O37  1  -0.19247768  -0.60560687  -0.63657180  1.0
  O  O38  1  -0.35849266  -0.81156361  -0.33622021  1.0
  O  O39  1  -0.64150734  -0.18843639  -0.66377979  1.0
  O  O40  1  -0.92616155  -0.75415631  -0.17995756  1.0
  O  O41  1  -0.07383845  -0.24584369  -0.82004244  1.0
