# generated using pymatgen
data_Co2Si
_symmetry_space_group_name_H-M   'P 1'
_cell_length_a   4.88168752
_cell_length_b   3.71252122
_cell_length_c   7.02855321
_cell_angle_alpha   90.00000000
_cell_angle_beta   90.00000000
_cell_angle_gamma   90.00000000
_symmetry_Int_Tables_number   1
_chemical_formula_structural   Co2Si
_chemical_formula_sum   'Co8 Si4'
_cell_volume   127.38105986
_cell_formula_units_Z   4
loop_
 _symmetry_equiv_pos_site_id
 _symmetry_equiv_pos_as_xyz
  1  'x, y, z'
loop_
 _atom_site_type_symbol
 _atom_site_label
 _atom_site_symmetry_multiplicity
 _atom_site_fract_x
 _atom_site_fract_y
 _atom_site_fract_z
 _atom_site_occupancy
  Co  Co0  1  0.82657775  0.75000000  0.43574125  1.0
  Co  Co1  1  0.32657775  0.75000000  0.06425875  1.0
  Co  Co2  1  0.17342225  0.25000000  0.56425875  1.0
  Co  Co3  1  0.67342225  0.25000000  0.93574125  1.0
  Co  Co4  1  0.96470621  0.75000000  0.78214662  1.0
  Co  Co5  1  0.46470621  0.75000000  0.71785338  1.0
  Co  Co6  1  0.03529379  0.25000000  0.21785338  1.0
  Co  Co7  1  0.53529379  0.25000000  0.28214662  1.0
  Si  Si8  1  0.79738483  0.75000000  0.10557355  1.0
  Si  Si9  1  0.29738483  0.75000000  0.39442645  1.0
  Si  Si10  1  0.20261517  0.25000000  0.89442645  1.0
  Si  Si11  1  0.70261517  0.25000000  0.60557355  1.0
