# generated using pymatgen
data_AgH2CS2N
_symmetry_space_group_name_H-M   'P 1'
_cell_length_a   8.47880947
_cell_length_b   8.47880947
_cell_length_c   8.47880947
_cell_angle_alpha   123.47286114
_cell_angle_beta   123.47286114
_cell_angle_gamma   84.08321777
_symmetry_Int_Tables_number   1
_chemical_formula_structural   AgH2CS2N
_chemical_formula_sum   'Ag4 H8 C4 S8 N4'
_cell_volume   406.01841122
_cell_formula_units_Z   4
loop_
 _symmetry_equiv_pos_site_id
 _symmetry_equiv_pos_as_xyz
  1  'x, y, z'
loop_
 _atom_site_type_symbol
 _atom_site_label
 _atom_site_symmetry_multiplicity
 _atom_site_fract_x
 _atom_site_fract_y
 _atom_site_fract_z
 _atom_site_occupancy
  Ag  Ag0  1  0.90656447  0.40656447  0.50000000  1.0
  Ag  Ag1  1  0.84343553  0.84343553  1.00000000  1.0
  Ag  Ag2  1  1.15656447  1.15656447  1.00000000  1.0
  Ag  Ag3  1  0.59343553  1.09343553  0.50000000  1.0
  H  H4  1  1.24492379  1.49466320  1.55690703  1.0
  H  H5  1  0.81224384  0.75533680  0.25026059  1.0
  H  H6  1  0.43801676  1.18775616  0.94309297  1.0
  H  H7  1  0.50533680  1.06224384  0.75026059  1.0
  H  H8  1  1.50507621  1.56198324  1.74973941  1.0
  H  H9  1  0.93775616  0.68801676  0.44309297  1.0
  H  H10  1  1.31198324  0.75507621  1.24973941  1.0
  H  H11  1  1.24466320  0.49492379  1.05690703  1.0
  C  C12  1  1.24121640  1.12500000  1.61621640  1.0
  C  C13  1  1.37500000  0.75878360  0.88378360  1.0
  C  C14  1  0.87500000  1.49121640  1.11621640  1.0
  C  C15  1  0.50878360  0.62500000  0.38378360  1.0
  S  S16  1  1.06520779  1.20453709  1.66442840  1.0
  S  S17  1  1.20989131  1.04546291  1.36067071  1.0
  S  S18  1  1.15077939  0.79010869  0.83557160  1.0
  S  S19  1  0.79546291  1.45989131  0.86067071  1.0
  S  S20  1  0.68479221  0.84922061  0.63932929  1.0
  S  S21  1  0.54010869  0.40077939  0.33557160  1.0
  S  S22  1  1.59922061  0.93479221  1.13932929  1.0
  S  S23  1  0.95453709  1.31520779  1.16442840  1.0
  N  N24  1  0.40618916  1.12500000  0.78118916  1.0
  N  N25  1  1.37500000  1.59381084  1.71881084  1.0
  N  N26  1  0.87500000  0.65618916  0.28118916  1.0
  N  N27  1  1.34381084  0.62500000  1.21881084  1.0
