# generated using pymatgen
data_CeGe5Ru
_symmetry_space_group_name_H-M   'P 1'
_cell_length_a   8.15837807
_cell_length_b   8.15837807
_cell_length_c   8.15837807
_cell_angle_alpha   135.68749464
_cell_angle_beta   135.68749464
_cell_angle_gamma   64.46384515
_symmetry_Int_Tables_number   1
_chemical_formula_structural   CeGe5Ru
_chemical_formula_sum   'Ce2 Ge10 Ru2'
_cell_volume   261.32400060
_cell_formula_units_Z   2
loop_
 _symmetry_equiv_pos_site_id
 _symmetry_equiv_pos_as_xyz
  1  'x, y, z'
loop_
 _atom_site_type_symbol
 _atom_site_label
 _atom_site_symmetry_multiplicity
 _atom_site_fract_x
 _atom_site_fract_y
 _atom_site_fract_z
 _atom_site_occupancy
  Ce  Ce0  1  0.50000000  0.50000000  1.00000000  1.0
  Ce  Ce1  1  0.00000000  0.00000000  0.00000000  1.0
  Ge  Ge2  1  0.49075574  0.99075574  0.81754304  1.0
  Ge  Ge3  1  1.17321270  0.67321270  1.18245696  1.0
  Ge  Ge4  1  0.99075574  1.17321270  1.50000000  1.0
  Ge  Ge5  1  0.67321270  0.49075574  0.50000000  1.0
  Ge  Ge6  1  0.50924426  1.00924426  1.18245696  1.0
  Ge  Ge7  1  0.82678730  0.32678730  0.81754304  1.0
  Ge  Ge8  1  1.00924426  0.82678730  1.50000000  1.0
  Ge  Ge9  1  0.32678730  0.50924426  0.50000000  1.0
  Ge  Ge10  1  0.50000000  0.00000000  0.50000000  1.0
  Ge  Ge11  1  -0.00000000  0.50000000  0.50000000  1.0
  Ru  Ru12  1  0.25000000  0.25000000  -0.00000000  1.0
  Ru  Ru13  1  0.75000000  0.75000000  1.00000000  1.0
