# generated using pymatgen
data_Sr2InPt2
_symmetry_space_group_name_H-M   'P 1'
_cell_length_a   6.03405226
_cell_length_b   6.03405226
_cell_length_c   8.39140215
_cell_angle_alpha   78.39322408
_cell_angle_beta   101.60677592
_cell_angle_gamma   119.92033882
_symmetry_Int_Tables_number   1
_chemical_formula_structural   Sr2InPt2
_chemical_formula_sum   'Sr4 In2 Pt4'
_cell_volume   257.55703500
_cell_formula_units_Z   2
loop_
 _symmetry_equiv_pos_site_id
 _symmetry_equiv_pos_as_xyz
  1  'x, y, z'
loop_
 _atom_site_type_symbol
 _atom_site_label
 _atom_site_symmetry_multiplicity
 _atom_site_fract_x
 _atom_site_fract_y
 _atom_site_fract_z
 _atom_site_occupancy
  Sr  Sr0  1  1.50480716  0.20943175  0.14694159  1.0
  Sr  Sr1  1  0.79056825  -0.50480716  0.64694159  1.0
  Sr  Sr2  1  1.20943175  0.50480716  0.35305841  1.0
  Sr  Sr3  1  0.49519284  -0.20943175  0.85305841  1.0
  In  In4  1  0.86632476  -0.13367524  0.25000000  1.0
  In  In5  1  1.13367524  0.13367524  0.75000000  1.0
  Pt  Pt6  1  0.72261091  -0.00102084  0.49731121  1.0
  Pt  Pt7  1  1.00102084  0.27738909  0.99731121  1.0
  Pt  Pt8  1  0.99897916  -0.27738909  0.00268879  1.0
  Pt  Pt9  1  1.27738909  0.00102084  0.50268879  1.0
