# generated using pymatgen
data_La4C2Br5
_symmetry_space_group_name_H-M   'P 1'
_cell_length_a   10.44513417
_cell_length_b   10.44513417
_cell_length_c   10.44513417
_cell_angle_alpha   157.65117748
_cell_angle_beta   132.69374657
_cell_angle_gamma   52.91741767
_symmetry_Int_Tables_number   1
_chemical_formula_structural   La4C2Br5
_chemical_formula_sum   'La4 C2 Br5'
_cell_volume   317.28812839
_cell_formula_units_Z   1
loop_
 _symmetry_equiv_pos_site_id
 _symmetry_equiv_pos_as_xyz
  1  'x, y, z'
loop_
 _atom_site_type_symbol
 _atom_site_label
 _atom_site_symmetry_multiplicity
 _atom_site_fract_x
 _atom_site_fract_y
 _atom_site_fract_z
 _atom_site_occupancy
  La  La0  1  0.83907821  0.83907821  1.00000000  1.0
  La  La1  1  0.16092179  0.16092179  -0.00000000  1.0
  La  La2  1  0.20436936  0.50000000  0.70436936  1.0
  La  La3  1  0.79563064  0.50000000  1.29563064  1.0
  C  C4  1  0.96217606  0.96217606  1.00000000  1.0
  C  C5  1  0.03782394  0.03782394  -0.00000000  1.0
  Br  Br6  1  0.43783126  0.66398760  0.77384366  1.0
  Br  Br7  1  1.10985606  0.33601240  0.77384366  1.0
  Br  Br8  1  0.89014394  0.66398760  1.22615634  1.0
  Br  Br9  1  0.56216874  0.33601240  0.22615634  1.0
  Br  Br10  1  0.50000000  -0.00000000  0.50000000  1.0
