# generated using pymatgen
data_Mn3(Ni10P3)2
_symmetry_space_group_name_H-M   'P 1'
_cell_length_a   7.82539187
_cell_length_b   7.82539187
_cell_length_c   7.82539187
_cell_angle_alpha   60.00000000
_cell_angle_beta   60.00000000
_cell_angle_gamma   60.00000000
_symmetry_Int_Tables_number   1
_chemical_formula_structural   Mn3(Ni10P3)2
_chemical_formula_sum   'Mn3 Ni20 P6'
_cell_volume   338.84672063
_cell_formula_units_Z   1
loop_
 _symmetry_equiv_pos_site_id
 _symmetry_equiv_pos_as_xyz
  1  'x, y, z'
loop_
 _atom_site_type_symbol
 _atom_site_label
 _atom_site_symmetry_multiplicity
 _atom_site_fract_x
 _atom_site_fract_y
 _atom_site_fract_z
 _atom_site_occupancy
  Mn  Mn0  1  0.00000000  0.00000000  0.00000000  1.0
  Mn  Mn1  1  0.75000000  0.75000000  -0.25000000  1.0
  Mn  Mn2  1  1.25000000  0.25000000  0.25000000  1.0
  Ni  Ni3  1  1.65184064  0.00000000  -0.00000000  1.0
  Ni  Ni4  1  1.00000000  0.34815936  -0.34815936  1.0
  Ni  Ni5  1  1.00000000  0.65184064  -0.65184064  1.0
  Ni  Ni6  1  1.34815936  0.00000000  -0.00000000  1.0
  Ni  Ni7  1  0.00000000  1.65184064  -0.00000000  1.0
  Ni  Ni8  1  0.34815936  1.00000000  -0.34815936  1.0
  Ni  Ni9  1  0.00000000  0.00000000  0.65184064  1.0
  Ni  Ni10  1  0.34815936  -0.34815936  1.00000000  1.0
  Ni  Ni11  1  0.65184064  1.00000000  -0.65184064  1.0
  Ni  Ni12  1  0.00000000  1.34815936  -0.00000000  1.0
  Ni  Ni13  1  0.65184064  -0.65184064  1.00000000  1.0
  Ni  Ni14  1  -0.00000000  -0.00000000  0.34815936  1.0
  Ni  Ni15  1  0.61785738  0.61785738  -0.38214262  1.0
  Ni  Ni16  1  0.38214262  1.38214262  -0.14642786  1.0
  Ni  Ni17  1  1.38214262  -0.14642786  0.38214262  1.0
  Ni  Ni18  1  1.14642786  0.61785738  0.61785738  1.0
  Ni  Ni19  1  -0.14642786  1.38214262  0.38214262  1.0
  Ni  Ni20  1  0.61785738  1.14642786  -0.38214262  1.0
  Ni  Ni21  1  0.61785738  0.61785738  1.14642786  1.0
  Ni  Ni22  1  1.38214262  0.38214262  0.38214262  1.0
  P  P23  1  -0.73533894  0.73533894  0.73533894  1.0
  P  P24  1  -0.26466106  0.26466106  0.73533894  1.0
  P  P25  1  0.73533894  0.73533894  -0.73533894  1.0
  P  P26  1  0.26466106  1.26466106  -0.26466106  1.0
  P  P27  1  0.26466106  -0.26466106  1.26466106  1.0
  P  P28  1  -0.26466106  0.26466106  0.26466106  1.0
