# generated using pymatgen
data_AlH10C3N
_symmetry_space_group_name_H-M   'P 1'
_cell_length_a   5.40735406
_cell_length_b   10.47651198
_cell_length_c   11.13464950
_cell_angle_alpha   90.00000000
_cell_angle_beta   110.45887112
_cell_angle_gamma   90.00000000
_symmetry_Int_Tables_number   1
_chemical_formula_structural   AlH10C3N
_chemical_formula_sum   'Al4 H40 C12 N4'
_cell_volume   590.99271760
_cell_formula_units_Z   4
loop_
 _symmetry_equiv_pos_site_id
 _symmetry_equiv_pos_as_xyz
  1  'x, y, z'
loop_
 _atom_site_type_symbol
 _atom_site_label
 _atom_site_symmetry_multiplicity
 _atom_site_fract_x
 _atom_site_fract_y
 _atom_site_fract_z
 _atom_site_occupancy
  Al  Al0  1  0.73151763  0.44823377  0.48428233  1.0
  Al  Al1  1  0.73151763  0.05176623  0.98428233  1.0
  Al  Al2  1  0.26848237  0.55176623  0.51571767  1.0
  Al  Al3  1  0.26848237  0.94823377  0.01571767  1.0
  H  H4  1  0.85835834  0.53523920  0.39751649  1.0
  H  H5  1  0.85835834  0.96476080  0.89751649  1.0
  H  H6  1  0.14164166  0.46476080  0.60248351  1.0
  H  H7  1  0.14164166  0.03523920  0.10248351  1.0
  H  H8  1  0.78445109  0.29822172  0.50837898  1.0
  H  H9  1  0.78445109  0.20177828  0.00837898  1.0
  H  H10  1  0.21554891  0.70177828  0.49162102  1.0
  H  H11  1  0.21554891  0.79822172  0.99162102  1.0
  H  H12  1  0.75681752  0.71983043  0.55685975  1.0
  H  H13  1  0.75681752  0.78016957  0.05685975  1.0
  H  H14  1  0.24318248  0.28016957  0.44314025  1.0
  H  H15  1  0.24318248  0.21983043  0.94314025  1.0
  H  H16  1  0.99813153  0.66080721  0.69992537  1.0
  H  H17  1  0.99813153  0.83919279  0.19992537  1.0
  H  H18  1  0.00186847  0.33919279  0.30007463  1.0
  H  H19  1  0.00186847  0.16080721  0.80007463  1.0
  H  H20  1  0.70004786  0.72965011  0.70402776  1.0
  H  H21  1  0.70004786  0.77034989  0.20402776  1.0
  H  H22  1  0.29995214  0.27034989  0.29597224  1.0
  H  H23  1  0.29995214  0.22965011  0.79597224  1.0
  H  H24  1  0.94251604  0.44543366  0.77515859  1.0
  H  H25  1  0.94251604  0.05456634  0.27515859  1.0
  H  H26  1  0.05748396  0.55456634  0.22484141  1.0
  H  H27  1  0.05748396  0.94543366  0.72484141  1.0
  H  H28  1  0.62895791  0.37198824  0.71491035  1.0
  H  H29  1  0.62895791  0.12801176  0.21491035  1.0
  H  H30  1  0.37104209  0.62801176  0.28508965  1.0
  H  H31  1  0.37104209  0.87198824  0.78508965  1.0
  H  H32  1  0.69746353  0.45705709  0.92810745  1.0
  H  H33  1  0.69746353  0.04294291  0.42810745  1.0
  H  H34  1  0.30253647  0.54294291  0.07189255  1.0
  H  H35  1  0.30253647  0.95705709  0.57189255  1.0
  H  H36  1  0.44331343  0.54829956  0.81644874  1.0
  H  H37  1  0.44331343  0.95170044  0.31644874  1.0
  H  H38  1  0.55668657  0.45170044  0.18355126  1.0
  H  H39  1  0.55668657  0.04829956  0.68355126  1.0
  H  H40  1  0.76809035  0.61233103  0.88548586  1.0
  H  H41  1  0.76809035  0.88766897  0.38548586  1.0
  H  H42  1  0.23190965  0.38766897  0.11451414  1.0
  H  H43  1  0.23190965  0.11233103  0.61451414  1.0
  C  C44  1  0.78435094  0.66950167  0.64703691  1.0
  C  C45  1  0.78435094  0.83049833  0.14703691  1.0
  C  C46  1  0.21564906  0.33049833  0.35296309  1.0
  C  C47  1  0.21564906  0.16950167  0.85296309  1.0
  C  C48  1  0.72816812  0.46499016  0.74044137  1.0
  C  C49  1  0.72816812  0.03500984  0.24044137  1.0
  C  C50  1  0.27183188  0.53500984  0.25955863  1.0
  C  C51  1  0.27183188  0.96499016  0.75955863  1.0
  C  C52  1  0.65471936  0.52507223  0.84830176  1.0
  C  C53  1  0.65471936  0.97492777  0.34830176  1.0
  C  C54  1  0.34528064  0.47492777  0.15169824  1.0
  C  C55  1  0.34528064  0.02507223  0.65169824  1.0
  N  N56  1  0.65820463  0.54218770  0.62058107  1.0
  N  N57  1  0.65820463  0.95781230  0.12058107  1.0
  N  N58  1  0.34179537  0.45781230  0.37941893  1.0
  N  N59  1  0.34179537  0.04218770  0.87941893  1.0
