# generated using pymatgen
data_Bi(PdO)2
_symmetry_space_group_name_H-M   'P 1'
_cell_length_a   10.32809042
_cell_length_b   10.32809042
_cell_length_c   6.95862380
_cell_angle_alpha   90.00000000
_cell_angle_beta   90.00000000
_cell_angle_gamma   90.00000000
_symmetry_Int_Tables_number   1
_chemical_formula_structural   Bi(PdO)2
_chemical_formula_sum   'Bi8 Pd16 O16'
_cell_volume   742.27258484
_cell_formula_units_Z   8
loop_
 _symmetry_equiv_pos_site_id
 _symmetry_equiv_pos_as_xyz
  1  'x, y, z'
loop_
 _atom_site_type_symbol
 _atom_site_label
 _atom_site_symmetry_multiplicity
 _atom_site_fract_x
 _atom_site_fract_y
 _atom_site_fract_z
 _atom_site_occupancy
  Bi  Bi0  1  0.26728790  0.73271210  0.75000000  1.0
  Bi  Bi1  1  0.26728790  0.26728790  0.25000000  1.0
  Bi  Bi2  1  0.76728790  0.23271210  0.25000000  1.0
  Bi  Bi3  1  0.76728790  0.76728790  0.75000000  1.0
  Bi  Bi4  1  0.73271210  0.26728790  0.75000000  1.0
  Bi  Bi5  1  0.73271210  0.73271210  0.25000000  1.0
  Bi  Bi6  1  0.23271210  0.76728790  0.25000000  1.0
  Bi  Bi7  1  0.23271210  0.23271210  0.75000000  1.0
  Pd  Pd8  1  -0.01546226  0.14796035  0.88720235  1.0
  Pd  Pd9  1  -0.01546226  0.85203965  0.38720235  1.0
  Pd  Pd10  1  0.48453774  0.64796035  0.11279765  1.0
  Pd  Pd11  1  0.48453774  0.35203965  0.61279765  1.0
  Pd  Pd12  1  0.14796035  -0.01546226  0.61279765  1.0
  Pd  Pd13  1  0.14796035  1.01546226  0.11279765  1.0
  Pd  Pd14  1  0.64796035  0.48453774  0.38720235  1.0
  Pd  Pd15  1  0.64796035  0.51546226  0.88720235  1.0
  Pd  Pd16  1  1.01546226  0.14796035  0.38720235  1.0
  Pd  Pd17  1  1.01546226  0.85203965  0.88720235  1.0
  Pd  Pd18  1  0.51546226  0.64796035  0.61279765  1.0
  Pd  Pd19  1  0.51546226  0.35203965  0.11279765  1.0
  Pd  Pd20  1  0.85203965  -0.01546226  0.11279765  1.0
  Pd  Pd21  1  0.85203965  1.01546226  0.61279765  1.0
  Pd  Pd22  1  0.35203965  0.48453774  0.88720235  1.0
  Pd  Pd23  1  0.35203965  0.51546226  0.38720235  1.0
  O  O24  1  0.53086776  0.23906372  0.86250105  1.0
  O  O25  1  0.53086776  0.76093628  0.36250105  1.0
  O  O26  1  1.03086776  0.73906372  0.13749895  1.0
  O  O27  1  1.03086776  0.26093628  0.63749895  1.0
  O  O28  1  0.23906372  0.53086776  0.63749895  1.0
  O  O29  1  0.23906372  0.46913224  0.13749895  1.0
  O  O30  1  0.73906372  1.03086776  0.36250105  1.0
  O  O31  1  0.73906372  -0.03086776  0.86250105  1.0
  O  O32  1  0.46913224  0.23906372  0.36250105  1.0
  O  O33  1  0.46913224  0.76093628  0.86250105  1.0
  O  O34  1  -0.03086776  0.73906372  0.63749895  1.0
  O  O35  1  -0.03086776  0.26093628  0.13749895  1.0
  O  O36  1  0.76093628  0.53086776  0.13749895  1.0
  O  O37  1  0.76093628  0.46913224  0.63749895  1.0
  O  O38  1  0.26093628  1.03086776  0.86250105  1.0
  O  O39  1  0.26093628  -0.03086776  0.36250105  1.0
