# generated using pymatgen
data_LiMgIn(MoO4)3
_symmetry_space_group_name_H-M   'P 1'
_cell_length_a   9.90088476
_cell_length_b   8.56047408
_cell_length_c   7.06747382
_cell_angle_alpha   101.71367772
_cell_angle_beta   106.24752867
_cell_angle_gamma   96.51368853
_symmetry_Int_Tables_number   1
_chemical_formula_structural   LiMgIn(MoO4)3
_chemical_formula_sum   'Li2 Mg2 In2 Mo6 O24'
_cell_volume   553.80177293
_cell_formula_units_Z   2
loop_
 _symmetry_equiv_pos_site_id
 _symmetry_equiv_pos_as_xyz
  1  'x, y, z'
loop_
 _atom_site_type_symbol
 _atom_site_label
 _atom_site_symmetry_multiplicity
 _atom_site_fract_x
 _atom_site_fract_y
 _atom_site_fract_z
 _atom_site_occupancy
  Li  Li0  1  -0.19721033  -0.89296347  -0.45969507  1.0
  Li  Li1  1  -0.80278967  -0.10703653  -0.54030493  1.0
  Mg  Mg2  1  -0.99227495  -0.69521500  -0.03811560  1.0
  Mg  Mg3  1  -0.00772505  -0.30478500  -0.96188440  1.0
  In  In4  1  -0.40425024  -0.69845421  -0.74636255  1.0
  In  In5  1  -0.59574976  -0.30154579  -0.25363745  1.0
  Mo  Mo6  1  -0.33365766  -0.60104637  -0.19813521  1.0
  Mo  Mo7  1  -0.66634234  -0.39895363  -0.80186479  1.0
  Mo  Mo8  1  -0.74863872  -0.00546907  -0.99395761  1.0
  Mo  Mo9  1  -0.25136128  -0.99453093  -0.00604239  1.0
  Mo  Mo10  1  -0.87998170  -0.70027477  -0.48135806  1.0
  Mo  Mo11  1  -0.12001830  -0.29972523  -0.51864194  1.0
  O  O12  1  -0.17951914  -0.86347687  -0.13572399  1.0
  O  O13  1  -0.82048086  -0.13652313  -0.86427601  1.0
  O  O14  1  -0.42363319  -0.70339923  -0.06062244  1.0
  O  O15  1  -0.57636681  -0.29660077  -0.93937756  1.0
  O  O16  1  -0.35165936  -0.73162542  -0.44034502  1.0
  O  O17  1  -0.64834064  -0.26837458  -0.55965498  1.0
  O  O18  1  -0.26269311  -0.87716383  -0.76903612  1.0
  O  O19  1  -0.73730689  -0.12283617  -0.23096388  1.0
  O  O20  1  -0.58154520  -0.56268367  -0.75267280  1.0
  O  O21  1  -0.41845480  -0.43731633  -0.24732720  1.0
  O  O22  1  -0.14921579  -0.52547135  -0.05726331  1.0
  O  O23  1  -0.85078421  -0.47452865  -0.94273669  1.0
  O  O24  1  -0.01052670  -0.71979911  -0.34978806  1.0
  O  O25  1  -0.98947330  -0.28020089  -0.65021194  1.0
  O  O26  1  -0.57560724  -0.90371138  -0.83725008  1.0
  O  O27  1  -0.42439276  -0.09628862  -0.16274992  1.0
  O  O28  1  -0.85755008  -0.86263142  -0.04417548  1.0
  O  O29  1  -0.14244992  -0.13736858  -0.95582452  1.0
  O  O30  1  -0.96380329  -0.68873810  -0.73321616  1.0
  O  O31  1  -0.03619671  -0.31126190  -0.26678384  1.0
  O  O32  1  -0.80441074  -0.87526526  -0.49621361  1.0
  O  O33  1  -0.19558926  -0.12473474  -0.50378639  1.0
  O  O34  1  -0.74186549  -0.52451380  -0.34850340  1.0
  O  O35  1  -0.25813451  -0.47548620  -0.65149660  1.0
