# generated using pymatgen
data_Sr2CaWO6
_symmetry_space_group_name_H-M   'P 1'
_cell_length_a   5.87734367
_cell_length_b   5.87734367
_cell_length_c   5.87734367
_cell_angle_alpha   120.77537860
_cell_angle_beta   120.77537860
_cell_angle_gamma   88.66217078
_symmetry_Int_Tables_number   1
_chemical_formula_structural   Sr2CaWO6
_chemical_formula_sum   'Sr2 Ca1 W1 O6'
_cell_volume   141.83385818
_cell_formula_units_Z   1
loop_
 _symmetry_equiv_pos_site_id
 _symmetry_equiv_pos_as_xyz
  1  'x, y, z'
loop_
 _atom_site_type_symbol
 _atom_site_label
 _atom_site_symmetry_multiplicity
 _atom_site_fract_x
 _atom_site_fract_y
 _atom_site_fract_z
 _atom_site_occupancy
  Sr  Sr0  1  0.25000000  0.75000000  0.50000000  1.0
  Sr  Sr1  1  0.75000000  0.25000000  0.50000000  1.0
  Ca  Ca2  1  0.50000000  0.50000000  1.00000000  1.0
  W  W3  1  0.00000000  0.00000000  0.00000000  1.0
  O  O4  1  0.70789203  0.83779269  1.54568471  1.0
  O  O5  1  0.16220731  0.70789203  0.87009934  1.0
  O  O6  1  0.29210797  0.16220731  0.45431529  1.0
  O  O7  1  0.83779269  0.29210797  1.12990066  1.0
  O  O8  1  0.76892835  0.76892835  1.00000000  1.0
  O  O9  1  0.23107165  0.23107165  -0.00000000  1.0
