# generated using pymatgen
data_SrMnSbF
_symmetry_space_group_name_H-M   'P 1'
_cell_length_a   4.28193395
_cell_length_b   4.28193395
_cell_length_c   9.69246061
_cell_angle_alpha   90.00000000
_cell_angle_beta   90.00000000
_cell_angle_gamma   90.00000000
_symmetry_Int_Tables_number   1
_chemical_formula_structural   SrMnSbF
_chemical_formula_sum   'Sr2 Mn2 Sb2 F2'
_cell_volume   177.71086186
_cell_formula_units_Z   2
loop_
 _symmetry_equiv_pos_site_id
 _symmetry_equiv_pos_as_xyz
  1  'x, y, z'
loop_
 _atom_site_type_symbol
 _atom_site_label
 _atom_site_symmetry_multiplicity
 _atom_site_fract_x
 _atom_site_fract_y
 _atom_site_fract_z
 _atom_site_occupancy
  Sr  Sr0  1  0.50000000  0.00000000  0.63888243  1.0
  Sr  Sr1  1  0.00000000  0.50000000  0.36111757  1.0
  Mn  Mn2  1  0.00000000  0.00000000  0.00000000  1.0
  Mn  Mn3  1  0.50000000  0.50000000  0.00000000  1.0
  Sb  Sb4  1  0.50000000  0.00000000  0.17438713  1.0
  Sb  Sb5  1  0.00000000  0.50000000  0.82561287  1.0
  F  F6  1  0.00000000  0.00000000  0.50000000  1.0
  F  F7  1  0.50000000  0.50000000  0.50000000  1.0
