# generated using pymatgen
data_LaCuTeS
_symmetry_space_group_name_H-M   'P 1'
_cell_length_a   6.50905978
_cell_length_b   7.80377055
_cell_length_c   7.55280915
_cell_angle_alpha   90.00000000
_cell_angle_beta   94.48105351
_cell_angle_gamma   90.00000000
_symmetry_Int_Tables_number   1
_chemical_formula_structural   LaCuTeS
_chemical_formula_sum   'La4 Cu4 Te4 S4'
_cell_volume   382.47379791
_cell_formula_units_Z   4
loop_
 _symmetry_equiv_pos_site_id
 _symmetry_equiv_pos_as_xyz
  1  'x, y, z'
loop_
 _atom_site_type_symbol
 _atom_site_label
 _atom_site_symmetry_multiplicity
 _atom_site_fract_x
 _atom_site_fract_y
 _atom_site_fract_z
 _atom_site_occupancy
  La  La0  1  0.64285250  0.47230918  0.27510241  1.0
  La  La1  1  0.64285250  0.02769082  0.77510241  1.0
  La  La2  1  0.35714750  0.97230918  0.22489759  1.0
  La  La3  1  0.35714750  0.52769082  0.72489759  1.0
  Cu  Cu4  1  0.92839374  0.84340039  0.45857114  1.0
  Cu  Cu5  1  0.92839374  0.65659961  0.95857114  1.0
  Cu  Cu6  1  0.07160626  0.34340039  0.04142886  1.0
  Cu  Cu7  1  0.07160626  0.15659961  0.54142886  1.0
  Te  Te8  1  0.87687868  0.10725673  0.22095075  1.0
  Te  Te9  1  0.87687868  0.39274327  0.72095075  1.0
  Te  Te10  1  0.12312132  0.60725673  0.27904925  1.0
  Te  Te11  1  0.12312132  0.89274327  0.77904925  1.0
  S  S12  1  0.40778165  0.22855936  0.50000085  1.0
  S  S13  1  0.40778165  0.27144064  1.00000085  1.0
  S  S14  1  0.59221835  0.72855936  -0.00000085  1.0
  S  S15  1  0.59221835  0.77144064  0.49999915  1.0
