# generated using pymatgen
data_CrP
_symmetry_space_group_name_H-M   'P 1'
_cell_length_a   5.33199023
_cell_length_b   3.06463247
_cell_length_c   5.94252469
_cell_angle_alpha   90.00000000
_cell_angle_beta   90.00000000
_cell_angle_gamma   90.00000000
_symmetry_Int_Tables_number   1
_chemical_formula_structural   CrP
_chemical_formula_sum   'Cr4 P4'
_cell_volume   97.10436177
_cell_formula_units_Z   4
loop_
 _symmetry_equiv_pos_site_id
 _symmetry_equiv_pos_as_xyz
  1  'x, y, z'
loop_
 _atom_site_type_symbol
 _atom_site_label
 _atom_site_symmetry_multiplicity
 _atom_site_fract_x
 _atom_site_fract_y
 _atom_site_fract_z
 _atom_site_occupancy
  Cr  Cr0  1  0.99125910  0.75000000  0.18982965  1.0
  Cr  Cr1  1  0.49125910  0.75000000  0.31017035  1.0
  Cr  Cr2  1  0.00874090  0.25000000  0.81017035  1.0
  Cr  Cr3  1  0.50874090  0.25000000  0.68982965  1.0
  P  P4  1  0.81727145  0.75000000  0.56478342  1.0
  P  P5  1  0.31727145  0.75000000  0.93521658  1.0
  P  P6  1  0.18272855  0.25000000  0.43521658  1.0
  P  P7  1  0.68272855  0.25000000  0.06478342  1.0
