# generated using pymatgen
data_CaSi7Ir3
_symmetry_space_group_name_H-M   'P 1'
_cell_length_a   8.03318874
_cell_length_b   8.03318874
_cell_length_c   8.03318874
_cell_angle_alpha   56.72647292
_cell_angle_beta   56.72647292
_cell_angle_gamma   56.72647292
_symmetry_Int_Tables_number   1
_chemical_formula_structural   CaSi7Ir3
_chemical_formula_sum   'Ca2 Si14 Ir6'
_cell_volume   338.85802048
_cell_formula_units_Z   2
loop_
 _symmetry_equiv_pos_site_id
 _symmetry_equiv_pos_as_xyz
  1  'x, y, z'
loop_
 _atom_site_type_symbol
 _atom_site_label
 _atom_site_symmetry_multiplicity
 _atom_site_fract_x
 _atom_site_fract_y
 _atom_site_fract_z
 _atom_site_occupancy
  Ca  Ca0  1  1.00000000  0.00000000  0.00000000  1.0
  Ca  Ca1  1  0.50000000  0.50000000  0.50000000  1.0
  Si  Si2  1  0.84994886  0.06588272  -0.32703660  1.0
  Si  Si3  1  1.34994886  0.17296340  -0.43411728  1.0
  Si  Si4  1  0.82703660  0.43411728  -0.34994886  1.0
  Si  Si5  1  1.32703660  0.15005114  -0.06588272  1.0
  Si  Si6  1  0.93411728  0.32703660  0.15005114  1.0
  Si  Si7  1  0.43411728  0.65005114  -0.17296340  1.0
  Si  Si8  1  1.15005114  -0.06588272  0.32703660  1.0
  Si  Si9  1  0.65005114  0.82703660  -0.56588272  1.0
  Si  Si10  1  0.67296340  -0.15005114  0.06588272  1.0
  Si  Si11  1  1.17296340  -0.43411728  0.34994886  1.0
  Si  Si12  1  0.56588272  0.34994886  0.17296340  1.0
  Si  Si13  1  1.06588272  -0.32703660  -0.15005114  1.0
  Si  Si14  1  0.75000000  0.75000000  -0.25000000  1.0
  Si  Si15  1  0.25000000  0.25000000  0.25000000  1.0
  Ir  Ir16  1  0.42994413  0.75000000  0.07005587  1.0
  Ir  Ir17  1  0.92994413  -0.42994413  0.25000000  1.0
  Ir  Ir18  1  0.25000000  0.92994413  -0.42994413  1.0
  Ir  Ir19  1  0.75000000  1.07005587  -0.57005587  1.0
  Ir  Ir20  1  0.57005587  0.25000000  -0.07005587  1.0
  Ir  Ir21  1  1.07005587  0.42994413  -0.25000000  1.0
