# generated using pymatgen
data_S4N3O2F
_symmetry_space_group_name_H-M   'P 1'
_cell_length_a   8.46657628
_cell_length_b   5.92691789
_cell_length_c   17.27788851
_cell_angle_alpha   90.00000000
_cell_angle_beta   114.30661327
_cell_angle_gamma   90.00000000
_symmetry_Int_Tables_number   1
_chemical_formula_structural   S4N3O2F
_chemical_formula_sum   'S16 N12 O8 F4'
_cell_volume   790.16056722
_cell_formula_units_Z   4
loop_
 _symmetry_equiv_pos_site_id
 _symmetry_equiv_pos_as_xyz
  1  'x, y, z'
loop_
 _atom_site_type_symbol
 _atom_site_label
 _atom_site_symmetry_multiplicity
 _atom_site_fract_x
 _atom_site_fract_y
 _atom_site_fract_z
 _atom_site_occupancy
  S  S0  1  0.98136558  0.70788885  0.13273249  1.0
  S  S1  1  0.98136558  0.79211115  0.63273249  1.0
  S  S2  1  0.01863442  0.20788885  0.36726751  1.0
  S  S3  1  0.01863442  0.29211115  0.86726751  1.0
  S  S4  1  0.84104188  0.94285071  0.38757084  1.0
  S  S5  1  0.84104188  0.55714929  0.88757084  1.0
  S  S6  1  0.15895812  0.44285071  0.11242916  1.0
  S  S7  1  0.15895812  0.05714929  0.61242916  1.0
  S  S8  1  0.69482358  0.18976627  0.23445499  1.0
  S  S9  1  0.69482358  0.31023373  0.73445499  1.0
  S  S10  1  0.30517642  0.68976627  0.26554501  1.0
  S  S11  1  0.30517642  0.81023373  0.76554501  1.0
  S  S12  1  0.67459777  0.25750310  0.45613644  1.0
  S  S13  1  0.67459777  0.24249690  0.95613644  1.0
  S  S14  1  0.32540223  0.75750310  0.04386356  1.0
  S  S15  1  0.32540223  0.74249690  0.54386356  1.0
  N  N16  1  0.87625200  0.30917828  0.27920661  1.0
  N  N17  1  0.87625200  0.19082172  0.77920661  1.0
  N  N18  1  0.12374800  0.80917828  0.22079339  1.0
  N  N19  1  0.12374800  0.69082172  0.72079339  1.0
  N  N20  1  0.78163622  0.02860329  0.45967375  1.0
  N  N21  1  0.78163622  0.47139671  0.95967375  1.0
  N  N22  1  0.21836378  0.52860329  0.04032625  1.0
  N  N23  1  0.21836378  0.97139671  0.54032625  1.0
  N  N24  1  0.69391252  0.97411237  0.29026920  1.0
  N  N25  1  0.69391252  0.52588763  0.79026920  1.0
  N  N26  1  0.30608748  0.47411237  0.20973080  1.0
  N  N27  1  0.30608748  0.02588763  0.70973080  1.0
  O  O28  1  0.70583881  0.17721432  0.04133921  1.0
  O  O29  1  0.70583881  0.32278568  0.54133920  1.0
  O  O30  1  0.29416119  0.67721432  0.45866079  1.0
  O  O31  1  0.29416119  0.82278568  0.95866079  1.0
  O  O32  1  0.67883862  0.42247857  0.39535707  1.0
  O  O33  1  0.67883862  0.07752143  0.89535707  1.0
  O  O34  1  0.32116138  0.92247857  0.10464293  1.0
  O  O35  1  0.32116138  0.57752143  0.60464293  1.0
  F  F36  1  0.47820272  0.16184212  0.41536447  1.0
  F  F37  1  0.47820272  0.33815788  0.91536447  1.0
  F  F38  1  0.52179728  0.66184212  0.08463553  1.0
  F  F39  1  0.52179728  0.83815788  0.58463553  1.0
