# generated using pymatgen
data_SiNi2As
_symmetry_space_group_name_H-M   'P 1'
_cell_length_a   5.13344782
_cell_length_b   13.96606697
_cell_length_c   6.04766153
_cell_angle_alpha   90.00000000
_cell_angle_beta   90.00000000
_cell_angle_gamma   90.00000000
_symmetry_Int_Tables_number   1
_chemical_formula_structural   SiNi2As
_chemical_formula_sum   'Si8 Ni16 As8'
_cell_volume   433.58150585
_cell_formula_units_Z   8
loop_
 _symmetry_equiv_pos_site_id
 _symmetry_equiv_pos_as_xyz
  1  'x, y, z'
loop_
 _atom_site_type_symbol
 _atom_site_label
 _atom_site_symmetry_multiplicity
 _atom_site_fract_x
 _atom_site_fract_y
 _atom_site_fract_z
 _atom_site_occupancy
  Si  Si0  1  0.31997423  0.05770647  0.06812405  1.0
  Si  Si1  1  0.31997423  0.44229353  0.56812405  1.0
  Si  Si2  1  0.81997423  0.05770647  0.43187595  1.0
  Si  Si3  1  0.81997423  0.44229353  0.93187595  1.0
  Si  Si4  1  0.68002577  0.55770647  0.43187595  1.0
  Si  Si5  1  0.68002577  0.94229353  0.93187595  1.0
  Si  Si6  1  0.18002577  0.55770647  0.06812405  1.0
  Si  Si7  1  0.18002577  0.94229353  0.56812405  1.0
  Ni  Ni8  1  0.48970117  0.44376672  0.19517725  1.0
  Ni  Ni9  1  0.48970117  0.05623328  0.69517725  1.0
  Ni  Ni10  1  0.98970117  0.44376672  0.30482275  1.0
  Ni  Ni11  1  0.98970117  0.05623328  0.80482275  1.0
  Ni  Ni12  1  0.51029883  0.94376672  0.30482275  1.0
  Ni  Ni13  1  0.51029883  0.55623328  0.80482275  1.0
  Ni  Ni14  1  0.01029883  0.94376672  0.19517725  1.0
  Ni  Ni15  1  0.01029883  0.55623328  0.69517725  1.0
  Ni  Ni16  1  0.01615264  0.16552907  0.19600387  1.0
  Ni  Ni17  1  0.01615264  0.33447093  0.69600387  1.0
  Ni  Ni18  1  0.51615264  0.16552907  0.30399613  1.0
  Ni  Ni19  1  0.51615264  0.33447093  0.80399613  1.0
  Ni  Ni20  1  0.98384736  0.66552907  0.30399613  1.0
  Ni  Ni21  1  0.98384736  0.83447093  0.80399613  1.0
  Ni  Ni22  1  0.48384736  0.66552907  0.19600387  1.0
  Ni  Ni23  1  0.48384736  0.83447093  0.69600387  1.0
  As  As24  1  0.18345850  0.31723820  0.06919051  1.0
  As  As25  1  0.18345850  0.18276180  0.56919051  1.0
  As  As26  1  0.68345850  0.31723820  0.43080949  1.0
  As  As27  1  0.68345850  0.18276180  0.93080949  1.0
  As  As28  1  0.81654150  0.81723820  0.43080949  1.0
  As  As29  1  0.81654150  0.68276180  0.93080949  1.0
  As  As30  1  0.31654150  0.81723820  0.06919051  1.0
  As  As31  1  0.31654150  0.68276180  0.56919051  1.0
