# generated using pymatgen
data_NaLaSiO4
_symmetry_space_group_name_H-M   'P 1'
_cell_length_a   7.14570622
_cell_length_b   5.55242295
_cell_length_c   9.67920545
_cell_angle_alpha   90.00000000
_cell_angle_beta   90.00000000
_cell_angle_gamma   90.00000000
_symmetry_Int_Tables_number   1
_chemical_formula_structural   NaLaSiO4
_chemical_formula_sum   'Na4 La4 Si4 O16'
_cell_volume   384.03199337
_cell_formula_units_Z   4
loop_
 _symmetry_equiv_pos_site_id
 _symmetry_equiv_pos_as_xyz
  1  'x, y, z'
loop_
 _atom_site_type_symbol
 _atom_site_label
 _atom_site_symmetry_multiplicity
 _atom_site_fract_x
 _atom_site_fract_y
 _atom_site_fract_z
 _atom_site_occupancy
  Na  Na0  1  0.83481720  0.75000000  0.44177319  1.0
  Na  Na1  1  0.33481720  0.75000000  0.05822681  1.0
  Na  Na2  1  0.16518280  0.25000000  0.55822681  1.0
  Na  Na3  1  0.66518280  0.25000000  0.94177319  1.0
  La  La4  1  0.49444193  0.75000000  0.69424561  1.0
  La  La5  1  -0.00555807  0.75000000  0.80575439  1.0
  La  La6  1  0.50555807  0.25000000  0.30575439  1.0
  La  La7  1  1.00555807  0.25000000  0.19424561  1.0
  Si  Si8  1  0.77479182  0.75000000  0.08581979  1.0
  Si  Si9  1  0.27479182  0.75000000  0.41418021  1.0
  Si  Si10  1  0.22520818  0.25000000  0.91418021  1.0
  Si  Si11  1  0.72520818  0.25000000  0.58581979  1.0
  O  O12  1  0.71447137  0.99450502  0.17023909  1.0
  O  O13  1  0.71447137  0.50549498  0.17023909  1.0
  O  O14  1  0.21447137  0.99450502  0.32976091  1.0
  O  O15  1  0.21447137  0.50549498  0.32976091  1.0
  O  O16  1  0.28552863  0.49450502  0.82976091  1.0
  O  O17  1  0.28552863  0.00549498  0.82976091  1.0
  O  O18  1  0.78552863  0.49450502  0.67023909  1.0
  O  O19  1  0.78552863  0.00549498  0.67023909  1.0
  O  O20  1  1.00380231  0.75000000  0.06519907  1.0
  O  O21  1  0.50380231  0.75000000  0.43480093  1.0
  O  O22  1  -0.00380231  0.25000000  0.93480093  1.0
  O  O23  1  0.49619769  0.25000000  0.56519907  1.0
  O  O24  1  0.17640414  0.75000000  0.56913974  1.0
  O  O25  1  0.67640414  0.75000000  0.93086026  1.0
  O  O26  1  0.82359586  0.25000000  0.43086026  1.0
  O  O27  1  0.32359586  0.25000000  0.06913974  1.0
