# generated using pymatgen
data_BH2CO
_symmetry_space_group_name_H-M   'P 1'
_cell_length_a   6.06392697
_cell_length_b   6.06392697
_cell_length_c   11.04472193
_cell_angle_alpha   78.89538374
_cell_angle_beta   101.10461626
_cell_angle_gamma   132.20851990
_symmetry_Int_Tables_number   1
_chemical_formula_structural   BH2CO
_chemical_formula_sum   'B4 H8 C4 O4'
_cell_volume   294.07031064
_cell_formula_units_Z   4
loop_
 _symmetry_equiv_pos_site_id
 _symmetry_equiv_pos_as_xyz
  1  'x, y, z'
loop_
 _atom_site_type_symbol
 _atom_site_label
 _atom_site_symmetry_multiplicity
 _atom_site_fract_x
 _atom_site_fract_y
 _atom_site_fract_z
 _atom_site_occupancy
  B  B0  1  0.51058200  0.36254636  0.98949128  1.0
  B  B1  1  0.63745364  0.48941800  0.48949128  1.0
  B  B2  1  1.36254636  0.51058200  0.51050872  1.0
  B  B3  1  0.48941800  -0.36254636  0.01050872  1.0
  H  H4  1  0.53599300  0.23682624  0.48673338  1.0
  H  H5  1  0.76317376  0.46400700  0.98673338  1.0
  H  H6  1  1.23682624  0.53599300  0.01326662  1.0
  H  H7  1  0.46400700  -0.23682624  0.51326662  1.0
  H  H8  1  0.33735324  0.20368648  0.90709097  1.0
  H  H9  1  0.79631352  0.66264676  0.40709097  1.0
  H  H10  1  1.20368648  0.33735324  0.59290903  1.0
  H  H11  1  0.66264676  -0.20368648  0.09290903  1.0
  C  C12  1  0.59550595  -0.17102979  0.89133163  1.0
  C  C13  1  1.17102979  0.40449405  0.39133163  1.0
  C  C14  1  0.82897021  0.59550595  0.60866837  1.0
  C  C15  1  0.40449405  0.17102979  0.10866837  1.0
  O  O16  1  0.67740136  -0.03322388  0.79793559  1.0
  O  O17  1  1.03322388  0.32259864  0.29793559  1.0
  O  O18  1  0.96677612  0.67740136  0.70206441  1.0
  O  O19  1  0.32259864  0.03322388  0.20206441  1.0
