# generated using pymatgen
data_LuAl3(PbO4)2
_symmetry_space_group_name_H-M   'P 1'
_cell_length_a   9.51724096
_cell_length_b   9.51724096
_cell_length_c   9.51724096
_cell_angle_alpha   90.00000000
_cell_angle_beta   90.00000000
_cell_angle_gamma   90.00000000
_symmetry_Int_Tables_number   1
_chemical_formula_structural   LuAl3(PbO4)2
_chemical_formula_sum   'Lu4 Al12 Pb8 O32'
_cell_volume   862.05146574
_cell_formula_units_Z   4
loop_
 _symmetry_equiv_pos_site_id
 _symmetry_equiv_pos_as_xyz
  1  'x, y, z'
loop_
 _atom_site_type_symbol
 _atom_site_label
 _atom_site_symmetry_multiplicity
 _atom_site_fract_x
 _atom_site_fract_y
 _atom_site_fract_z
 _atom_site_occupancy
  Lu  Lu0  1  0.25000000  0.75000000  0.25000000  1.0
  Lu  Lu1  1  0.75000000  0.75000000  0.75000000  1.0
  Lu  Lu2  1  0.75000000  0.25000000  0.25000000  1.0
  Lu  Lu3  1  0.25000000  0.25000000  0.75000000  1.0
  Al  Al4  1  0.00000000  0.50000000  0.25000000  1.0
  Al  Al5  1  0.00000000  0.50000000  0.75000000  1.0
  Al  Al6  1  0.75000000  0.50000000  0.00000000  1.0
  Al  Al7  1  0.25000000  0.50000000  0.00000000  1.0
  Al  Al8  1  0.25000000  0.00000000  0.50000000  1.0
  Al  Al9  1  0.75000000  0.00000000  0.50000000  1.0
  Al  Al10  1  0.00000000  0.75000000  0.50000000  1.0
  Al  Al11  1  0.00000000  0.25000000  0.50000000  1.0
  Al  Al12  1  0.50000000  0.25000000  0.00000000  1.0
  Al  Al13  1  0.50000000  0.75000000  0.00000000  1.0
  Al  Al14  1  0.50000000  0.00000000  0.75000000  1.0
  Al  Al15  1  0.50000000  0.00000000  0.25000000  1.0
  Pb  Pb16  1  0.36572943  0.63427057  0.63427057  1.0
  Pb  Pb17  1  0.63427057  0.63427057  0.36572943  1.0
  Pb  Pb18  1  0.63427057  0.36572943  0.63427057  1.0
  Pb  Pb19  1  0.36572943  0.36572943  0.36572943  1.0
  Pb  Pb20  1  0.13427057  0.86572943  0.86572943  1.0
  Pb  Pb21  1  0.86572943  0.86572943  0.13427057  1.0
  Pb  Pb22  1  0.86572943  0.13427057  0.86572943  1.0
  Pb  Pb23  1  0.13427057  0.13427057  0.13427057  1.0
  O  O24  1  0.88554578  0.11445422  0.11445422  1.0
  O  O25  1  0.11445422  0.11445422  0.88554578  1.0
  O  O26  1  0.11445422  0.88554578  0.11445422  1.0
  O  O27  1  0.88554578  0.88554578  0.88554578  1.0
  O  O28  1  0.61445422  0.38554578  0.38554578  1.0
  O  O29  1  0.38554578  0.38554578  0.61445422  1.0
  O  O30  1  0.38554578  0.61445422  0.38554578  1.0
  O  O31  1  0.61445422  0.61445422  0.61445422  1.0
  O  O32  1  0.15987028  0.48461477  0.84012972  1.0
  O  O33  1  0.84012972  0.48461477  0.15987028  1.0
  O  O34  1  0.84012972  0.51538523  0.84012972  1.0
  O  O35  1  0.15987028  0.51538523  0.15987028  1.0
  O  O36  1  0.84012972  0.15987028  0.48461477  1.0
  O  O37  1  0.15987028  0.84012972  0.48461477  1.0
  O  O38  1  0.84012972  0.84012972  0.51538523  1.0
  O  O39  1  0.15987028  0.15987028  0.51538523  1.0
  O  O40  1  0.48461477  0.84012972  0.15987028  1.0
  O  O41  1  0.48461477  0.15987028  0.84012972  1.0
  O  O42  1  0.51538523  0.84012972  0.84012972  1.0
  O  O43  1  0.51538523  0.15987028  0.15987028  1.0
  O  O44  1  0.34012972  0.01538523  0.65987028  1.0
  O  O45  1  0.65987028  0.01538523  0.34012972  1.0
  O  O46  1  0.65987028  0.98461477  0.65987028  1.0
  O  O47  1  0.34012972  0.98461477  0.34012972  1.0
  O  O48  1  0.65987028  0.34012972  0.01538523  1.0
  O  O49  1  0.34012972  0.65987028  0.01538523  1.0
  O  O50  1  0.65987028  0.65987028  0.98461477  1.0
  O  O51  1  0.34012972  0.34012972  0.98461477  1.0
  O  O52  1  0.01538523  0.65987028  0.34012972  1.0
  O  O53  1  0.01538523  0.34012972  0.65987028  1.0
  O  O54  1  0.98461477  0.65987028  0.65987028  1.0
  O  O55  1  0.98461477  0.34012972  0.34012972  1.0
