# generated using pymatgen
data_MnSbSe2Br
_symmetry_space_group_name_H-M   'P 1'
_cell_length_a   10.06131903
_cell_length_b   3.99224896
_cell_length_c   13.15526234
_cell_angle_alpha   90.00000000
_cell_angle_beta   90.00000000
_cell_angle_gamma   90.00000000
_symmetry_Int_Tables_number   1
_chemical_formula_structural   MnSbSe2Br
_chemical_formula_sum   'Mn4 Sb4 Se8 Br4'
_cell_volume   528.41124261
_cell_formula_units_Z   4
loop_
 _symmetry_equiv_pos_site_id
 _symmetry_equiv_pos_as_xyz
  1  'x, y, z'
loop_
 _atom_site_type_symbol
 _atom_site_label
 _atom_site_symmetry_multiplicity
 _atom_site_fract_x
 _atom_site_fract_y
 _atom_site_fract_z
 _atom_site_occupancy
  Mn  Mn0  1  0.99976433  0.75000000  0.76046087  1.0
  Mn  Mn1  1  0.49976433  0.75000000  0.73953913  1.0
  Mn  Mn2  1  0.00023567  0.25000000  0.23953913  1.0
  Mn  Mn3  1  0.50023567  0.25000000  0.26046087  1.0
  Sb  Sb4  1  0.68433085  0.75000000  0.04031670  1.0
  Sb  Sb5  1  0.18433085  0.75000000  0.45968330  1.0
  Sb  Sb6  1  0.31566915  0.25000000  0.95968330  1.0
  Sb  Sb7  1  0.81566915  0.25000000  0.54031670  1.0
  Se  Se8  1  0.94175789  0.75000000  0.38326518  1.0
  Se  Se9  1  0.44175789  0.75000000  0.11673482  1.0
  Se  Se10  1  0.05824211  0.25000000  0.61673482  1.0
  Se  Se11  1  0.55824211  0.25000000  0.88326518  1.0
  Se  Se12  1  0.75731334  0.75000000  0.67833684  1.0
  Se  Se13  1  0.25731334  0.75000000  0.82166316  1.0
  Se  Se14  1  0.24268666  0.25000000  0.32166316  1.0
  Se  Se15  1  0.74268666  0.25000000  0.17833684  1.0
  Br  Br16  1  0.56090564  0.75000000  0.38380604  1.0
  Br  Br17  1  0.06090564  0.75000000  0.11619396  1.0
  Br  Br18  1  0.43909436  0.25000000  0.61619396  1.0
  Br  Br19  1  0.93909436  0.25000000  0.88380604  1.0
