# generated using pymatgen
data_AlC8O4F
_symmetry_space_group_name_H-M   'P 1'
_cell_length_a   11.21767324
_cell_length_b   11.21767324
_cell_length_c   6.64070910
_cell_angle_alpha   72.85707306
_cell_angle_beta   107.14292694
_cell_angle_gamma   105.98719236
_symmetry_Int_Tables_number   1
_chemical_formula_structural   AlC8O4F
_chemical_formula_sum   'Al2 C16 O8 F2'
_cell_volume   746.59696936
_cell_formula_units_Z   2
loop_
 _symmetry_equiv_pos_site_id
 _symmetry_equiv_pos_as_xyz
  1  'x, y, z'
loop_
 _atom_site_type_symbol
 _atom_site_label
 _atom_site_symmetry_multiplicity
 _atom_site_fract_x
 _atom_site_fract_y
 _atom_site_fract_z
 _atom_site_occupancy
  O  O0  1  1.32757980  -0.50874663  -0.00239303  1.0
  O  O1  1  0.49125337  0.32757980  0.50239303  1.0
  O  O2  1  0.67242020  -0.49125337  1.00239303  1.0
  O  O3  1  0.50874663  -0.32757980  0.49760697  1.0
  O  O4  1  0.50716814  -0.32771273  0.83953606  1.0
  O  O5  1  0.67228727  0.50716814  0.66046394  1.0
  O  O6  1  0.49283186  0.32771273  0.16046394  1.0
  O  O7  1  1.32771273  0.49283186  0.33953606  1.0
  C  C8  1  1.13751640  -0.50364928  0.07130554  1.0
  C  C9  1  0.49635072  0.13751640  0.42869446  1.0
  C  C10  1  0.86248360  -0.49635072  0.92869446  1.0
  C  C11  1  0.50364928  -0.13751640  0.57130554  1.0
  C  C12  1  1.05806885  0.49990106  0.19850055  1.0
  C  C13  1  0.49990106  0.05806885  0.30149945  1.0
  C  C14  1  0.94193115  0.50009894  0.80149945  1.0
  C  C15  1  0.50009894  -0.05806885  0.69850055  1.0
  C  C16  1  0.50296966  -0.05803031  0.36209728  1.0
  C  C17  1  0.94196969  -0.49703034  0.13790272  1.0
  C  C18  1  0.49703034  0.05803031  0.63790272  1.0
  C  C19  1  1.05803031  -0.50296966  0.86209728  1.0
  C  C20  1  1.27513678  -0.50657933  0.14166184  1.0
  C  C21  1  0.49342067  0.27513678  0.35833816  1.0
  C  C22  1  0.72486322  -0.49342067  0.85833816  1.0
  C  C23  1  0.50657933  -0.27513678  0.64166184  1.0
  Al  Al24  1  0.50000000  -0.50000000  0.00000000  1.0
  Al  Al25  1  0.50000000  -0.50000000  0.50000000  1.0
  F  F26  1  0.55763584  -0.44236416  0.25000000  1.0
  F  F27  1  0.44236416  0.44236416  0.75000000  1.0
