# generated using pymatgen
data_YB2Rh3
_symmetry_space_group_name_H-M   'P 1'
_cell_length_a   5.41211118
_cell_length_b   5.41211118
_cell_length_c   3.13526481
_cell_angle_alpha   89.99731107
_cell_angle_beta   90.00268893
_cell_angle_gamma   59.99930398
_symmetry_Int_Tables_number   1
_chemical_formula_structural   YB2Rh3
_chemical_formula_sum   'Y1 B2 Rh3'
_cell_volume   79.53077826
_cell_formula_units_Z   1
loop_
 _symmetry_equiv_pos_site_id
 _symmetry_equiv_pos_as_xyz
  1  'x, y, z'
loop_
 _atom_site_type_symbol
 _atom_site_label
 _atom_site_symmetry_multiplicity
 _atom_site_fract_x
 _atom_site_fract_y
 _atom_site_fract_z
 _atom_site_occupancy
  Y  Y0  1  0.50000000  -0.50000000  0.50000000  1.0
  B  B1  1  0.16666703  0.16666703  0.50000000  1.0
  B  B2  1  0.83333297  -0.16666703  0.50000000  1.0
  Rh  Rh3  1  0.00000000  0.00000000  0.00000000  1.0
  Rh  Rh4  1  1.00000000  -0.50000000  -0.00000000  1.0
  Rh  Rh5  1  0.50000000  0.00000000  -0.00000000  1.0
