# generated using pymatgen
data_SrCu2GeS4
_symmetry_space_group_name_H-M   'P 1'
_cell_length_a   6.18680123
_cell_length_b   6.18680123
_cell_length_c   15.33185651
_cell_angle_alpha   90.00000000
_cell_angle_beta   90.00000000
_cell_angle_gamma   120.00000000
_symmetry_Int_Tables_number   1
_chemical_formula_structural   SrCu2GeS4
_chemical_formula_sum   'Sr3 Cu6 Ge3 S12'
_cell_volume   508.22696593
_cell_formula_units_Z   3
loop_
 _symmetry_equiv_pos_site_id
 _symmetry_equiv_pos_as_xyz
  1  'x, y, z'
loop_
 _atom_site_type_symbol
 _atom_site_label
 _atom_site_symmetry_multiplicity
 _atom_site_fract_x
 _atom_site_fract_y
 _atom_site_fract_z
 _atom_site_occupancy
  Sr  Sr0  1  0.33350650  0.21987154  0.83314095  1.0
  Sr  Sr1  1  0.88636504  0.66649350  0.49980762  1.0
  Sr  Sr2  1  0.78012846  0.11363496  0.16647429  1.0
  Cu  Cu3  1  -0.01705671  0.74358940  0.25540668  1.0
  Cu  Cu4  1  0.76064611  0.01705671  0.92207334  1.0
  Cu  Cu5  1  0.25641060  0.23935389  0.58874001  1.0
  Cu  Cu6  1  0.90621154  0.58948821  0.74420062  1.0
  Cu  Cu7  1  0.68327666  0.09378846  0.41086728  1.0
  Cu  Cu8  1  0.41051179  0.31672334  0.07753395  1.0
  Ge  Ge9  1  0.04696644  0.66681477  0.99979447  1.0
  Ge  Ge10  1  0.61984833  0.95303356  0.66646114  1.0
  Ge  Ge11  1  0.33318523  0.38015167  0.33312780  1.0
  S  S12  1  0.22986790  0.89938417  0.66506197  1.0
  S  S13  1  0.66951627  0.77013210  0.33172863  1.0
  S  S14  1  0.10061583  0.33048373  0.99839530  1.0
  S  S15  1  0.84149089  0.70436225  0.88443675  1.0
  S  S16  1  0.86287137  0.15850911  0.55110342  1.0
  S  S17  1  0.29563775  0.13712863  0.21777008  1.0
  S  S18  1  0.80386285  0.62941097  0.11511402  1.0
  S  S19  1  0.82554812  0.19613715  0.78178069  1.0
  S  S20  1  0.37058903  0.17445188  0.44844735  1.0
  S  S21  1  0.56619148  0.56303435  0.66787788  1.0
  S  S22  1  0.99684287  0.43380852  0.33454455  1.0
  S  S23  1  0.43696565  0.00315713  0.00121122  1.0
