# generated using pymatgen
data_Y8AlPd24
_symmetry_space_group_name_H-M   'P 1'
_cell_length_a   8.33708334
_cell_length_b   8.33708334
_cell_length_c   8.33708334
_cell_angle_alpha   90.00000000
_cell_angle_beta   90.00000000
_cell_angle_gamma   90.00000000
_symmetry_Int_Tables_number   1
_chemical_formula_structural   Y8AlPd24
_chemical_formula_sum   'Y8 Al1 Pd24'
_cell_volume   579.48530626
_cell_formula_units_Z   1
loop_
 _symmetry_equiv_pos_site_id
 _symmetry_equiv_pos_as_xyz
  1  'x, y, z'
loop_
 _atom_site_type_symbol
 _atom_site_label
 _atom_site_symmetry_multiplicity
 _atom_site_fract_x
 _atom_site_fract_y
 _atom_site_fract_z
 _atom_site_occupancy
  Y  Y0  1  0.74790884  0.74790884  0.74790884  1.0
  Y  Y1  1  0.74790884  0.74790884  0.25209116  1.0
  Y  Y2  1  0.74790884  0.25209116  0.74790884  1.0
  Y  Y3  1  0.74790884  0.25209116  0.25209116  1.0
  Y  Y4  1  0.25209116  0.74790884  0.74790884  1.0
  Y  Y5  1  0.25209116  0.74790884  0.25209116  1.0
  Y  Y6  1  0.25209116  0.25209116  0.74790884  1.0
  Y  Y7  1  0.25209116  0.25209116  0.25209116  1.0
  Al  Al8  1  0.00000000  0.00000000  0.00000000  1.0
  Pd  Pd9  1  0.74021026  0.50000000  -0.00000000  1.0
  Pd  Pd10  1  0.74021026  -0.00000000  0.50000000  1.0
  Pd  Pd11  1  0.50000000  0.74021026  0.00000000  1.0
  Pd  Pd12  1  0.50000000  0.00000000  0.74021026  1.0
  Pd  Pd13  1  0.50000000  0.00000000  0.25978974  1.0
  Pd  Pd14  1  0.50000000  0.25978974  0.00000000  1.0
  Pd  Pd15  1  -0.00000000  0.74021026  0.50000000  1.0
  Pd  Pd16  1  0.00000000  0.50000000  0.74021026  1.0
  Pd  Pd17  1  0.00000000  0.50000000  0.25978974  1.0
  Pd  Pd18  1  -0.00000000  0.25978974  0.50000000  1.0
  Pd  Pd19  1  0.25978974  0.50000000  0.00000000  1.0
  Pd  Pd20  1  0.25978974  -0.00000000  0.50000000  1.0
  Pd  Pd21  1  0.74713308  0.50000000  0.50000000  1.0
  Pd  Pd22  1  0.50000000  0.74713308  0.50000000  1.0
  Pd  Pd23  1  0.50000000  0.50000000  0.74713308  1.0
  Pd  Pd24  1  0.50000000  0.50000000  0.25286692  1.0
  Pd  Pd25  1  0.50000000  0.25286692  0.50000000  1.0
  Pd  Pd26  1  0.25286692  0.50000000  0.50000000  1.0
  Pd  Pd27  1  0.71044609  -0.00000000  -0.00000000  1.0
  Pd  Pd28  1  -0.00000000  0.71044609  -0.00000000  1.0
  Pd  Pd29  1  0.00000000  0.00000000  0.71044609  1.0
  Pd  Pd30  1  0.00000000  0.00000000  0.28955391  1.0
  Pd  Pd31  1  0.00000000  0.28955391  0.00000000  1.0
  Pd  Pd32  1  0.28955391  0.00000000  0.00000000  1.0
