# generated using pymatgen
data_Y2(Ga3Ru)3
_symmetry_space_group_name_H-M   'P 1'
_cell_length_a   7.47606050
_cell_length_b   7.47606050
_cell_length_c   9.72050931
_cell_angle_alpha   90.00000000
_cell_angle_beta   90.00000000
_cell_angle_gamma   60.81850224
_symmetry_Int_Tables_number   1
_chemical_formula_structural   Y2(Ga3Ru)3
_chemical_formula_sum   'Y4 Ga18 Ru6'
_cell_volume   474.33859467
_cell_formula_units_Z   2
loop_
 _symmetry_equiv_pos_site_id
 _symmetry_equiv_pos_as_xyz
  1  'x, y, z'
loop_
 _atom_site_type_symbol
 _atom_site_label
 _atom_site_symmetry_multiplicity
 _atom_site_fract_x
 _atom_site_fract_y
 _atom_site_fract_z
 _atom_site_occupancy
  Y  Y0  1  -0.00268667  1.32564686  0.25000000  1.0
  Y  Y1  1  0.32564686  0.99731333  0.75000000  1.0
  Y  Y2  1  -0.32564686  1.00268667  0.25000000  1.0
  Y  Y3  1  0.00268667  0.67435314  0.75000000  1.0
  Ga  Ga4  1  0.33808880  0.66191120  0.93858812  1.0
  Ga  Ga5  1  0.33808880  0.66191120  0.56141188  1.0
  Ga  Ga6  1  -0.33808880  1.33808880  0.43858812  1.0
  Ga  Ga7  1  -0.33808880  1.33808880  0.06141188  1.0
  Ga  Ga8  1  0.00863425  0.66266711  0.42356564  1.0
  Ga  Ga9  1  0.00863425  0.66266711  0.07643436  1.0
  Ga  Ga10  1  -0.33733289  1.00863425  0.92356564  1.0
  Ga  Ga11  1  -0.33733289  1.00863425  0.57643436  1.0
  Ga  Ga12  1  0.33733289  0.99136575  0.42356564  1.0
  Ga  Ga13  1  0.33733289  0.99136575  0.07643436  1.0
  Ga  Ga14  1  -0.00863425  1.33733289  0.92356564  1.0
  Ga  Ga15  1  -0.00863425  1.33733289  0.57643436  1.0
  Ga  Ga16  1  0.33929459  0.44586806  0.25000000  1.0
  Ga  Ga17  1  -0.55413193  1.33929459  0.75000000  1.0
  Ga  Ga18  1  0.55413194  0.66070541  0.25000000  1.0
  Ga  Ga19  1  -0.33929459  1.55413193  0.75000000  1.0
  Ga  Ga20  1  0.13217335  0.86782665  0.25000000  1.0
  Ga  Ga21  1  -0.13217335  1.13217335  0.75000000  1.0
  Ru  Ru22  1  0.67615718  0.67615718  0.50000000  1.0
  Ru  Ru23  1  0.67615718  0.67615718  0.00000000  1.0
  Ru  Ru24  1  0.32384282  0.32384282  0.50000000  1.0
  Ru  Ru25  1  0.32384282  0.32384282  0.00000000  1.0
  Ru  Ru26  1  0.00000000  0.00000000  0.50000000  1.0
  Ru  Ru27  1  0.00000000  0.00000000  0.00000000  1.0
