# generated using pymatgen
data_Zn2As2O7
_symmetry_space_group_name_H-M   'P 1'
_cell_length_a   5.49729499
_cell_length_b   5.49729499
_cell_length_c   4.89683886
_cell_angle_alpha   80.49930276
_cell_angle_beta   99.50069724
_cell_angle_gamma   76.92677103
_symmetry_Int_Tables_number   1
_chemical_formula_structural   Zn2As2O7
_chemical_formula_sum   'Zn2 As2 O7'
_cell_volume   138.98030882
_cell_formula_units_Z   1
loop_
 _symmetry_equiv_pos_site_id
 _symmetry_equiv_pos_as_xyz
  1  'x, y, z'
loop_
 _atom_site_type_symbol
 _atom_site_label
 _atom_site_symmetry_multiplicity
 _atom_site_fract_x
 _atom_site_fract_y
 _atom_site_fract_z
 _atom_site_occupancy
  Zn  Zn0  1  0.69230968  -0.30769032  -0.00000000  1.0
  Zn  Zn1  1  1.30769032  0.30769032  -0.00000000  1.0
  As  As2  1  0.77001908  -0.77001908  0.59809836  1.0
  As  As3  1  0.22998092  -0.22998092  0.40190164  1.0
  O  O4  1  1.60131606  0.06318880  0.78994242  1.0
  O  O5  1  0.93681120  -0.60131606  0.78994242  1.0
  O  O6  1  1.06318880  0.60131606  0.21005758  1.0
  O  O7  1  0.39868394  -0.06318880  0.21005758  1.0
  O  O8  1  0.40886836  -0.40886836  0.72869772  1.0
  O  O9  1  0.59113164  -0.59113164  0.27130228  1.0
  O  O10  1  0.00000000  -0.00000000  0.50000000  1.0
