# generated using pymatgen
data_TlN3
_symmetry_space_group_name_H-M   'P 1'
_cell_length_a   5.80254664
_cell_length_b   5.80254664
_cell_length_c   5.80254664
_cell_angle_alpha   113.86213651
_cell_angle_beta   113.86213651
_cell_angle_gamma   101.00679203
_symmetry_Int_Tables_number   1
_chemical_formula_structural   TlN3
_chemical_formula_sum   'Tl2 N6'
_cell_volume   147.98570324
_cell_formula_units_Z   2
loop_
 _symmetry_equiv_pos_site_id
 _symmetry_equiv_pos_as_xyz
  1  'x, y, z'
loop_
 _atom_site_type_symbol
 _atom_site_label
 _atom_site_symmetry_multiplicity
 _atom_site_fract_x
 _atom_site_fract_y
 _atom_site_fract_z
 _atom_site_occupancy
  Tl  Tl0  1  0.25000000  0.25000000  0.00000000  1.0
  Tl  Tl1  1  0.75000000  0.75000000  0.00000000  1.0
  N  N2  1  0.86767948  0.36767948  1.23535896  1.0
  N  N3  1  0.63232052  0.86767948  0.50000000  1.0
  N  N4  1  0.36767948  0.13232052  0.50000000  1.0
  N  N5  1  1.13232052  0.63232052  0.76464104  1.0
  N  N6  1  1.00000000  0.50000000  0.50000000  1.0
  N  N7  1  0.50000000  1.00000000  0.50000000  1.0
