# generated using pymatgen
data_RbH4SNO4
_symmetry_space_group_name_H-M   'P 1'
_cell_length_a   7.73640234
_cell_length_b   6.55744315
_cell_length_c   10.94691189
_cell_angle_alpha   90.00000000
_cell_angle_beta   90.00000000
_cell_angle_gamma   90.00000000
_symmetry_Int_Tables_number   1
_chemical_formula_structural   RbH4SNO4
_chemical_formula_sum   'Rb4 H16 S4 N4 O16'
_cell_volume   555.34798919
_cell_formula_units_Z   4
loop_
 _symmetry_equiv_pos_site_id
 _symmetry_equiv_pos_as_xyz
  1  'x, y, z'
loop_
 _atom_site_type_symbol
 _atom_site_label
 _atom_site_symmetry_multiplicity
 _atom_site_fract_x
 _atom_site_fract_y
 _atom_site_fract_z
 _atom_site_occupancy
  Rb  Rb0  1  0.82537653  0.75000000  0.37831562  1.0
  Rb  Rb1  1  0.32537653  0.75000000  0.12168438  1.0
  Rb  Rb2  1  0.17462347  0.25000000  0.62168438  1.0
  Rb  Rb3  1  0.67462347  0.25000000  0.87831562  1.0
  H  H4  1  0.82268558  0.37888781  0.14955949  1.0
  H  H5  1  0.82268558  0.12111219  0.14955949  1.0
  H  H6  1  0.32268558  0.37888781  0.35044051  1.0
  H  H7  1  0.32268558  0.12111219  0.35044051  1.0
  H  H8  1  0.17731442  0.87888781  0.85044051  1.0
  H  H9  1  0.17731442  0.62111219  0.85044051  1.0
  H  H10  1  0.67731442  0.87888781  0.64955949  1.0
  H  H11  1  0.67731442  0.62111219  0.64955949  1.0
  H  H12  1  0.98423870  0.75000000  0.84664427  1.0
  H  H13  1  0.48423870  0.75000000  0.65335573  1.0
  H  H14  1  0.01576130  0.25000000  0.15335573  1.0
  H  H15  1  0.51576130  0.25000000  0.34664427  1.0
  H  H16  1  0.62512841  0.75000000  0.77769843  1.0
  H  H17  1  0.12512841  0.75000000  0.72230157  1.0
  H  H18  1  0.37487159  0.25000000  0.22230157  1.0
  H  H19  1  0.87487159  0.25000000  0.27769843  1.0
  S  S20  1  0.77609646  0.75000000  0.04967244  1.0
  S  S21  1  0.27609646  0.75000000  0.45032756  1.0
  S  S22  1  0.22390354  0.25000000  0.95032756  1.0
  S  S23  1  0.72390354  0.25000000  0.54967244  1.0
  N  N24  1  0.61259746  0.75000000  0.68351494  1.0
  N  N25  1  0.11259746  0.75000000  0.81648506  1.0
  N  N26  1  0.38740254  0.25000000  0.31648506  1.0
  N  N27  1  0.88740254  0.25000000  0.18351494  1.0
  O  O28  1  0.68120974  0.93634887  0.09416514  1.0
  O  O29  1  0.68120974  0.56365113  0.09416514  1.0
  O  O30  1  0.18120974  0.93634887  0.40583486  1.0
  O  O31  1  0.18120974  0.56365113  0.40583486  1.0
  O  O32  1  0.31879026  0.43634887  0.90583486  1.0
  O  O33  1  0.31879026  0.06365113  0.90583486  1.0
  O  O34  1  0.81879026  0.43634887  0.59416514  1.0
  O  O35  1  0.81879026  0.06365113  0.59416514  1.0
  O  O36  1  0.95585931  0.75000000  0.09733070  1.0
  O  O37  1  0.45585931  0.75000000  0.40266930  1.0
  O  O38  1  0.04414069  0.25000000  0.90266930  1.0
  O  O39  1  0.54414069  0.25000000  0.59733070  1.0
  O  O40  1  0.27579651  0.75000000  0.58828682  1.0
  O  O41  1  0.77579651  0.75000000  0.91171318  1.0
  O  O42  1  0.72420349  0.25000000  0.41171318  1.0
  O  O43  1  0.22420349  0.25000000  0.08828682  1.0
