# generated using pymatgen
data_KZn4P3
_symmetry_space_group_name_H-M   'P 1'
_cell_length_a   11.75363686
_cell_length_b   11.75363686
_cell_length_c   11.75363686
_cell_angle_alpha   19.86824966
_cell_angle_beta   19.86824966
_cell_angle_gamma   19.86824966
_symmetry_Int_Tables_number   1
_chemical_formula_structural   KZn4P3
_chemical_formula_sum   'K1 Zn4 P3'
_cell_volume   164.04863267
_cell_formula_units_Z   1
loop_
 _symmetry_equiv_pos_site_id
 _symmetry_equiv_pos_as_xyz
  1  'x, y, z'
loop_
 _atom_site_type_symbol
 _atom_site_label
 _atom_site_symmetry_multiplicity
 _atom_site_fract_x
 _atom_site_fract_y
 _atom_site_fract_z
 _atom_site_occupancy
  K  K0  1  1.50000000  0.50000000  0.50000000  1.0
  Zn  Zn1  1  0.91363195  0.91363195  0.91363195  1.0
  Zn  Zn2  1  1.08636805  1.08636805  0.08636805  1.0
  Zn  Zn3  1  0.69643777  0.69643777  0.69643777  1.0
  Zn  Zn4  1  1.30356223  1.30356223  0.30356223  1.0
  P  P5  1  0.76517489  0.76517489  0.76517489  1.0
  P  P6  1  1.23482511  1.23482511  0.23482511  1.0
  P  P7  1  0.00000000  0.00000000  0.00000000  1.0
