# generated using pymatgen
data_BaBrCl
_symmetry_space_group_name_H-M   'P 1'
_cell_length_a   8.13837155
_cell_length_b   5.06156620
_cell_length_c   10.31698881
_cell_angle_alpha   90.00000000
_cell_angle_beta   90.00000000
_cell_angle_gamma   90.00000000
_symmetry_Int_Tables_number   1
_chemical_formula_structural   BaBrCl
_chemical_formula_sum   'Ba4 Br4 Cl4'
_cell_volume   424.98675359
_cell_formula_units_Z   4
loop_
 _symmetry_equiv_pos_site_id
 _symmetry_equiv_pos_as_xyz
  1  'x, y, z'
loop_
 _atom_site_type_symbol
 _atom_site_label
 _atom_site_symmetry_multiplicity
 _atom_site_fract_x
 _atom_site_fract_y
 _atom_site_fract_z
 _atom_site_occupancy
  Ba  Ba0  1  0.22889706  0.25000000  0.91116250  1.0
  Ba  Ba1  1  0.72889706  0.25000000  0.58883750  1.0
  Ba  Ba2  1  0.77110294  0.75000000  0.08883750  1.0
  Ba  Ba3  1  0.27110294  0.75000000  0.41116250  1.0
  Br  Br4  1  0.13736953  0.25000000  0.59683821  1.0
  Br  Br5  1  0.63736953  0.25000000  0.90316179  1.0
  Br  Br6  1  0.86263047  0.75000000  0.40316179  1.0
  Br  Br7  1  0.36263047  0.75000000  0.09683821  1.0
  Cl  Cl8  1  -0.00939021  0.25000000  0.14436134  1.0
  Cl  Cl9  1  0.49060979  0.25000000  0.35563866  1.0
  Cl  Cl10  1  1.00939021  0.75000000  0.85563866  1.0
  Cl  Cl11  1  0.50939021  0.75000000  0.64436134  1.0
