# generated using pymatgen
data_Te2AsCNF6
_symmetry_space_group_name_H-M   'P 1'
_cell_length_a   7.07357831
_cell_length_b   10.70099549
_cell_length_c   13.94128240
_cell_angle_alpha   90.00000000
_cell_angle_beta   115.67025721
_cell_angle_gamma   90.00000000
_symmetry_Int_Tables_number   1
_chemical_formula_structural   Te2AsCNF6
_chemical_formula_sum   'Te8 As4 C4 N4 F24'
_cell_volume   951.12240912
_cell_formula_units_Z   4
loop_
 _symmetry_equiv_pos_site_id
 _symmetry_equiv_pos_as_xyz
  1  'x, y, z'
loop_
 _atom_site_type_symbol
 _atom_site_label
 _atom_site_symmetry_multiplicity
 _atom_site_fract_x
 _atom_site_fract_y
 _atom_site_fract_z
 _atom_site_occupancy
  Te  Te0  1  0.84312703  0.84867068  0.44753786  1.0
  Te  Te1  1  0.84312703  0.65132932  0.94753786  1.0
  Te  Te2  1  0.15687297  0.34867068  0.05246214  1.0
  Te  Te3  1  0.15687297  0.15132932  0.55246214  1.0
  Te  Te4  1  0.76859926  0.09301522  0.39759693  1.0
  Te  Te5  1  0.76859926  0.40698478  0.89759693  1.0
  Te  Te6  1  0.23140074  0.59301522  0.10240307  1.0
  Te  Te7  1  0.23140074  0.90698478  0.60240307  1.0
  As  As8  1  0.80562907  0.44070981  0.28383661  1.0
  As  As9  1  0.80562907  0.05929019  0.78383661  1.0
  As  As10  1  0.19437093  0.94070981  0.21616339  1.0
  As  As11  1  0.19437093  0.55929019  0.71616339  1.0
  C  C12  1  0.49518405  0.43611407  0.49484556  1.0
  C  C13  1  0.49518405  0.06388593  0.99484556  1.0
  C  C14  1  0.50481595  0.93611407  0.00515444  1.0
  C  C15  1  0.50481595  0.56388593  0.50515444  1.0
  N  N16  1  0.48699537  0.32766429  0.48608969  1.0
  N  N17  1  0.48699537  0.17233571  0.98608969  1.0
  N  N18  1  0.51300463  0.82766429  0.01391031  1.0
  N  N19  1  0.51300463  0.67233571  0.51391031  1.0
  F  F20  1  0.28205388  0.01513931  0.34343592  1.0
  F  F21  1  0.28205388  0.48486069  0.84343592  1.0
  F  F22  1  0.71794612  0.51513931  0.15656408  1.0
  F  F23  1  0.71794612  0.98486069  0.65656408  1.0
  F  F24  1  0.92238282  0.31690195  0.24263955  1.0
  F  F25  1  0.92238282  0.18309805  0.74263955  1.0
  F  F26  1  0.07761718  0.81690195  0.25736045  1.0
  F  F27  1  0.07761718  0.68309805  0.75736045  1.0
  F  F28  1  0.88012774  0.36207063  0.41074843  1.0
  F  F29  1  0.88012774  0.13792937  0.91074843  1.0
  F  F30  1  0.11987226  0.86207063  0.08925157  1.0
  F  F31  1  0.11987226  0.63792937  0.58925157  1.0
  F  F32  1  0.95605037  0.02703942  0.16367026  1.0
  F  F33  1  0.95605037  0.47296058  0.66367026  1.0
  F  F34  1  0.04394963  0.52703942  0.33632974  1.0
  F  F35  1  0.04394963  0.97296058  0.83632974  1.0
  F  F36  1  0.55978291  0.35284547  0.23338448  1.0
  F  F37  1  0.55978291  0.14715453  0.73338448  1.0
  F  F38  1  0.44021709  0.85284547  0.26661552  1.0
  F  F39  1  0.44021709  0.64715453  0.76661552  1.0
  F  F40  1  0.32152288  0.06025987  0.17421146  1.0
  F  F41  1  0.32152288  0.43974013  0.67421146  1.0
  F  F42  1  0.67847712  0.56025987  0.32578854  1.0
  F  F43  1  0.67847712  0.93974013  0.82578854  1.0
