# generated using pymatgen
data_MnAg4(SbS3)2
_symmetry_space_group_name_H-M   'P 1'
_cell_length_a   6.73043248
_cell_length_b   7.99302630
_cell_length_c   12.46239240
_cell_angle_alpha   90.00000000
_cell_angle_beta   121.08236205
_cell_angle_gamma   90.00000000
_symmetry_Int_Tables_number   1
_chemical_formula_structural   MnAg4(SbS3)2
_chemical_formula_sum   'Mn2 Ag8 Sb4 S12'
_cell_volume   574.17662212
_cell_formula_units_Z   2
loop_
 _symmetry_equiv_pos_site_id
 _symmetry_equiv_pos_as_xyz
  1  'x, y, z'
loop_
 _atom_site_type_symbol
 _atom_site_label
 _atom_site_symmetry_multiplicity
 _atom_site_fract_x
 _atom_site_fract_y
 _atom_site_fract_z
 _atom_site_occupancy
  Mn  Mn0  1  -0.00000000  0.50000000  0.50000000  1.0
  Mn  Mn1  1  0.00000000  0.00000000  0.00000000  1.0
  Ag  Ag2  1  0.73284828  0.46758934  -0.02876148  1.0
  Ag  Ag3  1  0.73284828  0.03241066  0.47123852  1.0
  Ag  Ag4  1  0.26715172  0.96758934  0.52876148  1.0
  Ag  Ag5  1  0.26715172  0.53241066  1.02876148  1.0
  Ag  Ag6  1  0.24805248  0.20256394  0.31786488  1.0
  Ag  Ag7  1  0.24805248  0.29743606  0.81786488  1.0
  Ag  Ag8  1  0.75194752  0.70256394  0.18213512  1.0
  Ag  Ag9  1  0.75194752  0.79743606  0.68213512  1.0
  Sb  Sb10  1  0.66137869  0.14955062  0.18866626  1.0
  Sb  Sb11  1  0.66137869  0.35044938  0.68866626  1.0
  Sb  Sb12  1  0.33862131  0.64955062  0.31133374  1.0
  Sb  Sb13  1  0.33862131  0.85044938  0.81133374  1.0
  S  S14  1  0.90460756  0.40725283  0.28138309  1.0
  S  S15  1  0.90460756  0.09274717  0.78138309  1.0
  S  S16  1  0.09539244  0.90725283  0.21861691  1.0
  S  S17  1  0.09539244  0.59274717  0.71861691  1.0
  S  S18  1  0.73795683  0.75860521  0.39359953  1.0
  S  S19  1  0.73795683  0.74139479  0.89359953  1.0
  S  S20  1  0.26204317  0.25860521  0.10640047  1.0
  S  S21  1  0.26204317  0.24139479  0.60640047  1.0
  S  S22  1  0.65604173  0.32487310  0.48572620  1.0
  S  S23  1  0.65604173  0.17512690  0.98572620  1.0
  S  S24  1  0.34395827  0.82487310  0.01427380  1.0
  S  S25  1  0.34395827  0.67512690  0.51427380  1.0
