# generated using pymatgen
data_RbMnCl3O2
_symmetry_space_group_name_H-M   'P 1'
_cell_length_a   8.36685295
_cell_length_b   6.87989588
_cell_length_c   11.29842727
_cell_angle_alpha   90.00000000
_cell_angle_beta   90.00000000
_cell_angle_gamma   90.00000000
_symmetry_Int_Tables_number   1
_chemical_formula_structural   RbMnCl3O2
_chemical_formula_sum   'Rb4 Mn4 Cl12 O8'
_cell_volume   650.37223991
_cell_formula_units_Z   4
loop_
 _symmetry_equiv_pos_site_id
 _symmetry_equiv_pos_as_xyz
  1  'x, y, z'
loop_
 _atom_site_type_symbol
 _atom_site_label
 _atom_site_symmetry_multiplicity
 _atom_site_fract_x
 _atom_site_fract_y
 _atom_site_fract_z
 _atom_site_occupancy
  Rb  Rb0  1  0.75000000  0.50000000  0.38551638  1.0
  Rb  Rb1  1  0.75000000  0.50000000  0.88551638  1.0
  Rb  Rb2  1  0.25000000  0.50000000  0.61448362  1.0
  Rb  Rb3  1  0.25000000  0.50000000  0.11448362  1.0
  Mn  Mn4  1  0.00000000  1.00813547  0.25000000  1.0
  Mn  Mn5  1  0.00000000  -0.00813547  0.75000000  1.0
  Mn  Mn6  1  0.50000000  1.00813547  0.75000000  1.0
  Mn  Mn7  1  0.50000000  -0.00813547  0.25000000  1.0
  Cl  Cl8  1  0.90157002  0.72862913  0.13360318  1.0
  Cl  Cl9  1  0.90157002  0.27137087  0.63360318  1.0
  Cl  Cl10  1  0.40157002  0.72862913  0.86639682  1.0
  Cl  Cl11  1  0.40157002  0.27137087  0.36639682  1.0
  Cl  Cl12  1  0.09842998  0.72862913  0.36639682  1.0
  Cl  Cl13  1  0.09842998  0.27137087  0.86639682  1.0
  Cl  Cl14  1  0.59842998  0.72862913  0.63360318  1.0
  Cl  Cl15  1  0.59842998  0.27137087  0.13360318  1.0
  Cl  Cl16  1  0.75000000  0.00000000  0.35310727  1.0
  Cl  Cl17  1  0.75000000  0.00000000  0.85310727  1.0
  Cl  Cl18  1  0.25000000  0.00000000  0.64689273  1.0
  Cl  Cl19  1  0.25000000  0.00000000  0.14689273  1.0
  O  O20  1  0.56552636  0.86298265  0.14390460  1.0
  O  O21  1  0.56552636  0.13701735  0.64390460  1.0
  O  O22  1  0.06552636  0.86298265  0.85609540  1.0
  O  O23  1  0.06552636  0.13701735  0.35609540  1.0
  O  O24  1  0.43447364  0.86298265  0.35609540  1.0
  O  O25  1  0.43447364  0.13701735  0.85609540  1.0
  O  O26  1  0.93447364  0.86298265  0.64390460  1.0
  O  O27  1  0.93447364  0.13701735  0.14390460  1.0
