# generated using pymatgen
data_Ce2Pt2Pb
_symmetry_space_group_name_H-M   'P 1'
_cell_length_a   7.98490665
_cell_length_b   7.98490665
_cell_length_c   3.71907583
_cell_angle_alpha   90.00000000
_cell_angle_beta   90.00000000
_cell_angle_gamma   90.00000000
_symmetry_Int_Tables_number   1
_chemical_formula_structural   Ce2Pt2Pb
_chemical_formula_sum   'Ce4 Pt4 Pb2'
_cell_volume   237.12356729
_cell_formula_units_Z   2
loop_
 _symmetry_equiv_pos_site_id
 _symmetry_equiv_pos_as_xyz
  1  'x, y, z'
loop_
 _atom_site_type_symbol
 _atom_site_label
 _atom_site_symmetry_multiplicity
 _atom_site_fract_x
 _atom_site_fract_y
 _atom_site_fract_z
 _atom_site_occupancy
  Ce  Ce0  1  0.32723287  0.17276713  0.50000000  1.0
  Ce  Ce1  1  0.82723287  0.32723287  0.50000000  1.0
  Ce  Ce2  1  0.67276713  0.82723287  0.50000000  1.0
  Ce  Ce3  1  0.17276713  0.67276713  0.50000000  1.0
  Pt  Pt4  1  0.87289637  0.62710363  -0.00000000  1.0
  Pt  Pt5  1  0.37289637  0.87289637  0.00000000  1.0
  Pt  Pt6  1  0.12710363  0.37289637  0.00000000  1.0
  Pt  Pt7  1  0.62710363  0.12710363  0.00000000  1.0
  Pb  Pb8  1  0.50000000  0.50000000  0.00000000  1.0
  Pb  Pb9  1  0.00000000  0.00000000  0.00000000  1.0
