# generated using pymatgen
data_HfIr
_symmetry_space_group_name_H-M   'P 1'
_cell_length_a   4.38829356
_cell_length_b   3.64312820
_cell_length_c   4.38537874
_cell_angle_alpha   90.00000000
_cell_angle_beta   90.00000000
_cell_angle_gamma   90.00000000
_symmetry_Int_Tables_number   1
_chemical_formula_structural   HfIr
_chemical_formula_sum   'Hf2 Ir2'
_cell_volume   70.10955864
_cell_formula_units_Z   2
loop_
 _symmetry_equiv_pos_site_id
 _symmetry_equiv_pos_as_xyz
  1  'x, y, z'
loop_
 _atom_site_type_symbol
 _atom_site_label
 _atom_site_symmetry_multiplicity
 _atom_site_fract_x
 _atom_site_fract_y
 _atom_site_fract_z
 _atom_site_occupancy
  Hf  Hf0  1  0.25000000  0.00000000  0.25000770  1.0
  Hf  Hf1  1  0.75000000  0.00000000  0.74999230  1.0
  Ir  Ir2  1  0.25000000  0.50000000  0.75000592  1.0
  Ir  Ir3  1  0.75000000  0.50000000  0.24999408  1.0
