# generated using pymatgen
data_MgH4(NO4)2
_symmetry_space_group_name_H-M   'P 1'
_cell_length_a   5.81326948
_cell_length_b   6.21849769
_cell_length_c   8.89280554
_cell_angle_alpha   90.00000000
_cell_angle_beta   91.95219887
_cell_angle_gamma   90.00000000
_symmetry_Int_Tables_number   1
_chemical_formula_structural   MgH4(NO4)2
_chemical_formula_sum   'Mg2 H8 N4 O16'
_cell_volume   321.28658219
_cell_formula_units_Z   2
loop_
 _symmetry_equiv_pos_site_id
 _symmetry_equiv_pos_as_xyz
  1  'x, y, z'
loop_
 _atom_site_type_symbol
 _atom_site_label
 _atom_site_symmetry_multiplicity
 _atom_site_fract_x
 _atom_site_fract_y
 _atom_site_fract_z
 _atom_site_occupancy
  Mg  Mg0  1  0.00000000  0.00000000  0.00000000  1.0
  Mg  Mg1  1  0.00000000  0.50000000  0.50000000  1.0
  H  H2  1  0.65845260  0.27078720  0.89750033  1.0
  H  H3  1  0.65845260  0.22921280  0.39750033  1.0
  H  H4  1  0.34154740  0.77078720  0.60249967  1.0
  H  H5  1  0.34154740  0.72921280  0.10249967  1.0
  H  H6  1  0.39053145  0.80649403  0.94120000  1.0
  H  H7  1  0.39053145  0.69350597  0.44120000  1.0
  H  H8  1  0.60946855  0.30649403  0.55880000  1.0
  H  H9  1  0.60946855  0.19350597  0.05880000  1.0
  N  N10  1  0.75034885  0.81751798  0.70970301  1.0
  N  N11  1  0.75034885  0.68248202  0.20970301  1.0
  N  N12  1  0.24965115  0.31751798  0.79029699  1.0
  N  N13  1  0.24965115  0.18248202  0.29029699  1.0
  O  O14  1  0.93342526  0.86086618  0.78349085  1.0
  O  O15  1  0.93342526  0.63913382  0.28349085  1.0
  O  O16  1  0.06657474  0.36086618  0.71650915  1.0
  O  O17  1  0.06657474  0.13913382  0.21650915  1.0
  O  O18  1  0.76166537  0.71373640  0.58767588  1.0
  O  O19  1  0.76166537  0.78626360  0.08767588  1.0
  O  O20  1  0.23833463  0.21373640  0.91232412  1.0
  O  O21  1  0.23833463  0.28626360  0.41232412  1.0
  O  O22  1  0.73606308  0.22302229  0.99187833  1.0
  O  O23  1  0.73606308  0.27697771  0.49187833  1.0
  O  O24  1  0.26393692  0.72302229  0.50812167  1.0
  O  O25  1  0.26393692  0.77697771  0.00812167  1.0
  O  O26  1  0.55697718  0.87552190  0.75281164  1.0
  O  O27  1  0.55697718  0.62447810  0.25281164  1.0
  O  O28  1  0.44302282  0.37552190  0.74718836  1.0
  O  O29  1  0.44302282  0.12447810  0.24718836  1.0
