# generated using pymatgen
data_Ta2Ni
_symmetry_space_group_name_H-M   'P 1'
_cell_length_a   5.02561189
_cell_length_b   5.02561189
_cell_length_c   5.02561189
_cell_angle_alpha   103.52118333
_cell_angle_beta   103.52118333
_cell_angle_gamma   122.16710029
_symmetry_Int_Tables_number   1
_chemical_formula_structural   Ta2Ni
_chemical_formula_sum   'Ta4 Ni2'
_cell_volume   94.05090772
_cell_formula_units_Z   2
loop_
 _symmetry_equiv_pos_site_id
 _symmetry_equiv_pos_as_xyz
  1  'x, y, z'
loop_
 _atom_site_type_symbol
 _atom_site_label
 _atom_site_symmetry_multiplicity
 _atom_site_fract_x
 _atom_site_fract_y
 _atom_site_fract_z
 _atom_site_occupancy
  Ta  Ta0  1  0.84129927  0.34129927  1.18259855  1.0
  Ta  Ta1  1  0.65870073  0.84129927  0.50000000  1.0
  Ta  Ta2  1  1.34129927  1.15870073  1.50000000  1.0
  Ta  Ta3  1  0.15870073  0.65870073  0.81740145  1.0
  Ni  Ni4  1  0.25000000  0.25000000  0.00000000  1.0
  Ni  Ni5  1  0.75000000  0.75000000  0.00000000  1.0
