# generated using pymatgen
data_Ni7(Ge4O7)2
_symmetry_space_group_name_H-M   'P 1'
_cell_length_a   7.98808869
_cell_length_b   7.98808869
_cell_length_c   7.98808869
_cell_angle_alpha   66.77241120
_cell_angle_beta   66.77241120
_cell_angle_gamma   66.77241120
_symmetry_Int_Tables_number   1
_chemical_formula_structural   Ni7(Ge4O7)2
_chemical_formula_sum   'Ni7 Ge8 O14'
_cell_volume   412.85996747
_cell_formula_units_Z   1
loop_
 _symmetry_equiv_pos_site_id
 _symmetry_equiv_pos_as_xyz
  1  'x, y, z'
loop_
 _atom_site_type_symbol
 _atom_site_label
 _atom_site_symmetry_multiplicity
 _atom_site_fract_x
 _atom_site_fract_y
 _atom_site_fract_z
 _atom_site_occupancy
  O  O0  1  1.10153108  0.10153108  -0.60399934  1.0
  O  O1  1  1.10153108  -0.60399934  0.10153108  1.0
  O  O2  1  1.60399934  0.89846892  -0.10153108  1.0
  O  O3  1  0.39600066  0.10153108  0.10153108  1.0
  O  O4  1  0.89846892  1.60399934  -0.10153108  1.0
  O  O5  1  0.89846892  0.89846892  0.60399934  1.0
  O  O6  1  0.78590552  0.44962329  0.44962329  1.0
  O  O7  1  0.55037671  0.55037671  0.21409448  1.0
  O  O8  1  0.55037671  1.21409448  -0.44962329  1.0
  O  O9  1  1.44962329  -0.21409448  0.44962329  1.0
  O  O10  1  1.44962329  0.44962329  -0.21409448  1.0
  O  O11  1  1.21409448  0.55037671  -0.44962329  1.0
  O  O12  1  0.68386403  0.68386403  0.68386403  1.0
  O  O13  1  0.31613597  0.31613597  0.31613597  1.0
  Ni  Ni14  1  0.00000000  0.00000000  0.00000000  1.0
  Ni  Ni15  1  0.40117003  0.40117003  0.03820729  1.0
  Ni  Ni16  1  0.40117003  1.03820729  -0.59882997  1.0
  Ni  Ni17  1  0.96179271  0.59882997  -0.40117003  1.0
  Ni  Ni18  1  1.03820729  0.40117003  -0.59882997  1.0
  Ni  Ni19  1  0.59882997  0.59882997  -0.03820729  1.0
  Ni  Ni20  1  0.59882997  0.96179271  -0.40117003  1.0
  Ge  Ge21  1  0.97502053  0.97502053  0.34282554  1.0
  Ge  Ge22  1  0.97502053  1.34282554  -0.02497947  1.0
  Ge  Ge23  1  0.58628796  0.58628796  0.58628796  1.0
  Ge  Ge24  1  0.65717446  0.02497947  0.02497947  1.0
  Ge  Ge25  1  0.41371204  0.41371204  0.41371204  1.0
  Ge  Ge26  1  1.34282554  0.97502053  -0.02497947  1.0
  Ge  Ge27  1  1.02497947  -0.34282554  0.02497947  1.0
  Ge  Ge28  1  1.02497947  0.02497947  -0.34282554  1.0
