# generated using pymatgen
data_Cs3SbO4
_symmetry_space_group_name_H-M   'P 1'
_cell_length_a   13.09979593
_cell_length_b   9.37541551
_cell_length_c   6.94153503
_cell_angle_alpha   90.00000000
_cell_angle_beta   90.00000000
_cell_angle_gamma   90.00000000
_symmetry_Int_Tables_number   1
_chemical_formula_structural   Cs3SbO4
_chemical_formula_sum   'Cs12 Sb4 O16'
_cell_volume   852.53177394
_cell_formula_units_Z   4
loop_
 _symmetry_equiv_pos_site_id
 _symmetry_equiv_pos_as_xyz
  1  'x, y, z'
loop_
 _atom_site_type_symbol
 _atom_site_label
 _atom_site_symmetry_multiplicity
 _atom_site_fract_x
 _atom_site_fract_y
 _atom_site_fract_z
 _atom_site_occupancy
  Cs  Cs0  1  0.64808138  0.49191200  0.29033976  1.0
  Cs  Cs1  1  0.64808138  0.00808800  0.29033976  1.0
  Cs  Cs2  1  0.14808138  0.49191200  0.20966024  1.0
  Cs  Cs3  1  0.14808138  0.00808800  0.20966024  1.0
  Cs  Cs4  1  0.35191862  0.99191200  0.70966024  1.0
  Cs  Cs5  1  0.35191862  0.50808800  0.70966024  1.0
  Cs  Cs6  1  0.85191862  0.99191200  0.79033976  1.0
  Cs  Cs7  1  0.85191862  0.50808800  0.79033976  1.0
  Cs  Cs8  1  0.57849663  0.25000000  0.84263971  1.0
  Cs  Cs9  1  0.07849663  0.25000000  0.65736029  1.0
  Cs  Cs10  1  0.42150337  0.75000000  0.15736029  1.0
  Cs  Cs11  1  0.92150337  0.75000000  0.34263971  1.0
  Sb  Sb12  1  0.88853003  0.25000000  0.22164393  1.0
  Sb  Sb13  1  0.38853003  0.25000000  0.27835607  1.0
  Sb  Sb14  1  0.11146997  0.75000000  0.77835607  1.0
  Sb  Sb15  1  0.61146997  0.75000000  0.72164393  1.0
  O  O16  1  0.88646966  0.41834745  0.37756428  1.0
  O  O17  1  0.88646966  0.08165255  0.37756428  1.0
  O  O18  1  0.38646966  0.41834745  0.12243572  1.0
  O  O19  1  0.38646966  0.08165255  0.12243572  1.0
  O  O20  1  0.11353034  0.91834745  0.62243572  1.0
  O  O21  1  0.11353034  0.58165255  0.62243572  1.0
  O  O22  1  0.61353034  0.91834745  0.87756428  1.0
  O  O23  1  0.61353034  0.58165255  0.87756428  1.0
  O  O24  1  0.00836436  0.25000000  0.06214311  1.0
  O  O25  1  0.50836436  0.25000000  0.43785689  1.0
  O  O26  1  -0.00836436  0.75000000  0.93785689  1.0
  O  O27  1  0.49163564  0.75000000  0.56214311  1.0
  O  O28  1  0.77046505  0.25000000  0.05713943  1.0
  O  O29  1  0.27046505  0.25000000  0.44286057  1.0
  O  O30  1  0.22953495  0.75000000  0.94286057  1.0
  O  O31  1  0.72953495  0.75000000  0.55713943  1.0
