# generated using pymatgen
data_YH3(CO2)3
_symmetry_space_group_name_H-M   'P 1'
_cell_length_a   6.18831551
_cell_length_b   6.18831551
_cell_length_c   6.18831551
_cell_angle_alpha   115.50617616
_cell_angle_beta   115.50617616
_cell_angle_gamma   115.50617616
_symmetry_Int_Tables_number   1
_chemical_formula_structural   YH3(CO2)3
_chemical_formula_sum   'Y1 H3 C3 O6'
_cell_volume   126.30094418
_cell_formula_units_Z   1
loop_
 _symmetry_equiv_pos_site_id
 _symmetry_equiv_pos_as_xyz
  1  'x, y, z'
loop_
 _atom_site_type_symbol
 _atom_site_label
 _atom_site_symmetry_multiplicity
 _atom_site_fract_x
 _atom_site_fract_y
 _atom_site_fract_z
 _atom_site_occupancy
  Y  Y0  1  -0.00080593  -0.00080593  -0.00080593  1.0
  H  H1  1  0.63324680  0.63324680  0.14931615  1.0
  H  H2  1  1.14931615  0.63324680  0.63324680  1.0
  H  H3  1  0.63324680  1.14931615  -0.36675320  1.0
  C  C4  1  0.38790830  0.38790830  -0.15049120  1.0
  C  C5  1  0.84950880  0.38790830  0.38790830  1.0
  C  C6  1  0.38790830  0.84950880  -0.61209170  1.0
  O  O7  1  1.11155883  1.11155883  0.71754381  1.0
  O  O8  1  0.71754381  0.11155883  0.11155883  1.0
  O  O9  1  1.11155883  1.71754381  0.11155883  1.0
  O  O10  1  0.40682587  0.40682587  -0.34034240  1.0
  O  O11  1  0.65965760  0.40682587  0.40682587  1.0
  O  O12  1  0.40682587  0.65965760  -0.59317413  1.0
