# generated using pymatgen
data_CsCa(SeO4)3
_symmetry_space_group_name_H-M   'P 1'
_cell_length_a   8.31200813
_cell_length_b   6.10586550
_cell_length_c   13.12374191
_cell_angle_alpha   90.00000000
_cell_angle_beta   111.06050954
_cell_angle_gamma   90.00000000
_symmetry_Int_Tables_number   1
_chemical_formula_structural   CsCa(SeO4)3
_chemical_formula_sum   'Cs2 Ca2 Se6 O24'
_cell_volume   621.56460118
_cell_formula_units_Z   2
loop_
 _symmetry_equiv_pos_site_id
 _symmetry_equiv_pos_as_xyz
  1  'x, y, z'
loop_
 _atom_site_type_symbol
 _atom_site_label
 _atom_site_symmetry_multiplicity
 _atom_site_fract_x
 _atom_site_fract_y
 _atom_site_fract_z
 _atom_site_occupancy
  Cs  Cs0  1  0.81776761  0.75000000  0.68951951  1.0
  Cs  Cs1  1  0.18223239  0.25000000  0.31048049  1.0
  O  O2  1  0.40405284  0.75000000  0.05312185  1.0
  O  O3  1  0.59594716  0.25000000  0.94687815  1.0
  O  O4  1  0.18025371  0.75000000  0.66053475  1.0
  O  O5  1  0.81974629  0.25000000  0.33946525  1.0
  O  O6  1  0.83536701  0.97280166  0.14694146  1.0
  O  O7  1  0.16463299  0.47280166  0.85305854  1.0
  O  O8  1  0.16463299  0.02719834  0.85305854  1.0
  O  O9  1  0.83536701  0.52719834  0.14694146  1.0
  O  O10  1  1.00856321  0.75000000  0.03472280  1.0
  O  O11  1  -0.00856321  0.25000000  0.96527720  1.0
  O  O12  1  0.60576350  0.02136661  0.42124970  1.0
  O  O13  1  0.39423650  0.52136661  0.57875030  1.0
  O  O14  1  0.39423650  0.97863339  0.57875030  1.0
  O  O15  1  0.60576350  0.47863339  0.42124970  1.0
  O  O16  1  0.77538438  0.25000000  0.79873967  1.0
  O  O17  1  0.22461562  0.75000000  0.20126033  1.0
  O  O18  1  0.47840595  0.02110656  0.76326446  1.0
  O  O19  1  0.52159405  0.52110656  0.23673554  1.0
  O  O20  1  0.52159405  0.97889344  0.23673554  1.0
  O  O21  1  0.47840595  0.47889344  0.76326446  1.0
  O  O22  1  0.86069349  0.25000000  0.56191329  1.0
  O  O23  1  0.13930651  0.75000000  0.43808671  1.0
  O  O24  1  0.67539520  0.75000000  0.95311405  1.0
  O  O25  1  0.32460480  0.25000000  0.04688595  1.0
  Se  Se26  1  0.58842712  0.25000000  0.81951731  1.0
  Se  Se27  1  0.41157288  0.75000000  0.18048269  1.0
  Se  Se28  1  0.26941489  0.75000000  0.56708447  1.0
  Se  Se29  1  0.73058511  0.25000000  0.43291553  1.0
  Se  Se30  1  0.83271109  0.75000000  0.07474846  1.0
  Se  Se31  1  0.16728891  0.25000000  0.92525154  1.0
  Ca  Ca32  1  0.36324522  0.75000000  0.86025468  1.0
  Ca  Ca33  1  0.63675478  0.25000000  0.13974532  1.0
