# generated using pymatgen
data_VSiNi
_symmetry_space_group_name_H-M   'P 1'
_cell_length_a   5.99115990
_cell_length_b   3.53808940
_cell_length_c   6.93707203
_cell_angle_alpha   90.00000000
_cell_angle_beta   90.00000000
_cell_angle_gamma   90.00000000
_symmetry_Int_Tables_number   1
_chemical_formula_structural   VSiNi
_chemical_formula_sum   'V4 Si4 Ni4'
_cell_volume   147.04691486
_cell_formula_units_Z   4
loop_
 _symmetry_equiv_pos_site_id
 _symmetry_equiv_pos_as_xyz
  1  'x, y, z'
loop_
 _atom_site_type_symbol
 _atom_site_label
 _atom_site_symmetry_multiplicity
 _atom_site_fract_x
 _atom_site_fract_y
 _atom_site_fract_z
 _atom_site_occupancy
  V  V0  1  0.97302871  0.75000000  0.66539507  1.0
  V  V1  1  0.47302871  0.75000000  0.83460493  1.0
  V  V2  1  0.02697129  0.25000000  0.33460493  1.0
  V  V3  1  0.52697129  0.25000000  0.16539507  1.0
  Si  Si4  1  0.73022667  0.75000000  0.36960579  1.0
  Si  Si5  1  0.23022667  0.75000000  0.13039421  1.0
  Si  Si6  1  0.26977333  0.25000000  0.63039421  1.0
  Si  Si7  1  0.76977333  0.25000000  0.86960579  1.0
  Ni  Ni8  1  0.85355128  0.75000000  0.06016971  1.0
  Ni  Ni9  1  0.35355128  0.75000000  0.43983029  1.0
  Ni  Ni10  1  0.14644872  0.25000000  0.93983029  1.0
  Ni  Ni11  1  0.64644872  0.25000000  0.56016971  1.0
