# generated using pymatgen
data_InCo3SnS2
_symmetry_space_group_name_H-M   'P 1'
_cell_length_a   5.40319632
_cell_length_b   5.40319632
_cell_length_c   5.40319632
_cell_angle_alpha   59.75448411
_cell_angle_beta   59.75448411
_cell_angle_gamma   59.75448411
_symmetry_Int_Tables_number   1
_chemical_formula_structural   InCo3SnS2
_chemical_formula_sum   'In1 Co3 Sn1 S2'
_cell_volume   110.91985236
_cell_formula_units_Z   1
loop_
 _symmetry_equiv_pos_site_id
 _symmetry_equiv_pos_as_xyz
  1  'x, y, z'
loop_
 _atom_site_type_symbol
 _atom_site_label
 _atom_site_symmetry_multiplicity
 _atom_site_fract_x
 _atom_site_fract_y
 _atom_site_fract_z
 _atom_site_occupancy
  In  In0  1  0.00000000  0.00000000  0.00000000  1.0
  Co  Co1  1  0.50000000  -0.00000000  -0.50000000  1.0
  Co  Co2  1  0.50000000  -0.50000000  0.00000000  1.0
  Co  Co3  1  -0.00000000  0.50000000  -0.50000000  1.0
  Sn  Sn4  1  1.50000000  0.50000000  0.50000000  1.0
  S  S5  1  0.77842017  0.77842017  0.77842017  1.0
  S  S6  1  1.22157983  1.22157983  0.22157983  1.0
