# generated using pymatgen
data_YSbIr
_symmetry_space_group_name_H-M   'P 1'
_cell_length_a   7.18045748
_cell_length_b   4.52166409
_cell_length_c   7.93889152
_cell_angle_alpha   90.00000000
_cell_angle_beta   90.00000000
_cell_angle_gamma   90.00000000
_symmetry_Int_Tables_number   1
_chemical_formula_structural   YSbIr
_chemical_formula_sum   'Y4 Sb4 Ir4'
_cell_volume   257.75688743
_cell_formula_units_Z   4
loop_
 _symmetry_equiv_pos_site_id
 _symmetry_equiv_pos_as_xyz
  1  'x, y, z'
loop_
 _atom_site_type_symbol
 _atom_site_label
 _atom_site_symmetry_multiplicity
 _atom_site_fract_x
 _atom_site_fract_y
 _atom_site_fract_z
 _atom_site_occupancy
  Y  Y0  1  0.00999608  0.25000000  0.30668375  1.0
  Y  Y1  1  0.50999608  0.25000000  0.19331625  1.0
  Y  Y2  1  0.99000392  0.75000000  0.69331625  1.0
  Y  Y3  1  0.49000392  0.75000000  0.80668375  1.0
  Sb  Sb4  1  0.17954691  0.25000000  0.91082821  1.0
  Sb  Sb5  1  0.67954691  0.25000000  0.58917179  1.0
  Sb  Sb6  1  0.82045309  0.75000000  0.08917179  1.0
  Sb  Sb7  1  0.32045309  0.75000000  0.41082821  1.0
  Ir  Ir8  1  0.29216095  0.25000000  0.58761296  1.0
  Ir  Ir9  1  0.79216095  0.25000000  0.91238704  1.0
  Ir  Ir10  1  0.70783905  0.75000000  0.41238704  1.0
  Ir  Ir11  1  0.20783905  0.75000000  0.08761296  1.0
