# generated using pymatgen
data_BaTcO3
_symmetry_space_group_name_H-M   'P 1'
_cell_length_a   5.81323242
_cell_length_b   5.81323242
_cell_length_c   14.31478572
_cell_angle_alpha   90.00000000
_cell_angle_beta   90.00000000
_cell_angle_gamma   120.00000000
_symmetry_Int_Tables_number   1
_chemical_formula_structural   BaTcO3
_chemical_formula_sum   'Ba6 Tc6 O18'
_cell_volume   418.93906296
_cell_formula_units_Z   6
loop_
 _symmetry_equiv_pos_site_id
 _symmetry_equiv_pos_as_xyz
  1  'x, y, z'
loop_
 _atom_site_type_symbol
 _atom_site_label
 _atom_site_symmetry_multiplicity
 _atom_site_fract_x
 _atom_site_fract_y
 _atom_site_fract_z
 _atom_site_occupancy
  O  O0  1  0.51571121  0.48428879  0.25000000  1.0
  O  O1  1  0.51571121  0.03142243  0.25000000  1.0
  O  O2  1  0.48428879  0.51571121  0.75000000  1.0
  O  O3  1  0.48428879  0.96857757  0.75000000  1.0
  O  O4  1  0.96857757  0.48428879  0.25000000  1.0
  O  O5  1  0.03142243  0.51571121  0.75000000  1.0
  O  O6  1  0.16426897  0.83573103  0.92019492  1.0
  O  O7  1  0.16426897  0.83573103  0.57980508  1.0
  O  O8  1  0.16426897  0.32853794  0.92019492  1.0
  O  O9  1  0.16426897  0.32853794  0.57980508  1.0
  O  O10  1  0.83573103  0.16426897  0.42019492  1.0
  O  O11  1  0.83573103  0.16426897  0.07980508  1.0
  O  O12  1  0.83573103  0.67146206  0.42019492  1.0
  O  O13  1  0.83573103  0.67146206  0.07980508  1.0
  O  O14  1  0.67146206  0.83573103  0.92019492  1.0
  O  O15  1  0.67146206  0.83573103  0.57980508  1.0
  O  O16  1  0.32853794  0.16426897  0.42019492  1.0
  O  O17  1  0.32853794  0.16426897  0.07980508  1.0
  Tc  Tc18  1  0.33333333  0.66666667  0.84688211  1.0
  Tc  Tc19  1  0.33333333  0.66666667  0.65311789  1.0
  Tc  Tc20  1  0.66666667  0.33333333  0.34688211  1.0
  Tc  Tc21  1  0.66666667  0.33333333  0.15311789  1.0
  Tc  Tc22  1  0.00000000  0.00000000  0.50000000  1.0
  Tc  Tc23  1  0.00000000  0.00000000  0.00000000  1.0
  Ba  Ba24  1  0.33333333  0.66666667  0.40580756  1.0
  Ba  Ba25  1  0.33333333  0.66666667  0.09419244  1.0
  Ba  Ba26  1  0.66666667  0.33333333  0.90580756  1.0
  Ba  Ba27  1  0.66666667  0.33333333  0.59419244  1.0
  Ba  Ba28  1  0.00000000  0.00000000  0.25000000  1.0
  Ba  Ba29  1  0.00000000  0.00000000  0.75000000  1.0
