# generated using pymatgen
data_NaCoPO4
_symmetry_space_group_name_H-M   'P 1'
_cell_length_a   5.31035360
_cell_length_b   10.18933361
_cell_length_c   9.11642785
_cell_angle_alpha   90.00000000
_cell_angle_beta   125.35872030
_cell_angle_gamma   90.00000000
_symmetry_Int_Tables_number   1
_chemical_formula_structural   NaCoPO4
_chemical_formula_sum   'Na4 Co4 P4 O16'
_cell_volume   402.29238991
_cell_formula_units_Z   4
loop_
 _symmetry_equiv_pos_site_id
 _symmetry_equiv_pos_as_xyz
  1  'x, y, z'
loop_
 _atom_site_type_symbol
 _atom_site_label
 _atom_site_symmetry_multiplicity
 _atom_site_fract_x
 _atom_site_fract_y
 _atom_site_fract_z
 _atom_site_occupancy
  Na  Na0  1  0.80097696  0.37820459  0.01847759  1.0
  Na  Na1  1  0.80097696  0.12179541  0.51847759  1.0
  Na  Na2  1  0.19902304  0.87820459  0.48152241  1.0
  Na  Na3  1  0.19902304  0.62179541  0.98152241  1.0
  Co  Co4  1  0.69520675  0.66675326  0.48855742  1.0
  Co  Co5  1  0.69520675  0.83324674  0.98855742  1.0
  Co  Co6  1  0.30479325  0.16675326  0.01144258  1.0
  Co  Co7  1  0.30479325  0.33324674  0.51144258  1.0
  P  P8  1  0.57701986  0.39926825  0.28152660  1.0
  P  P9  1  0.57701986  0.10073175  0.78152660  1.0
  P  P10  1  0.42298014  0.89926825  0.21847340  1.0
  P  P11  1  0.42298014  0.60073175  0.71847340  1.0
  O  O12  1  0.88336411  0.36778946  0.30185388  1.0
  O  O13  1  0.88336411  0.13221054  0.80185388  1.0
  O  O14  1  0.11663589  0.86778946  0.19814612  1.0
  O  O15  1  0.11663589  0.63221054  0.69814612  1.0
  O  O16  1  0.69716652  0.85182035  0.41105415  1.0
  O  O17  1  0.69716652  0.64817965  0.91105415  1.0
  O  O18  1  0.30283348  0.35182035  0.08894585  1.0
  O  O19  1  0.30283348  0.14817965  0.58894585  1.0
  O  O20  1  0.57948734  0.32803145  0.43301726  1.0
  O  O21  1  0.57948734  0.17196855  0.93301726  1.0
  O  O22  1  0.42051266  0.82803145  0.06698274  1.0
  O  O23  1  0.42051266  0.67196855  0.56698274  1.0
  O  O24  1  0.47073826  0.05015173  0.21726345  1.0
  O  O25  1  0.47073826  0.44984827  0.71726345  1.0
  O  O26  1  0.52926174  0.55015173  0.28273655  1.0
  O  O27  1  0.52926174  0.94984827  0.78273655  1.0
