# generated using pymatgen
data_Rb2Cu2SnS4
_symmetry_space_group_name_H-M   'P 1'
_cell_length_a   9.52344434
_cell_length_b   9.52344434
_cell_length_c   9.52344434
_cell_angle_alpha   146.53536383
_cell_angle_beta   103.37166210
_cell_angle_gamma   86.24483527
_symmetry_Int_Tables_number   1
_chemical_formula_structural   Rb2Cu2SnS4
_chemical_formula_sum   'Rb4 Cu4 Sn2 S8'
_cell_volume   450.10938721
_cell_formula_units_Z   2
loop_
 _symmetry_equiv_pos_site_id
 _symmetry_equiv_pos_as_xyz
  1  'x, y, z'
loop_
 _atom_site_type_symbol
 _atom_site_label
 _atom_site_symmetry_multiplicity
 _atom_site_fract_x
 _atom_site_fract_y
 _atom_site_fract_z
 _atom_site_occupancy
  Rb  Rb0  1  1.12458920  1.27114285  1.39573205  1.0
  Rb  Rb1  1  1.37541080  0.77114285  1.14655365  1.0
  Rb  Rb2  1  0.62458920  1.22885715  0.85344635  1.0
  Rb  Rb3  1  0.87541080  0.72885715  0.60426795  1.0
  Cu  Cu4  1  0.97654486  0.25000000  0.72654486  1.0
  Cu  Cu5  1  1.47654486  0.75000000  0.72654486  1.0
  Cu  Cu6  1  1.02345514  0.75000000  0.27345514  1.0
  Cu  Cu7  1  0.52345514  0.25000000  0.27345514  1.0
  Sn  Sn8  1  1.25000000  1.25000000  1.00000000  1.0
  Sn  Sn9  1  0.75000000  0.75000000  1.00000000  1.0
  S  S10  1  1.21819607  1.12025707  0.63721534  1.0
  S  S11  1  0.51695827  0.41901927  0.63721534  1.0
  S  S12  1  0.98304173  0.62025707  0.90206100  1.0
  S  S13  1  1.28180393  0.91901927  0.90206100  1.0
  S  S14  1  0.71819607  1.08098073  1.09793900  1.0
  S  S15  1  1.01695827  1.37974293  1.09793900  1.0
  S  S16  1  1.48304173  1.58098073  1.36278466  1.0
  S  S17  1  0.78180393  0.87974293  1.36278466  1.0
