# generated using pymatgen
data_ZnCu2GeTe4
_symmetry_space_group_name_H-M   'P 1'
_cell_length_a   7.43665031
_cell_length_b   7.43665031
_cell_length_c   7.43665031
_cell_angle_alpha   131.50046164
_cell_angle_beta   131.50046164
_cell_angle_gamma   71.01914695
_symmetry_Int_Tables_number   1
_chemical_formula_structural   ZnCu2GeTe4
_chemical_formula_sum   'Zn1 Cu2 Ge1 Te4'
_cell_volume   225.89563719
_cell_formula_units_Z   1
loop_
 _symmetry_equiv_pos_site_id
 _symmetry_equiv_pos_as_xyz
  1  'x, y, z'
loop_
 _atom_site_type_symbol
 _atom_site_label
 _atom_site_symmetry_multiplicity
 _atom_site_fract_x
 _atom_site_fract_y
 _atom_site_fract_z
 _atom_site_occupancy
  Zn  Zn0  1  -0.00000000  -0.00000000  -0.00000000  1.0
  Cu  Cu1  1  0.25000000  0.75000000  0.50000000  1.0
  Cu  Cu2  1  0.75000000  0.25000000  0.50000000  1.0
  Ge  Ge3  1  0.50000000  0.50000000  1.00000000  1.0
  Te  Te4  1  0.38388297  0.88214494  1.00000000  1.0
  Te  Te5  1  1.11785506  1.11785506  1.50173803  1.0
  Te  Te6  1  0.61611703  0.61611703  0.49826197  1.0
  Te  Te7  1  0.88214494  0.38388297  1.00000000  1.0
