# generated using pymatgen
data_La4CuS7
_symmetry_space_group_name_H-M   'P 1'
_cell_length_a   9.79875321
_cell_length_b   9.79875321
_cell_length_c   7.37726380
_cell_angle_alpha   90.00000000
_cell_angle_beta   90.00000000
_cell_angle_gamma   120.00000000
_symmetry_Int_Tables_number   1
_chemical_formula_structural   La4CuS7
_chemical_formula_sum   'La8 Cu2 S14'
_cell_volume   613.43363522
_cell_formula_units_Z   2
loop_
 _symmetry_equiv_pos_site_id
 _symmetry_equiv_pos_as_xyz
  1  'x, y, z'
loop_
 _atom_site_type_symbol
 _atom_site_label
 _atom_site_symmetry_multiplicity
 _atom_site_fract_x
 _atom_site_fract_y
 _atom_site_fract_z
 _atom_site_occupancy
  La  La0  1  0.82428010  0.62828364  0.22529994  1.0
  La  La1  1  0.62828364  0.80400355  0.72529994  1.0
  La  La2  1  0.80400355  0.17571990  0.22529994  1.0
  La  La3  1  0.37171636  0.19599645  0.22529994  1.0
  La  La4  1  0.17571990  0.37171636  0.72529994  1.0
  La  La5  1  0.19599645  0.82428010  0.72529994  1.0
  La  La6  1  0.33333333  0.66666667  0.19218564  1.0
  La  La7  1  0.66666667  0.33333333  0.69218564  1.0
  Cu  Cu8  1  0.00000000  0.00000000  -0.13657252  1.0
  Cu  Cu9  1  0.00000000  0.00000000  0.36342748  1.0
  S  S10  1  0.13532713  0.87481404  0.33796980  1.0
  S  S11  1  0.87481404  0.73948691  0.83796980  1.0
  S  S12  1  0.73948691  0.86467287  0.33796980  1.0
  S  S13  1  0.12518596  0.26051309  0.33796980  1.0
  S  S14  1  0.86467287  0.12518596  0.83796980  1.0
  S  S15  1  0.26051309  0.13532713  0.83796980  1.0
  S  S16  1  0.54444086  0.47013835  0.46212692  1.0
  S  S17  1  0.47013835  0.92569749  0.96212692  1.0
  S  S18  1  0.92569749  0.45555914  0.46212692  1.0
  S  S19  1  0.52986165  0.07430251  0.46212692  1.0
  S  S20  1  0.45555914  0.52986165  0.96212692  1.0
  S  S21  1  0.07430251  0.54444086  0.96212692  1.0
  S  S22  1  0.33333333  0.66666667  0.56419692  1.0
  S  S23  1  0.66666667  0.33333333  0.06419692  1.0
