# generated using pymatgen
data_YCrO2
_symmetry_space_group_name_H-M   'P 1'
_cell_length_a   7.20295192
_cell_length_b   7.20295192
_cell_length_c   7.20295192
_cell_angle_alpha   130.45206748
_cell_angle_beta   130.45206748
_cell_angle_gamma   72.68508755
_symmetry_Int_Tables_number   1
_chemical_formula_structural   YCrO2
_chemical_formula_sum   'Y4 Cr4 O8'
_cell_volume   211.42723756
_cell_formula_units_Z   4
loop_
 _symmetry_equiv_pos_site_id
 _symmetry_equiv_pos_as_xyz
  1  'x, y, z'
loop_
 _atom_site_type_symbol
 _atom_site_label
 _atom_site_symmetry_multiplicity
 _atom_site_fract_x
 _atom_site_fract_y
 _atom_site_fract_z
 _atom_site_occupancy
  Y  Y0  1  0.37500000  0.62500000  0.75000000  1.0
  Y  Y1  1  0.87500000  0.62500000  1.25000000  1.0
  Y  Y2  1  0.37500000  1.12500000  0.75000000  1.0
  Y  Y3  1  0.37500000  0.62500000  0.25000000  1.0
  Cr  Cr4  1  0.87500000  0.12500000  0.75000000  1.0
  Cr  Cr5  1  0.37500000  0.12500000  0.25000000  1.0
  Cr  Cr6  1  0.87500000  0.62500000  0.75000000  1.0
  Cr  Cr7  1  0.87500000  1.12500000  1.25000000  1.0
  O  O8  1  0.17071464  0.95130101  0.78060034  1.0
  O  O9  1  0.57929933  0.85988569  1.28060034  1.0
  O  O10  1  1.04869899  0.82929933  1.21941363  1.0
  O  O11  1  1.14011431  0.42071464  0.71941363  1.0
  O  O12  1  1.17070067  0.39011431  1.21939966  1.0
  O  O13  1  0.57928536  0.29869899  0.71939966  1.0
  O  O14  1  0.60988569  0.82928536  0.78058637  1.0
  O  O15  1  0.70130101  1.42070067  1.28058637  1.0
