# generated using pymatgen
data_CaWO4
_symmetry_space_group_name_H-M   'P 1'
_cell_length_a   5.28563758
_cell_length_b   10.55881805
_cell_length_c   5.45858478
_cell_angle_alpha   90.00000000
_cell_angle_beta   118.19280379
_cell_angle_gamma   90.00000000
_symmetry_Int_Tables_number   1
_chemical_formula_structural   CaWO4
_chemical_formula_sum   'Ca4 W4 O16'
_cell_volume   268.50196094
_cell_formula_units_Z   4
loop_
 _symmetry_equiv_pos_site_id
 _symmetry_equiv_pos_as_xyz
  1  'x, y, z'
loop_
 _atom_site_type_symbol
 _atom_site_label
 _atom_site_symmetry_multiplicity
 _atom_site_fract_x
 _atom_site_fract_y
 _atom_site_fract_z
 _atom_site_occupancy
  Ca  Ca0  1  0.65261974  0.92809083  0.32412369  1.0
  Ca  Ca1  1  0.34738026  0.42809083  0.67587631  1.0
  Ca  Ca2  1  0.34738026  0.07190917  0.67587631  1.0
  Ca  Ca3  1  0.65261974  0.57190917  0.32412369  1.0
  W  W4  1  0.31457072  0.75000000  0.67417162  1.0
  W  W5  1  0.68542928  0.25000000  0.32582838  1.0
  W  W6  1  0.03586702  0.25000000  0.02417921  1.0
  W  W7  1  0.96413298  0.75000000  0.97582079  1.0
  O  O8  1  0.62589533  0.62379823  0.73349923  1.0
  O  O9  1  0.37410467  0.12379823  0.26650077  1.0
  O  O10  1  0.37410467  0.37620177  0.26650077  1.0
  O  O11  1  0.62589533  0.87620177  0.73349923  1.0
  O  O12  1  0.22232481  0.62284773  0.91097587  1.0
  O  O13  1  0.77767519  0.12284773  0.08902413  1.0
  O  O14  1  0.77767519  0.37715227  0.08902413  1.0
  O  O15  1  0.22232481  0.87715227  0.91097587  1.0
  O  O16  1  0.85023459  0.13522789  0.67104529  1.0
  O  O17  1  0.14976541  0.63522789  0.32895471  1.0
  O  O18  1  0.14976541  0.86477211  0.32895471  1.0
  O  O19  1  0.85023459  0.36477211  0.67104529  1.0
  O  O20  1  0.89794145  0.75000000  0.57276232  1.0
  O  O21  1  0.10205855  0.25000000  0.42723768  1.0
  O  O22  1  0.65736677  0.75000000  0.08320950  1.0
  O  O23  1  0.34263323  0.25000000  0.91679050  1.0
