# generated using pymatgen
data_LiCaBi
_symmetry_space_group_name_H-M   'P 1'
_cell_length_a   7.80510999
_cell_length_b   4.73040880
_cell_length_c   8.52934969
_cell_angle_alpha   90.00000000
_cell_angle_beta   90.00000000
_cell_angle_gamma   90.00000000
_symmetry_Int_Tables_number   1
_chemical_formula_structural   LiCaBi
_chemical_formula_sum   'Li4 Ca4 Bi4'
_cell_volume   314.91519866
_cell_formula_units_Z   4
loop_
 _symmetry_equiv_pos_site_id
 _symmetry_equiv_pos_as_xyz
  1  'x, y, z'
loop_
 _atom_site_type_symbol
 _atom_site_label
 _atom_site_symmetry_multiplicity
 _atom_site_fract_x
 _atom_site_fract_y
 _atom_site_fract_z
 _atom_site_occupancy
  Li  Li0  1  0.84897824  0.75000000  0.07128790  1.0
  Li  Li1  1  0.34897824  0.75000000  0.42871210  1.0
  Li  Li2  1  0.15102176  0.25000000  0.92871210  1.0
  Li  Li3  1  0.65102176  0.25000000  0.57128790  1.0
  Ca  Ca4  1  0.98880109  0.75000000  0.70098021  1.0
  Ca  Ca5  1  0.48880109  0.75000000  0.79901979  1.0
  Ca  Ca6  1  0.01119891  0.25000000  0.29901979  1.0
  Ca  Ca7  1  0.51119891  0.25000000  0.20098021  1.0
  Bi  Bi8  1  0.73160837  0.75000000  0.39865943  1.0
  Bi  Bi9  1  0.23160837  0.75000000  0.10134057  1.0
  Bi  Bi10  1  0.26839163  0.25000000  0.60134057  1.0
  Bi  Bi11  1  0.76839163  0.25000000  0.89865943  1.0
