# generated using pymatgen
data_SiPd
_symmetry_space_group_name_H-M   'P 1'
_cell_length_a   5.65410792
_cell_length_b   3.41973784
_cell_length_c   6.20897002
_cell_angle_alpha   90.00000000
_cell_angle_beta   90.00000000
_cell_angle_gamma   90.00000000
_symmetry_Int_Tables_number   1
_chemical_formula_structural   SiPd
_chemical_formula_sum   'Si4 Pd4'
_cell_volume   120.05395456
_cell_formula_units_Z   4
loop_
 _symmetry_equiv_pos_site_id
 _symmetry_equiv_pos_as_xyz
  1  'x, y, z'
loop_
 _atom_site_type_symbol
 _atom_site_label
 _atom_site_symmetry_multiplicity
 _atom_site_fract_x
 _atom_site_fract_y
 _atom_site_fract_z
 _atom_site_occupancy
  Si  Si0  1  0.82311545  0.75000000  0.57044151  1.0
  Si  Si1  1  0.32311545  0.75000000  0.92955849  1.0
  Si  Si2  1  0.17688455  0.25000000  0.42955849  1.0
  Si  Si3  1  0.67688455  0.25000000  0.07044151  1.0
  Pd  Pd4  1  0.99587020  0.75000000  0.19084312  1.0
  Pd  Pd5  1  0.49587020  0.75000000  0.30915688  1.0
  Pd  Pd6  1  0.00412980  0.25000000  0.80915688  1.0
  Pd  Pd7  1  0.50412980  0.25000000  0.69084312  1.0
