# generated using pymatgen
data_TaCuS3
_symmetry_space_group_name_H-M   'P 1'
_cell_length_a   9.62021533
_cell_length_b   3.51416498
_cell_length_c   11.95206879
_cell_angle_alpha   90.00000000
_cell_angle_beta   90.00000000
_cell_angle_gamma   90.00000000
_symmetry_Int_Tables_number   1
_chemical_formula_structural   TaCuS3
_chemical_formula_sum   'Ta4 Cu4 S12'
_cell_volume   404.06387464
_cell_formula_units_Z   4
loop_
 _symmetry_equiv_pos_site_id
 _symmetry_equiv_pos_as_xyz
  1  'x, y, z'
loop_
 _atom_site_type_symbol
 _atom_site_label
 _atom_site_symmetry_multiplicity
 _atom_site_fract_x
 _atom_site_fract_y
 _atom_site_fract_z
 _atom_site_occupancy
  Ta  Ta0  1  0.89291258  0.75000000  0.63110327  1.0
  Ta  Ta1  1  0.39291258  0.75000000  0.86889673  1.0
  Ta  Ta2  1  0.10708742  0.25000000  0.36889673  1.0
  Ta  Ta3  1  0.60708742  0.25000000  0.13110327  1.0
  Cu  Cu4  1  0.73017525  0.75000000  0.28492755  1.0
  Cu  Cu5  1  0.23017525  0.75000000  0.21507245  1.0
  Cu  Cu6  1  0.26982475  0.25000000  0.71507245  1.0
  Cu  Cu7  1  0.76982475  0.25000000  0.78492755  1.0
  S  S8  1  0.91599829  0.75000000  0.82269423  1.0
  S  S9  1  0.41599829  0.75000000  0.67730577  1.0
  S  S10  1  0.08400171  0.25000000  0.17730577  1.0
  S  S11  1  0.58400171  0.25000000  0.32269423  1.0
  S  S12  1  0.92028642  0.75000000  0.40197708  1.0
  S  S13  1  0.42028642  0.75000000  0.09802292  1.0
  S  S14  1  0.07971358  0.25000000  0.59802292  1.0
  S  S15  1  0.57971358  0.25000000  0.90197708  1.0
  S  S16  1  0.77729608  0.75000000  0.09695259  1.0
  S  S17  1  0.27729608  0.75000000  0.40304741  1.0
  S  S18  1  0.22270392  0.25000000  0.90304741  1.0
  S  S19  1  0.72270392  0.25000000  0.59695259  1.0
