# generated using pymatgen
data_Li3ScN2
_symmetry_space_group_name_H-M   'P 1'
_cell_length_a   8.68484957
_cell_length_b   8.68484957
_cell_length_c   8.68484957
_cell_angle_alpha   109.47122063
_cell_angle_beta   109.47122063
_cell_angle_gamma   109.47122063
_symmetry_Int_Tables_number   1
_chemical_formula_structural   Li3ScN2
_chemical_formula_sum   'Li24 Sc8 N16'
_cell_volume   504.27218168
_cell_formula_units_Z   8
loop_
 _symmetry_equiv_pos_site_id
 _symmetry_equiv_pos_as_xyz
  1  'x, y, z'
loop_
 _atom_site_type_symbol
 _atom_site_label
 _atom_site_symmetry_multiplicity
 _atom_site_fract_x
 _atom_site_fract_y
 _atom_site_fract_z
 _atom_site_occupancy
  Li  Li0  1  0.73212668  0.77443047  0.23514971  1.0
  Li  Li1  1  0.23212668  0.99697697  0.95769621  1.0
  Li  Li2  1  1.03928076  0.49697697  1.26485029  1.0
  Li  Li3  1  1.53928076  1.27443047  1.54230379  1.0
  Li  Li4  1  1.45769621  1.46071924  1.72556953  1.0
  Li  Li5  1  0.95769621  0.23212668  0.99697697  1.0
  Li  Li6  1  0.23514971  0.73212668  0.77443047  1.0
  Li  Li7  1  0.73514971  0.96071924  0.50302303  1.0
  Li  Li8  1  1.49697697  1.26485029  1.03928076  1.0
  Li  Li9  1  0.99697697  0.95769621  1.23212668  1.0
  Li  Li10  1  1.72556953  1.45769621  1.46071924  1.0
  Li  Li11  1  1.22556953  0.76485029  1.26787332  1.0
  Li  Li12  1  0.96071924  1.50302303  0.73514971  1.0
  Li  Li13  1  0.46071924  0.72556953  0.45769621  1.0
  Li  Li14  1  1.26787332  1.22556953  1.76485029  1.0
  Li  Li15  1  1.76787332  1.00302303  1.04230379  1.0
  Li  Li16  1  1.76485029  1.26787332  1.22556953  1.0
  Li  Li17  1  1.26485029  1.03928076  1.49697697  1.0
  Li  Li18  1  0.54230379  0.53928076  0.27443047  1.0
  Li  Li19  1  1.04230379  1.76787332  1.00302303  1.0
  Li  Li20  1  0.27443047  0.54230379  0.53928076  1.0
  Li  Li21  1  0.77443047  1.23514971  0.73212668  1.0
  Li  Li22  1  0.50302303  0.73514971  0.96071924  1.0
  Li  Li23  1  1.00302303  1.04230379  0.76787332  1.0
  Sc  Sc24  1  0.75682439  1.50000000  1.00000000  1.0
  Sc  Sc25  1  1.25682439  1.25682439  1.25682439  1.0
  Sc  Sc26  1  1.00000000  0.75682439  1.50000000  1.0
  Sc  Sc27  1  1.50000000  1.00000000  1.24317561  1.0
  Sc  Sc28  1  1.00000000  1.24317561  1.50000000  1.0
  Sc  Sc29  1  0.50000000  1.00000000  0.75682439  1.0
  Sc  Sc30  1  1.24317561  0.50000000  1.00000000  1.0
  Sc  Sc31  1  0.74317561  0.74317561  0.74317561  1.0
  N  N32  1  0.76279197  0.51279197  0.25000000  1.0
  N  N33  1  1.26279197  1.01279197  1.25000000  1.0
  N  N34  1  0.75000000  0.73720803  0.98720803  1.0
  N  N35  1  1.25000000  1.26279197  1.01279197  1.0
  N  N36  1  0.25000000  0.76279197  0.51279197  1.0
  N  N37  1  0.75000000  1.23720803  0.48720803  1.0
  N  N38  1  0.51279197  1.25000000  0.76279197  1.0
  N  N39  1  1.01279197  1.25000000  1.26279197  1.0
  N  N40  1  0.98720803  0.75000000  0.73720803  1.0
  N  N41  1  1.48720803  0.75000000  1.23720803  1.0
  N  N42  1  1.23720803  0.48720803  0.75000000  1.0
  N  N43  1  0.73720803  0.98720803  0.75000000  1.0
  N  N44  1  1.00000000  0.50000000  1.00000000  1.0
  N  N45  1  0.50000000  0.50000000  0.50000000  1.0
  N  N46  1  1.00000000  1.00000000  1.50000000  1.0
  N  N47  1  1.50000000  1.00000000  1.00000000  1.0
