# generated using pymatgen
data_Ba3In2F12
_symmetry_space_group_name_H-M   'P 1'
_cell_length_a   9.72693846
_cell_length_b   9.72693846
_cell_length_c   5.71422977
_cell_angle_alpha   90.00000000
_cell_angle_beta   90.00000000
_cell_angle_gamma   90.00000000
_symmetry_Int_Tables_number   1
_chemical_formula_structural   Ba3In2F12
_chemical_formula_sum   'Ba6 In4 F24'
_cell_volume   540.64231705
_cell_formula_units_Z   2
loop_
 _symmetry_equiv_pos_site_id
 _symmetry_equiv_pos_as_xyz
  1  'x, y, z'
loop_
 _atom_site_type_symbol
 _atom_site_label
 _atom_site_symmetry_multiplicity
 _atom_site_fract_x
 _atom_site_fract_y
 _atom_site_fract_z
 _atom_site_occupancy
  Ba  Ba0  1  0.32099588  0.17900412  0.50000000  1.0
  Ba  Ba1  1  0.82099588  0.32099588  0.50000000  1.0
  Ba  Ba2  1  0.67900412  0.82099588  0.50000000  1.0
  Ba  Ba3  1  0.17900412  0.67900412  0.50000000  1.0
  Ba  Ba4  1  0.50000000  0.50000000  0.00000000  1.0
  Ba  Ba5  1  0.00000000  0.00000000  0.00000000  1.0
  In  In6  1  0.86685085  0.63314915  0.00000000  1.0
  In  In7  1  0.36685085  0.86685085  0.00000000  1.0
  In  In8  1  0.13314915  0.36685085  0.00000000  1.0
  In  In9  1  0.63314915  0.13314915  0.00000000  1.0
  F  F10  1  0.44530601  0.72628688  0.74298681  1.0
  F  F11  1  0.44530601  0.72628688  0.25701319  1.0
  F  F12  1  0.94530601  0.77371312  0.74298681  1.0
  F  F13  1  0.94530601  0.77371312  0.25701319  1.0
  F  F14  1  0.27371312  0.44530601  0.74298681  1.0
  F  F15  1  0.27371312  0.44530601  0.25701319  1.0
  F  F16  1  0.77371312  0.05469399  0.74298681  1.0
  F  F17  1  0.77371312  0.05469399  0.25701319  1.0
  F  F18  1  0.55469399  0.27371312  0.74298681  1.0
  F  F19  1  0.55469399  0.27371312  0.25701319  1.0
  F  F20  1  0.05469399  0.22628688  0.74298681  1.0
  F  F21  1  0.05469399  0.22628688  0.25701319  1.0
  F  F22  1  0.72628688  0.55469399  0.74298681  1.0
  F  F23  1  0.72628688  0.55469399  0.25701319  1.0
  F  F24  1  0.22628688  0.94530601  0.74298681  1.0
  F  F25  1  0.22628688  0.94530601  0.25701319  1.0
  F  F26  1  0.29151619  0.20848381  0.00000000  1.0
  F  F27  1  0.79151619  0.29151619  0.00000000  1.0
  F  F28  1  0.70848381  0.79151619  0.00000000  1.0
  F  F29  1  0.20848381  0.70848381  0.00000000  1.0
  F  F30  1  0.50000000  0.00000000  0.77778739  1.0
  F  F31  1  0.50000000  0.00000000  0.22221261  1.0
  F  F32  1  0.00000000  0.50000000  0.77778739  1.0
  F  F33  1  0.00000000  0.50000000  0.22221261  1.0
