# generated using pymatgen
data_BaSnS3
_symmetry_space_group_name_H-M   'P 1'
_cell_length_a   8.59902409
_cell_length_b   3.99495501
_cell_length_c   14.76843703
_cell_angle_alpha   90.00000000
_cell_angle_beta   90.00000000
_cell_angle_gamma   90.00000000
_symmetry_Int_Tables_number   1
_chemical_formula_structural   BaSnS3
_chemical_formula_sum   'Ba4 Sn4 S12'
_cell_volume   507.33589893
_cell_formula_units_Z   4
loop_
 _symmetry_equiv_pos_site_id
 _symmetry_equiv_pos_as_xyz
  1  'x, y, z'
loop_
 _atom_site_type_symbol
 _atom_site_label
 _atom_site_symmetry_multiplicity
 _atom_site_fract_x
 _atom_site_fract_y
 _atom_site_fract_z
 _atom_site_occupancy
  Ba  Ba0  1  0.57603238  0.75000000  0.82525469  1.0
  Ba  Ba1  1  1.07603238  0.75000000  0.67474531  1.0
  Ba  Ba2  1  0.42396762  0.25000000  0.17474531  1.0
  Ba  Ba3  1  -0.07603238  0.25000000  0.32525469  1.0
  Sn  Sn4  1  0.16915140  0.25000000  0.94317714  1.0
  Sn  Sn5  1  0.66915140  0.25000000  0.55682286  1.0
  Sn  Sn6  1  0.83084860  0.75000000  0.05682286  1.0
  Sn  Sn7  1  0.33084860  0.75000000  0.44317714  1.0
  S  S8  1  0.97291456  0.75000000  0.89977604  1.0
  S  S9  1  0.47291456  0.75000000  0.60022396  1.0
  S  S10  1  0.02708544  0.25000000  0.10022396  1.0
  S  S11  1  0.52708544  0.25000000  0.39977604  1.0
  S  S12  1  0.34146128  0.75000000  0.00232150  1.0
  S  S13  1  0.84146128  0.75000000  0.49767850  1.0
  S  S14  1  0.65853872  0.25000000  0.99767850  1.0
  S  S15  1  0.15853872  0.25000000  0.50232150  1.0
  S  S16  1  0.28919054  0.25000000  0.79030429  1.0
  S  S17  1  0.78919054  0.25000000  0.70969571  1.0
  S  S18  1  0.71080946  0.75000000  0.20969571  1.0
  S  S19  1  0.21080946  0.75000000  0.29030429  1.0
