# generated using pymatgen
data_AgC2N3
_symmetry_space_group_name_H-M   'P 1'
_cell_length_a   3.88703851
_cell_length_b   3.88703851
_cell_length_c   24.42837231
_cell_angle_alpha   90.00000000
_cell_angle_beta   90.00000000
_cell_angle_gamma   120.00000000
_symmetry_Int_Tables_number   1
_chemical_formula_structural   AgC2N3
_chemical_formula_sum   'Ag3 C6 N9'
_cell_volume   319.64127159
_cell_formula_units_Z   3
loop_
 _symmetry_equiv_pos_site_id
 _symmetry_equiv_pos_as_xyz
  1  'x, y, z'
loop_
 _atom_site_type_symbol
 _atom_site_label
 _atom_site_symmetry_multiplicity
 _atom_site_fract_x
 _atom_site_fract_y
 _atom_site_fract_z
 _atom_site_occupancy
  Ag  Ag0  1  0.75256902  0.75256902  0.50000000  1.0
  Ag  Ag1  1  -0.00000000  0.24743098  0.16666667  1.0
  Ag  Ag2  1  0.24743098  -0.00000000  0.83333333  1.0
  C  C3  1  0.44411371  0.38433432  0.95317694  1.0
  C  C4  1  0.38433432  0.44411371  0.04682306  1.0
  C  C5  1  0.94022061  0.55588629  0.61984361  1.0
  C  C6  1  0.61566568  0.05977939  0.28651028  1.0
  C  C7  1  0.55588629  0.94022061  0.38015639  1.0
  C  C8  1  0.05977939  0.61566568  0.71348972  1.0
  N  N9  1  0.37960484  0.26373901  0.90805275  1.0
  N  N10  1  0.26373901  0.37960484  0.09194725  1.0
  N  N11  1  0.88413417  0.62039516  0.57471942  1.0
  N  N12  1  0.73626099  0.11586583  0.24138608  1.0
  N  N13  1  0.62039516  0.88413417  0.42528058  1.0
  N  N14  1  0.11586583  0.73626099  0.75861392  1.0
  N  N15  1  0.55544163  0.55544163  -0.00000000  1.0
  N  N16  1  -0.00000000  0.44455837  0.66666667  1.0
  N  N17  1  0.44455837  -0.00000000  0.33333333  1.0
