# generated using pymatgen
data_Gd5Sn3
_symmetry_space_group_name_H-M   'P 1'
_cell_length_a   9.16906073
_cell_length_b   9.16906073
_cell_length_c   6.56363815
_cell_angle_alpha   90.00000000
_cell_angle_beta   90.00000000
_cell_angle_gamma   120.00000000
_symmetry_Int_Tables_number   1
_chemical_formula_structural   Gd5Sn3
_chemical_formula_sum   'Gd10 Sn6'
_cell_volume   477.88671839
_cell_formula_units_Z   2
loop_
 _symmetry_equiv_pos_site_id
 _symmetry_equiv_pos_as_xyz
  1  'x, y, z'
loop_
 _atom_site_type_symbol
 _atom_site_label
 _atom_site_symmetry_multiplicity
 _atom_site_fract_x
 _atom_site_fract_y
 _atom_site_fract_z
 _atom_site_occupancy
  Gd  Gd0  1  0.74404172  0.74404172  0.25000000  1.0
  Gd  Gd1  1  0.74404172  0.00000000  0.75000000  1.0
  Gd  Gd2  1  0.00000000  0.74404172  0.75000000  1.0
  Gd  Gd3  1  -0.00000000  0.25595828  0.25000000  1.0
  Gd  Gd4  1  0.25595828  0.25595828  0.75000000  1.0
  Gd  Gd5  1  0.25595828  0.00000000  0.25000000  1.0
  Gd  Gd6  1  0.33333333  0.66666667  0.50000000  1.0
  Gd  Gd7  1  0.33333333  0.66666667  0.00000000  1.0
  Gd  Gd8  1  0.66666667  0.33333333  0.50000000  1.0
  Gd  Gd9  1  0.66666667  0.33333333  0.00000000  1.0
  Sn  Sn10  1  0.38668362  0.38668362  0.25000000  1.0
  Sn  Sn11  1  0.38668362  0.00000000  0.75000000  1.0
  Sn  Sn12  1  0.00000000  0.38668362  0.75000000  1.0
  Sn  Sn13  1  0.00000000  0.61331638  0.25000000  1.0
  Sn  Sn14  1  0.61331638  0.61331638  0.75000000  1.0
  Sn  Sn15  1  0.61331638  0.00000000  0.25000000  1.0
