# generated using pymatgen
data_EuGe3
_symmetry_space_group_name_H-M   'P 1'
_cell_length_a   6.27906772
_cell_length_b   6.27906772
_cell_length_c   5.07694816
_cell_angle_alpha   90.00000000
_cell_angle_beta   90.00000000
_cell_angle_gamma   120.00000000
_symmetry_Int_Tables_number   1
_chemical_formula_structural   EuGe3
_chemical_formula_sum   'Eu2 Ge6'
_cell_volume   173.34993970
_cell_formula_units_Z   2
loop_
 _symmetry_equiv_pos_site_id
 _symmetry_equiv_pos_as_xyz
  1  'x, y, z'
loop_
 _atom_site_type_symbol
 _atom_site_label
 _atom_site_symmetry_multiplicity
 _atom_site_fract_x
 _atom_site_fract_y
 _atom_site_fract_z
 _atom_site_occupancy
  Eu  Eu0  1  0.33333333  0.66666667  0.75000000  1.0
  Eu  Eu1  1  0.66666667  0.33333333  0.25000000  1.0
  Ge  Ge2  1  0.14243283  0.85756717  0.25000000  1.0
  Ge  Ge3  1  0.14243283  0.28486566  0.25000000  1.0
  Ge  Ge4  1  0.85756717  0.14243283  0.75000000  1.0
  Ge  Ge5  1  0.85756717  0.71513434  0.75000000  1.0
  Ge  Ge6  1  0.71513434  0.85756717  0.25000000  1.0
  Ge  Ge7  1  0.28486566  0.14243283  0.75000000  1.0
