# generated using pymatgen
data_Na2MgSn
_symmetry_space_group_name_H-M   'P 1'
_cell_length_a   5.07818735
_cell_length_b   5.07818735
_cell_length_c   10.11464381
_cell_angle_alpha   90.00000000
_cell_angle_beta   90.00000000
_cell_angle_gamma   120.00000000
_symmetry_Int_Tables_number   1
_chemical_formula_structural   Na2MgSn
_chemical_formula_sum   'Na4 Mg2 Sn2'
_cell_volume   225.89086287
_cell_formula_units_Z   2
loop_
 _symmetry_equiv_pos_site_id
 _symmetry_equiv_pos_as_xyz
  1  'x, y, z'
loop_
 _atom_site_type_symbol
 _atom_site_label
 _atom_site_symmetry_multiplicity
 _atom_site_fract_x
 _atom_site_fract_y
 _atom_site_fract_z
 _atom_site_occupancy
  Na  Na0  1  0.33333333  0.66666667  0.92021992  1.0
  Na  Na1  1  0.33333333  0.66666667  0.57978008  1.0
  Na  Na2  1  0.66666667  0.33333333  0.42021992  1.0
  Na  Na3  1  0.66666667  0.33333333  0.07978008  1.0
  Mg  Mg4  1  0.00000000  0.00000000  0.25000000  1.0
  Mg  Mg5  1  0.00000000  0.00000000  0.75000000  1.0
  Sn  Sn6  1  0.33333333  0.66666667  0.25000000  1.0
  Sn  Sn7  1  0.66666667  0.33333333  0.75000000  1.0
