# generated using pymatgen
data_CeSi2Ru3
_symmetry_space_group_name_H-M   'P 1'
_cell_length_a   5.56850858
_cell_length_b   5.56850858
_cell_length_c   7.26711359
_cell_angle_alpha   90.00000000
_cell_angle_beta   90.00000000
_cell_angle_gamma   120.00000000
_symmetry_Int_Tables_number   1
_chemical_formula_structural   CeSi2Ru3
_chemical_formula_sum   'Ce2 Si4 Ru6'
_cell_volume   195.15081381
_cell_formula_units_Z   2
loop_
 _symmetry_equiv_pos_site_id
 _symmetry_equiv_pos_as_xyz
  1  'x, y, z'
loop_
 _atom_site_type_symbol
 _atom_site_label
 _atom_site_symmetry_multiplicity
 _atom_site_fract_x
 _atom_site_fract_y
 _atom_site_fract_z
 _atom_site_occupancy
  Ce  Ce0  1  0.00000000  0.00000000  0.50000000  1.0
  Ce  Ce1  1  0.00000000  0.00000000  0.00000000  1.0
  Si  Si2  1  0.33333333  0.66666667  0.49997529  1.0
  Si  Si3  1  0.33333333  0.66666667  0.00002471  1.0
  Si  Si4  1  0.66666667  0.33333333  -0.00002471  1.0
  Si  Si5  1  0.66666667  0.33333333  0.50002471  1.0
  Ru  Ru6  1  0.46819602  1.00000747  0.25000000  1.0
  Ru  Ru7  1  1.00000747  0.53181145  0.75000000  1.0
  Ru  Ru8  1  0.53181145  0.53180398  0.25000000  1.0
  Ru  Ru9  1  -0.00000747  0.46818855  0.25000000  1.0
  Ru  Ru10  1  0.53180398  -0.00000747  0.75000000  1.0
  Ru  Ru11  1  0.46818855  0.46819602  0.75000000  1.0
