# generated using pymatgen
data_Hg3Pd8Se9
_symmetry_space_group_name_H-M   'P 1'
_cell_length_a   7.37677411
_cell_length_b   17.04805401
_cell_length_c   6.55507987
_cell_angle_alpha   90.00000000
_cell_angle_beta   90.00000000
_cell_angle_gamma   90.00000000
_symmetry_Int_Tables_number   1
_chemical_formula_structural   Hg3Pd8Se9
_chemical_formula_sum   'Hg6 Pd16 Se18'
_cell_volume   824.36450750
_cell_formula_units_Z   2
loop_
 _symmetry_equiv_pos_site_id
 _symmetry_equiv_pos_as_xyz
  1  'x, y, z'
loop_
 _atom_site_type_symbol
 _atom_site_label
 _atom_site_symmetry_multiplicity
 _atom_site_fract_x
 _atom_site_fract_y
 _atom_site_fract_z
 _atom_site_occupancy
  Hg  Hg0  1  0.50000000  0.29409701  0.12276712  1.0
  Hg  Hg1  1  0.50000000  0.70590299  0.12276712  1.0
  Hg  Hg2  1  0.00000000  0.20590299  0.87723288  1.0
  Hg  Hg3  1  0.00000000  0.79409701  0.87723288  1.0
  Hg  Hg4  1  0.50000000  0.00000000  0.28248970  1.0
  Hg  Hg5  1  0.00000000  0.50000000  0.71751030  1.0
  Pd  Pd6  1  0.50000000  0.76434379  0.53354199  1.0
  Pd  Pd7  1  0.50000000  0.23565621  0.53354199  1.0
  Pd  Pd8  1  -0.00000000  0.73565621  0.46645801  1.0
  Pd  Pd9  1  0.00000000  0.26434379  0.46645801  1.0
  Pd  Pd10  1  0.26282125  0.41096499  0.96133423  1.0
  Pd  Pd11  1  0.73717875  0.41096499  0.96133423  1.0
  Pd  Pd12  1  0.26282125  0.58903501  0.96133423  1.0
  Pd  Pd13  1  0.73717875  0.58903501  0.96133423  1.0
  Pd  Pd14  1  0.23717875  0.08903501  0.03866577  1.0
  Pd  Pd15  1  0.76282125  0.08903501  0.03866577  1.0
  Pd  Pd16  1  0.23717875  0.91096499  0.03866577  1.0
  Pd  Pd17  1  0.76282125  0.91096499  0.03866577  1.0
  Pd  Pd18  1  0.50000000  0.41503997  0.39781477  1.0
  Pd  Pd19  1  0.50000000  0.58496003  0.39781477  1.0
  Pd  Pd20  1  0.00000000  0.08496003  0.60218523  1.0
  Pd  Pd21  1  0.00000000  0.91503997  0.60218523  1.0
  Se  Se22  1  0.26656654  0.34010711  0.61490673  1.0
  Se  Se23  1  0.73343346  0.34010711  0.61490673  1.0
  Se  Se24  1  0.26656654  0.65989289  0.61490673  1.0
  Se  Se25  1  0.73343346  0.65989289  0.61490673  1.0
  Se  Se26  1  0.23343346  0.15989289  0.38509327  1.0
  Se  Se27  1  0.76656654  0.15989289  0.38509327  1.0
  Se  Se28  1  0.23343346  0.84010711  0.38509327  1.0
  Se  Se29  1  0.76656654  0.84010711  0.38509327  1.0
  Se  Se30  1  0.50000000  0.83350890  0.89658072  1.0
  Se  Se31  1  0.50000000  0.16649110  0.89658072  1.0
  Se  Se32  1  0.00000000  0.66649110  0.10341928  1.0
  Se  Se33  1  0.00000000  0.33350890  0.10341928  1.0
  Se  Se34  1  0.75532100  0.50000000  0.26837045  1.0
  Se  Se35  1  0.24467900  0.50000000  0.26837045  1.0
  Se  Se36  1  0.74467900  0.00000000  0.73162955  1.0
  Se  Se37  1  0.25532100  0.00000000  0.73162955  1.0
  Se  Se38  1  0.50000000  0.50000000  0.80461368  1.0
  Se  Se39  1  0.00000000  0.00000000  0.19538632  1.0
