# generated using pymatgen
data_CaCd2Pt
_symmetry_space_group_name_H-M   'P 1'
_cell_length_a   8.00697281
_cell_length_b   8.29029993
_cell_length_c   5.53842192
_cell_angle_alpha   90.00000000
_cell_angle_beta   90.00000000
_cell_angle_gamma   90.00000000
_symmetry_Int_Tables_number   1
_chemical_formula_structural   CaCd2Pt
_chemical_formula_sum   'Ca4 Cd8 Pt4'
_cell_volume   367.64158916
_cell_formula_units_Z   4
loop_
 _symmetry_equiv_pos_site_id
 _symmetry_equiv_pos_as_xyz
  1  'x, y, z'
loop_
 _atom_site_type_symbol
 _atom_site_label
 _atom_site_symmetry_multiplicity
 _atom_site_fract_x
 _atom_site_fract_y
 _atom_site_fract_z
 _atom_site_occupancy
  Ca  Ca0  1  0.46664748  0.75000000  0.09812415  1.0
  Ca  Ca1  1  0.96664748  0.75000000  0.40187585  1.0
  Ca  Ca2  1  0.53335252  0.25000000  0.90187585  1.0
  Ca  Ca3  1  0.03335252  0.25000000  0.59812415  1.0
  Cd  Cd4  1  0.32779764  0.94532240  0.60031268  1.0
  Cd  Cd5  1  0.32779764  0.55467760  0.60031268  1.0
  Cd  Cd6  1  0.82779764  0.94532240  0.89968732  1.0
  Cd  Cd7  1  0.82779764  0.55467760  0.89968732  1.0
  Cd  Cd8  1  0.67220236  0.44532240  0.39968732  1.0
  Cd  Cd9  1  0.67220236  0.05467760  0.39968732  1.0
  Cd  Cd10  1  0.17220236  0.44532240  0.10031268  1.0
  Cd  Cd11  1  0.17220236  0.05467760  0.10031268  1.0
  Pt  Pt12  1  0.12233018  0.75000000  0.89197720  1.0
  Pt  Pt13  1  0.62233018  0.75000000  0.60802280  1.0
  Pt  Pt14  1  0.87766982  0.25000000  0.10802280  1.0
  Pt  Pt15  1  0.37766982  0.25000000  0.39197720  1.0
