# generated using pymatgen
data_Na2AgAs
_symmetry_space_group_name_H-M   'P 1'
_cell_length_a   5.79312324
_cell_length_b   5.79312324
_cell_length_c   5.67962044
_cell_angle_alpha   90.00000000
_cell_angle_beta   90.00000000
_cell_angle_gamma   100.30283810
_symmetry_Int_Tables_number   1
_chemical_formula_structural   Na2AgAs
_chemical_formula_sum   'Na4 Ag2 As2'
_cell_volume   187.53627878
_cell_formula_units_Z   2
loop_
 _symmetry_equiv_pos_site_id
 _symmetry_equiv_pos_as_xyz
  1  'x, y, z'
loop_
 _atom_site_type_symbol
 _atom_site_label
 _atom_site_symmetry_multiplicity
 _atom_site_fract_x
 _atom_site_fract_y
 _atom_site_fract_z
 _atom_site_occupancy
  Na  Na0  1  -0.17538894  1.46879463  0.49988905  1.0
  Na  Na1  1  0.46879463  0.82461106  0.50011095  1.0
  Na  Na2  1  -0.46879463  1.17538894  0.00011095  1.0
  Na  Na3  1  0.17538894  0.53120537  0.99988905  1.0
  Ag  Ag4  1  -0.00002851  1.00002851  0.25000000  1.0
  Ag  Ag5  1  0.00002851  0.99997149  0.75000000  1.0
  As  As6  1  0.71198009  0.71198009  0.00000000  1.0
  As  As7  1  0.28801991  0.28801991  0.50000000  1.0
