# generated using pymatgen
data_Na5B2P3O13
_symmetry_space_group_name_H-M   'P 1'
_cell_length_a   6.81928978
_cell_length_b   11.78448416
_cell_length_c   7.81438879
_cell_angle_alpha   90.00000000
_cell_angle_beta   115.08028798
_cell_angle_gamma   90.00000000
_symmetry_Int_Tables_number   1
_chemical_formula_structural   Na5B2P3O13
_chemical_formula_sum   'Na10 B4 P6 O26'
_cell_volume   568.76930197
_cell_formula_units_Z   2
loop_
 _symmetry_equiv_pos_site_id
 _symmetry_equiv_pos_as_xyz
  1  'x, y, z'
loop_
 _atom_site_type_symbol
 _atom_site_label
 _atom_site_symmetry_multiplicity
 _atom_site_fract_x
 _atom_site_fract_y
 _atom_site_fract_z
 _atom_site_occupancy
  Na  Na0  1  0.94798784  0.27552389  0.48033658  1.0
  Na  Na1  1  0.05201216  0.77552389  0.51966342  1.0
  Na  Na2  1  0.89918186  0.37087432  0.96340119  1.0
  Na  Na3  1  0.10081814  0.87087432  0.03659881  1.0
  Na  Na4  1  0.62436688  0.00756279  0.27668961  1.0
  Na  Na5  1  0.37563312  0.50756279  0.72331039  1.0
  Na  Na6  1  0.47821902  0.27756138  0.52390904  1.0
  Na  Na7  1  0.52178098  0.77756138  0.47609096  1.0
  Na  Na8  1  0.35657867  -0.00036995  0.72969778  1.0
  Na  Na9  1  0.64342133  0.49963005  0.27030222  1.0
  B  B10  1  0.20607607  0.59456751  1.00077571  1.0
  B  B11  1  0.79392393  0.09456751  -0.00077571  1.0
  B  B12  1  0.13646212  0.14220137  0.99346228  1.0
  B  B13  1  0.86353788  0.64220137  0.00653772  1.0
  P  P14  1  0.84108029  0.54519064  0.68254223  1.0
  P  P15  1  0.15891971  0.04519064  0.31745777  1.0
  P  P16  1  0.84553971  0.03109362  0.69202505  1.0
  P  P17  1  0.15446029  0.53109362  0.30797495  1.0
  P  P18  1  0.49799452  0.75776343  0.99403068  1.0
  P  P19  1  0.50200548  0.25776343  0.00596932  1.0
  O  O20  1  0.93431424  0.18221365  0.98961275  1.0
  O  O21  1  0.06568576  0.68221365  0.01038725  1.0
  O  O22  1  0.90798465  0.02600319  0.17870418  1.0
  O  O23  1  0.09201535  0.52600319  0.82129582  1.0
  O  O24  1  0.83560893  0.91908356  0.59084280  1.0
  O  O25  1  0.16439107  0.41908356  0.40915720  1.0
  O  O26  1  0.80622058  0.63809769  0.53739778  1.0
  O  O27  1  0.19377942  0.13809769  0.46260222  1.0
  O  O28  1  0.75154984  0.42908140  0.59818301  1.0
  O  O29  1  0.24845016  0.92908140  0.40181699  1.0
  O  O30  1  0.74621964  0.13137729  0.56034595  1.0
  O  O31  1  0.25378036  0.63137729  0.43965405  1.0
  O  O32  1  0.73458910  0.57921388  0.82435584  1.0
  O  O33  1  0.26541090  0.07921388  0.17564416  1.0
  O  O34  1  0.73590813  0.01235905  0.83608790  1.0
  O  O35  1  0.26409187  0.51235905  0.16391210  1.0
  O  O36  1  0.63078783  0.30588779  0.20279111  1.0
  O  O37  1  0.36921217  0.80588779  0.79720889  1.0
  O  O38  1  0.58442429  0.13052089  0.99519243  1.0
  O  O39  1  0.41557571  0.63052089  0.00480757  1.0
  O  O40  1  0.50952208  0.32876491  0.84554774  1.0
  O  O41  1  0.49047792  0.82876491  0.15445226  1.0
  O  O42  1  0.25505412  0.23830756  0.96649225  1.0
  O  O43  1  0.74494588  0.73830756  0.03350775  1.0
  O  O44  1  0.09398276  0.05462014  0.83720690  1.0
  O  O45  1  0.90601724  0.55462014  0.16279310  1.0
