# generated using pymatgen
data_Ba2ZnO3
_symmetry_space_group_name_H-M   'P 1'
_cell_length_a   6.47443148
_cell_length_b   6.47443148
_cell_length_c   12.65428106
_cell_angle_alpha   88.51379809
_cell_angle_beta   91.48620191
_cell_angle_gamma   54.67897774
_symmetry_Int_Tables_number   1
_chemical_formula_structural   Ba2ZnO3
_chemical_formula_sum   'Ba8 Zn4 O12'
_cell_volume   432.11328531
_cell_formula_units_Z   4
loop_
 _symmetry_equiv_pos_site_id
 _symmetry_equiv_pos_as_xyz
  1  'x, y, z'
loop_
 _atom_site_type_symbol
 _atom_site_label
 _atom_site_symmetry_multiplicity
 _atom_site_fract_x
 _atom_site_fract_y
 _atom_site_fract_z
 _atom_site_occupancy
  Ba  Ba0  1  0.55901072  0.03013751  0.65230131  1.0
  Ba  Ba1  1  0.96986249  -0.55901072  0.15230131  1.0
  Ba  Ba2  1  1.03013751  -0.44098928  0.84769869  1.0
  Ba  Ba3  1  0.44098928  -0.03013751  0.34769869  1.0
  Ba  Ba4  1  0.34169518  -0.13453493  0.92488698  1.0
  Ba  Ba5  1  1.13453493  -0.34169518  0.42488698  1.0
  Ba  Ba6  1  0.86546507  -0.65830482  0.57511302  1.0
  Ba  Ba7  1  0.65830482  0.13453493  0.07511302  1.0
  Zn  Zn8  1  0.72607448  0.26910677  0.83649010  1.0
  Zn  Zn9  1  0.73089323  -0.72607448  0.33649010  1.0
  Zn  Zn10  1  1.26910677  -0.27392552  0.66350990  1.0
  Zn  Zn11  1  0.27392552  -0.26910677  0.16350990  1.0
  O  O12  1  0.67755983  0.12494771  0.46534605  1.0
  O  O13  1  0.87505229  -0.67755983  0.96534605  1.0
  O  O14  1  1.12494771  -0.32244017  0.03465395  1.0
  O  O15  1  0.32244017  -0.12494771  0.53465395  1.0
  O  O16  1  0.50646799  0.15047841  0.86780482  1.0
  O  O17  1  0.84952159  -0.50646799  0.36780482  1.0
  O  O18  1  1.15047841  -0.49353201  0.63219518  1.0
  O  O19  1  0.49353201  -0.15047841  0.13219518  1.0
  O  O20  1  0.99295097  -0.00704903  0.75000000  1.0
  O  O21  1  0.00704903  0.00704903  0.25000000  1.0
  O  O22  1  0.59430704  -0.40569296  0.75000000  1.0
  O  O23  1  0.40569296  0.40569296  0.25000000  1.0
