# generated using pymatgen
data_Ca9Zn4Sb9
_symmetry_space_group_name_H-M   'P 1'
_cell_length_a   12.49488723
_cell_length_b   21.83872308
_cell_length_c   4.55828278
_cell_angle_alpha   90.00000000
_cell_angle_beta   90.00000000
_cell_angle_gamma   90.00000000
_symmetry_Int_Tables_number   1
_chemical_formula_structural   Ca9Zn4Sb9
_chemical_formula_sum   'Ca18 Zn8 Sb18'
_cell_volume   1243.82948097
_cell_formula_units_Z   2
loop_
 _symmetry_equiv_pos_site_id
 _symmetry_equiv_pos_as_xyz
  1  'x, y, z'
loop_
 _atom_site_type_symbol
 _atom_site_label
 _atom_site_symmetry_multiplicity
 _atom_site_fract_x
 _atom_site_fract_y
 _atom_site_fract_z
 _atom_site_occupancy
  Ca  Ca0  1  0.43247248  0.90967971  0.50000000  1.0
  Ca  Ca1  1  0.93247248  0.59032029  0.50000000  1.0
  Ca  Ca2  1  0.56752752  0.09032029  0.50000000  1.0
  Ca  Ca3  1  0.06752752  0.40967971  0.50000000  1.0
  Ca  Ca4  1  0.37426412  0.73614296  0.50000000  1.0
  Ca  Ca5  1  0.87426412  0.76385704  0.50000000  1.0
  Ca  Ca6  1  0.62573588  0.26385704  0.50000000  1.0
  Ca  Ca7  1  0.12573588  0.23614296  0.50000000  1.0
  Ca  Ca8  1  0.13087769  0.86315500  0.50000000  1.0
  Ca  Ca9  1  0.63087769  0.63684500  0.50000000  1.0
  Ca  Ca10  1  0.86912231  0.13684500  0.50000000  1.0
  Ca  Ca11  1  0.36912231  0.36315500  0.50000000  1.0
  Ca  Ca12  1  0.20862003  0.60217844  0.00000000  1.0
  Ca  Ca13  1  0.70862003  0.89782156  0.00000000  1.0
  Ca  Ca14  1  0.79137997  0.39782156  0.00000000  1.0
  Ca  Ca15  1  0.29137997  0.10217844  0.00000000  1.0
  Ca  Ca16  1  0.50000000  0.50000000  -0.00000000  1.0
  Ca  Ca17  1  0.00000000  0.00000000  0.00000000  1.0
  Zn  Zn18  1  0.27414405  0.95406812  -0.00000000  1.0
  Zn  Zn19  1  0.77414405  0.54593188  0.00000000  1.0
  Zn  Zn20  1  0.72585595  0.04593188  -0.00000000  1.0
  Zn  Zn21  1  0.22585595  0.45406812  0.00000000  1.0
  Zn  Zn22  1  0.11229837  0.76276082  -0.00000000  1.0
  Zn  Zn23  1  0.61229837  0.73723918  0.00000000  1.0
  Zn  Zn24  1  0.88770163  0.23723918  -0.00000000  1.0
  Zn  Zn25  1  0.38770163  0.26276082  0.00000000  1.0
  Sb  Sb26  1  0.30685642  0.50689218  0.50000000  1.0
  Sb  Sb27  1  0.80685642  0.99310782  0.50000000  1.0
  Sb  Sb28  1  0.69314358  0.49310782  0.50000000  1.0
  Sb  Sb29  1  0.19314358  0.00689218  0.50000000  1.0
  Sb  Sb30  1  0.11593907  0.69488293  0.50000000  1.0
  Sb  Sb31  1  0.61593907  0.80511707  0.50000000  1.0
  Sb  Sb32  1  0.88406093  0.30511707  0.50000000  1.0
  Sb  Sb33  1  0.38406093  0.19488293  0.50000000  1.0
  Sb  Sb34  1  0.45606138  0.64625729  -0.00000000  1.0
  Sb  Sb35  1  0.95606138  0.85374271  -0.00000000  1.0
  Sb  Sb36  1  0.54393862  0.35374271  -0.00000000  1.0
  Sb  Sb37  1  0.04393862  0.14625729  -0.00000000  1.0
  Sb  Sb38  1  0.30612930  0.83173993  0.00000000  1.0
  Sb  Sb39  1  0.80612930  0.66826007  0.00000000  1.0
  Sb  Sb40  1  0.69387070  0.16826007  0.00000000  1.0
  Sb  Sb41  1  0.19387070  0.33173993  0.00000000  1.0
  Sb  Sb42  1  0.50000000  0.00000000  0.00000000  1.0
  Sb  Sb43  1  0.00000000  0.50000000  0.00000000  1.0
