# generated using pymatgen
data_HfNi(OF)6
_symmetry_space_group_name_H-M   'P 1'
_cell_length_a   6.12669730
_cell_length_b   6.12669730
_cell_length_c   6.12669730
_cell_angle_alpha   102.92804220
_cell_angle_beta   102.92804220
_cell_angle_gamma   102.92804220
_symmetry_Int_Tables_number   1
_chemical_formula_structural   HfNi(OF)6
_chemical_formula_sum   'Hf1 Ni1 O6 F6'
_cell_volume   209.19339247
_cell_formula_units_Z   1
loop_
 _symmetry_equiv_pos_site_id
 _symmetry_equiv_pos_as_xyz
  1  'x, y, z'
loop_
 _atom_site_type_symbol
 _atom_site_label
 _atom_site_symmetry_multiplicity
 _atom_site_fract_x
 _atom_site_fract_y
 _atom_site_fract_z
 _atom_site_occupancy
  Hf  Hf0  1  0.50000000  0.50000000  0.50000000  1.0
  Ni  Ni1  1  0.00000000  0.00000000  0.00000000  1.0
  O  O2  1  0.73594784  1.04955147  -0.15279908  1.0
  O  O3  1  0.95044853  0.15279908  0.26405216  1.0
  O  O4  1  1.15279908  0.26405216  -0.04955147  1.0
  O  O5  1  1.26405216  -0.04955147  0.15279908  1.0
  O  O6  1  1.04955147  0.84720092  -0.26405216  1.0
  O  O7  1  0.84720092  0.73594784  0.04955147  1.0
  F  F8  1  1.46593896  0.68625706  -0.19822321  1.0
  F  F9  1  1.31374294  0.19822321  -0.46593896  1.0
  F  F10  1  1.19822321  -0.46593896  0.31374294  1.0
  F  F11  1  0.53406104  0.31374294  0.19822321  1.0
  F  F12  1  0.68625706  0.80177679  0.46593896  1.0
  F  F13  1  0.80177679  1.46593896  -0.31374294  1.0
