# generated using pymatgen
data_NaTcO4
_symmetry_space_group_name_H-M   'P 1'
_cell_length_a   7.13485995
_cell_length_b   7.13485995
_cell_length_c   7.13485995
_cell_angle_alpha   135.02124227
_cell_angle_beta   135.02124227
_cell_angle_gamma   65.49719559
_symmetry_Int_Tables_number   1
_chemical_formula_structural   NaTcO4
_chemical_formula_sum   'Na2 Tc2 O8'
_cell_volume   178.78448378
_cell_formula_units_Z   2
loop_
 _symmetry_equiv_pos_site_id
 _symmetry_equiv_pos_as_xyz
  1  'x, y, z'
loop_
 _atom_site_type_symbol
 _atom_site_label
 _atom_site_symmetry_multiplicity
 _atom_site_fract_x
 _atom_site_fract_y
 _atom_site_fract_z
 _atom_site_occupancy
  Na  Na0  1  0.75000000  0.25000000  0.50000000  1.0
  Na  Na1  1  1.00000000  1.00000000  1.00000000  1.0
  Tc  Tc2  1  0.25000000  0.75000000  0.50000000  1.0
  Tc  Tc3  1  0.50000000  0.50000000  0.00000000  1.0
  O  O4  1  1.04473947  0.89906960  1.60677765  1.0
  O  O5  1  0.64906960  0.54229194  0.35433012  1.0
  O  O6  1  1.18796182  1.29473947  1.64566988  1.0
  O  O7  1  0.29229194  0.43796182  0.39322235  1.0
  O  O8  1  0.70526053  1.35093040  0.89322235  1.0
  O  O9  1  1.10093040  0.70770806  1.14566988  1.0
  O  O10  1  0.56203818  0.95526053  0.85433012  1.0
  O  O11  1  1.45770806  0.81203818  1.10677765  1.0
