# generated using pymatgen
data_NiH12C6(N3O5)2
_symmetry_space_group_name_H-M   'P 1'
_cell_length_a   9.83381828
_cell_length_b   9.16139428
_cell_length_c   7.57457149
_cell_angle_alpha   71.25453838
_cell_angle_beta   61.90938038
_cell_angle_gamma   46.83608125
_symmetry_Int_Tables_number   1
_chemical_formula_structural   NiH12C6(N3O5)2
_chemical_formula_sum   'Ni1 H12 C6 N6 O10'
_cell_volume   439.11273682
_cell_formula_units_Z   1
loop_
 _symmetry_equiv_pos_site_id
 _symmetry_equiv_pos_as_xyz
  1  'x, y, z'
loop_
 _atom_site_type_symbol
 _atom_site_label
 _atom_site_symmetry_multiplicity
 _atom_site_fract_x
 _atom_site_fract_y
 _atom_site_fract_z
 _atom_site_occupancy
  Ni  Ni0  1  0.00000000  0.00000000  0.00000000  1.0
  H  H1  1  -0.10192545  1.00266049  0.75192196  1.0
  H  H2  1  -0.00266049  0.10192545  1.65265700  1.0
  H  H3  1  0.24807804  0.65265700  1.10192545  1.0
  H  H4  1  -0.65265700  0.75192196  1.00266049  1.0
  H  H5  1  0.65265700  0.24807804  0.99733951  1.0
  H  H6  1  -0.24807804  0.34734300  0.89807455  1.0
  H  H7  1  0.00266049  0.89807455  0.34734300  1.0
  H  H8  1  0.10192545  -0.00266049  1.24807804  1.0
  H  H9  1  0.52454487  -0.12720305  1.12720305  1.0
  H  H10  1  1.12720305  -0.52454487  0.52454487  1.0
  H  H11  1  -0.12720305  0.52454487  0.47545513  1.0
  H  H12  1  0.47545513  0.12720305  -0.12720305  1.0
  C  C13  1  0.71952689  -0.08268226  1.08268226  1.0
  C  C14  1  1.08268226  -0.71952689  0.71952689  1.0
  C  C15  1  -0.08268226  0.71952689  0.28047311  1.0
  C  C16  1  0.28047311  0.08268226  -0.08268226  1.0
  C  C17  1  -0.31853683  0.68146317  0.31853683  1.0
  C  C18  1  0.31853683  0.31853683  -0.31853683  1.0
  N  N19  1  0.63350234  -0.17152011  1.17152011  1.0
  N  N20  1  1.17152011  -0.63350234  0.63350234  1.0
  N  N21  1  -0.17152011  0.63350234  0.36649766  1.0
  N  N22  1  0.36649766  0.17152011  -0.17152011  1.0
  N  N23  1  -0.13726290  0.86273710  0.13726290  1.0
  N  N24  1  0.13726290  0.13726290  -0.13726290  1.0
  O  O25  1  0.02309263  -0.02309263  1.71612503  1.0
  O  O26  1  -0.71612503  0.71612503  0.97690737  1.0
  O  O27  1  0.71612503  -0.71612503  1.02309263  1.0
  O  O28  1  -0.02309263  0.02309263  0.28387497  1.0
  O  O29  1  0.66254348  0.04951758  -0.04951758  1.0
  O  O30  1  -0.04951758  0.33745652  0.66254348  1.0
  O  O31  1  1.04951758  -0.33745652  0.33745652  1.0
  O  O32  1  0.33745652  -0.04951758  1.04951758  1.0
  O  O33  1  -0.39584527  0.60415473  0.39584527  1.0
  O  O34  1  0.39584527  0.39584527  -0.39584527  1.0
