# generated using pymatgen
data_CdP14Pb
_symmetry_space_group_name_H-M   'P 1'
_cell_length_a   14.47576529
_cell_length_b   9.77099978
_cell_length_c   12.89891667
_cell_angle_alpha   90.00000000
_cell_angle_beta   90.00000000
_cell_angle_gamma   90.00000000
_symmetry_Int_Tables_number   1
_chemical_formula_structural   CdP14Pb
_chemical_formula_sum   'Cd4 P56 Pb4'
_cell_volume   1824.45759399
_cell_formula_units_Z   4
loop_
 _symmetry_equiv_pos_site_id
 _symmetry_equiv_pos_as_xyz
  1  'x, y, z'
loop_
 _atom_site_type_symbol
 _atom_site_label
 _atom_site_symmetry_multiplicity
 _atom_site_fract_x
 _atom_site_fract_y
 _atom_site_fract_z
 _atom_site_occupancy
  Cd  Cd0  1  0.88558417  0.25000000  0.88438077  1.0
  Cd  Cd1  1  0.38558417  0.25000000  0.61561923  1.0
  Cd  Cd2  1  0.11441583  0.75000000  0.11561923  1.0
  Cd  Cd3  1  0.61441583  0.75000000  0.38438077  1.0
  P  P4  1  0.56160766  0.25000000  0.64720339  1.0
  P  P5  1  0.06160766  0.25000000  0.85279661  1.0
  P  P6  1  0.43839234  0.75000000  0.35279661  1.0
  P  P7  1  0.93839234  0.75000000  0.14720339  1.0
  P  P8  1  0.94519699  0.25000000  0.23435588  1.0
  P  P9  1  0.44519699  0.25000000  0.26564412  1.0
  P  P10  1  0.05480301  0.75000000  0.76564412  1.0
  P  P11  1  0.55480301  0.75000000  0.73435588  1.0
  P  P12  1  0.57239421  0.25000000  0.16288586  1.0
  P  P13  1  0.07239421  0.25000000  0.33711414  1.0
  P  P14  1  0.42760579  0.75000000  0.83711414  1.0
  P  P15  1  0.92760579  0.75000000  0.66288586  1.0
  P  P16  1  0.85483522  0.25000000  0.68819205  1.0
  P  P17  1  0.35483522  0.25000000  0.81180795  1.0
  P  P18  1  0.14516478  0.75000000  0.31180795  1.0
  P  P19  1  0.64516478  0.75000000  0.18819205  1.0
  P  P20  1  0.96510843  0.07286058  0.13032455  1.0
  P  P21  1  0.46510843  0.42713942  0.36967545  1.0
  P  P22  1  0.03489157  0.57286058  0.86967545  1.0
  P  P23  1  0.53489157  0.92713942  0.63032455  1.0
  P  P24  1  0.03489157  0.92713942  0.86967545  1.0
  P  P25  1  0.53489157  0.57286058  0.63032455  1.0
  P  P26  1  0.96510843  0.42713942  0.13032455  1.0
  P  P27  1  0.46510843  0.07286058  0.36967545  1.0
  P  P28  1  0.57660983  0.07366331  0.75439043  1.0
  P  P29  1  0.07660983  0.42633669  0.74560957  1.0
  P  P30  1  0.42339017  0.57366331  0.24560957  1.0
  P  P31  1  0.92339017  0.92633669  0.25439043  1.0
  P  P32  1  0.42339017  0.92633669  0.24560957  1.0
  P  P33  1  0.92339017  0.57366331  0.25439043  1.0
  P  P34  1  0.57660983  0.42633669  0.75439043  1.0
  P  P35  1  0.07660983  0.07366331  0.74560957  1.0
  P  P36  1  0.94354684  0.07733586  0.64037204  1.0
  P  P37  1  0.44354684  0.42266414  0.85962796  1.0
  P  P38  1  0.05645316  0.57733586  0.35962796  1.0
  P  P39  1  0.55645316  0.92266414  0.14037204  1.0
  P  P40  1  0.05645316  0.92266414  0.35962796  1.0
  P  P41  1  0.55645316  0.57733586  0.14037204  1.0
  P  P42  1  0.94354684  0.42266414  0.64037204  1.0
  P  P43  1  0.44354684  0.07733586  0.85962796  1.0
  P  P44  1  0.65144197  0.07035346  0.21803437  1.0
  P  P45  1  0.15144197  0.42964654  0.28196563  1.0
  P  P46  1  0.34855803  0.57035346  0.78196563  1.0
  P  P47  1  0.84855803  0.92964654  0.71803437  1.0
  P  P48  1  0.34855803  0.92964654  0.78196563  1.0
  P  P49  1  0.84855803  0.57035346  0.71803437  1.0
  P  P50  1  0.65144197  0.42964654  0.21803437  1.0
  P  P51  1  0.15144197  0.07035346  0.28196563  1.0
  P  P52  1  0.61561843  0.03600341  0.38275773  1.0
  P  P53  1  0.11561843  0.46399659  0.11724227  1.0
  P  P54  1  0.38438157  0.53600341  0.61724227  1.0
  P  P55  1  0.88438157  0.96399659  0.88275773  1.0
  P  P56  1  0.38438157  0.96399659  0.61724227  1.0
  P  P57  1  0.88438157  0.53600341  0.88275773  1.0
  P  P58  1  0.61561843  0.46399659  0.38275773  1.0
  P  P59  1  0.11561843  0.03600341  0.11724227  1.0
  Pb  Pb60  1  0.70727317  0.25000000  0.49929805  1.0
  Pb  Pb61  1  0.20727317  0.25000000  0.00070195  1.0
  Pb  Pb62  1  0.29272683  0.75000000  0.50070195  1.0
  Pb  Pb63  1  0.79272683  0.75000000  0.99929805  1.0
