# generated using pymatgen
data_KCdF3
_symmetry_space_group_name_H-M   'P 1'
_cell_length_a   6.28611967
_cell_length_b   8.78729876
_cell_length_c   6.18301965
_cell_angle_alpha   90.00000000
_cell_angle_beta   90.00000000
_cell_angle_gamma   90.00000000
_symmetry_Int_Tables_number   1
_chemical_formula_structural   KCdF3
_chemical_formula_sum   'K4 Cd4 F12'
_cell_volume   341.53771075
_cell_formula_units_Z   4
loop_
 _symmetry_equiv_pos_site_id
 _symmetry_equiv_pos_as_xyz
  1  'x, y, z'
loop_
 _atom_site_type_symbol
 _atom_site_label
 _atom_site_symmetry_multiplicity
 _atom_site_fract_x
 _atom_site_fract_y
 _atom_site_fract_z
 _atom_site_occupancy
  K  K0  1  0.04126687  0.25000000  0.50992095  1.0
  K  K1  1  0.54126687  0.25000000  0.99007905  1.0
  K  K2  1  0.95873313  0.75000000  0.49007905  1.0
  K  K3  1  0.45873313  0.75000000  0.00992095  1.0
  Cd  Cd4  1  0.50000000  0.50000000  0.50000000  1.0
  Cd  Cd5  1  0.50000000  0.00000000  0.50000000  1.0
  Cd  Cd6  1  0.00000000  0.50000000  0.00000000  1.0
  Cd  Cd7  1  0.00000000  0.00000000  0.00000000  1.0
  F  F8  1  0.29006966  0.45666027  0.79164753  1.0
  F  F9  1  0.29006966  0.04333973  0.79164753  1.0
  F  F10  1  0.79006966  0.45666027  0.70835247  1.0
  F  F11  1  0.79006966  0.04333973  0.70835247  1.0
  F  F12  1  0.70993034  0.95666027  0.20835247  1.0
  F  F13  1  0.70993034  0.54333973  0.20835247  1.0
  F  F14  1  0.20993034  0.95666027  0.29164753  1.0
  F  F15  1  0.20993034  0.54333973  0.29164753  1.0
  F  F16  1  0.97287480  0.25000000  0.08177097  1.0
  F  F17  1  0.47287480  0.25000000  0.41822903  1.0
  F  F18  1  0.02712520  0.75000000  0.91822903  1.0
  F  F19  1  0.52712520  0.75000000  0.58177097  1.0
