# generated using pymatgen
data_ZnS
_symmetry_space_group_name_H-M   'P 1'
_cell_length_a   3.84969597
_cell_length_b   3.84969597
_cell_length_c   75.50013463
_cell_angle_alpha   90.00000000
_cell_angle_beta   90.00000000
_cell_angle_gamma   120.00000000
_symmetry_Int_Tables_number   1
_chemical_formula_structural   ZnS
_chemical_formula_sum   'Zn24 S24'
_cell_volume   969.01661239
_cell_formula_units_Z   24
loop_
 _symmetry_equiv_pos_site_id
 _symmetry_equiv_pos_as_xyz
  1  'x, y, z'
loop_
 _atom_site_type_symbol
 _atom_site_label
 _atom_site_symmetry_multiplicity
 _atom_site_fract_x
 _atom_site_fract_y
 _atom_site_fract_z
 _atom_site_occupancy
  Zn  Zn0  1  0.00000000  0.00000000  0.04167699  1.0
  Zn  Zn1  1  0.00000000  0.00000000  0.16665810  1.0
  Zn  Zn2  1  0.00000000  0.00000000  0.33335687  1.0
  Zn  Zn3  1  0.00000000  0.00000000  0.45833643  1.0
  Zn  Zn4  1  0.00000000  0.00000000  0.58329348  1.0
  Zn  Zn5  1  0.00000000  0.00000000  0.66670981  1.0
  Zn  Zn6  1  0.00000000  0.00000000  0.79166847  1.0
  Zn  Zn7  1  0.00000000  0.00000000  0.91666689  1.0
  Zn  Zn8  1  0.66666667  0.33333333  0.12502128  1.0
  Zn  Zn9  1  0.66666667  0.33333333  0.25000481  1.0
  Zn  Zn10  1  0.66666667  0.33333333  0.37500990  1.0
  Zn  Zn11  1  0.66666667  0.33333333  0.49999924  1.0
  Zn  Zn12  1  0.66666667  0.33333333  0.62500444  1.0
  Zn  Zn13  1  0.66666667  0.33333333  0.75001111  1.0
  Zn  Zn14  1  0.66666667  0.33333333  0.87495959  1.0
  Zn  Zn15  1  0.66666667  0.33333333  0.95835667  1.0
  Zn  Zn16  1  0.33333333  0.66666667  -0.00001868  1.0
  Zn  Zn17  1  0.33333333  0.66666667  0.08337573  1.0
  Zn  Zn18  1  0.33333333  0.66666667  0.20829314  1.0
  Zn  Zn19  1  0.33333333  0.66666667  0.29170989  1.0
  Zn  Zn20  1  0.33333333  0.66666667  0.41667300  1.0
  Zn  Zn21  1  0.33333333  0.66666667  0.54165320  1.0
  Zn  Zn22  1  0.33333333  0.66666667  0.70835836  1.0
  Zn  Zn23  1  0.33333333  0.66666667  0.83331773  1.0
  S  S24  1  0.00000000  0.00000000  0.01039504  1.0
  S  S25  1  0.00000000  0.00000000  0.13542736  1.0
  S  S26  1  0.00000000  0.00000000  0.30212253  1.0
  S  S27  1  0.00000000  0.00000000  0.42709568  1.0
  S  S28  1  0.00000000  0.00000000  0.55206756  1.0
  S  S29  1  0.00000000  0.00000000  0.63547575  1.0
  S  S30  1  0.00000000  0.00000000  0.76042956  1.0
  S  S31  1  0.00000000  0.00000000  0.88538164  1.0
  S  S32  1  0.66666667  0.33333333  0.09378927  1.0
  S  S33  1  0.66666667  0.33333333  0.21871837  1.0
  S  S34  1  0.66666667  0.33333333  0.34377409  1.0
  S  S35  1  0.66666667  0.33333333  0.46876017  1.0
  S  S36  1  0.66666667  0.33333333  0.59371780  1.0
  S  S37  1  0.66666667  0.33333333  0.71877563  1.0
  S  S38  1  0.66666667  0.33333333  0.84373400  1.0
  S  S39  1  0.66666667  0.33333333  0.92713095  1.0
  S  S40  1  0.33333333  0.66666667  0.05214595  1.0
  S  S41  1  0.33333333  0.66666667  0.17706885  1.0
  S  S42  1  0.33333333  0.66666667  0.26047629  1.0
  S  S43  1  0.33333333  0.66666667  0.38543162  1.0
  S  S44  1  0.33333333  0.66666667  0.51041667  1.0
  S  S45  1  0.33333333  0.66666667  0.67712381  1.0
  S  S46  1  0.33333333  0.66666667  0.80208328  1.0
  S  S47  1  0.33333333  0.66666667  0.96876168  1.0
