# generated using pymatgen
data_In2P6O19
_symmetry_space_group_name_H-M   'P 1'
_cell_length_a   11.66640444
_cell_length_b   13.32949054
_cell_length_c   5.15602131
_cell_angle_alpha   90.00000000
_cell_angle_beta   90.00000000
_cell_angle_gamma   90.00000000
_symmetry_Int_Tables_number   1
_chemical_formula_structural   In2P6O19
_chemical_formula_sum   'In4 P12 O38'
_cell_volume   801.79857882
_cell_formula_units_Z   2
loop_
 _symmetry_equiv_pos_site_id
 _symmetry_equiv_pos_as_xyz
  1  'x, y, z'
loop_
 _atom_site_type_symbol
 _atom_site_label
 _atom_site_symmetry_multiplicity
 _atom_site_fract_x
 _atom_site_fract_y
 _atom_site_fract_z
 _atom_site_occupancy
  O  O0  1  0.50000000  0.88473322  0.62269980  1.0
  O  O1  1  0.50000000  0.11526678  0.62269980  1.0
  O  O2  1  0.00000000  0.61526678  0.37730020  1.0
  O  O3  1  0.00000000  0.38473322  0.37730020  1.0
  O  O4  1  0.36465906  0.81944275  0.27234373  1.0
  O  O5  1  0.36465906  0.18055725  0.27234373  1.0
  O  O6  1  0.63534094  0.81944275  0.27234373  1.0
  O  O7  1  0.63534094  0.18055725  0.27234373  1.0
  O  O8  1  0.13534094  0.68055725  0.72765627  1.0
  O  O9  1  0.13534094  0.31944275  0.72765627  1.0
  O  O10  1  0.86465906  0.68055725  0.72765627  1.0
  O  O11  1  0.86465906  0.31944275  0.72765627  1.0
  O  O12  1  0.35619669  0.00000000  0.40194008  1.0
  O  O13  1  0.64380331  0.00000000  0.40194008  1.0
  O  O14  1  0.14380331  0.50000000  0.59805992  1.0
  O  O15  1  0.85619669  0.50000000  0.59805992  1.0
  O  O16  1  0.29108637  0.86936814  0.73173127  1.0
  O  O17  1  0.29108637  0.13063186  0.73173127  1.0
  O  O18  1  0.70891363  0.86936814  0.73173127  1.0
  O  O19  1  0.70891363  0.13063186  0.73173127  1.0
  O  O20  1  0.20891363  0.63063186  0.26826873  1.0
  O  O21  1  0.20891363  0.36936814  0.26826873  1.0
  O  O22  1  0.79108637  0.63063186  0.26826873  1.0
  O  O23  1  0.79108637  0.36936814  0.26826873  1.0
  O  O24  1  0.00000000  0.00000000  0.16745562  1.0
  O  O25  1  0.50000000  0.50000000  0.83254438  1.0
  O  O26  1  0.00000000  0.88893915  0.74936792  1.0
  O  O27  1  0.00000000  0.11106085  0.74936792  1.0
  O  O28  1  0.50000000  0.61106085  0.25063208  1.0
  O  O29  1  0.50000000  0.38893915  0.25063208  1.0
  O  O30  1  0.11087124  0.84081227  0.14747317  1.0
  O  O31  1  0.11087124  0.15918773  0.14747317  1.0
  O  O32  1  0.88912876  0.84081227  0.14747317  1.0
  O  O33  1  0.88912876  0.15918773  0.14747317  1.0
  O  O34  1  0.38912876  0.65918773  0.85252683  1.0
  O  O35  1  0.38912876  0.34081227  0.85252683  1.0
  O  O36  1  0.61087124  0.65918773  0.85252683  1.0
  O  O37  1  0.61087124  0.34081227  0.85252683  1.0
  In  In38  1  0.25000000  0.75000000  -0.00000000  1.0
  In  In39  1  0.25000000  0.25000000  -0.00000000  1.0
  In  In40  1  0.75000000  0.75000000  -0.00000000  1.0
  In  In41  1  0.75000000  0.25000000  -0.00000000  1.0
  P  P42  1  0.00000000  0.88822122  0.04923861  1.0
  P  P43  1  -0.00000000  0.11177878  0.04923861  1.0
  P  P44  1  0.50000000  0.61177878  0.95076139  1.0
  P  P45  1  0.50000000  0.38822122  0.95076139  1.0
  P  P46  1  0.37107252  0.88644006  0.50640286  1.0
  P  P47  1  0.37107252  0.11355994  0.50640286  1.0
  P  P48  1  0.62892748  0.88644006  0.50640286  1.0
  P  P49  1  0.62892748  0.11355994  0.50640286  1.0
  P  P50  1  0.12892748  0.61355994  0.49359714  1.0
  P  P51  1  0.12892748  0.38644006  0.49359714  1.0
  P  P52  1  0.87107252  0.61355994  0.49359714  1.0
  P  P53  1  0.87107252  0.38644006  0.49359714  1.0
