# generated using pymatgen
data_CsHg2
_symmetry_space_group_name_H-M   'P 1'
_cell_length_a   7.21906800
_cell_length_b   7.21906800
_cell_length_c   7.21906800
_cell_angle_alpha   133.88414787
_cell_angle_beta   102.24191459
_cell_angle_gamma   95.43737922
_symmetry_Int_Tables_number   1
_chemical_formula_structural   CsHg2
_chemical_formula_sum   'Cs2 Hg4'
_cell_volume   248.89655792
_cell_formula_units_Z   2
loop_
 _symmetry_equiv_pos_site_id
 _symmetry_equiv_pos_as_xyz
  1  'x, y, z'
loop_
 _atom_site_type_symbol
 _atom_site_label
 _atom_site_symmetry_multiplicity
 _atom_site_fract_x
 _atom_site_fract_y
 _atom_site_fract_z
 _atom_site_occupancy
  Cs  Cs0  1  1.69716920  1.44716920  1.25000000  1.0
  Cs  Cs1  1  0.30283080  0.55283080  0.75000000  1.0
  Hg  Hg2  1  1.26094905  0.83046048  1.43048856  1.0
  Hg  Hg3  1  1.10002808  0.16953952  0.93048856  1.0
  Hg  Hg4  1  0.73905095  1.16953952  0.56951144  1.0
  Hg  Hg5  1  0.89997192  0.83046048  0.06951144  1.0
