# generated using pymatgen
data_Ca2SiS4
_symmetry_space_group_name_H-M   'P 1'
_cell_length_a   13.68942666
_cell_length_b   8.23359693
_cell_length_c   6.24013518
_cell_angle_alpha   90.00000000
_cell_angle_beta   90.00000000
_cell_angle_gamma   90.00000000
_symmetry_Int_Tables_number   1
_chemical_formula_structural   Ca2SiS4
_chemical_formula_sum   'Ca8 Si4 S16'
_cell_volume   703.34573824
_cell_formula_units_Z   4
loop_
 _symmetry_equiv_pos_site_id
 _symmetry_equiv_pos_as_xyz
  1  'x, y, z'
loop_
 _atom_site_type_symbol
 _atom_site_label
 _atom_site_symmetry_multiplicity
 _atom_site_fract_x
 _atom_site_fract_y
 _atom_site_fract_z
 _atom_site_occupancy
  Ca  Ca0  1  0.77292468  0.25000000  0.51530863  1.0
  Ca  Ca1  1  0.27292468  0.25000000  0.98469137  1.0
  Ca  Ca2  1  0.22707532  0.75000000  0.48469137  1.0
  Ca  Ca3  1  0.72707532  0.75000000  0.01530863  1.0
  Ca  Ca4  1  0.00000000  0.50000000  0.00000000  1.0
  Ca  Ca5  1  0.00000000  0.00000000  0.00000000  1.0
  Ca  Ca6  1  0.50000000  0.50000000  0.50000000  1.0
  Ca  Ca7  1  0.50000000  0.00000000  0.50000000  1.0
  Si  Si8  1  0.59342592  0.25000000  0.09367026  1.0
  Si  Si9  1  0.09342592  0.25000000  0.40632974  1.0
  Si  Si10  1  0.40657408  0.75000000  0.90632974  1.0
  Si  Si11  1  0.90657408  0.75000000  0.59367026  1.0
  S  S12  1  0.66683974  0.45628687  0.23199695  1.0
  S  S13  1  0.66683974  0.04371313  0.23199695  1.0
  S  S14  1  0.16683974  0.45628687  0.26800305  1.0
  S  S15  1  0.16683974  0.04371313  0.26800305  1.0
  S  S16  1  0.33316026  0.95628687  0.76800305  1.0
  S  S17  1  0.33316026  0.54371313  0.76800305  1.0
  S  S18  1  0.83316026  0.95628687  0.73199695  1.0
  S  S19  1  0.83316026  0.54371313  0.73199695  1.0
  S  S20  1  0.94719410  0.25000000  0.27737229  1.0
  S  S21  1  0.44719410  0.25000000  0.22262771  1.0
  S  S22  1  0.05280590  0.75000000  0.72262771  1.0
  S  S23  1  0.55280590  0.75000000  0.77737229  1.0
  S  S24  1  0.59324311  0.25000000  0.75248855  1.0
  S  S25  1  0.09324311  0.25000000  0.74751145  1.0
  S  S26  1  0.40675689  0.75000000  0.24751145  1.0
  S  S27  1  0.90675689  0.75000000  0.25248855  1.0
