# generated using pymatgen
data_Yb2(Ga3Ir)3
_symmetry_space_group_name_H-M   'P 1'
_cell_length_a   7.54382477
_cell_length_b   7.54382477
_cell_length_c   9.58726272
_cell_angle_alpha   90.00000000
_cell_angle_beta   90.00000000
_cell_angle_gamma   60.24864703
_symmetry_Int_Tables_number   1
_chemical_formula_structural   Yb2(Ga3Ir)3
_chemical_formula_sum   'Yb4 Ga18 Ir6'
_cell_volume   473.68664389
_cell_formula_units_Z   2
loop_
 _symmetry_equiv_pos_site_id
 _symmetry_equiv_pos_as_xyz
  1  'x, y, z'
loop_
 _atom_site_type_symbol
 _atom_site_label
 _atom_site_symmetry_multiplicity
 _atom_site_fract_x
 _atom_site_fract_y
 _atom_site_fract_z
 _atom_site_occupancy
  Yb  Yb0  1  -0.00168165  1.33071692  0.25000000  1.0
  Yb  Yb1  1  0.33071692  0.99831835  0.75000000  1.0
  Yb  Yb2  1  -0.33071692  1.00168165  0.25000000  1.0
  Yb  Yb3  1  0.00168165  0.66928308  0.75000000  1.0
  Ga  Ga4  1  -0.00010678  0.66532440  0.42121583  1.0
  Ga  Ga5  1  -0.00010678  0.66532440  0.07878417  1.0
  Ga  Ga6  1  -0.33467560  0.99989322  0.92121583  1.0
  Ga  Ga7  1  -0.33467560  0.99989322  0.57878417  1.0
  Ga  Ga8  1  0.33467560  1.00010678  0.42121583  1.0
  Ga  Ga9  1  0.33467560  1.00010678  0.07878417  1.0
  Ga  Ga10  1  0.00010678  1.33467560  0.92121583  1.0
  Ga  Ga11  1  0.00010678  1.33467560  0.57878417  1.0
  Ga  Ga12  1  0.33767585  0.45259944  0.25000000  1.0
  Ga  Ga13  1  -0.54740056  1.33767585  0.75000000  1.0
  Ga  Ga14  1  0.54740056  0.66232415  0.25000000  1.0
  Ga  Ga15  1  -0.33767585  1.54740056  0.75000000  1.0
  Ga  Ga16  1  0.33255352  0.66744648  0.93311195  1.0
  Ga  Ga17  1  0.33255352  0.66744648  0.56688805  1.0
  Ga  Ga18  1  -0.33255352  1.33255352  0.43311195  1.0
  Ga  Ga19  1  -0.33255352  1.33255352  0.06688805  1.0
  Ga  Ga20  1  0.12712499  0.87287501  0.25000000  1.0
  Ga  Ga21  1  -0.12712499  1.12712499  0.75000000  1.0
  Ir  Ir22  1  0.67111673  0.67111673  0.50000000  1.0
  Ir  Ir23  1  0.67111673  0.67111673  0.00000000  1.0
  Ir  Ir24  1  0.32888327  0.32888327  0.50000000  1.0
  Ir  Ir25  1  0.32888327  0.32888327  0.00000000  1.0
  Ir  Ir26  1  0.00000000  0.00000000  0.50000000  1.0
  Ir  Ir27  1  0.00000000  0.00000000  0.00000000  1.0
