# generated using pymatgen
data_Gd3Ir
_symmetry_space_group_name_H-M   'P 1'
_cell_length_a   7.26031210
_cell_length_b   9.54963749
_cell_length_c   6.41893819
_cell_angle_alpha   90.00000000
_cell_angle_beta   90.00000000
_cell_angle_gamma   90.00000000
_symmetry_Int_Tables_number   1
_chemical_formula_structural   Gd3Ir
_chemical_formula_sum   'Gd12 Ir4'
_cell_volume   445.04647916
_cell_formula_units_Z   4
loop_
 _symmetry_equiv_pos_site_id
 _symmetry_equiv_pos_as_xyz
  1  'x, y, z'
loop_
 _atom_site_type_symbol
 _atom_site_label
 _atom_site_symmetry_multiplicity
 _atom_site_fract_x
 _atom_site_fract_y
 _atom_site_fract_z
 _atom_site_occupancy
  Gd  Gd0  1  0.32478617  0.93577553  0.67138533  1.0
  Gd  Gd1  1  0.32478617  0.56422447  0.67138533  1.0
  Gd  Gd2  1  0.82478617  0.93577553  0.82861467  1.0
  Gd  Gd3  1  0.82478617  0.56422447  0.82861467  1.0
  Gd  Gd4  1  0.67521383  0.43577553  0.32861467  1.0
  Gd  Gd5  1  0.67521383  0.06422447  0.32861467  1.0
  Gd  Gd6  1  0.17521383  0.43577553  0.17138533  1.0
  Gd  Gd7  1  0.17521383  0.06422447  0.17138533  1.0
  Gd  Gd8  1  0.46270336  0.75000000  0.13980432  1.0
  Gd  Gd9  1  0.96270336  0.75000000  0.36019568  1.0
  Gd  Gd10  1  0.53729664  0.25000000  0.86019568  1.0
  Gd  Gd11  1  0.03729664  0.25000000  0.63980432  1.0
  Ir  Ir12  1  0.11838036  0.75000000  0.94456195  1.0
  Ir  Ir13  1  0.61838036  0.75000000  0.55543805  1.0
  Ir  Ir14  1  0.88161964  0.25000000  0.05543805  1.0
  Ir  Ir15  1  0.38161964  0.25000000  0.44456195  1.0
