# generated using pymatgen
data_Ga3B4Pt9
_symmetry_space_group_name_H-M   'P 1'
_cell_length_a   8.79282222
_cell_length_b   8.79282222
_cell_length_c   6.55169993
_cell_angle_alpha   90.00000000
_cell_angle_beta   90.00000000
_cell_angle_gamma   120.00000000
_symmetry_Int_Tables_number   1
_chemical_formula_structural   Ga3B4Pt9
_chemical_formula_sum   'Ga6 B8 Pt18'
_cell_volume   438.67331351
_cell_formula_units_Z   2
loop_
 _symmetry_equiv_pos_site_id
 _symmetry_equiv_pos_as_xyz
  1  'x, y, z'
loop_
 _atom_site_type_symbol
 _atom_site_label
 _atom_site_symmetry_multiplicity
 _atom_site_fract_x
 _atom_site_fract_y
 _atom_site_fract_z
 _atom_site_occupancy
  Ga  Ga0  1  0.49154226  0.43772298  0.25000000  1.0
  Ga  Ga1  1  0.43772298  0.49154226  0.75000000  1.0
  Ga  Ga2  1  0.94618073  0.50845774  0.25000000  1.0
  Ga  Ga3  1  0.56227702  0.05381927  0.25000000  1.0
  Ga  Ga4  1  0.50845774  0.94618073  0.75000000  1.0
  Ga  Ga5  1  0.05381927  0.56227702  0.75000000  1.0
  B  B6  1  0.82031893  0.82031893  0.50000000  1.0
  B  B7  1  0.82031893  0.82031893  -0.00000000  1.0
  B  B8  1  0.00000000  0.17968107  0.50000000  1.0
  B  B9  1  0.00000000  0.17968107  -0.00000000  1.0
  B  B10  1  0.17968107  -0.00000000  0.50000000  1.0
  B  B11  1  0.17968107  -0.00000000  -0.00000000  1.0
  B  B12  1  0.33333333  0.66666667  0.25000000  1.0
  B  B13  1  0.66666667  0.33333333  0.75000000  1.0
  Pt  Pt14  1  0.27292034  0.81446160  0.47774298  1.0
  Pt  Pt15  1  0.27292034  0.81446160  0.02225702  1.0
  Pt  Pt16  1  0.81446160  0.27292034  0.97774298  1.0
  Pt  Pt17  1  0.81446160  0.27292034  0.52225702  1.0
  Pt  Pt18  1  0.54154125  0.72707966  0.47774298  1.0
  Pt  Pt19  1  0.54154125  0.72707966  0.02225702  1.0
  Pt  Pt20  1  0.18553840  0.45845875  0.47774298  1.0
  Pt  Pt21  1  0.18553840  0.45845875  0.02225702  1.0
  Pt  Pt22  1  0.72707966  0.54154125  0.97774298  1.0
  Pt  Pt23  1  0.72707966  0.54154125  0.52225702  1.0
  Pt  Pt24  1  0.45845875  0.18553840  0.97774298  1.0
  Pt  Pt25  1  0.45845875  0.18553840  0.52225702  1.0
  Pt  Pt26  1  0.99203909  0.81502059  0.25000000  1.0
  Pt  Pt27  1  0.81502059  0.99203909  0.75000000  1.0
  Pt  Pt28  1  0.82298150  0.00796091  0.25000000  1.0
  Pt  Pt29  1  0.18497941  0.17701850  0.25000000  1.0
  Pt  Pt30  1  0.00796091  0.82298150  0.75000000  1.0
  Pt  Pt31  1  0.17701850  0.18497941  0.75000000  1.0
