# generated using pymatgen
data_BaSi2PbO6
_symmetry_space_group_name_H-M   'P 1'
_cell_length_a   8.34425491
_cell_length_b   8.34425491
_cell_length_c   7.42966245
_cell_angle_alpha   90.00000000
_cell_angle_beta   90.00000000
_cell_angle_gamma   140.70293799
_symmetry_Int_Tables_number   1
_chemical_formula_structural   BaSi2PbO6
_chemical_formula_sum   'Ba2 Si4 Pb2 O12'
_cell_volume   327.62870399
_cell_formula_units_Z   2
loop_
 _symmetry_equiv_pos_site_id
 _symmetry_equiv_pos_as_xyz
  1  'x, y, z'
loop_
 _atom_site_type_symbol
 _atom_site_label
 _atom_site_symmetry_multiplicity
 _atom_site_fract_x
 _atom_site_fract_y
 _atom_site_fract_z
 _atom_site_occupancy
  Ba  Ba0  1  -0.27915192  1.27915192  0.25000000  1.0
  Ba  Ba1  1  -0.72084808  0.72084808  0.75000000  1.0
  Si  Si2  1  -0.89617314  0.89617314  0.46926406  1.0
  Si  Si3  1  -0.89617314  0.89617314  0.03073594  1.0
  Si  Si4  1  -0.10382686  1.10382686  0.96926406  1.0
  Si  Si5  1  -0.10382686  1.10382686  0.53073594  1.0
  Pb  Pb6  1  -0.57592047  0.57592047  0.25000000  1.0
  Pb  Pb7  1  -0.42407953  1.42407953  0.75000000  1.0
  O  O8  1  0.09317140  1.38845493  0.45196160  1.0
  O  O9  1  0.09317140  1.38845493  0.04803840  1.0
  O  O10  1  -0.61154507  1.09317140  0.95196160  1.0
  O  O11  1  -0.61154507  1.09317140  0.54803840  1.0
  O  O12  1  -0.38845493  0.90682860  0.45196160  1.0
  O  O13  1  -0.38845493  0.90682860  0.04803840  1.0
  O  O14  1  -0.09317140  1.61154507  0.95196160  1.0
  O  O15  1  -0.09317140  1.61154507  0.54803840  1.0
  O  O16  1  -0.87721668  0.87721668  0.25000000  1.0
  O  O17  1  -0.12278332  1.12278332  0.75000000  1.0
  O  O18  1  0.00000000  0.00000000  0.50000000  1.0
  O  O19  1  0.00000000  0.00000000  0.00000000  1.0
