# generated using pymatgen
data_CaCr2(PO4)2
_symmetry_space_group_name_H-M   'P 1'
_cell_length_a   9.15816864
_cell_length_b   9.15816864
_cell_length_c   16.94383988
_cell_angle_alpha   62.11790469
_cell_angle_beta   117.88209531
_cell_angle_gamma   147.77589105
_symmetry_Int_Tables_number   1
_chemical_formula_structural   CaCr2(PO4)2
_chemical_formula_sum   'Ca4 Cr8 P8 O32'
_cell_volume   661.94580961
_cell_formula_units_Z   4
loop_
 _symmetry_equiv_pos_site_id
 _symmetry_equiv_pos_as_xyz
  1  'x, y, z'
loop_
 _atom_site_type_symbol
 _atom_site_label
 _atom_site_symmetry_multiplicity
 _atom_site_fract_x
 _atom_site_fract_y
 _atom_site_fract_z
 _atom_site_occupancy
  Ca  Ca0  1  0.52922782  -0.17104309  0.86303892  1.0
  Ca  Ca1  1  1.17104309  -0.52922782  0.36303892  1.0
  Ca  Ca2  1  0.82895691  0.52922782  0.63696108  1.0
  Ca  Ca3  1  1.47077218  0.17104309  0.13696108  1.0
  Cr  Cr4  1  1.64313323  -0.15928642  0.53659630  1.0
  Cr  Cr5  1  1.15928642  -0.64313323  0.03659630  1.0
  Cr  Cr6  1  0.84071358  0.64313323  0.96340370  1.0
  Cr  Cr7  1  0.35686677  0.15928642  0.46340370  1.0
  Cr  Cr8  1  0.67450547  0.67450547  0.75000000  1.0
  Cr  Cr9  1  0.32549453  0.32549453  0.25000000  1.0
  Cr  Cr10  1  1.50000000  0.00000000  -0.00000000  1.0
  Cr  Cr11  1  1.00000000  0.50000000  0.50000000  1.0
  P  P12  1  0.51195598  -0.05672210  0.63250465  1.0
  P  P13  1  1.05672210  -0.51195598  0.13250465  1.0
  P  P14  1  0.94327790  0.51195598  0.86749535  1.0
  P  P15  1  1.48804402  0.05672210  0.36749535  1.0
  P  P16  1  1.19709611  -0.76889436  0.89381138  1.0
  P  P17  1  1.76889436  -0.19709611  0.39381138  1.0
  P  P18  1  0.23110564  0.19709611  0.60618862  1.0
  P  P19  1  0.80290389  0.76889436  0.10618862  1.0
  O  O20  1  1.89253158  -0.07096759  0.87136015  1.0
  O  O21  1  1.07096759  -0.89253158  0.37136015  1.0
  O  O22  1  0.92903241  0.89253158  0.62863985  1.0
  O  O23  1  0.10746842  0.07096759  0.12863985  1.0
  O  O24  1  1.66209808  -0.16494837  0.42594326  1.0
  O  O25  1  1.16494837  0.33790192  0.92594326  1.0
  O  O26  1  0.83505163  -0.33790192  0.07405674  1.0
  O  O27  1  0.33790192  0.16494837  0.57405674  1.0
  O  O28  1  1.62063494  -0.13652492  0.64383608  1.0
  O  O29  1  1.13652492  -0.62063494  0.14383608  1.0
  O  O30  1  0.86347508  0.62063494  0.85616392  1.0
  O  O31  1  0.37936506  0.13652492  0.35616392  1.0
  O  O32  1  0.60578530  0.04399612  0.71563566  1.0
  O  O33  1  0.95600388  -0.60578530  0.21563566  1.0
  O  O34  1  1.04399612  0.60578530  0.78436434  1.0
  O  O35  1  1.39421470  -0.04399612  0.28436434  1.0
  O  O36  1  0.69284177  0.19089126  0.89550969  1.0
  O  O37  1  0.80910874  -0.69284177  0.39550969  1.0
  O  O38  1  1.19089126  0.69284177  0.60449031  1.0
  O  O39  1  1.30715823  -0.19089126  0.10449031  1.0
  O  O40  1  0.63959037  0.19189453  0.55027481  1.0
  O  O41  1  0.80810547  -0.63959037  0.05027481  1.0
  O  O42  1  1.19189453  0.63959037  0.94972519  1.0
  O  O43  1  1.36040963  -0.19189453  0.44972519  1.0
  O  O44  1  0.35738149  0.20568926  0.97060448  1.0
  O  O45  1  0.79431074  0.64261851  0.47060448  1.0
  O  O46  1  1.20568926  -0.64261851  0.52939552  1.0
  O  O47  1  1.64261851  -0.20568926  0.02939552  1.0
  O  O48  1  0.44230971  0.34646391  0.68921401  1.0
  O  O49  1  0.65353609  0.55769029  0.18921401  1.0
  O  O50  1  1.34646391  -0.55769029  0.81078599  1.0
  O  O51  1  1.55769029  -0.34646391  0.31078599  1.0
