# generated using pymatgen
data_C4SCl3O
_symmetry_space_group_name_H-M   'P 1'
_cell_length_a   7.80219977
_cell_length_b   14.01034306
_cell_length_c   8.25258428
_cell_angle_alpha   90.00000000
_cell_angle_beta   116.71245070
_cell_angle_gamma   90.00000000
_symmetry_Int_Tables_number   1
_chemical_formula_structural   C4SCl3O
_chemical_formula_sum   'C16 S4 Cl12 O4'
_cell_volume   805.82430936
_cell_formula_units_Z   4
loop_
 _symmetry_equiv_pos_site_id
 _symmetry_equiv_pos_as_xyz
  1  'x, y, z'
loop_
 _atom_site_type_symbol
 _atom_site_label
 _atom_site_symmetry_multiplicity
 _atom_site_fract_x
 _atom_site_fract_y
 _atom_site_fract_z
 _atom_site_occupancy
  C  C0  1  0.44665411  0.47065792  0.90815588  1.0
  C  C1  1  0.55334589  0.97065792  0.59184412  1.0
  C  C2  1  0.55334589  0.52934208  0.09184412  1.0
  C  C3  1  0.44665411  0.02934208  0.40815588  1.0
  C  C4  1  0.23010542  0.46411671  0.83623622  1.0
  C  C5  1  0.76989458  0.96411671  0.66376378  1.0
  C  C6  1  0.76989458  0.53588329  0.16376378  1.0
  C  C7  1  0.23010542  0.03588329  0.33623622  1.0
  C  C8  1  0.15561171  0.37519346  0.81640658  1.0
  C  C9  1  0.84438829  0.87519346  0.68359342  1.0
  C  C10  1  0.84438829  0.62480654  0.18359342  1.0
  C  C11  1  0.15561171  0.12480654  0.31640658  1.0
  C  C12  1  0.29537941  0.29650540  0.86364324  1.0
  C  C13  1  0.70462059  0.79650540  0.63635676  1.0
  C  C14  1  0.70462059  0.70349460  0.13635676  1.0
  C  C15  1  0.29537941  0.20349460  0.36364324  1.0
  S  S16  1  0.52943757  0.34546169  0.93590561  1.0
  S  S17  1  0.47056243  0.84546169  0.56409439  1.0
  S  S18  1  0.47056243  0.65453831  0.06409439  1.0
  S  S19  1  0.52943757  0.15453831  0.43590561  1.0
  Cl  Cl20  1  0.50200502  0.52749407  0.74086181  1.0
  Cl  Cl21  1  0.49799498  0.02749407  0.75913819  1.0
  Cl  Cl22  1  0.49799498  0.47250593  0.25913819  1.0
  Cl  Cl23  1  0.50200502  0.97250593  0.24086181  1.0
  Cl  Cl24  1  0.08919261  0.56327352  0.77577775  1.0
  Cl  Cl25  1  0.91080739  0.06327352  0.72422225  1.0
  Cl  Cl26  1  0.91080739  0.43672648  0.22422225  1.0
  Cl  Cl27  1  0.08919261  0.93672648  0.27577775  1.0
  Cl  Cl28  1  0.91873217  0.34885795  0.73751271  1.0
  Cl  Cl29  1  0.08126783  0.84885795  0.76248729  1.0
  Cl  Cl30  1  0.08126783  0.65114205  0.26248729  1.0
  Cl  Cl31  1  0.91873217  0.15114205  0.23751271  1.0
  O  O32  1  0.26282545  0.21129467  0.85530527  1.0
  O  O33  1  0.73717455  0.71129467  0.64469473  1.0
  O  O34  1  0.73717455  0.78870533  0.14469473  1.0
  O  O35  1  0.26282545  0.28870533  0.35530527  1.0
