# generated using pymatgen
data_Na2CO3
_symmetry_space_group_name_H-M   'P 1'
_cell_length_a   5.22151331
_cell_length_b   5.22151331
_cell_length_c   6.17289095
_cell_angle_alpha   79.70277678
_cell_angle_beta   100.29722322
_cell_angle_gamma   118.45251439
_symmetry_Int_Tables_number   1
_chemical_formula_structural   Na2CO3
_chemical_formula_sum   'Na4 C2 O6'
_cell_volume   144.73266399
_cell_formula_units_Z   2
loop_
 _symmetry_equiv_pos_site_id
 _symmetry_equiv_pos_as_xyz
  1  'x, y, z'
loop_
 _atom_site_type_symbol
 _atom_site_label
 _atom_site_symmetry_multiplicity
 _atom_site_fract_x
 _atom_site_fract_y
 _atom_site_fract_z
 _atom_site_occupancy
  Na  Na0  1  0.32953606  -0.32953606  0.75212452  1.0
  Na  Na1  1  0.67046394  -0.67046394  0.24787548  1.0
  Na  Na2  1  0.00000000  -0.00000000  0.50000000  1.0
  Na  Na3  1  -0.00000000  -0.00000000  0.00000000  1.0
  C  C4  1  0.66307827  -0.66307827  0.74857567  1.0
  C  C5  1  0.33692173  -0.33692173  0.25142433  1.0
  O  O6  1  1.39004567  0.18954377  0.78642927  1.0
  O  O7  1  0.81045623  -0.39004567  0.78642927  1.0
  O  O8  1  1.18954377  0.39004567  0.21357073  1.0
  O  O9  1  0.60995433  -0.18954377  0.21357073  1.0
  O  O10  1  0.78812245  -0.78812245  0.67390738  1.0
  O  O11  1  0.21187755  -0.21187755  0.32609262  1.0
