# generated using pymatgen
data_Hf6FeTe2
_symmetry_space_group_name_H-M   'P 1'
_cell_length_a   7.78012711
_cell_length_b   7.78012711
_cell_length_c   3.54716088
_cell_angle_alpha   90.00000000
_cell_angle_beta   90.00000000
_cell_angle_gamma   120.00000000
_symmetry_Int_Tables_number   1
_chemical_formula_structural   Hf6FeTe2
_chemical_formula_sum   'Hf6 Fe1 Te2'
_cell_volume   185.94517054
_cell_formula_units_Z   1
loop_
 _symmetry_equiv_pos_site_id
 _symmetry_equiv_pos_as_xyz
  1  'x, y, z'
loop_
 _atom_site_type_symbol
 _atom_site_label
 _atom_site_symmetry_multiplicity
 _atom_site_fract_x
 _atom_site_fract_y
 _atom_site_fract_z
 _atom_site_occupancy
  Hf  Hf0  1  0.76082066  0.76082066  0.50000000  1.0
  Hf  Hf1  1  -0.00000000  0.23917934  0.50000000  1.0
  Hf  Hf2  1  0.23917934  0.00000000  0.50000000  1.0
  Hf  Hf3  1  0.39722413  0.39722413  0.00000000  1.0
  Hf  Hf4  1  0.00000000  0.60277587  0.00000000  1.0
  Hf  Hf5  1  0.60277587  0.00000000  0.00000000  1.0
  Fe  Fe6  1  0.00000000  0.00000000  0.00000000  1.0
  Te  Te7  1  0.33333333  0.66666667  0.50000000  1.0
  Te  Te8  1  0.66666667  0.33333333  0.50000000  1.0
