# generated using pymatgen
data_NbSiRh
_symmetry_space_group_name_H-M   'P 1'
_cell_length_a   6.42878074
_cell_length_b   3.76698130
_cell_length_c   7.34205564
_cell_angle_alpha   90.00000000
_cell_angle_beta   90.00000000
_cell_angle_gamma   90.00000000
_symmetry_Int_Tables_number   1
_chemical_formula_structural   NbSiRh
_chemical_formula_sum   'Nb4 Si4 Rh4'
_cell_volume   177.80327244
_cell_formula_units_Z   4
loop_
 _symmetry_equiv_pos_site_id
 _symmetry_equiv_pos_as_xyz
  1  'x, y, z'
loop_
 _atom_site_type_symbol
 _atom_site_label
 _atom_site_symmetry_multiplicity
 _atom_site_fract_x
 _atom_site_fract_y
 _atom_site_fract_z
 _atom_site_occupancy
  Nb  Nb0  1  0.97451091  0.75000000  0.67378490  1.0
  Nb  Nb1  1  0.47451091  0.75000000  0.82621510  1.0
  Nb  Nb2  1  0.02548909  0.25000000  0.32621510  1.0
  Nb  Nb3  1  0.52548909  0.25000000  0.17378490  1.0
  Si  Si4  1  0.73154134  0.75000000  0.37574785  1.0
  Si  Si5  1  0.23154134  0.75000000  0.12425215  1.0
  Si  Si6  1  0.26845866  0.25000000  0.62425215  1.0
  Si  Si7  1  0.76845866  0.25000000  0.87574785  1.0
  Rh  Rh8  1  0.85493695  0.75000000  0.06260470  1.0
  Rh  Rh9  1  0.35493695  0.75000000  0.43739530  1.0
  Rh  Rh10  1  0.14506305  0.25000000  0.93739530  1.0
  Rh  Rh11  1  0.64506305  0.25000000  0.56260470  1.0
