# generated using pymatgen
data_TbSbRh
_symmetry_space_group_name_H-M   'P 1'
_cell_length_a   7.20859656
_cell_length_b   4.59424469
_cell_length_c   7.83197715
_cell_angle_alpha   90.00000000
_cell_angle_beta   90.00000000
_cell_angle_gamma   90.00000000
_symmetry_Int_Tables_number   1
_chemical_formula_structural   TbSbRh
_chemical_formula_sum   'Tb4 Sb4 Rh4'
_cell_volume   259.37986134
_cell_formula_units_Z   4
loop_
 _symmetry_equiv_pos_site_id
 _symmetry_equiv_pos_as_xyz
  1  'x, y, z'
loop_
 _atom_site_type_symbol
 _atom_site_label
 _atom_site_symmetry_multiplicity
 _atom_site_fract_x
 _atom_site_fract_y
 _atom_site_fract_z
 _atom_site_occupancy
  Tb  Tb0  1  0.01062540  0.75000000  0.70290399  1.0
  Tb  Tb1  1  0.51062540  0.75000000  0.79709601  1.0
  Tb  Tb2  1  0.98937460  0.25000000  0.29709601  1.0
  Tb  Tb3  1  0.48937460  0.25000000  0.20290399  1.0
  Sb  Sb4  1  0.69224021  0.75000000  0.40980131  1.0
  Sb  Sb5  1  0.19224021  0.75000000  0.09019869  1.0
  Sb  Sb6  1  0.30775979  0.25000000  0.59019869  1.0
  Sb  Sb7  1  0.80775979  0.25000000  0.90980131  1.0
  Rh  Rh8  1  0.80122796  0.75000000  0.08217586  1.0
  Rh  Rh9  1  0.30122796  0.75000000  0.41782414  1.0
  Rh  Rh10  1  0.19877204  0.25000000  0.91782414  1.0
  Rh  Rh11  1  0.69877204  0.25000000  0.58217586  1.0
