# generated using pymatgen
data_Sc(PO)2
_symmetry_space_group_name_H-M   'P 1'
_cell_length_a   7.17037817
_cell_length_b   7.17037818
_cell_length_c   7.17037818
_cell_angle_alpha   118.71733444
_cell_angle_beta   118.71733443
_cell_angle_gamma   92.23638092
_symmetry_Int_Tables_number   1
_chemical_formula_structural   Sc(PO)2
_chemical_formula_sum   'Sc4 P8 O8'
_cell_volume   265.51723105
_cell_formula_units_Z   4
loop_
 _symmetry_equiv_pos_site_id
 _symmetry_equiv_pos_as_xyz
  1  'x, y, z'
loop_
 _atom_site_type_symbol
 _atom_site_label
 _atom_site_symmetry_multiplicity
 _atom_site_fract_x
 _atom_site_fract_y
 _atom_site_fract_z
 _atom_site_occupancy
  Sc  Sc0  1  1.37500000  1.12500000  1.25000000  1.0
  Sc  Sc1  1  0.87500000  1.12500000  0.75000000  1.0
  Sc  Sc2  1  0.87500000  1.12500000  0.25000000  1.0
  Sc  Sc3  1  0.87500000  1.62500000  0.75000000  1.0
  P  P4  1  1.27628702  1.50505235  0.77123467  1.0
  P  P5  1  1.01618232  0.74494765  0.27123467  1.0
  P  P6  1  0.73381768  0.50505235  0.22876533  1.0
  P  P7  1  1.47371298  0.74494765  0.72876533  1.0
  P  P8  1  0.49494765  0.26618232  0.77123467  1.0
  P  P9  1  1.25505235  1.52628702  1.27123467  1.0
  P  P10  1  0.49494765  0.72371298  0.22876533  1.0
  P  P11  1  1.25505235  0.98381768  0.72876533  1.0
  O  O12  1  1.03101042  1.34569455  0.68531587  1.0
  O  O13  1  1.08962132  0.90430545  1.18531587  1.0
  O  O14  1  0.66037868  0.34569455  0.31468413  1.0
  O  O15  1  0.71898958  0.90430545  0.81468413  1.0
  O  O16  1  0.65430545  0.33962132  0.68531587  1.0
  O  O17  1  1.09569455  1.28101042  0.18531587  1.0
  O  O18  1  0.65430545  0.96898958  0.31468413  1.0
  O  O19  1  1.09569455  1.91037868  0.81468413  1.0
