# generated using pymatgen
data_AlPO4
_symmetry_space_group_name_H-M   'P 1'
_cell_length_a   5.06544740
_cell_length_b   5.06544740
_cell_length_c   11.18572492
_cell_angle_alpha   90.00000000
_cell_angle_beta   90.00000000
_cell_angle_gamma   120.00000000
_symmetry_Int_Tables_number   1
_chemical_formula_structural   AlPO4
_chemical_formula_sum   'Al3 P3 O12'
_cell_volume   248.55951142
_cell_formula_units_Z   3
loop_
 _symmetry_equiv_pos_site_id
 _symmetry_equiv_pos_as_xyz
  1  'x, y, z'
loop_
 _atom_site_type_symbol
 _atom_site_label
 _atom_site_symmetry_multiplicity
 _atom_site_fract_x
 _atom_site_fract_y
 _atom_site_fract_z
 _atom_site_occupancy
  Al  Al0  1  0.52720170  0.52720170  0.50000000  1.0
  Al  Al1  1  0.00000000  0.47279830  0.16666667  1.0
  Al  Al2  1  0.47279830  0.00000000  0.83333333  1.0
  P  P3  1  0.52662741  0.52662741  0.00000000  1.0
  P  P4  1  0.00000000  0.47337259  0.66666667  1.0
  P  P5  1  0.47337259  0.00000000  0.33333333  1.0
  O  O6  1  0.13641979  0.71952906  0.76532912  1.0
  O  O7  1  0.71952906  0.13641979  0.23467088  1.0
  O  O8  1  0.58310927  0.86358021  0.43199579  1.0
  O  O9  1  0.28047094  0.41689073  0.09866246  1.0
  O  O10  1  0.86358021  0.58310927  0.56800421  1.0
  O  O11  1  0.41689073  0.28047094  0.90133754  1.0
  O  O12  1  0.83024304  0.58289100  0.05483456  1.0
  O  O13  1  0.58289100  0.83024304  0.94516544  1.0
  O  O14  1  0.75264796  0.16975696  0.72150123  1.0
  O  O15  1  0.41710900  0.24735204  0.38816789  1.0
  O  O16  1  0.16975696  0.75264796  0.27849877  1.0
  O  O17  1  0.24735204  0.41710900  0.61183211  1.0
