# generated using pymatgen
data_K3CaP2HO8
_symmetry_space_group_name_H-M   'P 1'
_cell_length_a   5.77981227
_cell_length_b   5.77981227
_cell_length_c   7.51545615
_cell_angle_alpha   85.94915113
_cell_angle_beta   94.05084887
_cell_angle_gamma   119.80047723
_symmetry_Int_Tables_number   1
_chemical_formula_structural   K3CaP2HO8
_chemical_formula_sum   'K3 Ca1 P2 H1 O8'
_cell_volume   217.13533604
_cell_formula_units_Z   1
loop_
 _symmetry_equiv_pos_site_id
 _symmetry_equiv_pos_as_xyz
  1  'x, y, z'
loop_
 _atom_site_type_symbol
 _atom_site_label
 _atom_site_symmetry_multiplicity
 _atom_site_fract_x
 _atom_site_fract_y
 _atom_site_fract_z
 _atom_site_occupancy
  K  K0  1  0.33001393  -0.33001393  0.80870548  1.0
  K  K1  1  0.66998607  -0.66998607  0.19129452  1.0
  K  K2  1  -0.00000000  0.00000000  0.50000000  1.0
  Ca  Ca3  1  0.00000000  0.00000000  0.00000000  1.0
  P  P4  1  0.65975538  -0.65975538  0.74938085  1.0
  P  P5  1  0.34024462  -0.34024462  0.25061915  1.0
  H  H6  1  0.50000000  -0.50000000  0.50000000  1.0
  O  O7  1  1.37860988  0.18111178  0.82996305  1.0
  O  O8  1  0.81888822  -0.37860988  0.82996305  1.0
  O  O9  1  1.18111178  0.37860988  0.17003695  1.0
  O  O10  1  0.62139012  -0.18111178  0.17003695  1.0
  O  O11  1  0.81490424  -0.81490424  0.78066580  1.0
  O  O12  1  0.18509576  -0.18509576  0.21933420  1.0
  O  O13  1  0.62015057  -0.62015057  0.54027794  1.0
  O  O14  1  0.37984943  -0.37984943  0.45972206  1.0
