# generated using pymatgen
data_C
_symmetry_space_group_name_H-M   'P 1'
_cell_length_a   4.83840689
_cell_length_b   4.83840689
_cell_length_c   4.17300984
_cell_angle_alpha   90.00000000
_cell_angle_beta   90.00000000
_cell_angle_gamma   120.00000000
_symmetry_Int_Tables_number   1
_chemical_formula_structural   C
_chemical_formula_sum   C10
_cell_volume   84.60281538
_cell_formula_units_Z   10
loop_
 _symmetry_equiv_pos_site_id
 _symmetry_equiv_pos_as_xyz
  1  'x, y, z'
loop_
 _atom_site_type_symbol
 _atom_site_label
 _atom_site_symmetry_multiplicity
 _atom_site_fract_x
 _atom_site_fract_y
 _atom_site_fract_z
 _atom_site_occupancy
  C  C0  1  0.66666667  0.33333333  0.18389894  1.0
  C  C1  1  0.33333333  0.66666667  0.18389894  1.0
  C  C2  1  0.66666667  0.33333333  0.81610106  1.0
  C  C3  1  0.33333333  0.66666667  0.81610106  1.0
  C  C4  1  0.50000000  0.50000000  0.34042511  1.0
  C  C5  1  0.50000000  0.00000000  0.34042511  1.0
  C  C6  1  0.50000000  0.00000000  0.65957489  1.0
  C  C7  1  0.00000000  0.50000000  0.65957489  1.0
  C  C8  1  0.00000000  0.50000000  0.34042511  1.0
  C  C9  1  0.50000000  0.50000000  0.65957489  1.0
