# generated using pymatgen
data_Ta9As2O25
_symmetry_space_group_name_H-M   'P 1'
_cell_length_a   11.46645587
_cell_length_b   11.46645587
_cell_length_c   11.46645587
_cell_angle_alpha   91.76261923
_cell_angle_beta   91.76261923
_cell_angle_gamma   159.79828494
_symmetry_Int_Tables_number   1
_chemical_formula_structural   Ta9As2O25
_chemical_formula_sum   'Ta9 As2 O25'
_cell_volume   512.54644006
_cell_formula_units_Z   1
loop_
 _symmetry_equiv_pos_site_id
 _symmetry_equiv_pos_as_xyz
  1  'x, y, z'
loop_
 _atom_site_type_symbol
 _atom_site_label
 _atom_site_symmetry_multiplicity
 _atom_site_fract_x
 _atom_site_fract_y
 _atom_site_fract_z
 _atom_site_occupancy
  Ta  Ta0  1  0.87137707  0.68253258  0.55390965  1.0
  Ta  Ta1  1  0.68253258  0.12862293  0.81115551  1.0
  Ta  Ta2  1  1.12862293  1.31746742  1.44609035  1.0
  Ta  Ta3  1  0.31746742  0.87137707  1.18884449  1.0
  Ta  Ta4  1  0.77702502  0.90382051  1.68084553  1.0
  Ta  Ta5  1  0.90382051  1.22297498  1.12679550  1.0
  Ta  Ta6  1  0.22297498  0.09617949  0.31915447  1.0
  Ta  Ta7  1  1.09617949  0.77702502  0.87320450  1.0
  Ta  Ta8  1  0.00000000  0.00000000  0.00000000  1.0
  As  As9  1  1.25000000  0.75000000  0.50000000  1.0
  As  As10  1  0.75000000  0.25000000  0.50000000  1.0
  O  O11  1  0.98287989  0.71893113  0.70181102  1.0
  O  O12  1  0.71893113  0.01712011  0.73605125  1.0
  O  O13  1  1.01712011  1.28106887  1.29818898  1.0
  O  O14  1  0.28106887  0.98287989  1.26394875  1.0
  O  O15  1  0.90416776  0.56121707  0.46538483  1.0
  O  O16  1  0.56121707  0.09583224  0.65704930  1.0
  O  O17  1  1.09583224  1.43878293  1.53461517  1.0
  O  O18  1  0.43878293  0.90416776  1.34295070  1.0
  O  O19  1  0.88250900  0.95258894  1.83509794  1.0
  O  O20  1  0.95258894  1.11749100  1.07007994  1.0
  O  O21  1  0.11749100  0.04741106  0.16490206  1.0
  O  O22  1  1.04741106  0.88250900  0.92992006  1.0
  O  O23  1  0.82000435  0.78975246  0.60975682  1.0
  O  O24  1  0.78975246  0.17999565  0.96974811  1.0
  O  O25  1  1.17999565  1.21024754  1.39024318  1.0
  O  O26  1  0.21024754  0.82000435  1.03025189  1.0
  O  O27  1  0.74653253  0.61092841  0.35746093  1.0
  O  O28  1  0.61092841  0.25346747  0.86439588  1.0
  O  O29  1  1.25346747  1.38907159  1.64253907  1.0
  O  O30  1  0.38907159  0.74653253  1.13560412  1.0
  O  O31  1  0.65223497  0.83635761  1.48859258  1.0
  O  O32  1  0.83635761  1.34776503  1.18412263  1.0
  O  O33  1  0.34776503  0.16364239  0.51140742  1.0
  O  O34  1  1.16364239  0.65223497  0.81587737  1.0
  O  O35  1  0.50000000  0.50000000  0.00000000  1.0
