# generated using pymatgen
data_La3Cu2S7
_symmetry_space_group_name_H-M   'P 1'
_cell_length_a   10.29476502
_cell_length_b   10.29476502
_cell_length_c   5.75698648
_cell_angle_alpha   90.00000000
_cell_angle_beta   90.00000000
_cell_angle_gamma   120.00000000
_symmetry_Int_Tables_number   1
_chemical_formula_structural   La3Cu2S7
_chemical_formula_sum   'La6 Cu4 S14'
_cell_volume   528.39502156
_cell_formula_units_Z   2
loop_
 _symmetry_equiv_pos_site_id
 _symmetry_equiv_pos_as_xyz
  1  'x, y, z'
loop_
 _atom_site_type_symbol
 _atom_site_label
 _atom_site_symmetry_multiplicity
 _atom_site_fract_x
 _atom_site_fract_y
 _atom_site_fract_z
 _atom_site_occupancy
  La  La0  1  0.22620966  0.85637534  0.02706573  1.0
  La  La1  1  0.85637534  0.63016567  0.52706573  1.0
  La  La2  1  0.63016567  0.77379034  0.02706573  1.0
  La  La3  1  0.14362466  0.36983433  0.02706573  1.0
  La  La4  1  0.77379034  0.14362466  0.52706573  1.0
  La  La5  1  0.36983433  0.22620966  0.52706573  1.0
  Cu  Cu6  1  0.33333333  0.66666667  0.63386744  1.0
  Cu  Cu7  1  0.66666667  0.33333333  0.13386744  1.0
  Cu  Cu8  1  0.00000000  0.00000000  0.01122041  1.0
  Cu  Cu9  1  0.00000000  0.00000000  0.51122041  1.0
  S  S10  1  0.90390473  0.75099357  0.01801347  1.0
  S  S11  1  0.75099357  0.84708884  0.51801347  1.0
  S  S12  1  0.84708884  0.09609527  0.01801347  1.0
  S  S13  1  0.24900643  0.15291116  0.01801347  1.0
  S  S14  1  0.09609527  0.24900643  0.51801347  1.0
  S  S15  1  0.15291116  0.90390473  0.51801347  1.0
  S  S16  1  0.57283383  0.48139672  0.24659548  1.0
  S  S17  1  0.48139672  0.90856288  0.74659548  1.0
  S  S18  1  0.90856288  0.42716617  0.24659548  1.0
  S  S19  1  0.51860328  0.09143712  0.24659548  1.0
  S  S20  1  0.42716617  0.51860328  0.74659548  1.0
  S  S21  1  0.09143712  0.57283383  0.74659548  1.0
  S  S22  1  0.33333333  0.66666667  0.24788813  1.0
  S  S23  1  0.66666667  0.33333333  0.74788813  1.0
