# generated using pymatgen
data_KSrNb2O6F
_symmetry_space_group_name_H-M   'P 1'
_cell_length_a   12.16400423
_cell_length_b   12.16400423
_cell_length_c   12.16400423
_cell_angle_alpha   161.61051374
_cell_angle_beta   142.94291124
_cell_angle_gamma   41.67146534
_symmetry_Int_Tables_number   1
_chemical_formula_structural   KSrNb2O6F
_chemical_formula_sum   'K2 Sr2 Nb4 O12 F2'
_cell_volume   341.65765420
_cell_formula_units_Z   2
loop_
 _symmetry_equiv_pos_site_id
 _symmetry_equiv_pos_as_xyz
  1  'x, y, z'
loop_
 _atom_site_type_symbol
 _atom_site_label
 _atom_site_symmetry_multiplicity
 _atom_site_fract_x
 _atom_site_fract_y
 _atom_site_fract_z
 _atom_site_occupancy
  K  K0  1  0.76392308  0.76392308  1.00000000  1.0
  K  K1  1  0.23607692  0.23607692  -0.00000000  1.0
  Sr  Sr2  1  0.50000000  0.00000000  0.50000000  1.0
  Sr  Sr3  1  0.00000000  0.00000000  0.00000000  1.0
  Nb  Nb4  1  0.35385735  0.60710236  0.74675498  1.0
  Nb  Nb5  1  1.13965262  0.39289764  0.74675498  1.0
  Nb  Nb6  1  0.86034738  0.60710236  1.25324502  1.0
  Nb  Nb7  1  0.64614265  0.39289764  0.25324502  1.0
  O  O8  1  0.66702142  0.91505686  0.75196456  1.0
  O  O9  1  0.83690770  0.08494314  0.75196456  1.0
  O  O10  1  1.16309230  0.91505686  1.24803544  1.0
  O  O11  1  0.33297858  0.08494314  0.24803544  1.0
  O  O12  1  0.40850836  0.68478063  0.72372773  1.0
  O  O13  1  1.03894711  0.31521937  0.72372773  1.0
  O  O14  1  0.96105289  0.68478063  1.27627227  1.0
  O  O15  1  0.59149164  0.31521937  0.27627227  1.0
  O  O16  1  0.92129055  0.42129055  0.50000000  1.0
  O  O17  1  0.07870945  0.57870945  0.50000000  1.0
  O  O18  1  0.59287690  0.59287690  1.00000000  1.0
  O  O19  1  0.40712310  0.40712310  0.00000000  1.0
  F  F20  1  0.27304155  0.50000000  0.77304155  1.0
  F  F21  1  0.72695845  0.50000000  1.22695845  1.0
