# generated using pymatgen
data_LuAu2
_symmetry_space_group_name_H-M   'P 1'
_cell_length_a   5.18381695
_cell_length_b   5.18381695
_cell_length_c   5.18381695
_cell_angle_alpha   138.50447911
_cell_angle_beta   138.50447911
_cell_angle_gamma   60.13123737
_symmetry_Int_Tables_number   1
_chemical_formula_structural   LuAu2
_chemical_formula_sum   'Lu1 Au2'
_cell_volume   60.51774931
_cell_formula_units_Z   1
loop_
 _symmetry_equiv_pos_site_id
 _symmetry_equiv_pos_as_xyz
  1  'x, y, z'
loop_
 _atom_site_type_symbol
 _atom_site_label
 _atom_site_symmetry_multiplicity
 _atom_site_fract_x
 _atom_site_fract_y
 _atom_site_fract_z
 _atom_site_occupancy
  Lu  Lu0  1  0.00000000  0.00000000  0.00000000  1.0
  Au  Au1  1  0.66455210  0.66455210  1.00000000  1.0
  Au  Au2  1  0.33544790  0.33544790  -0.00000000  1.0
