# generated using pymatgen
data_TaBe12
_symmetry_space_group_name_H-M   'P 1'
_cell_length_a   5.58238125
_cell_length_b   5.58238125
_cell_length_c   5.58238125
_cell_angle_alpha   98.13106782
_cell_angle_beta   98.13106782
_cell_angle_gamma   135.81753404
_symmetry_Int_Tables_number   1
_chemical_formula_structural   TaBe12
_chemical_formula_sum   'Ta1 Be12'
_cell_volume   112.34227902
_cell_formula_units_Z   1
loop_
 _symmetry_equiv_pos_site_id
 _symmetry_equiv_pos_as_xyz
  1  'x, y, z'
loop_
 _atom_site_type_symbol
 _atom_site_label
 _atom_site_symmetry_multiplicity
 _atom_site_fract_x
 _atom_site_fract_y
 _atom_site_fract_z
 _atom_site_occupancy
  Ta  Ta0  1  0.00000000  0.00000000  0.00000000  1.0
  Be  Be1  1  0.50000000  0.50000000  0.50000000  1.0
  Be  Be2  1  1.00000000  1.00000000  0.50000000  1.0
  Be  Be3  1  1.00000000  0.50000000  1.00000000  1.0
  Be  Be4  1  1.50000000  1.00000000  1.00000000  1.0
  Be  Be5  1  0.50000000  0.71679652  0.21679652  1.0
  Be  Be6  1  0.71679652  0.50000000  1.21679652  1.0
  Be  Be7  1  0.28320348  0.50000000  0.78320348  1.0
  Be  Be8  1  0.50000000  1.28320348  0.78320348  1.0
  Be  Be9  1  0.00000000  0.64777324  0.64777324  1.0
  Be  Be10  1  0.64777324  1.00000000  0.64777324  1.0
  Be  Be11  1  1.35222676  1.00000000  1.35222676  1.0
  Be  Be12  1  0.00000000  0.35222676  0.35222676  1.0
