# generated using pymatgen
data_Rh2O3
_symmetry_space_group_name_H-M   'P 1'
_cell_length_a   5.20290391
_cell_length_b   5.49659667
_cell_length_c   14.87676537
_cell_angle_alpha   90.00000000
_cell_angle_beta   90.00000000
_cell_angle_gamma   90.00000000
_symmetry_Int_Tables_number   1
_chemical_formula_structural   Rh2O3
_chemical_formula_sum   'Rh16 O24'
_cell_volume   425.44966807
_cell_formula_units_Z   8
loop_
 _symmetry_equiv_pos_site_id
 _symmetry_equiv_pos_as_xyz
  1  'x, y, z'
loop_
 _atom_site_type_symbol
 _atom_site_label
 _atom_site_symmetry_multiplicity
 _atom_site_fract_x
 _atom_site_fract_y
 _atom_site_fract_z
 _atom_site_occupancy
  Rh  Rh0  1  0.50082574  0.74919756  0.67862938  1.0
  Rh  Rh1  1  0.50082574  0.75080244  0.17862938  1.0
  Rh  Rh2  1  0.00082574  0.74919756  0.82137062  1.0
  Rh  Rh3  1  0.00082574  0.75080244  0.32137062  1.0
  Rh  Rh4  1  0.49917426  0.24919756  0.82137062  1.0
  Rh  Rh5  1  0.49917426  0.25080244  0.32137062  1.0
  Rh  Rh6  1  -0.00082574  0.24919756  0.67862938  1.0
  Rh  Rh7  1  -0.00082574  0.25080244  0.17862938  1.0
  Rh  Rh8  1  0.50084834  0.67971808  0.92437615  1.0
  Rh  Rh9  1  0.50084834  0.82028192  0.42437615  1.0
  Rh  Rh10  1  0.00084834  0.67971808  0.57562385  1.0
  Rh  Rh11  1  0.00084834  0.82028192  0.07562385  1.0
  Rh  Rh12  1  0.49915166  0.17971808  0.57562385  1.0
  Rh  Rh13  1  0.49915166  0.32028192  0.07562385  1.0
  Rh  Rh14  1  -0.00084834  0.17971808  0.92437615  1.0
  Rh  Rh15  1  -0.00084834  0.32028192  0.42437615  1.0
  O  O16  1  0.34934980  0.84076255  0.55210899  1.0
  O  O17  1  0.34934980  0.65923745  0.05210899  1.0
  O  O18  1  0.84934980  0.84076255  0.94789101  1.0
  O  O19  1  0.84934980  0.65923745  0.44789101  1.0
  O  O20  1  0.65065020  0.34076255  0.94789101  1.0
  O  O21  1  0.65065020  0.15923745  0.44789101  1.0
  O  O22  1  0.15065020  0.34076255  0.55210899  1.0
  O  O23  1  0.15065020  0.15923745  0.05210899  1.0
  O  O24  1  0.30047714  0.96604210  0.87554447  1.0
  O  O25  1  0.30047714  0.53395790  0.37554447  1.0
  O  O26  1  0.80047714  0.96604210  0.62445553  1.0
  O  O27  1  0.80047714  0.53395790  0.12445553  1.0
  O  O28  1  0.69952286  0.46604210  0.62445553  1.0
  O  O29  1  0.69952286  0.03395790  0.12445553  1.0
  O  O30  1  0.19952286  0.46604210  0.87554447  1.0
  O  O31  1  0.19952286  0.03395790  0.37554447  1.0
  O  O32  1  0.14236108  0.61133342  0.70272174  1.0
  O  O33  1  0.14236108  0.88866658  0.20272174  1.0
  O  O34  1  0.64236108  0.61133342  0.79727826  1.0
  O  O35  1  0.64236108  0.88866658  0.29727826  1.0
  O  O36  1  0.85763892  0.11133342  0.79727826  1.0
  O  O37  1  0.85763892  0.38866658  0.29727826  1.0
  O  O38  1  0.35763892  0.11133342  0.70272174  1.0
  O  O39  1  0.35763892  0.38866658  0.20272174  1.0
