# generated using pymatgen
data_AgPS3
_symmetry_space_group_name_H-M   'P 1'
_cell_length_a   7.35127868
_cell_length_b   7.35127868
_cell_length_c   7.72894465
_cell_angle_alpha   51.79258652
_cell_angle_beta   128.20741348
_cell_angle_gamma   120.62798487
_symmetry_Int_Tables_number   1
_chemical_formula_structural   AgPS3
_chemical_formula_sum   'Ag2 P2 S6'
_cell_volume   252.38973292
_cell_formula_units_Z   2
loop_
 _symmetry_equiv_pos_site_id
 _symmetry_equiv_pos_as_xyz
  1  'x, y, z'
loop_
 _atom_site_type_symbol
 _atom_site_label
 _atom_site_symmetry_multiplicity
 _atom_site_fract_x
 _atom_site_fract_y
 _atom_site_fract_z
 _atom_site_occupancy
  Ag  Ag0  1  0.74745682  0.74745682  0.00000000  1.0
  Ag  Ag1  1  0.25254318  0.25254318  -0.00000000  1.0
  P  P2  1  0.64383142  0.35616858  0.58035355  1.0
  P  P3  1  0.35616858  -0.35616858  0.41964645  1.0
  S  S4  1  0.83283403  -0.83283403  0.94414530  1.0
  S  S5  1  1.16716597  -0.16716597  0.05585470  1.0
  S  S6  1  0.66825654  0.33174346  0.34862654  1.0
  S  S7  1  0.33174346  -0.33174346  0.65137346  1.0
  S  S8  1  0.71497066  0.71497066  0.50000000  1.0
  S  S9  1  1.28502934  0.28502934  0.50000000  1.0
