# generated using pymatgen
data_LiAs2H3O7
_symmetry_space_group_name_H-M   'P 1'
_cell_length_a   7.49008007
_cell_length_b   7.49008007
_cell_length_c   5.71726226
_cell_angle_alpha   70.22834817
_cell_angle_beta   109.77165183
_cell_angle_gamma   101.97574282
_symmetry_Int_Tables_number   1
_chemical_formula_structural   LiAs2H3O7
_chemical_formula_sum   'Li2 As4 H6 O14'
_cell_volume   282.47048998
_cell_formula_units_Z   2
loop_
 _symmetry_equiv_pos_site_id
 _symmetry_equiv_pos_as_xyz
  1  'x, y, z'
loop_
 _atom_site_type_symbol
 _atom_site_label
 _atom_site_symmetry_multiplicity
 _atom_site_fract_x
 _atom_site_fract_y
 _atom_site_fract_z
 _atom_site_occupancy
  Li  Li0  1  0.84786056  0.84786056  0.00000000  1.0
  Li  Li1  1  0.15213944  0.15213944  0.00000000  1.0
  As  As2  1  0.72946396  0.27053604  0.95658071  1.0
  As  As3  1  1.27053604  -0.27053604  0.04341929  1.0
  As  As4  1  0.65222983  0.65222983  0.50000000  1.0
  As  As5  1  0.34777017  0.34777017  0.50000000  1.0
  H  H6  1  1.71727044  -0.02318337  0.49290227  1.0
  H  H7  1  1.02318337  -0.71727044  0.49290227  1.0
  H  H8  1  0.97681663  0.71727044  0.50709773  1.0
  H  H9  1  0.28272956  0.02318337  0.50709773  1.0
  H  H10  1  0.69153429  0.30846571  0.33002500  1.0
  H  H11  1  1.30846571  -0.30846571  0.66997500  1.0
  O  O12  1  1.70370270  -0.14410093  0.62929437  1.0
  O  O13  1  1.14410093  -0.70370270  0.62929437  1.0
  O  O14  1  0.85589907  0.70370270  0.37070563  1.0
  O  O15  1  0.29629730  0.14410093  0.37070563  1.0
  O  O16  1  0.48065891  0.20925872  0.84609799  1.0
  O  O17  1  0.79074128  0.51934109  0.84609799  1.0
  O  O18  1  1.20925872  -0.51934109  0.15390201  1.0
  O  O19  1  1.51934109  -0.20925872  0.15390201  1.0
  O  O20  1  0.86852200  0.13147800  0.93334829  1.0
  O  O21  1  1.13147800  -0.13147800  0.06665171  1.0
  O  O22  1  0.77123733  0.22876267  0.29659129  1.0
  O  O23  1  1.22876267  -0.22876267  0.70340871  1.0
  O  O24  1  1.41905780  -0.41905780  0.58308998  1.0
  O  O25  1  0.58094220  0.41905780  0.41691002  1.0
