# generated using pymatgen
data_Rb3(FeSe2)2
_symmetry_space_group_name_H-M   'P 1'
_cell_length_a   7.79026204
_cell_length_b   11.27870817
_cell_length_c   12.77729373
_cell_angle_alpha   90.00000000
_cell_angle_beta   90.00000000
_cell_angle_gamma   90.00000000
_symmetry_Int_Tables_number   1
_chemical_formula_structural   Rb3(FeSe2)2
_chemical_formula_sum   'Rb12 Fe8 Se16'
_cell_volume   1122.66531242
_cell_formula_units_Z   4
loop_
 _symmetry_equiv_pos_site_id
 _symmetry_equiv_pos_as_xyz
  1  'x, y, z'
loop_
 _atom_site_type_symbol
 _atom_site_label
 _atom_site_symmetry_multiplicity
 _atom_site_fract_x
 _atom_site_fract_y
 _atom_site_fract_z
 _atom_site_occupancy
  Rb  Rb0  1  0.41985406  0.93168215  0.63549948  1.0
  Rb  Rb1  1  0.41985406  0.56831785  0.63549948  1.0
  Rb  Rb2  1  0.91985406  0.93168215  0.86450052  1.0
  Rb  Rb3  1  0.91985406  0.56831785  0.86450052  1.0
  Rb  Rb4  1  0.58014594  0.43168215  0.36450052  1.0
  Rb  Rb5  1  0.58014594  0.06831785  0.36450052  1.0
  Rb  Rb6  1  0.08014594  0.43168215  0.13549948  1.0
  Rb  Rb7  1  0.08014594  0.06831785  0.13549948  1.0
  Rb  Rb8  1  0.40705303  0.75000000  0.26482993  1.0
  Rb  Rb9  1  0.90705303  0.75000000  0.23517007  1.0
  Rb  Rb10  1  0.59294697  0.25000000  0.73517007  1.0
  Rb  Rb11  1  0.09294697  0.25000000  0.76482993  1.0
  Fe  Fe12  1  0.44592129  0.86606574  0.97233545  1.0
  Fe  Fe13  1  0.44592129  0.63393426  0.97233545  1.0
  Fe  Fe14  1  0.94592129  0.86606574  0.52766455  1.0
  Fe  Fe15  1  0.94592129  0.63393426  0.52766455  1.0
  Fe  Fe16  1  0.55407871  0.36606574  0.02766455  1.0
  Fe  Fe17  1  0.55407871  0.13393426  0.02766455  1.0
  Fe  Fe18  1  0.05407871  0.36606574  0.47233545  1.0
  Fe  Fe19  1  0.05407871  0.13393426  0.47233545  1.0
  Se  Se20  1  0.35604691  0.44654490  0.89565926  1.0
  Se  Se21  1  0.35604691  0.05345510  0.89565926  1.0
  Se  Se22  1  0.85604691  0.44654490  0.60434074  1.0
  Se  Se23  1  0.85604691  0.05345510  0.60434074  1.0
  Se  Se24  1  0.64395309  0.94654490  0.10434074  1.0
  Se  Se25  1  0.64395309  0.55345510  0.10434074  1.0
  Se  Se26  1  0.14395309  0.94654490  0.39565926  1.0
  Se  Se27  1  0.14395309  0.55345510  0.39565926  1.0
  Se  Se28  1  0.20058336  0.75000000  0.03296965  1.0
  Se  Se29  1  0.70058336  0.75000000  0.46703035  1.0
  Se  Se30  1  0.79941664  0.25000000  0.96703035  1.0
  Se  Se31  1  0.29941664  0.25000000  0.53296965  1.0
  Se  Se32  1  0.07493567  0.75000000  0.66288188  1.0
  Se  Se33  1  0.57493567  0.75000000  0.83711812  1.0
  Se  Se34  1  0.92506433  0.25000000  0.33711812  1.0
  Se  Se35  1  0.42506433  0.25000000  0.16288188  1.0
