# generated using pymatgen
data_YbP5
_symmetry_space_group_name_H-M   'P 1'
_cell_length_a   4.66965194
_cell_length_b   9.56230095
_cell_length_c   5.39204165
_cell_angle_alpha   90.00000000
_cell_angle_beta   105.82714056
_cell_angle_gamma   90.00000000
_symmetry_Int_Tables_number   1
_chemical_formula_structural   YbP5
_chemical_formula_sum   'Yb2 P10'
_cell_volume   231.64096453
_cell_formula_units_Z   2
loop_
 _symmetry_equiv_pos_site_id
 _symmetry_equiv_pos_as_xyz
  1  'x, y, z'
loop_
 _atom_site_type_symbol
 _atom_site_label
 _atom_site_symmetry_multiplicity
 _atom_site_fract_x
 _atom_site_fract_y
 _atom_site_fract_z
 _atom_site_occupancy
  Yb  Yb0  1  0.55436466  0.25000000  0.87769002  1.0
  Yb  Yb1  1  0.44563534  0.75000000  0.12230998  1.0
  P  P2  1  0.87128923  0.90612265  0.52276815  1.0
  P  P3  1  0.87128923  0.59387735  0.52276815  1.0
  P  P4  1  0.12871077  0.40612265  0.47723185  1.0
  P  P5  1  0.12871077  0.09387735  0.47723185  1.0
  P  P6  1  0.79413050  0.94535247  0.90398272  1.0
  P  P7  1  0.79413050  0.55464753  0.90398272  1.0
  P  P8  1  0.20586950  0.44535247  0.09601728  1.0
  P  P9  1  0.20586950  0.05464753  0.09601728  1.0
  P  P10  1  0.76610286  0.25000000  0.42420661  1.0
  P  P11  1  0.23389714  0.75000000  0.57579339  1.0
