# generated using pymatgen
data_TiC
_symmetry_space_group_name_H-M   'P 1'
_cell_length_a   6.12738084
_cell_length_b   6.12738084
_cell_length_c   6.12738084
_cell_angle_alpha   60.00000000
_cell_angle_beta   60.00000000
_cell_angle_gamma   60.00000000
_symmetry_Int_Tables_number   1
_chemical_formula_structural   TiC
_chemical_formula_sum   'Ti8 C8'
_cell_volume   162.67080838
_cell_formula_units_Z   8
loop_
 _symmetry_equiv_pos_site_id
 _symmetry_equiv_pos_as_xyz
  1  'x, y, z'
loop_
 _atom_site_type_symbol
 _atom_site_label
 _atom_site_symmetry_multiplicity
 _atom_site_fract_x
 _atom_site_fract_y
 _atom_site_fract_z
 _atom_site_occupancy
  Ti  Ti0  1  -0.12500267  0.37500089  0.37500089  1.0
  Ti  Ti1  1  0.37500089  -0.12500267  0.37500089  1.0
  Ti  Ti2  1  0.37500089  1.37500089  -0.12500267  1.0
  Ti  Ti3  1  0.37500089  1.37500089  0.37500089  1.0
  Ti  Ti4  1  0.37500267  0.87499911  -0.12500089  1.0
  Ti  Ti5  1  0.87499911  0.37500267  0.87499911  1.0
  Ti  Ti6  1  0.87499911  0.87499911  -0.62499733  1.0
  Ti  Ti7  1  0.87499911  0.87499911  0.87499911  1.0
  C  C8  1  1.12500000  0.62500000  0.62500000  1.0
  C  C9  1  0.62500000  1.12500000  -0.37500000  1.0
  C  C10  1  -0.37500000  0.62500000  1.12500000  1.0
  C  C11  1  -0.37500000  0.62500000  0.62500000  1.0
  C  C12  1  0.62500000  1.12500000  0.12500000  1.0
  C  C13  1  0.12500000  1.62500000  0.12500000  1.0
  C  C14  1  0.12500000  0.12500000  1.62500000  1.0
  C  C15  1  0.12500000  0.12500000  0.12500000  1.0
