# generated using pymatgen
data_CaCl2
_symmetry_space_group_name_H-M   'P 1'
_cell_length_a   5.43400533
_cell_length_b   5.43511638
_cell_length_c   12.92363328
_cell_angle_alpha   90.00000000
_cell_angle_beta   90.00000000
_cell_angle_gamma   90.00000000
_symmetry_Int_Tables_number   1
_chemical_formula_structural   CaCl2
_chemical_formula_sum   'Ca4 Cl8'
_cell_volume   381.69241871
_cell_formula_units_Z   4
loop_
 _symmetry_equiv_pos_site_id
 _symmetry_equiv_pos_as_xyz
  1  'x, y, z'
loop_
 _atom_site_type_symbol
 _atom_site_label
 _atom_site_symmetry_multiplicity
 _atom_site_fract_x
 _atom_site_fract_y
 _atom_site_fract_z
 _atom_site_occupancy
  Ca  Ca0  1  0.49994757  0.25000000  0.62496336  1.0
  Ca  Ca1  1  -0.00005243  0.25000000  0.87503664  1.0
  Ca  Ca2  1  0.50005243  0.75000000  0.37503664  1.0
  Ca  Ca3  1  1.00005243  0.75000000  0.12496336  1.0
  Cl  Cl4  1  1.00038693  0.25000000  1.08862990  1.0
  Cl  Cl5  1  0.50038693  0.25000000  0.41137010  1.0
  Cl  Cl6  1  -0.00038693  0.75000000  -0.08862990  1.0
  Cl  Cl7  1  0.49961307  0.75000000  0.58862990  1.0
  Cl  Cl8  1  0.49987530  0.25000000  0.83861469  1.0
  Cl  Cl9  1  -0.00012470  0.25000000  0.66138531  1.0
  Cl  Cl10  1  0.50012470  0.75000000  0.16138531  1.0
  Cl  Cl11  1  1.00012470  0.75000000  0.33861469  1.0
