# generated using pymatgen
data_Na2In
_symmetry_space_group_name_H-M   'P 1'
_cell_length_a   8.26634515
_cell_length_b   8.26634515
_cell_length_c   11.73344413
_cell_angle_alpha   90.00000000
_cell_angle_beta   90.00000000
_cell_angle_gamma   114.98789013
_symmetry_Int_Tables_number   1
_chemical_formula_structural   Na2In
_chemical_formula_sum   'Na16 In8'
_cell_volume   726.72664131
_cell_formula_units_Z   8
loop_
 _symmetry_equiv_pos_site_id
 _symmetry_equiv_pos_as_xyz
  1  'x, y, z'
loop_
 _atom_site_type_symbol
 _atom_site_label
 _atom_site_symmetry_multiplicity
 _atom_site_fract_x
 _atom_site_fract_y
 _atom_site_fract_z
 _atom_site_occupancy
  Na  Na0  1  0.10110186  0.34568795  0.04167362  1.0
  Na  Na1  1  -0.65431205  1.10110186  0.95832638  1.0
  Na  Na2  1  0.65431205  0.89889814  0.45832638  1.0
  Na  Na3  1  -0.10110186  1.65431205  0.54167362  1.0
  Na  Na4  1  -0.00481062  1.39617802  0.32995499  1.0
  Na  Na5  1  0.39617802  0.99518938  0.67004501  1.0
  Na  Na6  1  -0.39617802  1.00481062  0.17004501  1.0
  Na  Na7  1  0.00481062  0.60382198  0.82995499  1.0
  Na  Na8  1  -0.27565433  1.45146214  0.08246561  1.0
  Na  Na9  1  0.45146214  0.72434567  0.91753439  1.0
  Na  Na10  1  -0.45146214  1.27565433  0.41753439  1.0
  Na  Na11  1  0.27565433  0.54853786  0.58246561  1.0
  Na  Na12  1  0.43241690  0.56758310  0.25000000  1.0
  Na  Na13  1  -0.43241690  1.43241690  0.75000000  1.0
  Na  Na14  1  0.90663478  0.90663478  0.00000000  1.0
  Na  Na15  1  0.09336522  0.09336522  0.50000000  1.0
  In  In16  1  0.16810726  0.74086930  0.12131492  1.0
  In  In17  1  -0.25913070  1.16810726  0.87868508  1.0
  In  In18  1  0.25913070  0.83189274  0.37868508  1.0
  In  In19  1  -0.16810726  1.25913070  0.62131492  1.0
  In  In20  1  -0.12384374  1.77426910  0.27607712  1.0
  In  In21  1  0.77426910  0.87615626  0.72392288  1.0
  In  In22  1  -0.77426910  1.12384374  0.22392288  1.0
  In  In23  1  0.12384374  0.22573090  0.77607712  1.0
