# generated using pymatgen
data_Ca3SiBr2
_symmetry_space_group_name_H-M   'P 1'
_cell_length_a   7.74576556
_cell_length_b   7.74576556
_cell_length_c   7.74576556
_cell_angle_alpha   147.02003548
_cell_angle_beta   135.17207507
_cell_angle_gamma   56.76404623
_symmetry_Int_Tables_number   1
_chemical_formula_structural   Ca3SiBr2
_chemical_formula_sum   'Ca3 Si1 Br2'
_cell_volume   177.00402195
_cell_formula_units_Z   1
loop_
 _symmetry_equiv_pos_site_id
 _symmetry_equiv_pos_as_xyz
  1  'x, y, z'
loop_
 _atom_site_type_symbol
 _atom_site_label
 _atom_site_symmetry_multiplicity
 _atom_site_fract_x
 _atom_site_fract_y
 _atom_site_fract_z
 _atom_site_occupancy
  Ca  Ca0  1  0.00000000  0.00000000  0.00000000  1.0
  Ca  Ca1  1  0.63723708  0.63723708  1.00000000  1.0
  Ca  Ca2  1  0.36276292  0.36276292  0.00000000  1.0
  Si  Si3  1  0.50000000  0.00000000  0.50000000  1.0
  Br  Br4  1  0.81948126  0.31948126  0.50000000  1.0
  Br  Br5  1  0.18051874  0.68051874  0.50000000  1.0
