# generated using pymatgen
data_Rb(TeMo)3
_symmetry_space_group_name_H-M   'P 1'
_cell_length_a   10.13496565
_cell_length_b   10.13496565
_cell_length_c   4.61742353
_cell_angle_alpha   90.00000000
_cell_angle_beta   90.00000000
_cell_angle_gamma   120.00000000
_symmetry_Int_Tables_number   1
_chemical_formula_structural   Rb(TeMo)3
_chemical_formula_sum   'Rb2 Te6 Mo6'
_cell_volume   410.74747858
_cell_formula_units_Z   2
loop_
 _symmetry_equiv_pos_site_id
 _symmetry_equiv_pos_as_xyz
  1  'x, y, z'
loop_
 _atom_site_type_symbol
 _atom_site_label
 _atom_site_symmetry_multiplicity
 _atom_site_fract_x
 _atom_site_fract_y
 _atom_site_fract_z
 _atom_site_occupancy
  Rb  Rb0  1  0.33333333  0.66666667  0.25000000  1.0
  Rb  Rb1  1  0.66666667  0.33333333  0.75000000  1.0
  Te  Te2  1  0.34707845  1.05174526  0.25000000  1.0
  Te  Te3  1  0.70466681  0.65292155  0.25000000  1.0
  Te  Te4  1  -0.05174526  0.29533319  0.25000000  1.0
  Te  Te5  1  0.65292155  -0.05174526  0.75000000  1.0
  Te  Te6  1  0.29533319  0.34707845  0.75000000  1.0
  Te  Te7  1  1.05174526  0.70466681  0.75000000  1.0
  Mo  Mo8  1  1.02438902  0.86266822  0.25000000  1.0
  Mo  Mo9  1  0.83827920  -0.02438902  0.25000000  1.0
  Mo  Mo10  1  0.13733178  0.16172080  0.25000000  1.0
  Mo  Mo11  1  -0.02438902  0.13733178  0.75000000  1.0
  Mo  Mo12  1  0.16172080  1.02438902  0.75000000  1.0
  Mo  Mo13  1  0.86266822  0.83827920  0.75000000  1.0
