# generated using pymatgen
data_TlPd2
_symmetry_space_group_name_H-M   'P 1'
_cell_length_a   5.86936424
_cell_length_b   4.25609788
_cell_length_c   8.57214985
_cell_angle_alpha   90.00000000
_cell_angle_beta   90.00000000
_cell_angle_gamma   90.00000000
_symmetry_Int_Tables_number   1
_chemical_formula_structural   TlPd2
_chemical_formula_sum   'Tl4 Pd8'
_cell_volume   214.13734958
_cell_formula_units_Z   4
loop_
 _symmetry_equiv_pos_site_id
 _symmetry_equiv_pos_as_xyz
  1  'x, y, z'
loop_
 _atom_site_type_symbol
 _atom_site_label
 _atom_site_symmetry_multiplicity
 _atom_site_fract_x
 _atom_site_fract_y
 _atom_site_fract_z
 _atom_site_occupancy
  Tl  Tl0  1  0.82763829  0.75000000  0.39939626  1.0
  Tl  Tl1  1  0.32763829  0.75000000  0.10060374  1.0
  Tl  Tl2  1  0.17236171  0.25000000  0.60060374  1.0
  Tl  Tl3  1  0.67236171  0.25000000  0.89939626  1.0
  Pd  Pd4  1  0.91839565  0.75000000  0.73336288  1.0
  Pd  Pd5  1  0.41839565  0.75000000  0.76663712  1.0
  Pd  Pd6  1  0.08160435  0.25000000  0.26663712  1.0
  Pd  Pd7  1  0.58160435  0.25000000  0.23336288  1.0
  Pd  Pd8  1  0.85234072  0.75000000  0.07389058  1.0
  Pd  Pd9  1  0.35234072  0.75000000  0.42610942  1.0
  Pd  Pd10  1  0.14765928  0.25000000  0.92610942  1.0
  Pd  Pd11  1  0.64765928  0.25000000  0.57389058  1.0
