# generated using pymatgen
data_HfSO
_symmetry_space_group_name_H-M   'P 1'
_cell_length_a   5.70178106
_cell_length_b   5.70178106
_cell_length_c   5.70178106
_cell_angle_alpha   90.00000000
_cell_angle_beta   90.00000000
_cell_angle_gamma   90.00000000
_symmetry_Int_Tables_number   1
_chemical_formula_structural   HfSO
_chemical_formula_sum   'Hf4 S4 O4'
_cell_volume   185.36665373
_cell_formula_units_Z   4
loop_
 _symmetry_equiv_pos_site_id
 _symmetry_equiv_pos_as_xyz
  1  'x, y, z'
loop_
 _atom_site_type_symbol
 _atom_site_label
 _atom_site_symmetry_multiplicity
 _atom_site_fract_x
 _atom_site_fract_y
 _atom_site_fract_z
 _atom_site_occupancy
  Hf  Hf0  1  0.42976343  0.92976343  0.57023657  1.0
  Hf  Hf1  1  0.92976343  0.57023657  0.42976343  1.0
  Hf  Hf2  1  0.57023657  0.42976343  0.92976343  1.0
  Hf  Hf3  1  0.07023657  0.07023657  0.07023657  1.0
  S  S4  1  0.16891064  0.66891064  0.83108936  1.0
  S  S5  1  0.66891064  0.83108936  0.16891064  1.0
  S  S6  1  0.83108936  0.16891064  0.66891064  1.0
  S  S7  1  0.33108936  0.33108936  0.33108936  1.0
  O  O8  1  0.84498963  0.34498963  0.15501037  1.0
  O  O9  1  0.34498963  0.15501037  0.84498963  1.0
  O  O10  1  0.15501037  0.84498963  0.34498963  1.0
  O  O11  1  0.65501037  0.65501037  0.65501037  1.0
