# generated using pymatgen
data_LaFeGe3
_symmetry_space_group_name_H-M   'P 1'
_cell_length_a   5.88361636
_cell_length_b   5.88361636
_cell_length_c   5.88361636
_cell_angle_alpha   136.45805103
_cell_angle_beta   136.45805103
_cell_angle_gamma   63.27297057
_symmetry_Int_Tables_number   1
_chemical_formula_structural   LaFeGe3
_chemical_formula_sum   'La1 Fe1 Ge3'
_cell_volume   95.41810625
_cell_formula_units_Z   1
loop_
 _symmetry_equiv_pos_site_id
 _symmetry_equiv_pos_as_xyz
  1  'x, y, z'
loop_
 _atom_site_type_symbol
 _atom_site_label
 _atom_site_symmetry_multiplicity
 _atom_site_fract_x
 _atom_site_fract_y
 _atom_site_fract_z
 _atom_site_occupancy
  La  La0  1  0.56514161  0.56514161  1.00000000  1.0
  Fe  Fe1  1  0.23143345  0.23143345  0.00000000  1.0
  Ge  Ge2  1  0.82158682  0.32158682  0.50000000  1.0
  Ge  Ge3  1  0.32158682  0.82158682  0.50000000  1.0
  Ge  Ge4  1  0.00405131  0.00405131  0.00000000  1.0
