# generated using pymatgen
data_NiH12(C2O5)2
_symmetry_space_group_name_H-M   'P 1'
_cell_length_a   8.90042966
_cell_length_b   11.02623814
_cell_length_c   5.11235430
_cell_angle_alpha   90.00000000
_cell_angle_beta   95.83897116
_cell_angle_gamma   90.00000000
_symmetry_Int_Tables_number   1
_chemical_formula_structural   NiH12(C2O5)2
_chemical_formula_sum   'Ni2 H24 C8 O20'
_cell_volume   499.11450012
_cell_formula_units_Z   2
loop_
 _symmetry_equiv_pos_site_id
 _symmetry_equiv_pos_as_xyz
  1  'x, y, z'
loop_
 _atom_site_type_symbol
 _atom_site_label
 _atom_site_symmetry_multiplicity
 _atom_site_fract_x
 _atom_site_fract_y
 _atom_site_fract_z
 _atom_site_occupancy
  Ni  Ni0  1  0.00000000  0.00000000  0.50000000  1.0
  Ni  Ni1  1  0.00000000  0.50000000  0.00000000  1.0
  H  H2  1  0.82703187  0.16402058  0.60318590  1.0
  H  H3  1  0.17296813  0.66402058  0.89681410  1.0
  H  H4  1  0.17296813  0.83597942  0.39681410  1.0
  H  H5  1  0.82703187  0.33597942  0.10318590  1.0
  H  H6  1  0.98531502  0.23319694  0.65281609  1.0
  H  H7  1  0.01468498  0.73319694  0.84718391  1.0
  H  H8  1  0.01468498  0.76680306  0.34718391  1.0
  H  H9  1  0.98531502  0.26680306  0.15281609  1.0
  H  H10  1  0.21610774  0.13397368  0.33253812  1.0
  H  H11  1  0.78389226  0.63397368  0.16746188  1.0
  H  H12  1  0.78389226  0.86602632  0.66746188  1.0
  H  H13  1  0.21610774  0.36602632  0.83253812  1.0
  H  H14  1  0.13434677  0.06807954  0.08170331  1.0
  H  H15  1  0.86565323  0.56807954  0.41829669  1.0
  H  H16  1  0.86565323  0.93192046  0.91829669  1.0
  H  H17  1  0.13434677  0.43192046  0.58170331  1.0
  H  H18  1  0.48171488  0.16396204  0.45057839  1.0
  H  H19  1  0.51828512  0.66396204  0.04942161  1.0
  H  H20  1  0.51828512  0.83603796  0.54942161  1.0
  H  H21  1  0.48171488  0.33603796  0.95057839  1.0
  H  H22  1  0.37313409  0.23055656  0.63134053  1.0
  H  H23  1  0.62686591  0.73055656  0.86865947  1.0
  H  H24  1  0.62686591  0.76944344  0.36865947  1.0
  H  H25  1  0.37313409  0.26944344  0.13134053  1.0
  C  C26  1  0.31332222  0.95203494  0.74955511  1.0
  C  C27  1  0.68667778  0.45203494  0.75044489  1.0
  C  C28  1  0.68667778  0.04796506  0.25044489  1.0
  C  C29  1  0.31332222  0.54796506  0.24955511  1.0
  C  C30  1  0.44252796  0.98694886  0.93116844  1.0
  C  C31  1  0.55747204  0.48694886  0.56883156  1.0
  C  C32  1  0.55747204  0.01305114  0.06883156  1.0
  C  C33  1  0.44252796  0.51305114  0.43116844  1.0
  O  O34  1  0.33682619  0.87624710  0.57230946  1.0
  O  O35  1  0.66317381  0.37624710  0.92769054  1.0
  O  O36  1  0.66317381  0.12375290  0.42769054  1.0
  O  O37  1  0.33682619  0.62375290  0.07230946  1.0
  O  O38  1  0.18634809  1.00136526  0.78028741  1.0
  O  O39  1  0.81365191  0.50136526  0.71971259  1.0
  O  O40  1  0.81365191  -0.00136526  0.21971259  1.0
  O  O41  1  0.18634809  0.49863474  0.28028741  1.0
  O  O42  1  0.93302006  0.15727724  0.68795971  1.0
  O  O43  1  0.06697994  0.65727724  0.81204029  1.0
  O  O44  1  0.06697994  0.84272276  0.31204029  1.0
  O  O45  1  0.93302006  0.34272276  0.18795971  1.0
  O  O46  1  0.11405061  0.10872384  0.24771602  1.0
  O  O47  1  0.88594939  0.60872384  0.25228398  1.0
  O  O48  1  0.88594939  0.89127616  0.75228398  1.0
  O  O49  1  0.11405061  0.39127616  0.74771602  1.0
  O  O50  1  0.37753540  0.19760624  0.45218689  1.0
  O  O51  1  0.62246460  0.69760624  0.04781311  1.0
  O  O52  1  0.62246460  0.80239376  0.54781311  1.0
  O  O53  1  0.37753540  0.30239376  0.95218689  1.0
