# generated using pymatgen
data_H4C2NO2
_symmetry_space_group_name_H-M   'P 1'
_cell_length_a   4.06618974
_cell_length_b   7.28011345
_cell_length_c   12.06085733
_cell_angle_alpha   90.00000000
_cell_angle_beta   92.22141029
_cell_angle_gamma   90.00000000
_symmetry_Int_Tables_number   1
_chemical_formula_structural   H4C2NO2
_chemical_formula_sum   'H16 C8 N4 O8'
_cell_volume   356.76108218
_cell_formula_units_Z   4
loop_
 _symmetry_equiv_pos_site_id
 _symmetry_equiv_pos_as_xyz
  1  'x, y, z'
loop_
 _atom_site_type_symbol
 _atom_site_label
 _atom_site_symmetry_multiplicity
 _atom_site_fract_x
 _atom_site_fract_y
 _atom_site_fract_z
 _atom_site_occupancy
  H  H0  1  0.87454250  0.98270725  0.72596548  1.0
  H  H1  1  0.87454250  0.51729275  0.22596548  1.0
  H  H2  1  0.12545750  0.48270725  0.77403452  1.0
  H  H3  1  0.12545750  0.01729275  0.27403452  1.0
  H  H4  1  0.84537483  0.32972761  0.82686567  1.0
  H  H5  1  0.84537483  0.17027239  0.32686567  1.0
  H  H6  1  0.15462517  0.82972761  0.67313433  1.0
  H  H7  1  0.15462517  0.67027239  0.17313433  1.0
  H  H8  1  0.86045049  0.55170432  0.87312533  1.0
  H  H9  1  0.86045049  0.94829568  0.37312533  1.0
  H  H10  1  0.13954951  0.05170432  0.62687467  1.0
  H  H11  1  0.13954951  0.44829568  0.12687467  1.0
  H  H12  1  0.83666030  0.90146948  0.59178340  1.0
  H  H13  1  0.83666030  0.59853052  0.09178340  1.0
  H  H14  1  0.16333970  0.40146948  0.90821660  1.0
  H  H15  1  0.16333970  0.09853052  0.40821660  1.0
  C  C16  1  0.57452078  0.86593647  0.98343620  1.0
  C  C17  1  0.57452078  0.63406353  0.48343620  1.0
  C  C18  1  0.42547922  0.36593647  0.51656380  1.0
  C  C19  1  0.42547922  0.13406353  0.01656380  1.0
  C  C20  1  0.42658027  0.54106814  0.57817066  1.0
  C  C21  1  0.42658027  0.95893186  0.07817066  1.0
  C  C22  1  0.57341973  0.04106814  0.92182934  1.0
  C  C23  1  0.57341973  0.45893186  0.42182934  1.0
  N  N24  1  1.00188284  0.94201400  0.65595273  1.0
  N  N25  1  1.00188284  0.55798600  0.15595273  1.0
  N  N26  1  -0.00188284  0.44201400  0.84404727  1.0
  N  N27  1  -0.00188284  0.05798600  0.34404727  1.0
  O  O28  1  0.66396931  0.70288725  0.96694726  1.0
  O  O29  1  0.66396931  0.79711275  0.46694726  1.0
  O  O30  1  0.33603069  0.20288725  0.53305274  1.0
  O  O31  1  0.33603069  0.29711275  0.03305274  1.0
  O  O32  1  0.33888895  0.59578588  0.67191325  1.0
  O  O33  1  0.33888895  0.90421412  0.17191325  1.0
  O  O34  1  0.66111105  0.09578588  0.82808675  1.0
  O  O35  1  0.66111105  0.40421412  0.32808675  1.0
