# generated using pymatgen
data_CaPO4
_symmetry_space_group_name_H-M   'P 1'
_cell_length_a   7.09827988
_cell_length_b   6.85022460
_cell_length_c   7.04404503
_cell_angle_alpha   99.11397238
_cell_angle_beta   100.86221824
_cell_angle_gamma   91.87051292
_symmetry_Int_Tables_number   1
_chemical_formula_structural   CaPO4
_chemical_formula_sum   'Ca4 P4 O16'
_cell_volume   331.44146701
_cell_formula_units_Z   4
loop_
 _symmetry_equiv_pos_site_id
 _symmetry_equiv_pos_as_xyz
  1  'x, y, z'
loop_
 _atom_site_type_symbol
 _atom_site_label
 _atom_site_symmetry_multiplicity
 _atom_site_fract_x
 _atom_site_fract_y
 _atom_site_fract_z
 _atom_site_occupancy
  Ca  Ca0  1  0.81102354  0.93139834  -0.73008150  1.0
  Ca  Ca1  1  0.18897646  0.06860166  -0.26991850  1.0
  Ca  Ca2  1  0.32503948  0.65256612  -0.65236702  1.0
  Ca  Ca3  1  0.67496052  0.34743388  -0.34763298  1.0
  O  O4  1  0.85372993  0.98577308  -0.37373222  1.0
  O  O5  1  0.14627007  0.01422692  -0.62626778  1.0
  O  O6  1  0.63124597  0.67756792  -0.39660547  1.0
  O  O7  1  0.36875403  0.32243208  -0.60339453  1.0
  O  O8  1  0.63098534  0.60032594  -0.76128601  1.0
  O  O9  1  0.36901466  0.39967406  -0.23871399  1.0
  O  O10  1  0.76002553  0.88571974  -0.06438590  1.0
  O  O11  1  0.23997447  0.11428026  -0.93561410  1.0
  O  O12  1  0.75967889  0.36684929  -1.00528361  1.0
  O  O13  1  0.24032111  0.63315071  0.00528361  1.0
  O  O14  1  0.98440560  0.59153648  -0.73002704  1.0
  O  O15  1  0.01559440  0.40846352  -0.26997296  1.0
  O  O16  1  0.47828537  0.97421184  -0.68850616  1.0
  O  O17  1  0.52171463  0.02578816  -0.31149384  1.0
  O  O18  1  0.79481069  0.29208295  -0.65985429  1.0
  O  O19  1  0.20518931  0.70791705  -0.34014571  1.0
  P  P20  1  0.69729541  0.89062731  -0.28371428  1.0
  P  P21  1  0.30270459  0.10937269  -0.71628572  1.0
  P  P22  1  0.79634909  0.45652354  -0.78587199  1.0
  P  P23  1  0.20365091  0.54347646  -0.21412801  1.0
