# generated using pymatgen
data_Cu5Bi2(B2O7)2
_symmetry_space_group_name_H-M   'P 1'
_cell_length_a   9.41736356
_cell_length_b   3.65013519
_cell_length_c   10.28140284
_cell_angle_alpha   80.83148862
_cell_angle_beta   66.56998440
_cell_angle_gamma   81.41056050
_symmetry_Int_Tables_number   1
_chemical_formula_structural   Cu5Bi2(B2O7)2
_chemical_formula_sum   'Cu5 Bi2 B4 O14'
_cell_volume   318.68998861
_cell_formula_units_Z   1
loop_
 _symmetry_equiv_pos_site_id
 _symmetry_equiv_pos_as_xyz
  1  'x, y, z'
loop_
 _atom_site_type_symbol
 _atom_site_label
 _atom_site_symmetry_multiplicity
 _atom_site_fract_x
 _atom_site_fract_y
 _atom_site_fract_z
 _atom_site_occupancy
  Cu  Cu0  1  -0.19549419  -0.04505219  -0.83675156  1.0
  Cu  Cu1  1  -0.19548870  -0.54504923  -0.33675217  1.0
  Cu  Cu2  1  -0.01337803  0.02124115  -0.18313011  1.0
  Cu  Cu3  1  -0.37760254  -0.11132642  -0.49037360  1.0
  Cu  Cu4  1  -0.69549095  -0.04505909  -0.33675327  1.0
  O  O5  1  -0.46878556  -0.34866108  -0.04021593  1.0
  O  O6  1  -0.92220324  -0.74149329  -0.63329268  1.0
  O  O7  1  -0.53999429  -0.70627475  -0.45377905  1.0
  O  O8  1  -0.85099467  -0.38383616  -0.21971890  1.0
  O  O9  1  0.00373978  0.02025020  -0.00082477  1.0
  O  O10  1  -0.39472125  -0.11034716  -0.67267498  1.0
  O  O11  1  -0.18169711  -0.43832727  -0.52704977  1.0
  O  O12  1  -0.01761416  -0.90044489  -0.37785368  1.0
  O  O13  1  -0.37336573  -0.18966293  -0.29565212  1.0
  O  O14  1  -0.20928249  -0.65177876  -0.14645445  1.0
  O  O15  1  -0.32614374  -0.62130444  -0.89613056  1.0
  O  O16  1  -0.64366114  -0.07677945  -0.15298587  1.0
  O  O17  1  -0.06484610  -0.46881130  -0.77737330  1.0
  O  O18  1  -0.74732185  -0.01334273  -0.52052327  1.0
  B  B19  1  -0.49419963  -0.20292178  -0.16467273  1.0
  B  B20  1  -0.33262678  -0.54180872  -0.02777653  1.0
  B  B21  1  -0.05835958  -0.54831751  -0.64572875  1.0
  B  B22  1  -0.89678455  -0.88720649  -0.50883570  1.0
  Bi  Bi23  1  -0.84266914  -0.53275247  -0.00927343  1.0
  Bi  Bi24  1  -0.54831436  -0.55733323  -0.66422281  1.0
