# generated using pymatgen
data_SmSI
_symmetry_space_group_name_H-M   'P 1'
_cell_length_a   7.13927418
_cell_length_b   13.84227643
_cell_length_c   7.39110438
_cell_angle_alpha   90.00000000
_cell_angle_beta   90.00000000
_cell_angle_gamma   90.00000000
_symmetry_Int_Tables_number   1
_chemical_formula_structural   SmSI
_chemical_formula_sum   'Sm8 S8 I8'
_cell_volume   730.41707097
_cell_formula_units_Z   8
loop_
 _symmetry_equiv_pos_site_id
 _symmetry_equiv_pos_as_xyz
  1  'x, y, z'
loop_
 _atom_site_type_symbol
 _atom_site_label
 _atom_site_symmetry_multiplicity
 _atom_site_fract_x
 _atom_site_fract_y
 _atom_site_fract_z
 _atom_site_occupancy
  Sm  Sm0  1  0.24231263  0.07667947  0.47162026  1.0
  Sm  Sm1  1  0.24231263  0.42332053  0.97162026  1.0
  Sm  Sm2  1  0.74231263  0.07667947  0.02837974  1.0
  Sm  Sm3  1  0.74231263  0.42332053  0.52837974  1.0
  Sm  Sm4  1  0.75768737  0.57667947  0.02837974  1.0
  Sm  Sm5  1  0.75768737  0.92332053  0.52837974  1.0
  Sm  Sm6  1  0.25768737  0.57667947  0.47162026  1.0
  Sm  Sm7  1  0.25768737  0.92332053  0.97162026  1.0
  S  S8  1  0.50081322  0.47143298  0.24150087  1.0
  S  S9  1  0.50081322  0.02856702  0.74150087  1.0
  S  S10  1  1.00081322  0.47143298  0.25849913  1.0
  S  S11  1  1.00081322  0.02856702  0.75849913  1.0
  S  S12  1  0.49918678  0.97143298  0.25849913  1.0
  S  S13  1  0.49918678  0.52856702  0.75849913  1.0
  S  S14  1  -0.00081322  0.97143298  0.24150087  1.0
  S  S15  1  -0.00081322  0.52856702  0.74150087  1.0
  I  I16  1  0.33511451  0.20074119  0.10557025  1.0
  I  I17  1  0.33511451  0.29925881  0.60557025  1.0
  I  I18  1  0.83511451  0.20074119  0.39442975  1.0
  I  I19  1  0.83511451  0.29925881  0.89442975  1.0
  I  I20  1  0.66488549  0.70074119  0.39442975  1.0
  I  I21  1  0.66488549  0.79925881  0.89442975  1.0
  I  I22  1  0.16488549  0.70074119  0.10557025  1.0
  I  I23  1  0.16488549  0.79925881  0.60557025  1.0
