# generated using pymatgen
data_Si3Ru4
_symmetry_space_group_name_H-M   'P 1'
_cell_length_a   5.22044932
_cell_length_b   4.02664018
_cell_length_c   17.28277941
_cell_angle_alpha   90.00000000
_cell_angle_beta   90.00000000
_cell_angle_gamma   90.00000000
_symmetry_Int_Tables_number   1
_chemical_formula_structural   Si3Ru4
_chemical_formula_sum   'Si12 Ru16'
_cell_volume   363.29907650
_cell_formula_units_Z   4
loop_
 _symmetry_equiv_pos_site_id
 _symmetry_equiv_pos_as_xyz
  1  'x, y, z'
loop_
 _atom_site_type_symbol
 _atom_site_label
 _atom_site_symmetry_multiplicity
 _atom_site_fract_x
 _atom_site_fract_y
 _atom_site_fract_z
 _atom_site_occupancy
  Si  Si0  1  0.99772912  0.75000000  0.60357040  1.0
  Si  Si1  1  0.49772912  0.75000000  0.89642960  1.0
  Si  Si2  1  0.00227088  0.25000000  0.39642960  1.0
  Si  Si3  1  0.50227088  0.25000000  0.10357040  1.0
  Si  Si4  1  0.85056676  0.75000000  0.03395901  1.0
  Si  Si5  1  0.35056676  0.75000000  0.46604099  1.0
  Si  Si6  1  0.14943324  0.25000000  0.96604099  1.0
  Si  Si7  1  0.64943324  0.25000000  0.53395901  1.0
  Si  Si8  1  0.61958359  0.75000000  0.30891810  1.0
  Si  Si9  1  0.11958359  0.75000000  0.19108190  1.0
  Si  Si10  1  0.38041641  0.25000000  0.69108190  1.0
  Si  Si11  1  0.88041641  0.25000000  0.80891810  1.0
  Ru  Ru12  1  0.82583347  0.75000000  0.47118584  1.0
  Ru  Ru13  1  0.32583347  0.75000000  0.02881416  1.0
  Ru  Ru14  1  0.17416653  0.25000000  0.52881416  1.0
  Ru  Ru15  1  0.67416653  0.25000000  0.97118584  1.0
  Ru  Ru16  1  0.65774352  0.75000000  0.16357344  1.0
  Ru  Ru17  1  0.15774352  0.75000000  0.33642656  1.0
  Ru  Ru18  1  0.34225648  0.25000000  0.83642656  1.0
  Ru  Ru19  1  0.84225648  0.25000000  0.66357344  1.0
  Ru  Ru20  1  0.65504139  0.75000000  0.76419254  1.0
  Ru  Ru21  1  0.15504139  0.75000000  0.73580746  1.0
  Ru  Ru22  1  0.34495861  0.25000000  0.23580746  1.0
  Ru  Ru23  1  0.84495861  0.25000000  0.26419254  1.0
  Ru  Ru24  1  0.49035168  0.75000000  0.60717075  1.0
  Ru  Ru25  1  0.99035168  0.75000000  0.89282925  1.0
  Ru  Ru26  1  0.50964832  0.25000000  0.39282925  1.0
  Ru  Ru27  1  0.00964832  0.25000000  0.10717075  1.0
