# generated using pymatgen
data_SrCaSi
_symmetry_space_group_name_H-M   'P 1'
_cell_length_a   8.09594470
_cell_length_b   4.91887652
_cell_length_c   9.14213222
_cell_angle_alpha   90.00000000
_cell_angle_beta   90.00000000
_cell_angle_gamma   90.00000000
_symmetry_Int_Tables_number   1
_chemical_formula_structural   SrCaSi
_chemical_formula_sum   'Sr4 Ca4 Si4'
_cell_volume   364.06669502
_cell_formula_units_Z   4
loop_
 _symmetry_equiv_pos_site_id
 _symmetry_equiv_pos_as_xyz
  1  'x, y, z'
loop_
 _atom_site_type_symbol
 _atom_site_label
 _atom_site_symmetry_multiplicity
 _atom_site_fract_x
 _atom_site_fract_y
 _atom_site_fract_z
 _atom_site_occupancy
  Sr  Sr0  1  0.97792854  0.75000000  0.67869453  1.0
  Sr  Sr1  1  0.47792854  0.75000000  0.82130547  1.0
  Sr  Sr2  1  0.02207146  0.25000000  0.32130547  1.0
  Sr  Sr3  1  0.52207146  0.25000000  0.17869453  1.0
  Ca  Ca4  1  0.85223678  0.75000000  0.07338049  1.0
  Ca  Ca5  1  0.35223678  0.75000000  0.42661951  1.0
  Ca  Ca6  1  0.14776322  0.25000000  0.92661951  1.0
  Ca  Ca7  1  0.64776322  0.25000000  0.57338049  1.0
  Si  Si8  1  0.73277820  0.75000000  0.39337268  1.0
  Si  Si9  1  0.23277820  0.75000000  0.10662732  1.0
  Si  Si10  1  0.26722180  0.25000000  0.60662732  1.0
  Si  Si11  1  0.76722180  0.25000000  0.89337268  1.0
