# generated using pymatgen
data_Gd3NbS3O4
_symmetry_space_group_name_H-M   'P 1'
_cell_length_a   6.68252712
_cell_length_b   14.31672435
_cell_length_c   7.63364017
_cell_angle_alpha   90.00000000
_cell_angle_beta   90.00000000
_cell_angle_gamma   90.00000000
_symmetry_Int_Tables_number   1
_chemical_formula_structural   Gd3NbS3O4
_chemical_formula_sum   'Gd12 Nb4 S12 O16'
_cell_volume   730.32485035
_cell_formula_units_Z   4
loop_
 _symmetry_equiv_pos_site_id
 _symmetry_equiv_pos_as_xyz
  1  'x, y, z'
loop_
 _atom_site_type_symbol
 _atom_site_label
 _atom_site_symmetry_multiplicity
 _atom_site_fract_x
 _atom_site_fract_y
 _atom_site_fract_z
 _atom_site_occupancy
  Gd  Gd0  1  0.71736924  0.84403925  0.01079857  1.0
  Gd  Gd1  1  0.21736924  0.65596075  0.01079857  1.0
  Gd  Gd2  1  0.28263076  0.15596075  0.51079857  1.0
  Gd  Gd3  1  0.78263076  0.34403925  0.51079857  1.0
  Gd  Gd4  1  0.72462011  0.08180524  0.25474725  1.0
  Gd  Gd5  1  0.22462011  0.41819476  0.25474725  1.0
  Gd  Gd6  1  0.27537989  0.91819476  0.75474725  1.0
  Gd  Gd7  1  0.77537989  0.58180524  0.75474725  1.0
  Gd  Gd8  1  0.72765262  0.83398055  0.50003265  1.0
  Gd  Gd9  1  0.22765262  0.66601945  0.50003265  1.0
  Gd  Gd10  1  0.27234738  0.16601945  0.00003265  1.0
  Gd  Gd11  1  0.77234738  0.33398055  0.00003265  1.0
  Nb  Nb12  1  0.82037160  0.57240660  0.26770939  1.0
  Nb  Nb13  1  0.32037160  0.92759340  0.26770939  1.0
  Nb  Nb14  1  0.17962840  0.42759340  0.76770939  1.0
  Nb  Nb15  1  0.67962840  0.07240660  0.76770939  1.0
  S  S16  1  0.49796083  0.27323311  0.26324159  1.0
  S  S17  1  0.99796083  0.22676689  0.26324159  1.0
  S  S18  1  0.50203917  0.72676689  0.76324159  1.0
  S  S19  1  0.00203917  0.77323311  0.76324159  1.0
  S  S20  1  0.52784989  0.50699157  0.47776056  1.0
  S  S21  1  0.02784989  0.99300843  0.47776056  1.0
  S  S22  1  0.47215011  0.49300843  0.97776056  1.0
  S  S23  1  0.97215011  0.00699157  0.97776056  1.0
  S  S24  1  0.54791407  0.70222752  0.24661404  1.0
  S  S25  1  0.04791407  0.79777248  0.24661404  1.0
  S  S26  1  0.45208593  0.29777248  0.74661404  1.0
  S  S27  1  0.95208593  0.20222752  0.74661404  1.0
  O  O28  1  0.63555730  0.92737500  0.26538767  1.0
  O  O29  1  0.13555730  0.57262500  0.26538767  1.0
  O  O30  1  0.36444270  0.07262500  0.76538767  1.0
  O  O31  1  0.86444270  0.42737500  0.76538767  1.0
  O  O32  1  0.64276430  0.93797438  0.74868259  1.0
  O  O33  1  0.14276430  0.56202562  0.74868259  1.0
  O  O34  1  0.35723570  0.06202562  0.24868259  1.0
  O  O35  1  0.85723570  0.43797438  0.24868259  1.0
  O  O36  1  0.87606830  0.61325103  0.03406425  1.0
  O  O37  1  0.37606830  0.88674897  0.03406425  1.0
  O  O38  1  0.12393170  0.38674897  0.53406425  1.0
  O  O39  1  0.62393170  0.11325103  0.53406425  1.0
  O  O40  1  0.88323279  0.63357554  0.48356143  1.0
  O  O41  1  0.38323279  0.86642446  0.48356143  1.0
  O  O42  1  0.11676721  0.36642446  0.98356143  1.0
  O  O43  1  0.61676721  0.13357554  0.98356143  1.0
