# generated using pymatgen
data_ZnCu2SnS4
_symmetry_space_group_name_H-M   'P 1'
_cell_length_a   7.69392672
_cell_length_b   6.68685227
_cell_length_c   6.36498847
_cell_angle_alpha   90.00000000
_cell_angle_beta   90.00000000
_cell_angle_gamma   90.00000000
_symmetry_Int_Tables_number   1
_chemical_formula_structural   ZnCu2SnS4
_chemical_formula_sum   'Zn2 Cu4 Sn2 S8'
_cell_volume   327.46689041
_cell_formula_units_Z   2
loop_
 _symmetry_equiv_pos_site_id
 _symmetry_equiv_pos_as_xyz
  1  'x, y, z'
loop_
 _atom_site_type_symbol
 _atom_site_label
 _atom_site_symmetry_multiplicity
 _atom_site_fract_x
 _atom_site_fract_y
 _atom_site_fract_z
 _atom_site_occupancy
  Zn  Zn0  1  0.50000000  0.83426665  0.50121565  1.0
  Zn  Zn1  1  -0.00000000  0.16573335  0.00121565  1.0
  Cu  Cu2  1  0.74924424  0.33150171  0.49726906  1.0
  Cu  Cu3  1  0.25075576  0.33150171  0.49726906  1.0
  Cu  Cu4  1  0.75075576  0.66849829  -0.00273094  1.0
  Cu  Cu5  1  0.24924424  0.66849829  -0.00273094  1.0
  Sn  Sn6  1  0.50000000  0.16362438  0.00080061  1.0
  Sn  Sn7  1  -0.00000000  0.83637562  0.50080061  1.0
  S  S8  1  0.75725511  0.34550098  0.13425781  1.0
  S  S9  1  0.24274489  0.34550098  0.13425781  1.0
  S  S10  1  0.74274489  0.65449902  0.63425781  1.0
  S  S11  1  0.25725511  0.65449902  0.63425781  1.0
  S  S12  1  0.50000000  0.17198711  0.61143454  1.0
  S  S13  1  0.00000000  0.82801289  0.11143454  1.0
  S  S14  1  0.50000000  0.81575294  0.12859547  1.0
  S  S15  1  0.00000000  0.18424706  0.62859547  1.0
