# generated using pymatgen
data_ZnO
_symmetry_space_group_name_H-M   'P 1'
_cell_length_a   3.26753033
_cell_length_b   3.26753033
_cell_length_c   21.29244838
_cell_angle_alpha   90.00000000
_cell_angle_beta   90.00000000
_cell_angle_gamma   120.00000000
_symmetry_Int_Tables_number   1
_chemical_formula_structural   ZnO
_chemical_formula_sum   'Zn8 O8'
_cell_volume   196.87722917
_cell_formula_units_Z   8
loop_
 _symmetry_equiv_pos_site_id
 _symmetry_equiv_pos_as_xyz
  1  'x, y, z'
loop_
 _atom_site_type_symbol
 _atom_site_label
 _atom_site_symmetry_multiplicity
 _atom_site_fract_x
 _atom_site_fract_y
 _atom_site_fract_z
 _atom_site_occupancy
  Zn  Zn0  1  0.00000000  0.00000000  0.50003854  1.0
  Zn  Zn1  1  0.00000000  0.00000000  0.00003854  1.0
  Zn  Zn2  1  0.66666667  0.33333333  0.62509300  1.0
  Zn  Zn3  1  0.33333333  0.66666667  0.12509300  1.0
  Zn  Zn4  1  0.66666667  0.33333333  0.87495875  1.0
  Zn  Zn5  1  0.33333333  0.66666667  0.37495875  1.0
  Zn  Zn6  1  0.66666667  0.33333333  0.25013309  1.0
  Zn  Zn7  1  0.33333333  0.66666667  0.75013309  1.0
  O  O8  1  0.00000000  0.00000000  0.59404592  1.0
  O  O9  1  0.00000000  0.00000000  0.09404592  1.0
  O  O10  1  0.66666667  0.33333333  0.71912011  1.0
  O  O11  1  0.33333333  0.66666667  0.21912011  1.0
  O  O12  1  0.66666667  0.33333333  0.96896465  1.0
  O  O13  1  0.33333333  0.66666667  0.46896465  1.0
  O  O14  1  0.66666667  0.33333333  0.34394594  1.0
  O  O15  1  0.33333333  0.66666667  0.84394594  1.0
