# generated using pymatgen
data_RbAsF6
_symmetry_space_group_name_H-M   'P 1'
_cell_length_a   5.21455870
_cell_length_b   5.21455870
_cell_length_c   5.21455870
_cell_angle_alpha   97.40334294
_cell_angle_beta   97.40334294
_cell_angle_gamma   97.40334294
_symmetry_Int_Tables_number   1
_chemical_formula_structural   RbAsF6
_chemical_formula_sum   'Rb1 As1 F6'
_cell_volume   137.90434719
_cell_formula_units_Z   1
loop_
 _symmetry_equiv_pos_site_id
 _symmetry_equiv_pos_as_xyz
  1  'x, y, z'
loop_
 _atom_site_type_symbol
 _atom_site_label
 _atom_site_symmetry_multiplicity
 _atom_site_fract_x
 _atom_site_fract_y
 _atom_site_fract_z
 _atom_site_occupancy
  Rb  Rb0  1  0.50000000  0.50000000  0.50000000  1.0
  As  As1  1  -0.00000000  -0.00000000  0.00000000  1.0
  F  F2  1  0.77930516  0.73701090  0.07842340  1.0
  F  F3  1  1.26298910  -0.07842340  0.22069484  1.0
  F  F4  1  0.92157660  0.22069484  0.26298910  1.0
  F  F5  1  1.22069484  0.26298910  -0.07842340  1.0
  F  F6  1  0.73701090  1.07842340  -0.22069484  1.0
  F  F7  1  1.07842340  0.77930516  -0.26298910  1.0
