# generated using pymatgen
data_BaGd2CuO5
_symmetry_space_group_name_H-M   'P 1'
_cell_length_a   12.38030652
_cell_length_b   5.76140816
_cell_length_c   7.33081011
_cell_angle_alpha   90.00000000
_cell_angle_beta   90.00000000
_cell_angle_gamma   90.00000000
_symmetry_Int_Tables_number   1
_chemical_formula_structural   BaGd2CuO5
_chemical_formula_sum   'Ba4 Gd8 Cu4 O20'
_cell_volume   522.89201634
_cell_formula_units_Z   4
loop_
 _symmetry_equiv_pos_site_id
 _symmetry_equiv_pos_as_xyz
  1  'x, y, z'
loop_
 _atom_site_type_symbol
 _atom_site_label
 _atom_site_symmetry_multiplicity
 _atom_site_fract_x
 _atom_site_fract_y
 _atom_site_fract_z
 _atom_site_occupancy
  O  O0  1  0.22784539  -0.00566906  0.85144140  1.0
  O  O1  1  0.22784539  0.50566906  0.85144140  1.0
  O  O2  1  0.72784539  -0.00566906  0.64855860  1.0
  O  O3  1  0.72784539  0.50566906  0.64855860  1.0
  O  O4  1  0.77215461  0.49433094  0.14855860  1.0
  O  O5  1  0.77215461  1.00566906  0.14855860  1.0
  O  O6  1  0.27215461  0.49433094  0.35144140  1.0
  O  O7  1  0.27215461  1.00566906  0.35144140  1.0
  O  O8  1  0.40196174  0.75000000  0.07965891  1.0
  O  O9  1  0.90196174  0.75000000  0.42034109  1.0
  O  O10  1  0.59803826  0.25000000  0.92034109  1.0
  O  O11  1  0.09803826  0.25000000  0.57965891  1.0
  O  O12  1  0.43235688  0.99182834  0.66399479  1.0
  O  O13  1  0.43235688  0.50817166  0.66399479  1.0
  O  O14  1  0.93235688  0.99182834  0.83600521  1.0
  O  O15  1  0.93235688  0.50817166  0.83600521  1.0
  O  O16  1  0.56764312  0.49182834  0.33600521  1.0
  O  O17  1  0.56764312  0.00817166  0.33600521  1.0
  O  O18  1  0.06764312  0.49182834  0.16399479  1.0
  O  O19  1  0.06764312  0.00817166  0.16399479  1.0
  Ba  Ba20  1  0.09484458  0.75000000  0.56780864  1.0
  Ba  Ba21  1  0.59484458  0.75000000  0.93219136  1.0
  Ba  Ba22  1  0.90515542  0.25000000  0.43219136  1.0
  Ba  Ba23  1  0.40515542  0.25000000  0.06780864  1.0
  Cu  Cu24  1  0.33921755  0.75000000  0.78050425  1.0
  Cu  Cu25  1  0.83921755  0.75000000  0.71949575  1.0
  Cu  Cu26  1  0.66078245  0.25000000  0.21949575  1.0
  Cu  Cu27  1  0.16078245  0.25000000  0.28050425  1.0
  Gd  Gd28  1  0.21271075  0.75000000  0.11131742  1.0
  Gd  Gd29  1  0.71271075  0.75000000  0.38868258  1.0
  Gd  Gd30  1  0.78728925  0.25000000  0.88868258  1.0
  Gd  Gd31  1  0.28728925  0.25000000  0.61131742  1.0
  Gd  Gd32  1  0.92604466  0.75000000  0.10548063  1.0
  Gd  Gd33  1  0.42604466  0.75000000  0.39451937  1.0
  Gd  Gd34  1  0.07395534  0.25000000  0.89451937  1.0
  Gd  Gd35  1  0.57395534  0.25000000  0.60548063  1.0
