# generated using pymatgen
data_Sb4Pb4S11
_symmetry_space_group_name_H-M   'P 1'
_cell_length_a   15.79301469
_cell_length_b   15.72173042
_cell_length_c   4.00352964
_cell_angle_alpha   90.00000000
_cell_angle_beta   90.00000000
_cell_angle_gamma   90.00000000
_symmetry_Int_Tables_number   1
_chemical_formula_structural   Sb4Pb4S11
_chemical_formula_sum   'Sb8 Pb8 S22'
_cell_volume   994.05046418
_cell_formula_units_Z   2
loop_
 _symmetry_equiv_pos_site_id
 _symmetry_equiv_pos_as_xyz
  1  'x, y, z'
loop_
 _atom_site_type_symbol
 _atom_site_label
 _atom_site_symmetry_multiplicity
 _atom_site_fract_x
 _atom_site_fract_y
 _atom_site_fract_z
 _atom_site_occupancy
  Pb  Pb0  1  0.11811772  0.94326987  0.50000000  1.0
  Pb  Pb1  1  0.61811772  0.55673013  0.50000000  1.0
  Pb  Pb2  1  0.88188228  0.05673013  0.50000000  1.0
  Pb  Pb3  1  0.38188228  0.44326987  0.50000000  1.0
  Pb  Pb4  1  0.25042590  0.69574222  0.50000000  1.0
  Pb  Pb5  1  0.75042590  0.80425778  0.50000000  1.0
  Pb  Pb6  1  0.74957410  0.30425778  0.50000000  1.0
  Pb  Pb7  1  0.24957410  0.19574222  0.50000000  1.0
  Sb  Sb8  1  0.51956577  0.76969895  0.00000000  1.0
  Sb  Sb9  1  1.01956577  0.73030105  0.00000000  1.0
  Sb  Sb10  1  0.48043423  0.23030105  0.00000000  1.0
  Sb  Sb11  1  -0.01956577  0.26969895  0.00000000  1.0
  Sb  Sb12  1  0.36103436  0.99551179  0.00000000  1.0
  Sb  Sb13  1  0.86103436  0.50448821  0.00000000  1.0
  Sb  Sb14  1  0.63896564  0.00448821  0.00000000  1.0
  Sb  Sb15  1  0.13896564  0.49551179  0.00000000  1.0
  S  S16  1  0.28012281  0.56103644  0.00000000  1.0
  S  S17  1  0.78012281  0.93896356  0.00000000  1.0
  S  S18  1  0.71987719  0.43896356  0.00000000  1.0
  S  S19  1  0.21987719  0.06103644  0.00000000  1.0
  S  S20  1  0.08374303  0.61683969  0.50000000  1.0
  S  S21  1  0.58374303  0.88316031  0.50000000  1.0
  S  S22  1  0.91625697  0.38316031  0.50000000  1.0
  S  S23  1  0.41625697  0.11683969  0.50000000  1.0
  S  S24  1  0.15795949  0.80154877  0.00000000  1.0
  S  S25  1  0.65795949  0.69845123  0.00000000  1.0
  S  S26  1  0.84204051  0.19845123  0.00000000  1.0
  S  S27  1  0.34204051  0.30154877  0.00000000  1.0
  S  S28  1  0.46463074  0.67551654  0.50000000  1.0
  S  S29  1  0.96463074  0.82448346  0.50000000  1.0
  S  S30  1  0.53536926  0.32448346  0.50000000  1.0
  S  S31  1  0.03536926  0.17551654  0.50000000  1.0
  S  S32  1  0.32963894  0.89395013  0.50000000  1.0
  S  S33  1  0.82963894  0.60604987  0.50000000  1.0
  S  S34  1  0.67036106  0.10604987  0.50000000  1.0
  S  S35  1  0.17036106  0.39395013  0.50000000  1.0
  S  S36  1  0.50000000  0.50000000  0.00000000  1.0
  S  S37  1  0.00000000  0.00000000  0.00000000  1.0
