# generated using pymatgen
data_In2BiSe4I
_symmetry_space_group_name_H-M   'P 1'
_cell_length_a   14.68054757
_cell_length_b   4.16316029
_cell_length_c   17.67858091
_cell_angle_alpha   90.00000000
_cell_angle_beta   90.00000000
_cell_angle_gamma   90.00000000
_symmetry_Int_Tables_number   1
_chemical_formula_structural   In2BiSe4I
_chemical_formula_sum   'In8 Bi4 Se16 I4'
_cell_volume   1080.47018503
_cell_formula_units_Z   4
loop_
 _symmetry_equiv_pos_site_id
 _symmetry_equiv_pos_as_xyz
  1  'x, y, z'
loop_
 _atom_site_type_symbol
 _atom_site_label
 _atom_site_symmetry_multiplicity
 _atom_site_fract_x
 _atom_site_fract_y
 _atom_site_fract_z
 _atom_site_occupancy
  In  In0  1  0.74714193  0.75000000  0.51596083  1.0
  In  In1  1  0.24714193  0.75000000  0.98403917  1.0
  In  In2  1  0.25285807  0.25000000  0.48403917  1.0
  In  In3  1  0.75285807  0.25000000  0.01596083  1.0
  In  In4  1  0.63311338  0.75000000  0.15120760  1.0
  In  In5  1  0.13311338  0.75000000  0.34879240  1.0
  In  In6  1  0.36688662  0.25000000  0.84879240  1.0
  In  In7  1  0.86688662  0.25000000  0.65120760  1.0
  Bi  Bi8  1  0.45238762  0.75000000  0.60154124  1.0
  Bi  Bi9  1  0.95238762  0.75000000  0.89845876  1.0
  Bi  Bi10  1  0.54761238  0.25000000  0.39845876  1.0
  Bi  Bi11  1  0.04761238  0.25000000  0.10154124  1.0
  Se  Se12  1  0.90208320  0.75000000  0.04719239  1.0
  Se  Se13  1  0.40208320  0.75000000  0.45280761  1.0
  Se  Se14  1  0.09791680  0.25000000  0.95280761  1.0
  Se  Se15  1  0.59791680  0.25000000  0.54719239  1.0
  Se  Se16  1  0.75895622  0.75000000  0.67408917  1.0
  Se  Se17  1  0.25895622  0.75000000  0.82591083  1.0
  Se  Se18  1  0.24104378  0.25000000  0.32591083  1.0
  Se  Se19  1  0.74104378  0.25000000  0.17408917  1.0
  Se  Se20  1  0.67923613  0.75000000  0.37475354  1.0
  Se  Se21  1  0.17923613  0.75000000  0.12524646  1.0
  Se  Se22  1  0.32076387  0.25000000  0.62524646  1.0
  Se  Se23  1  0.82076387  0.25000000  0.87475354  1.0
  Se  Se24  1  0.13216944  0.75000000  0.49800451  1.0
  Se  Se25  1  0.63216944  0.75000000  1.00199549  1.0
  Se  Se26  1  0.86783056  0.25000000  0.50199549  1.0
  Se  Se27  1  0.36783056  0.25000000  -0.00199549  1.0
  I  I28  1  0.96972336  0.75000000  0.27234437  1.0
  I  I29  1  0.46972336  0.75000000  0.22765563  1.0
  I  I30  1  0.03027664  0.25000000  0.72765563  1.0
  I  I31  1  0.53027664  0.25000000  0.77234437  1.0
