# generated using pymatgen
data_KSr2Cd2Sb3
_symmetry_space_group_name_H-M   'P 1'
_cell_length_a   12.86099387
_cell_length_b   4.89634157
_cell_length_c   16.58184487
_cell_angle_alpha   90.00000000
_cell_angle_beta   90.00000000
_cell_angle_gamma   90.00000000
_symmetry_Int_Tables_number   1
_chemical_formula_structural   KSr2Cd2Sb3
_chemical_formula_sum   'K4 Sr8 Cd8 Sb12'
_cell_volume   1044.18893329
_cell_formula_units_Z   4
loop_
 _symmetry_equiv_pos_site_id
 _symmetry_equiv_pos_as_xyz
  1  'x, y, z'
loop_
 _atom_site_type_symbol
 _atom_site_label
 _atom_site_symmetry_multiplicity
 _atom_site_fract_x
 _atom_site_fract_y
 _atom_site_fract_z
 _atom_site_occupancy
  K  K0  1  0.59402337  0.75000000  0.55068799  1.0
  K  K1  1  0.09402337  0.75000000  0.94931201  1.0
  K  K2  1  0.40597663  0.25000000  0.44931201  1.0
  K  K3  1  0.90597663  0.25000000  0.05068799  1.0
  Sr  Sr4  1  0.89786666  0.75000000  0.42670046  1.0
  Sr  Sr5  1  0.39786666  0.75000000  0.07329954  1.0
  Sr  Sr6  1  0.10213334  0.25000000  0.57329954  1.0
  Sr  Sr7  1  0.60213334  0.25000000  0.92670046  1.0
  Sr  Sr8  1  0.63402545  0.75000000  0.28337299  1.0
  Sr  Sr9  1  0.13402545  0.75000000  0.21662701  1.0
  Sr  Sr10  1  0.36597455  0.25000000  0.71662701  1.0
  Sr  Sr11  1  0.86597455  0.25000000  0.78337299  1.0
  Cd  Cd12  1  0.69778563  0.75000000  0.07909241  1.0
  Cd  Cd13  1  0.19778563  0.75000000  0.42090759  1.0
  Cd  Cd14  1  0.30221437  0.25000000  0.92090759  1.0
  Cd  Cd15  1  0.80221437  0.25000000  0.57909241  1.0
  Cd  Cd16  1  0.63357304  0.75000000  0.78419661  1.0
  Cd  Cd17  1  0.13357304  0.75000000  0.71580339  1.0
  Cd  Cd18  1  0.36642696  0.25000000  0.21580339  1.0
  Cd  Cd19  1  0.86642696  0.25000000  0.28419661  1.0
  Sb  Sb20  1  0.92179059  0.75000000  0.62975702  1.0
  Sb  Sb21  1  0.42179059  0.75000000  0.87024298  1.0
  Sb  Sb22  1  0.07820941  0.25000000  0.37024298  1.0
  Sb  Sb23  1  0.57820941  0.25000000  0.12975702  1.0
  Sb  Sb24  1  0.87439025  0.75000000  0.19504950  1.0
  Sb  Sb25  1  0.37439025  0.75000000  0.30495050  1.0
  Sb  Sb26  1  0.12560975  0.25000000  0.80495050  1.0
  Sb  Sb27  1  0.62560975  0.25000000  0.69504950  1.0
  Sb  Sb28  1  0.29134251  0.75000000  0.58230358  1.0
  Sb  Sb29  1  0.79134251  0.75000000  0.91769642  1.0
  Sb  Sb30  1  0.70865749  0.25000000  0.41769642  1.0
  Sb  Sb31  1  0.20865749  0.25000000  0.08230358  1.0
