# generated using pymatgen
data_CaCuH4(CO2)4
_symmetry_space_group_name_H-M   'P 1'
_cell_length_a   7.54811206
_cell_length_b   8.60127847
_cell_length_c   6.70193486
_cell_angle_alpha   90.00000000
_cell_angle_beta   100.69110693
_cell_angle_gamma   90.00000000
_symmetry_Int_Tables_number   1
_chemical_formula_structural   CaCuH4(CO2)4
_chemical_formula_sum   'Ca2 Cu2 H8 C8 O16'
_cell_volume   427.55963405
_cell_formula_units_Z   2
loop_
 _symmetry_equiv_pos_site_id
 _symmetry_equiv_pos_as_xyz
  1  'x, y, z'
loop_
 _atom_site_type_symbol
 _atom_site_label
 _atom_site_symmetry_multiplicity
 _atom_site_fract_x
 _atom_site_fract_y
 _atom_site_fract_z
 _atom_site_occupancy
  Ca  Ca0  1  -0.00000000  0.86285312  0.25000000  1.0
  Ca  Ca1  1  -0.00000000  0.13714688  0.75000000  1.0
  Cu  Cu2  1  0.50000000  0.60167940  0.25000000  1.0
  Cu  Cu3  1  0.50000000  0.39832060  0.75000000  1.0
  H  H4  1  0.15858114  0.54913387  0.75636548  1.0
  H  H5  1  0.84141886  0.54913387  0.74363452  1.0
  H  H6  1  0.84141886  0.45086613  0.24363452  1.0
  H  H7  1  0.15858114  0.45086613  0.25636548  1.0
  H  H8  1  0.40499282  0.84562774  0.91397419  1.0
  H  H9  1  0.59500718  0.84562774  0.58602581  1.0
  H  H10  1  0.59500718  0.15437226  0.08602581  1.0
  H  H11  1  0.40499282  0.15437226  0.41397419  1.0
  C  C12  1  0.19787716  0.59731446  0.61783742  1.0
  C  C13  1  0.80212284  0.59731446  0.88216258  1.0
  C  C14  1  0.80212284  0.40268554  0.38216258  1.0
  C  C15  1  0.19787716  0.40268554  0.11783742  1.0
  C  C16  1  0.30328074  0.85667732  0.01298964  1.0
  C  C17  1  0.69671926  0.85667732  0.48701036  1.0
  C  C18  1  0.69671926  0.14332268  0.98701036  1.0
  C  C19  1  0.30328074  0.14332268  0.51298964  1.0
  O  O20  1  0.35407488  0.55855820  0.58395453  1.0
  O  O21  1  0.64592512  0.55855820  0.91604547  1.0
  O  O22  1  0.64592512  0.44144180  0.41604547  1.0
  O  O23  1  0.35407488  0.44144180  0.08395453  1.0
  O  O24  1  0.18084556  0.95722435  0.97488057  1.0
  O  O25  1  0.81915444  0.95722435  0.52511943  1.0
  O  O26  1  0.81915444  0.04277565  0.02511943  1.0
  O  O27  1  0.18084556  0.04277565  0.47488057  1.0
  O  O28  1  0.31419592  0.76522786  0.16486035  1.0
  O  O29  1  0.68580408  0.76522786  0.33513965  1.0
  O  O30  1  0.68580408  0.23477214  0.83513965  1.0
  O  O31  1  0.31419592  0.23477214  0.66486035  1.0
  O  O32  1  0.09025100  0.68422366  0.50577887  1.0
  O  O33  1  0.90974900  0.68422366  0.99422113  1.0
  O  O34  1  0.90974900  0.31577634  0.49422113  1.0
  O  O35  1  0.09025100  0.31577634  0.00577887  1.0
