# generated using pymatgen
data_SrPH3O4
_symmetry_space_group_name_H-M   'P 1'
_cell_length_a   7.79326834
_cell_length_b   7.12674844
_cell_length_c   8.27141602
_cell_angle_alpha   90.00000000
_cell_angle_beta   109.23483488
_cell_angle_gamma   90.00000000
_symmetry_Int_Tables_number   1
_chemical_formula_structural   SrPH3O4
_chemical_formula_sum   'Sr4 P4 H12 O16'
_cell_volume   433.75450259
_cell_formula_units_Z   4
loop_
 _symmetry_equiv_pos_site_id
 _symmetry_equiv_pos_as_xyz
  1  'x, y, z'
loop_
 _atom_site_type_symbol
 _atom_site_label
 _atom_site_symmetry_multiplicity
 _atom_site_fract_x
 _atom_site_fract_y
 _atom_site_fract_z
 _atom_site_occupancy
  Sr  Sr0  1  0.87597575  0.63689480  0.15050758  1.0
  Sr  Sr1  1  0.87597575  0.86310520  0.65050758  1.0
  Sr  Sr2  1  0.12402425  0.13689480  0.34949242  1.0
  Sr  Sr3  1  0.12402425  0.36310520  0.84949242  1.0
  P  P4  1  0.77497312  0.35330209  0.49429689  1.0
  P  P5  1  0.77497312  0.14669791  0.99429689  1.0
  P  P6  1  0.22502688  0.85330209  0.00570311  1.0
  P  P7  1  0.22502688  0.64669791  0.50570311  1.0
  H  H8  1  0.68913858  0.95573741  0.26947733  1.0
  H  H9  1  0.68913858  0.54426259  0.76947733  1.0
  H  H10  1  0.31086142  0.45573741  0.23052267  1.0
  H  H11  1  0.31086142  0.04426259  0.73052267  1.0
  H  H12  1  0.61589987  0.23664888  0.00141516  1.0
  H  H13  1  0.61589987  0.26335112  0.50141516  1.0
  H  H14  1  0.38410013  0.73664888  0.49858484  1.0
  H  H15  1  0.38410013  0.76335112  0.99858484  1.0
  H  H16  1  0.49608491  0.40361800  0.20209899  1.0
  H  H17  1  0.49608491  0.09638200  0.70209899  1.0
  H  H18  1  0.50391509  0.90361800  0.29790101  1.0
  H  H19  1  0.50391509  0.59638200  0.79790101  1.0
  O  O20  1  0.93026260  0.29543511  0.04346878  1.0
  O  O21  1  0.93026260  0.20456489  0.54346878  1.0
  O  O22  1  0.06973740  0.79543511  0.45653122  1.0
  O  O23  1  0.06973740  0.70456489  0.95653122  1.0
  O  O24  1  0.82201756  0.99207618  0.13475104  1.0
  O  O25  1  0.82201756  0.50792382  0.63475104  1.0
  O  O26  1  0.17798244  0.49207618  0.36524896  1.0
  O  O27  1  0.17798244  0.00792382  0.86524896  1.0
  O  O28  1  0.73044203  0.42841497  0.31098557  1.0
  O  O29  1  0.73044203  0.07158503  0.81098557  1.0
  O  O30  1  0.26955797  0.92841497  0.18901443  1.0
  O  O31  1  0.26955797  0.57158503  0.68901443  1.0
  O  O32  1  0.63816461  0.89409643  0.35108031  1.0
  O  O33  1  0.63816461  0.60590357  0.85108031  1.0
  O  O34  1  0.36183539  0.39409643  0.14891969  1.0
  O  O35  1  0.36183539  0.10590357  0.64891969  1.0
