# generated using pymatgen
data_Pd3S
_symmetry_space_group_name_H-M   'P 1'
_cell_length_a   4.59439630
_cell_length_b   4.59439630
_cell_length_c   6.34424420
_cell_angle_alpha   90.00000000
_cell_angle_beta   90.00000000
_cell_angle_gamma   107.89501277
_symmetry_Int_Tables_number   1
_chemical_formula_structural   Pd3S
_chemical_formula_sum   'Pd6 S2'
_cell_volume   127.43856887
_cell_formula_units_Z   2
loop_
 _symmetry_equiv_pos_site_id
 _symmetry_equiv_pos_as_xyz
  1  'x, y, z'
loop_
 _atom_site_type_symbol
 _atom_site_label
 _atom_site_symmetry_multiplicity
 _atom_site_fract_x
 _atom_site_fract_y
 _atom_site_fract_z
 _atom_site_occupancy
  Pd  Pd0  1  0.15328210  0.54015440  0.25000000  1.0
  Pd  Pd1  1  0.45984560  0.84671790  0.75000000  1.0
  Pd  Pd2  1  -0.45709373  1.15052967  0.25000000  1.0
  Pd  Pd3  1  -0.15052967  1.45709373  0.75000000  1.0
  Pd  Pd4  1  0.00137379  -0.00137379  0.50000000  1.0
  Pd  Pd5  1  0.00137379  -0.00137379  -0.00000000  1.0
  S  S6  1  -0.30859583  1.68865605  0.25000000  1.0
  S  S7  1  -0.68865605  1.30859583  0.75000000  1.0
