# generated using pymatgen
data_Li2Cu2S2O9
_symmetry_space_group_name_H-M   'P 1'
_cell_length_a   8.48830361
_cell_length_b   8.48830361
_cell_length_c   5.13233236
_cell_angle_alpha   90.00000000
_cell_angle_beta   90.00000000
_cell_angle_gamma   90.00000000
_symmetry_Int_Tables_number   1
_chemical_formula_structural   Li2Cu2S2O9
_chemical_formula_sum   'Li4 Cu4 S4 O18'
_cell_volume   369.79120924
_cell_formula_units_Z   2
loop_
 _symmetry_equiv_pos_site_id
 _symmetry_equiv_pos_as_xyz
  1  'x, y, z'
loop_
 _atom_site_type_symbol
 _atom_site_label
 _atom_site_symmetry_multiplicity
 _atom_site_fract_x
 _atom_site_fract_y
 _atom_site_fract_z
 _atom_site_occupancy
  S  S0  1  0.72971641  0.81529724  -0.00000000  1.0
  S  S1  1  0.81529724  0.27028359  0.50000000  1.0
  S  S2  1  0.27028359  0.18470276  -0.00000000  1.0
  S  S3  1  0.18470276  0.72971641  0.50000000  1.0
  O  O4  1  0.62599981  0.82728217  0.76192022  1.0
  O  O5  1  0.62599981  0.82728217  0.23807978  1.0
  O  O6  1  0.82728217  0.37400019  0.26192022  1.0
  O  O7  1  0.82728217  0.37400019  0.73807978  1.0
  O  O8  1  0.37400019  0.17271783  0.76192022  1.0
  O  O9  1  0.37400019  0.17271783  0.23807978  1.0
  O  O10  1  0.17271783  0.62599981  0.26192022  1.0
  O  O11  1  0.17271783  0.62599981  0.73807978  1.0
  O  O12  1  0.83882024  0.95268250  0.00000000  1.0
  O  O13  1  0.95268250  0.16117976  0.50000000  1.0
  O  O14  1  0.16117976  0.04731750  0.00000000  1.0
  O  O15  1  0.04731750  0.83882024  0.50000000  1.0
  O  O16  1  0.81681271  0.66488537  0.00000000  1.0
  O  O17  1  0.66488537  0.18318729  0.50000000  1.0
  O  O18  1  0.18318729  0.33511463  -0.00000000  1.0
  O  O19  1  0.33511463  0.81681271  0.50000000  1.0
  O  O20  1  0.50000000  0.50000000  0.75000000  1.0
  O  O21  1  0.50000000  0.50000000  0.25000000  1.0
  Cu  Cu22  1  0.66096840  0.43268985  0.00000000  1.0
  Cu  Cu23  1  0.43268985  0.33903160  0.50000000  1.0
  Cu  Cu24  1  0.33903160  0.56731015  0.00000000  1.0
  Cu  Cu25  1  0.56731015  0.66096840  0.50000000  1.0
  Li  Li26  1  0.00000000  0.00000000  0.75000000  1.0
  Li  Li27  1  0.00000000  0.00000000  0.25000000  1.0
  Li  Li28  1  0.00000000  0.50000000  0.00000000  1.0
  Li  Li29  1  0.50000000  -0.00000000  0.50000000  1.0
