# generated using pymatgen
data_CoBiO3
_symmetry_space_group_name_H-M   'P 1'
_cell_length_a   5.52472852
_cell_length_b   7.60756423
_cell_length_c   5.34871590
_cell_angle_alpha   90.00000000
_cell_angle_beta   90.00000000
_cell_angle_gamma   90.00000000
_symmetry_Int_Tables_number   1
_chemical_formula_structural   CoBiO3
_chemical_formula_sum   'Co4 Bi4 O12'
_cell_volume   224.80506916
_cell_formula_units_Z   4
loop_
 _symmetry_equiv_pos_site_id
 _symmetry_equiv_pos_as_xyz
  1  'x, y, z'
loop_
 _atom_site_type_symbol
 _atom_site_label
 _atom_site_symmetry_multiplicity
 _atom_site_fract_x
 _atom_site_fract_y
 _atom_site_fract_z
 _atom_site_occupancy
  Co  Co0  1  0.50000000  0.00000000  0.50000000  1.0
  Co  Co1  1  0.50000000  0.50000000  0.50000000  1.0
  Co  Co2  1  0.00000000  0.00000000  0.00000000  1.0
  Co  Co3  1  0.00000000  0.50000000  0.00000000  1.0
  Bi  Bi4  1  0.05624305  0.75000000  0.51033251  1.0
  Bi  Bi5  1  0.55624305  0.75000000  0.98966749  1.0
  Bi  Bi6  1  0.94375695  0.25000000  0.48966749  1.0
  Bi  Bi7  1  0.44375695  0.25000000  0.01033251  1.0
  O  O8  1  0.29382743  0.95805150  0.79734430  1.0
  O  O9  1  0.29382743  0.54194850  0.79734430  1.0
  O  O10  1  0.79382743  0.95805150  0.70265570  1.0
  O  O11  1  0.79382743  0.54194850  0.70265570  1.0
  O  O12  1  0.70617257  0.45805150  0.20265570  1.0
  O  O13  1  0.70617257  0.04194850  0.20265570  1.0
  O  O14  1  0.20617257  0.45805150  0.29734430  1.0
  O  O15  1  0.20617257  0.04194850  0.29734430  1.0
  O  O16  1  0.97414155  0.75000000  0.08465254  1.0
  O  O17  1  0.47414155  0.75000000  0.41534746  1.0
  O  O18  1  0.02585845  0.25000000  0.91534746  1.0
  O  O19  1  0.52585845  0.25000000  0.58465254  1.0
