# generated using pymatgen
data_Cd2GeAs4
_symmetry_space_group_name_H-M   'P 1'
_cell_length_a   7.36195087
_cell_length_b   7.55323983
_cell_length_c   12.89398193
_cell_angle_alpha   90.00000000
_cell_angle_beta   90.00000000
_cell_angle_gamma   90.00000000
_symmetry_Int_Tables_number   1
_chemical_formula_structural   Cd2GeAs4
_chemical_formula_sum   'Cd8 Ge4 As16'
_cell_volume   716.99024491
_cell_formula_units_Z   4
loop_
 _symmetry_equiv_pos_site_id
 _symmetry_equiv_pos_as_xyz
  1  'x, y, z'
loop_
 _atom_site_type_symbol
 _atom_site_label
 _atom_site_symmetry_multiplicity
 _atom_site_fract_x
 _atom_site_fract_y
 _atom_site_fract_z
 _atom_site_occupancy
  Cd  Cd0  1  0.40526329  0.97609221  0.86976160  1.0
  Cd  Cd1  1  0.40526329  0.52390779  0.86976160  1.0
  Cd  Cd2  1  0.90526329  0.97609221  0.63023840  1.0
  Cd  Cd3  1  0.90526329  0.52390779  0.63023840  1.0
  Cd  Cd4  1  0.59473671  0.47609221  0.13023840  1.0
  Cd  Cd5  1  0.59473671  0.02390779  0.13023840  1.0
  Cd  Cd6  1  0.09473671  0.47609221  0.36976160  1.0
  Cd  Cd7  1  0.09473671  0.02390779  0.36976160  1.0
  Ge  Ge8  1  0.08201383  0.75000000  0.08117418  1.0
  Ge  Ge9  1  0.58201383  0.75000000  0.41882582  1.0
  Ge  Ge10  1  0.91798617  0.25000000  0.91882582  1.0
  Ge  Ge11  1  0.41798617  0.25000000  0.58117418  1.0
  As  As12  1  0.04368524  0.98803076  0.82526810  1.0
  As  As13  1  0.04368524  0.51196924  0.82526810  1.0
  As  As14  1  0.54368524  0.98803076  0.67473190  1.0
  As  As15  1  0.54368524  0.51196924  0.67473190  1.0
  As  As16  1  0.95631476  0.48803076  0.17473190  1.0
  As  As17  1  0.95631476  0.01196924  0.17473190  1.0
  As  As18  1  0.45631476  0.48803076  0.32526810  1.0
  As  As19  1  0.45631476  0.01196924  0.32526810  1.0
  As  As20  1  0.40880180  0.75000000  0.03853460  1.0
  As  As21  1  0.90880180  0.75000000  0.46146540  1.0
  As  As22  1  0.59119820  0.25000000  0.96146540  1.0
  As  As23  1  0.09119820  0.25000000  0.53853460  1.0
  As  As24  1  0.38724582  0.75000000  0.57751481  1.0
  As  As25  1  0.88724582  0.75000000  0.92248519  1.0
  As  As26  1  0.61275418  0.25000000  0.42248519  1.0
  As  As27  1  0.11275418  0.25000000  0.07751481  1.0
