# generated using pymatgen
data_Zr6FeCl14
_symmetry_space_group_name_H-M   'P 1'
_cell_length_a   9.90546622
_cell_length_b   9.90546622
_cell_length_c   11.94687544
_cell_angle_alpha   90.00000000
_cell_angle_beta   90.00000000
_cell_angle_gamma   84.03790026
_symmetry_Int_Tables_number   1
_chemical_formula_structural   Zr6FeCl14
_chemical_formula_sum   'Zr12 Fe2 Cl28'
_cell_volume   1165.86596916
_cell_formula_units_Z   2
loop_
 _symmetry_equiv_pos_site_id
 _symmetry_equiv_pos_as_xyz
  1  'x, y, z'
loop_
 _atom_site_type_symbol
 _atom_site_label
 _atom_site_symmetry_multiplicity
 _atom_site_fract_x
 _atom_site_fract_y
 _atom_site_fract_z
 _atom_site_occupancy
  Zr  Zr0  1  0.45170277  1.31000865  0.38012893  1.0
  Zr  Zr1  1  -0.04829723  0.81000865  0.11987107  1.0
  Zr  Zr2  1  0.31000865  1.45170277  0.61987107  1.0
  Zr  Zr3  1  -0.18999135  0.95170277  0.88012893  1.0
  Zr  Zr4  1  -0.31000865  0.54829723  0.38012893  1.0
  Zr  Zr5  1  0.18999135  1.04829723  0.11987107  1.0
  Zr  Zr6  1  -0.45170277  0.68999135  0.61987107  1.0
  Zr  Zr7  1  0.04829723  1.18999135  0.88012893  1.0
  Zr  Zr8  1  -0.15104120  1.15104120  0.11033510  1.0
  Zr  Zr9  1  0.34895880  0.65104120  0.38966490  1.0
  Zr  Zr10  1  0.15104120  0.84895880  0.88966490  1.0
  Zr  Zr11  1  -0.34895880  1.34895880  0.61033510  1.0
  Fe  Fe12  1  -0.50000000  0.50000000  0.50000000  1.0
  Fe  Fe13  1  -0.00000000  1.00000000  0.00000000  1.0
  Cl  Cl14  1  -0.38510140  1.14193880  0.49105513  1.0
  Cl  Cl15  1  0.11489860  0.64193880  0.00894487  1.0
  Cl  Cl16  1  0.14193880  0.61489860  0.50894487  1.0
  Cl  Cl17  1  -0.35806120  1.11489860  0.99105513  1.0
  Cl  Cl18  1  -0.14193880  1.38510140  0.49105513  1.0
  Cl  Cl19  1  0.35806120  0.88510140  0.00894487  1.0
  Cl  Cl20  1  0.38510140  0.85806120  0.50894487  1.0
  Cl  Cl21  1  -0.11489860  1.35806120  0.99105513  1.0
  Cl  Cl22  1  -0.20694476  0.96541660  0.24516265  1.0
  Cl  Cl23  1  0.29305524  1.46541660  0.25483735  1.0
  Cl  Cl24  1  -0.03458340  0.79305524  0.75483735  1.0
  Cl  Cl25  1  0.46541660  1.29305524  0.74516265  1.0
  Cl  Cl26  1  0.03458340  1.20694476  0.24516265  1.0
  Cl  Cl27  1  -0.46541660  0.70694476  0.25483735  1.0
  Cl  Cl28  1  0.20694476  1.03458340  0.75483735  1.0
  Cl  Cl29  1  -0.29305524  0.53458340  0.74516265  1.0
  Cl  Cl30  1  -0.34502775  1.34502775  0.24318196  1.0
  Cl  Cl31  1  0.15497225  0.84502775  0.25681804  1.0
  Cl  Cl32  1  0.34502775  0.65497225  0.75681804  1.0
  Cl  Cl33  1  -0.15497225  1.15497225  0.74318196  1.0
  Cl  Cl34  1  0.39594015  1.10405985  0.25000000  1.0
  Cl  Cl35  1  -0.10405985  0.60405985  0.25000000  1.0
  Cl  Cl36  1  0.10405985  1.39594015  0.75000000  1.0
  Cl  Cl37  1  -0.39594015  0.89594015  0.75000000  1.0
  Cl  Cl38  1  0.25356486  1.25356486  0.50000000  1.0
  Cl  Cl39  1  -0.24643514  0.75356486  0.00000000  1.0
  Cl  Cl40  1  -0.25356486  0.74643514  0.50000000  1.0
  Cl  Cl41  1  0.24643514  1.24643514  0.00000000  1.0
