# generated using pymatgen
data_Ti2CrO5
_symmetry_space_group_name_H-M   'P 1'
_cell_length_a   5.69225199
_cell_length_b   5.69225199
_cell_length_c   7.09125940
_cell_angle_alpha   70.57740629
_cell_angle_beta   109.42259371
_cell_angle_gamma   127.86940264
_symmetry_Int_Tables_number   1
_chemical_formula_structural   Ti2CrO5
_chemical_formula_sum   'Ti4 Cr2 O10'
_cell_volume   168.49686705
_cell_formula_units_Z   2
loop_
 _symmetry_equiv_pos_site_id
 _symmetry_equiv_pos_as_xyz
  1  'x, y, z'
loop_
 _atom_site_type_symbol
 _atom_site_label
 _atom_site_symmetry_multiplicity
 _atom_site_fract_x
 _atom_site_fract_y
 _atom_site_fract_z
 _atom_site_occupancy
  Ti  Ti0  1  0.62369472  0.36016735  0.22139309  1.0
  Ti  Ti1  1  1.36016735  0.62369472  0.27860691  1.0
  Ti  Ti2  1  0.37630528  -0.36016735  0.77860691  1.0
  Ti  Ti3  1  0.63983265  0.37630528  0.72139309  1.0
  Cr  Cr4  1  0.00000000  0.00000000  0.00000000  1.0
  Cr  Cr5  1  0.00000000  -0.00000000  0.50000000  1.0
  O  O6  1  0.34552437  -0.03219034  0.65567659  1.0
  O  O7  1  0.96780966  0.34552437  0.84432341  1.0
  O  O8  1  0.65447563  0.03219034  0.34432341  1.0
  O  O9  1  1.03219034  0.65447563  0.15567659  1.0
  O  O10  1  0.57811783  -0.26007150  0.05511369  1.0
  O  O11  1  0.73992850  0.57811783  0.44488631  1.0
  O  O12  1  0.42188217  0.26007150  0.94488631  1.0
  O  O13  1  1.26007150  0.42188217  0.55511369  1.0
  O  O14  1  0.19343885  0.19343885  0.25000000  1.0
  O  O15  1  0.80656115  0.80656115  0.75000000  1.0
