# generated using pymatgen
data_Ca2La3Si3O13
_symmetry_space_group_name_H-M   'P 1'
_cell_length_a   9.74963527
_cell_length_b   9.74963527
_cell_length_c   7.12834054
_cell_angle_alpha   90.00000000
_cell_angle_beta   90.00000000
_cell_angle_gamma   120.00000000
_symmetry_Int_Tables_number   1
_chemical_formula_structural   Ca2La3Si3O13
_chemical_formula_sum   'Ca4 La6 Si6 O26'
_cell_volume   586.80770667
_cell_formula_units_Z   2
loop_
 _symmetry_equiv_pos_site_id
 _symmetry_equiv_pos_as_xyz
  1  'x, y, z'
loop_
 _atom_site_type_symbol
 _atom_site_label
 _atom_site_symmetry_multiplicity
 _atom_site_fract_x
 _atom_site_fract_y
 _atom_site_fract_z
 _atom_site_occupancy
  O  O0  1  0.25140869  0.91369436  0.43144273  1.0
  O  O1  1  0.25140869  0.91369436  0.06855727  1.0
  O  O2  1  0.91369436  0.66228568  0.93144273  1.0
  O  O3  1  0.91369436  0.66228568  0.56855727  1.0
  O  O4  1  0.66228568  0.74859131  0.43144273  1.0
  O  O5  1  0.66228568  0.74859131  0.06855727  1.0
  O  O6  1  0.08630564  0.33771432  0.43144273  1.0
  O  O7  1  0.08630564  0.33771432  0.06855727  1.0
  O  O8  1  0.74859131  0.08630564  0.93144273  1.0
  O  O9  1  0.74859131  0.08630564  0.56855727  1.0
  O  O10  1  0.33771432  0.25140869  0.93144273  1.0
  O  O11  1  0.33771432  0.25140869  0.56855727  1.0
  O  O12  1  0.67265272  0.50933387  0.25000000  1.0
  O  O13  1  0.50933387  0.83668115  0.75000000  1.0
  O  O14  1  0.83668115  0.32734728  0.25000000  1.0
  O  O15  1  0.49066613  0.16331885  0.25000000  1.0
  O  O16  1  0.32734728  0.49066613  0.75000000  1.0
  O  O17  1  0.16331885  0.67265272  0.75000000  1.0
  O  O18  1  0.46704903  0.87085570  0.25000000  1.0
  O  O19  1  0.87085570  0.40380667  0.75000000  1.0
  O  O20  1  0.40380667  0.53295097  0.25000000  1.0
  O  O21  1  0.12914430  0.59619333  0.25000000  1.0
  O  O22  1  0.53295097  0.12914430  0.75000000  1.0
  O  O23  1  0.59619333  0.46704903  0.75000000  1.0
  O  O24  1  0.00000000  0.00000000  0.25000000  1.0
  O  O25  1  0.00000000  0.00000000  0.75000000  1.0
  Si  Si26  1  0.37351934  0.97163650  0.25000000  1.0
  Si  Si27  1  0.97163650  0.59811716  0.75000000  1.0
  Si  Si28  1  0.59811716  0.62648066  0.25000000  1.0
  Si  Si29  1  0.02836350  0.40188284  0.25000000  1.0
  Si  Si30  1  0.62648066  0.02836350  0.75000000  1.0
  Si  Si31  1  0.40188284  0.37351934  0.75000000  1.0
  Ca  Ca32  1  0.33333333  0.66666667  0.50374198  1.0
  Ca  Ca33  1  0.33333333  0.66666667  -0.00374198  1.0
  Ca  Ca34  1  0.66666667  0.33333333  0.00374198  1.0
  Ca  Ca35  1  0.66666667  0.33333333  0.49625802  1.0
  La  La36  1  0.98980867  0.74953453  0.25000000  1.0
  La  La37  1  0.74953453  0.75972585  0.75000000  1.0
  La  La38  1  0.75972585  0.01019133  0.25000000  1.0
  La  La39  1  0.25046547  0.24027415  0.25000000  1.0
  La  La40  1  0.01019133  0.25046547  0.75000000  1.0
  La  La41  1  0.24027415  0.98980867  0.75000000  1.0
