# generated using pymatgen
data_Rb2MoO4
_symmetry_space_group_name_H-M   'P 1'
_cell_length_a   8.36643771
_cell_length_b   6.67939316
_cell_length_c   11.13186537
_cell_angle_alpha   90.00000000
_cell_angle_beta   90.00000000
_cell_angle_gamma   90.00000000
_symmetry_Int_Tables_number   1
_chemical_formula_structural   Rb2MoO4
_chemical_formula_sum   'Rb8 Mo4 O16'
_cell_volume   622.07899178
_cell_formula_units_Z   4
loop_
 _symmetry_equiv_pos_site_id
 _symmetry_equiv_pos_as_xyz
  1  'x, y, z'
loop_
 _atom_site_type_symbol
 _atom_site_label
 _atom_site_symmetry_multiplicity
 _atom_site_fract_x
 _atom_site_fract_y
 _atom_site_fract_z
 _atom_site_occupancy
  Rb  Rb0  1  0.81252300  0.75000000  0.43228518  1.0
  Rb  Rb1  1  0.31252300  0.75000000  0.06771482  1.0
  Rb  Rb2  1  0.18747700  0.25000000  0.56771482  1.0
  Rb  Rb3  1  0.68747700  0.25000000  0.93228518  1.0
  Rb  Rb4  1  0.48554611  0.75000000  0.71819229  1.0
  Rb  Rb5  1  -0.01445389  0.75000000  0.78180771  1.0
  Rb  Rb6  1  0.51445389  0.25000000  0.28180771  1.0
  Rb  Rb7  1  1.01445389  0.25000000  0.21819229  1.0
  Mo  Mo8  1  0.78221152  0.75000000  0.09506922  1.0
  Mo  Mo9  1  0.28221152  0.75000000  0.40493078  1.0
  Mo  Mo10  1  0.21778848  0.25000000  0.90493078  1.0
  Mo  Mo11  1  0.71778848  0.25000000  0.59506922  1.0
  O  O12  1  0.74808680  0.96756986  0.18485926  1.0
  O  O13  1  0.74808680  0.53243014  0.18485926  1.0
  O  O14  1  0.24808680  0.96756986  0.31514074  1.0
  O  O15  1  0.24808680  0.53243014  0.31514074  1.0
  O  O16  1  0.25191320  0.46756986  0.81514074  1.0
  O  O17  1  0.25191320  0.03243014  0.81514074  1.0
  O  O18  1  0.75191320  0.46756986  0.68485926  1.0
  O  O19  1  0.75191320  0.03243014  0.68485926  1.0
  O  O20  1  0.98238446  0.75000000  0.04320265  1.0
  O  O21  1  0.48238446  0.75000000  0.45679735  1.0
  O  O22  1  0.01761554  0.25000000  0.95679735  1.0
  O  O23  1  0.51761554  0.25000000  0.54320265  1.0
  O  O24  1  0.14907245  0.75000000  0.53081736  1.0
  O  O25  1  0.64907245  0.75000000  0.96918264  1.0
  O  O26  1  0.85092755  0.25000000  0.46918264  1.0
  O  O27  1  0.35092755  0.25000000  0.03081736  1.0
