# generated using pymatgen
data_Cu2IO8
_symmetry_space_group_name_H-M   'P 1'
_cell_length_a   5.86786422
_cell_length_b   5.06070583
_cell_length_c   9.67560786
_cell_angle_alpha   90.00000000
_cell_angle_beta   102.36901607
_cell_angle_gamma   90.00000000
_symmetry_Int_Tables_number   1
_chemical_formula_structural   Cu2IO8
_chemical_formula_sum   'Cu4 I2 O16'
_cell_volume   280.65309683
_cell_formula_units_Z   2
loop_
 _symmetry_equiv_pos_site_id
 _symmetry_equiv_pos_as_xyz
  1  'x, y, z'
loop_
 _atom_site_type_symbol
 _atom_site_label
 _atom_site_symmetry_multiplicity
 _atom_site_fract_x
 _atom_site_fract_y
 _atom_site_fract_z
 _atom_site_occupancy
  I  I0  1  0.88568820  0.25880191  0.73635349  1.0
  I  I1  1  0.11431180  0.75880191  0.26364651  1.0
  O  O2  1  0.73262214  0.14959268  0.54520642  1.0
  O  O3  1  0.26737786  0.64959268  0.45479358  1.0
  O  O4  1  0.83998557  -0.06502920  0.31598470  1.0
  O  O5  1  0.16001443  0.43497080  0.68401530  1.0
  O  O6  1  0.20579618  0.10165699  0.54218524  1.0
  O  O7  1  0.79420382  0.60165699  0.45781476  1.0
  O  O8  1  0.56060835  0.65405390  0.98534451  1.0
  O  O9  1  0.43939165  0.15405390  0.01465549  1.0
  O  O10  1  0.66539522  0.05891643  0.81734114  1.0
  O  O11  1  0.33460478  0.55891643  0.18265886  1.0
  O  O12  1  0.69183107  0.57256168  0.72516180  1.0
  O  O13  1  0.30816893  1.07256168  0.27483820  1.0
  O  O14  1  0.08452708  -0.06609331  0.77333708  1.0
  O  O15  1  0.91547292  0.43390669  0.22666292  1.0
  O  O16  1  0.01777427  0.42361994  0.93149287  1.0
  O  O17  1  0.98222573  0.92361994  0.06850713  1.0
  Cu  Cu18  1  0.82163662  0.73977346  0.90050442  1.0
  Cu  Cu19  1  0.17836338  0.23977346  0.09949558  1.0
  Cu  Cu20  1  0.84454273  0.28314552  0.39144393  1.0
  Cu  Cu21  1  0.15545727  0.78314552  0.60855607  1.0
