# generated using pymatgen
data_K6Cd4Sn3Se13
_symmetry_space_group_name_H-M   'P 1'
_cell_length_a   10.30573418
_cell_length_b   10.30573418
_cell_length_c   10.30573418
_cell_angle_alpha   94.96798695
_cell_angle_beta   94.96798695
_cell_angle_gamma   94.96798695
_symmetry_Int_Tables_number   1
_chemical_formula_structural   K6Cd4Sn3Se13
_chemical_formula_sum   'K6 Cd4 Sn3 Se13'
_cell_volume   1081.45101871
_cell_formula_units_Z   1
loop_
 _symmetry_equiv_pos_site_id
 _symmetry_equiv_pos_as_xyz
  1  'x, y, z'
loop_
 _atom_site_type_symbol
 _atom_site_label
 _atom_site_symmetry_multiplicity
 _atom_site_fract_x
 _atom_site_fract_y
 _atom_site_fract_z
 _atom_site_occupancy
  K  K0  1  0.99885158  -0.42366185  -0.00114842  1.0
  K  K1  1  0.57633815  -0.00114842  -0.00114842  1.0
  K  K2  1  0.99885158  -0.00114842  -0.42366185  1.0
  K  K3  1  1.36736291  0.36736291  -0.20590726  1.0
  K  K4  1  1.36736291  -0.20590726  0.36736291  1.0
  K  K5  1  0.79409274  0.36736291  0.36736291  1.0
  Cd  Cd6  1  0.52809276  0.52809276  0.52809276  1.0
  Cd  Cd7  1  1.63629117  0.63629117  -0.06738847  1.0
  Cd  Cd8  1  1.63629117  -0.06738847  0.63629117  1.0
  Cd  Cd9  1  0.93261153  0.63629117  0.63629117  1.0
  Sn  Sn10  1  1.29452958  0.75401307  -0.24598693  1.0
  Sn  Sn11  1  0.75401307  0.75401307  0.29452958  1.0
  Sn  Sn12  1  0.75401307  1.29452958  -0.24598693  1.0
  Se  Se13  1  0.68979824  0.68979824  0.68979824  1.0
  Se  Se14  1  1.27840954  0.56777946  -0.43222054  1.0
  Se  Se15  1  0.56777946  0.56777946  0.27840954  1.0
  Se  Se16  1  0.56777946  1.27840954  -0.43222054  1.0
  Se  Se17  1  0.81176799  0.81176799  0.06916392  1.0
  Se  Se18  1  0.81176799  1.06916392  -0.18823201  1.0
  Se  Se19  1  1.06916392  0.81176799  -0.18823201  1.0
  Se  Se20  1  1.39052418  0.68308897  -0.02641756  1.0
  Se  Se21  1  0.68308897  0.97358244  0.39052418  1.0
  Se  Se22  1  0.97358244  1.39052418  -0.31691103  1.0
  Se  Se23  1  1.39052418  0.97358244  -0.31691103  1.0
  Se  Se24  1  0.97358244  0.68308897  0.39052418  1.0
  Se  Se25  1  0.68308897  1.39052418  -0.02641756  1.0
