# generated using pymatgen
data_In4Bi2S9
_symmetry_space_group_name_H-M   'P 1'
_cell_length_a   11.43581813
_cell_length_b   3.97319117
_cell_length_c   16.78535874
_cell_angle_alpha   90.00000000
_cell_angle_beta   93.88376203
_cell_angle_gamma   90.00000000
_symmetry_Int_Tables_number   1
_chemical_formula_structural   In4Bi2S9
_chemical_formula_sum   'In8 Bi4 S18'
_cell_volume   760.91970491
_cell_formula_units_Z   2
loop_
 _symmetry_equiv_pos_site_id
 _symmetry_equiv_pos_as_xyz
  1  'x, y, z'
loop_
 _atom_site_type_symbol
 _atom_site_label
 _atom_site_symmetry_multiplicity
 _atom_site_fract_x
 _atom_site_fract_y
 _atom_site_fract_z
 _atom_site_occupancy
  In  In0  1  0.98972923  0.25000000  0.09344832  1.0
  In  In1  1  0.01027077  0.75000000  0.90655168  1.0
  In  In2  1  1.01072750  0.25000000  0.71996214  1.0
  In  In3  1  -0.01072750  0.75000000  0.28003786  1.0
  In  In4  1  0.75712705  0.25000000  0.41490820  1.0
  In  In5  1  0.24287295  0.75000000  0.58509180  1.0
  In  In6  1  0.36641519  0.25000000  0.81768759  1.0
  In  In7  1  0.63358481  0.75000000  0.18231241  1.0
  Bi  Bi8  1  0.38870676  0.25000000  0.40707281  1.0
  Bi  Bi9  1  0.61129324  0.75000000  0.59292719  1.0
  Bi  Bi10  1  0.36735072  0.25000000  0.07139793  1.0
  Bi  Bi11  1  0.63264928  0.75000000  0.92860207  1.0
  S  S12  1  0.87712562  0.25000000  0.95342344  1.0
  S  S13  1  0.12287438  0.75000000  0.04657656  1.0
  S  S14  1  0.76821350  0.25000000  0.57207296  1.0
  S  S15  1  0.23178650  0.75000000  0.42792704  1.0
  S  S16  1  0.63946468  0.25000000  0.27963019  1.0
  S  S17  1  0.36053532  0.75000000  0.72036981  1.0
  S  S18  1  0.59833740  0.25000000  0.06574185  1.0
  S  S19  1  0.40166260  0.75000000  0.93425815  1.0
  S  S20  1  0.59805615  0.25000000  0.82078344  1.0
  S  S21  1  0.40194385  0.75000000  0.17921656  1.0
  S  S22  1  0.41573050  0.25000000  0.56124071  1.0
  S  S23  1  0.58426950  0.75000000  0.43875929  1.0
  S  S24  1  0.14385543  0.25000000  0.84828004  1.0
  S  S25  1  0.85614457  0.75000000  0.15171996  1.0
  S  S26  1  0.10539294  0.25000000  0.24122927  1.0
  S  S27  1  0.89460706  0.75000000  0.75877073  1.0
  S  S28  1  0.09694535  0.25000000  0.58956910  1.0
  S  S29  1  0.90305465  0.75000000  0.41043090  1.0
