# generated using pymatgen
data_BaAl2Si3O14
_symmetry_space_group_name_H-M   'P 1'
_cell_length_a   9.66010376
_cell_length_b   9.76943530
_cell_length_c   6.71449279
_cell_angle_alpha   90.00000000
_cell_angle_beta   90.00000000
_cell_angle_gamma   90.00000000
_symmetry_Int_Tables_number   1
_chemical_formula_structural   BaAl2Si3O14
_chemical_formula_sum   'Ba2 Al4 Si6 O28'
_cell_volume   633.67192210
_cell_formula_units_Z   2
loop_
 _symmetry_equiv_pos_site_id
 _symmetry_equiv_pos_as_xyz
  1  'x, y, z'
loop_
 _atom_site_type_symbol
 _atom_site_label
 _atom_site_symmetry_multiplicity
 _atom_site_fract_x
 _atom_site_fract_y
 _atom_site_fract_z
 _atom_site_occupancy
  O  O0  1  0.44742524  0.79886814  0.98753380  1.0
  O  O1  1  0.94742524  0.70113186  0.01246620  1.0
  O  O2  1  0.55257476  0.20113186  0.98753380  1.0
  O  O3  1  0.05257476  0.29886814  0.01246620  1.0
  O  O4  1  0.37533711  0.94167425  0.66171588  1.0
  O  O5  1  0.87533711  0.55832575  0.33828412  1.0
  O  O6  1  0.62466289  0.05832575  0.66171588  1.0
  O  O7  1  0.12466289  0.44167425  0.33828412  1.0
  O  O8  1  0.20020211  0.53588734  0.97493289  1.0
  O  O9  1  0.70020211  0.96411266  0.02506711  1.0
  O  O10  1  0.79979789  0.46411266  0.97493289  1.0
  O  O11  1  0.29979789  0.03588734  0.02506711  1.0
  O  O12  1  0.17845345  0.82585567  0.87688494  1.0
  O  O13  1  0.67845345  0.67414433  0.12311506  1.0
  O  O14  1  0.82154655  0.17414433  0.87688494  1.0
  O  O15  1  0.32154655  0.32585567  0.12311506  1.0
  O  O16  1  0.37800907  0.62823523  0.38449969  1.0
  O  O17  1  0.87800907  0.87176477  0.61550031  1.0
  O  O18  1  0.62199093  0.37176477  0.38449969  1.0
  O  O19  1  0.12199093  0.12823523  0.61550031  1.0
  O  O20  1  0.37832971  0.60879875  0.56358600  1.0
  O  O21  1  0.87832971  0.89120125  0.43641400  1.0
  O  O22  1  0.62167029  0.39120125  0.56358600  1.0
  O  O23  1  0.12167029  0.10879875  0.43641400  1.0
  O  O24  1  0.05951782  0.62471154  0.61699436  1.0
  O  O25  1  0.55951782  0.87528846  0.38300564  1.0
  O  O26  1  0.94048218  0.37528846  0.61699436  1.0
  O  O27  1  0.44048218  0.12471154  0.38300564  1.0
  Ba  Ba28  1  0.50000000  0.50000000  0.95125785  1.0
  Ba  Ba29  1  0.00000000  0.00000000  0.04874215  1.0
  Si  Si30  1  0.33026424  0.89939143  0.88838568  1.0
  Si  Si31  1  0.83026424  0.60060857  0.11161432  1.0
  Si  Si32  1  0.66973576  0.10060857  0.88838568  1.0
  Si  Si33  1  0.16973576  0.39939143  0.11161432  1.0
  Si  Si34  1  0.50000000  0.00000000  0.51665956  1.0
  Si  Si35  1  0.00000000  0.50000000  0.48334044  1.0
  Al  Al36  1  0.09645523  0.66478519  0.86349799  1.0
  Al  Al37  1  0.59645523  0.83521481  0.13650201  1.0
  Al  Al38  1  0.90354477  0.33521481  0.86349799  1.0
  Al  Al39  1  0.40354477  0.16478519  0.13650201  1.0
