# generated using pymatgen
data_KCN7
_symmetry_space_group_name_H-M   'P 1'
_cell_length_a   10.31353434
_cell_length_b   6.39274020
_cell_length_c   8.67109727
_cell_angle_alpha   90.00000000
_cell_angle_beta   91.67871826
_cell_angle_gamma   90.00000000
_symmetry_Int_Tables_number   1
_chemical_formula_structural   KCN7
_chemical_formula_sum   'K4 C4 N28'
_cell_volume   571.45521106
_cell_formula_units_Z   4
loop_
 _symmetry_equiv_pos_site_id
 _symmetry_equiv_pos_as_xyz
  1  'x, y, z'
loop_
 _atom_site_type_symbol
 _atom_site_label
 _atom_site_symmetry_multiplicity
 _atom_site_fract_x
 _atom_site_fract_y
 _atom_site_fract_z
 _atom_site_occupancy
  K  K0  1  0.83415466  0.73371676  0.43172359  1.0
  K  K1  1  0.16584534  0.23371676  0.06827641  1.0
  K  K2  1  0.16584534  0.26628324  0.56827641  1.0
  K  K3  1  0.83415466  0.76628324  0.93172359  1.0
  C  C4  1  0.72435377  0.19401657  0.24470047  1.0
  C  C5  1  0.27564623  0.69401657  0.25529953  1.0
  C  C6  1  0.27564623  0.80598343  0.75529953  1.0
  C  C7  1  0.72435377  0.30598343  0.74470047  1.0
  N  N8  1  0.81695350  0.08046727  0.17852975  1.0
  N  N9  1  0.18304650  0.58046727  0.32147025  1.0
  N  N10  1  0.18304650  0.91953273  0.82147025  1.0
  N  N11  1  0.81695350  0.41953273  0.67852975  1.0
  N  N12  1  0.84785022  0.41445972  0.14185837  1.0
  N  N13  1  0.15214978  0.91445972  0.35814163  1.0
  N  N14  1  0.15214978  0.58554028  0.85814163  1.0
  N  N15  1  0.84785022  0.08554028  0.64185837  1.0
  N  N16  1  0.89360216  0.22540203  0.11459356  1.0
  N  N17  1  0.10639784  0.72540203  0.38540644  1.0
  N  N18  1  0.10639784  0.77459797  0.88540644  1.0
  N  N19  1  0.89360216  0.27459797  0.61459356  1.0
  N  N20  1  0.73980086  0.40071352  0.22535159  1.0
  N  N21  1  0.26019914  0.90071352  0.27464841  1.0
  N  N22  1  0.26019914  0.59928648  0.77464841  1.0
  N  N23  1  0.73980086  0.09928648  0.72535159  1.0
  N  N24  1  0.62624951  0.09490922  0.32430402  1.0
  N  N25  1  0.37375049  0.59490922  0.17569598  1.0
  N  N26  1  0.37375049  0.90509078  0.67569598  1.0
  N  N27  1  0.62624951  0.40509078  0.82430402  1.0
  N  N28  1  0.45763616  0.27412431  0.44784712  1.0
  N  N29  1  0.54236384  0.77412431  0.05215288  1.0
  N  N30  1  0.54236384  0.72587569  0.55215288  1.0
  N  N31  1  0.45763616  0.22587569  0.94784712  1.0
  N  N32  1  0.54216365  0.20097825  0.38527697  1.0
  N  N33  1  0.45783635  0.70097825  0.11472303  1.0
  N  N34  1  0.45783635  0.79902175  0.61472303  1.0
  N  N35  1  0.54216365  0.29902175  0.88527697  1.0
