# generated using pymatgen
data_Sc2Co
_symmetry_space_group_name_H-M   'P 1'
_cell_length_a   5.26951130
_cell_length_b   5.26951130
_cell_length_c   5.26951130
_cell_angle_alpha   106.58515924
_cell_angle_beta   106.58515924
_cell_angle_gamma   115.41170923
_symmetry_Int_Tables_number   1
_chemical_formula_structural   Sc2Co
_chemical_formula_sum   'Sc4 Co2'
_cell_volume   111.72160212
_cell_formula_units_Z   2
loop_
 _symmetry_equiv_pos_site_id
 _symmetry_equiv_pos_as_xyz
  1  'x, y, z'
loop_
 _atom_site_type_symbol
 _atom_site_label
 _atom_site_symmetry_multiplicity
 _atom_site_fract_x
 _atom_site_fract_y
 _atom_site_fract_z
 _atom_site_occupancy
  Sc  Sc0  1  0.82218342  0.32218342  1.14436685  1.0
  Sc  Sc1  1  0.67781658  0.82218342  0.50000000  1.0
  Sc  Sc2  1  0.32218342  0.17781658  0.50000000  1.0
  Sc  Sc3  1  1.17781658  0.67781658  0.85563315  1.0
  Co  Co4  1  0.25000000  0.25000000  -0.00000000  1.0
  Co  Co5  1  0.75000000  0.75000000  -0.00000000  1.0
