# generated using pymatgen
data_RbSr2Br5
_symmetry_space_group_name_H-M   'P 1'
_cell_length_a   9.56384993
_cell_length_b   8.48091856
_cell_length_c   13.57609174
_cell_angle_alpha   90.00000000
_cell_angle_beta   90.24238284
_cell_angle_gamma   90.00000000
_symmetry_Int_Tables_number   1
_chemical_formula_structural   RbSr2Br5
_chemical_formula_sum   'Rb4 Sr8 Br20'
_cell_volume   1101.15010285
_cell_formula_units_Z   4
loop_
 _symmetry_equiv_pos_site_id
 _symmetry_equiv_pos_as_xyz
  1  'x, y, z'
loop_
 _atom_site_type_symbol
 _atom_site_label
 _atom_site_symmetry_multiplicity
 _atom_site_fract_x
 _atom_site_fract_y
 _atom_site_fract_z
 _atom_site_occupancy
  Rb  Rb0  1  0.48996519  0.44899060  0.16769073  1.0
  Rb  Rb1  1  0.48996519  0.05100940  0.66769073  1.0
  Rb  Rb2  1  0.51003481  0.94899060  0.33230927  1.0
  Rb  Rb3  1  0.51003481  0.55100940  0.83230927  1.0
  Sr  Sr4  1  0.99748522  0.47861406  0.17844366  1.0
  Sr  Sr5  1  0.99748522  0.02138594  0.67844366  1.0
  Sr  Sr6  1  0.00251478  0.97861406  0.32155634  1.0
  Sr  Sr7  1  0.00251478  0.52138594  0.82155634  1.0
  Sr  Sr8  1  0.75274433  0.43394027  0.49443274  1.0
  Sr  Sr9  1  0.75274433  0.06605973  0.99443274  1.0
  Sr  Sr10  1  0.24725567  0.93394027  0.00556726  1.0
  Sr  Sr11  1  0.24725567  0.56605973  0.50556726  1.0
  Br  Br12  1  0.96192321  0.84110977  0.10157074  1.0
  Br  Br13  1  0.96192321  0.65889023  0.60157074  1.0
  Br  Br14  1  0.03807679  0.34110977  0.39842926  1.0
  Br  Br15  1  0.03807679  0.15889023  0.89842926  1.0
  Br  Br16  1  0.78980092  0.04926623  0.49715323  1.0
  Br  Br17  1  0.78980092  0.45073377  0.99715323  1.0
  Br  Br18  1  0.21019908  0.54926623  0.00284677  1.0
  Br  Br19  1  0.21019908  0.95073377  0.50284677  1.0
  Br  Br20  1  0.78739133  0.66714712  0.31717629  1.0
  Br  Br21  1  0.78739133  0.83285288  0.81717629  1.0
  Br  Br22  1  0.21260867  0.16714712  0.18282371  1.0
  Br  Br23  1  0.21260867  0.33285288  0.68282371  1.0
  Br  Br24  1  0.77441933  0.19066730  0.21445793  1.0
  Br  Br25  1  0.77441933  0.30933270  0.71445793  1.0
  Br  Br26  1  0.22558067  0.69066730  0.28554207  1.0
  Br  Br27  1  0.22558067  0.80933270  0.78554207  1.0
  Br  Br28  1  0.46672903  0.32781469  0.41790465  1.0
  Br  Br29  1  0.46672903  0.17218531  0.91790465  1.0
  Br  Br30  1  0.53327097  0.82781469  0.08209535  1.0
  Br  Br31  1  0.53327097  0.67218531  0.58209535  1.0
