# generated using pymatgen
data_Li2MnGeS4
_symmetry_space_group_name_H-M   'P 1'
_cell_length_a   13.38679405
_cell_length_b   7.90160927
_cell_length_c   6.35113264
_cell_angle_alpha   90.00000000
_cell_angle_beta   90.00000000
_cell_angle_gamma   90.00000000
_symmetry_Int_Tables_number   1
_chemical_formula_structural   Li2MnGeS4
_chemical_formula_sum   'Li8 Mn4 Ge4 S16'
_cell_volume   671.80512846
_cell_formula_units_Z   4
loop_
 _symmetry_equiv_pos_site_id
 _symmetry_equiv_pos_as_xyz
  1  'x, y, z'
loop_
 _atom_site_type_symbol
 _atom_site_label
 _atom_site_symmetry_multiplicity
 _atom_site_fract_x
 _atom_site_fract_y
 _atom_site_fract_z
 _atom_site_occupancy
  Li  Li0  1  0.42299807  0.74569498  0.39324627  1.0
  Li  Li1  1  0.92299807  0.75430502  0.39324627  1.0
  Li  Li2  1  0.57700193  0.25430502  0.89324627  1.0
  Li  Li3  1  0.07700193  0.24569498  0.89324627  1.0
  Li  Li4  1  0.16237137  0.99804266  0.38843120  1.0
  Li  Li5  1  0.66237137  0.50195734  0.38843120  1.0
  Li  Li6  1  0.83762863  0.00195734  0.88843120  1.0
  Li  Li7  1  0.33762863  0.49804266  0.88843120  1.0
  Mn  Mn8  1  0.16323007  0.49100144  0.38772082  1.0
  Mn  Mn9  1  0.66323007  0.00899856  0.38772082  1.0
  Mn  Mn10  1  0.83676993  0.50899856  0.88772082  1.0
  Mn  Mn11  1  0.33676993  0.99100144  0.88772082  1.0
  Ge  Ge12  1  0.41194519  0.24196641  0.38856545  1.0
  Ge  Ge13  1  0.91194519  0.25803359  0.38856545  1.0
  Ge  Ge14  1  0.58805481  0.75803359  0.88856545  1.0
  Ge  Ge15  1  0.08805481  0.74196641  0.88856545  1.0
  S  S16  1  0.40745843  0.24170096  0.03416458  1.0
  S  S17  1  0.90745843  0.25829904  0.03416458  1.0
  S  S18  1  0.59254157  0.75829904  0.53416458  1.0
  S  S19  1  0.09254157  0.74170096  0.53416458  1.0
  S  S20  1  0.33472372  0.47772657  0.50357066  1.0
  S  S21  1  0.83472372  0.02227343  0.50357066  1.0
  S  S22  1  0.66527628  0.52227343  0.00357066  1.0
  S  S23  1  0.16527628  0.97772657  0.00357066  1.0
  S  S24  1  0.33525516  0.00841921  0.50893586  1.0
  S  S25  1  0.83525516  0.49158079  0.50893586  1.0
  S  S26  1  0.66474484  0.99158079  0.00893586  1.0
  S  S27  1  0.16474484  0.50841921  0.00893586  1.0
  S  S28  1  0.07050729  0.24753499  0.50436516  1.0
  S  S29  1  0.57050729  0.25246501  0.50436516  1.0
  S  S30  1  0.92949271  0.75246501  0.00436516  1.0
  S  S31  1  0.42949271  0.74753499  0.00436516  1.0
