# generated using pymatgen
data_AlTlBr4
_symmetry_space_group_name_H-M   'P 1'
_cell_length_a   9.18587733
_cell_length_b   7.78034423
_cell_length_c   13.44484943
_cell_angle_alpha   90.00000000
_cell_angle_beta   103.07002772
_cell_angle_gamma   90.00000000
_symmetry_Int_Tables_number   1
_chemical_formula_structural   AlTlBr4
_chemical_formula_sum   'Al4 Tl4 Br16'
_cell_volume   936.00127916
_cell_formula_units_Z   4
loop_
 _symmetry_equiv_pos_site_id
 _symmetry_equiv_pos_as_xyz
  1  'x, y, z'
loop_
 _atom_site_type_symbol
 _atom_site_label
 _atom_site_symmetry_multiplicity
 _atom_site_fract_x
 _atom_site_fract_y
 _atom_site_fract_z
 _atom_site_occupancy
  Al  Al0  1  0.71551609  0.78698286  0.44933090  1.0
  Al  Al1  1  0.71551609  0.21301714  0.94933090  1.0
  Al  Al2  1  0.28448391  0.78698286  0.05066910  1.0
  Al  Al3  1  0.28448391  0.21301714  0.55066910  1.0
  Tl  Tl4  1  0.50000000  0.40279711  0.25000000  1.0
  Tl  Tl5  1  0.50000000  0.59720289  0.75000000  1.0
  Tl  Tl6  1  -0.00000000  0.92518664  0.25000000  1.0
  Tl  Tl7  1  -0.00000000  0.07481336  0.75000000  1.0
  Br  Br8  1  0.84342243  0.59143602  0.36819320  1.0
  Br  Br9  1  0.84342243  0.40856398  0.86819320  1.0
  Br  Br10  1  0.15657757  0.59143602  0.13180680  1.0
  Br  Br11  1  0.15657757  0.40856398  0.63180680  1.0
  Br  Br12  1  0.78822106  0.24649064  0.12696252  1.0
  Br  Br13  1  0.78822106  0.75350936  0.62696252  1.0
  Br  Br14  1  0.21177894  0.24649064  0.37303748  1.0
  Br  Br15  1  0.21177894  0.75350936  0.87303748  1.0
  Br  Br16  1  0.77459359  0.93590370  0.90582355  1.0
  Br  Br17  1  0.77459359  0.06409630  0.40582355  1.0
  Br  Br18  1  0.22540641  0.93590370  0.59417645  1.0
  Br  Br19  1  0.22540641  0.06409630  0.09417645  1.0
  Br  Br20  1  0.46100640  0.72981888  0.39940769  1.0
  Br  Br21  1  0.46100640  0.27018112  0.89940769  1.0
  Br  Br22  1  0.53899360  0.72981888  0.10059231  1.0
  Br  Br23  1  0.53899360  0.27018112  0.60059231  1.0
