# generated using pymatgen
data_EuCd2
_symmetry_space_group_name_H-M   'P 1'
_cell_length_a   6.22961577
_cell_length_b   6.22961577
_cell_length_c   6.22961577
_cell_angle_alpha   131.51342516
_cell_angle_beta   110.37740100
_cell_angle_gamma   89.36985684
_symmetry_Int_Tables_number   1
_chemical_formula_structural   EuCd2
_chemical_formula_sum   'Eu2 Cd4'
_cell_volume   161.16731351
_cell_formula_units_Z   2
loop_
 _symmetry_equiv_pos_site_id
 _symmetry_equiv_pos_as_xyz
  1  'x, y, z'
loop_
 _atom_site_type_symbol
 _atom_site_label
 _atom_site_symmetry_multiplicity
 _atom_site_fract_x
 _atom_site_fract_y
 _atom_site_fract_z
 _atom_site_occupancy
  Eu  Eu0  1  1.74718438  1.49718438  1.25000000  1.0
  Eu  Eu1  1  0.25281562  0.50281562  0.75000000  1.0
  Cd  Cd2  1  1.32927819  0.83338520  1.49589298  1.0
  Cd  Cd3  1  1.16250778  0.16661480  0.99589298  1.0
  Cd  Cd4  1  0.67072181  1.16661480  0.50410702  1.0
  Cd  Cd5  1  0.83749222  0.83338520  0.00410702  1.0
