# generated using pymatgen
data_K2O2
_symmetry_space_group_name_H-M   'P 1'
_cell_length_a   6.72858252
_cell_length_b   6.74770121
_cell_length_c   3.62460817
_cell_angle_alpha   90.00000000
_cell_angle_beta   90.00000000
_cell_angle_gamma   90.00000000
_symmetry_Int_Tables_number   1
_chemical_formula_structural   K2O2
_chemical_formula_sum   'K4 O4'
_cell_volume   164.56614358
_cell_formula_units_Z   2
loop_
 _symmetry_equiv_pos_site_id
 _symmetry_equiv_pos_as_xyz
  1  'x, y, z'
loop_
 _atom_site_type_symbol
 _atom_site_label
 _atom_site_symmetry_multiplicity
 _atom_site_fract_x
 _atom_site_fract_y
 _atom_site_fract_z
 _atom_site_occupancy
  K  K0  1  0.81179215  0.18730302  0.00000000  1.0
  K  K1  1  0.18820785  0.81269698  0.00000000  1.0
  K  K2  1  0.31179215  0.31269698  0.00000000  1.0
  K  K3  1  0.68820785  0.68730302  0.00000000  1.0
  O  O4  1  0.08033307  0.08026143  0.50000000  1.0
  O  O5  1  0.91966693  0.91973857  0.50000000  1.0
  O  O6  1  0.58033307  0.41973857  0.50000000  1.0
  O  O7  1  0.41966693  0.58026143  0.50000000  1.0
