# generated using pymatgen
data_HgHNO4
_symmetry_space_group_name_H-M   'P 1'
_cell_length_a   6.74696885
_cell_length_b   7.24276872
_cell_length_c   8.69796221
_cell_angle_alpha   90.00000000
_cell_angle_beta   118.11310566
_cell_angle_gamma   90.00000000
_symmetry_Int_Tables_number   1
_chemical_formula_structural   HgHNO4
_chemical_formula_sum   'Hg4 H4 N4 O16'
_cell_volume   374.89429497
_cell_formula_units_Z   4
loop_
 _symmetry_equiv_pos_site_id
 _symmetry_equiv_pos_as_xyz
  1  'x, y, z'
loop_
 _atom_site_type_symbol
 _atom_site_label
 _atom_site_symmetry_multiplicity
 _atom_site_fract_x
 _atom_site_fract_y
 _atom_site_fract_z
 _atom_site_occupancy
  Hg  Hg0  1  0.51752897  0.37844848  0.25917993  1.0
  Hg  Hg1  1  0.51752897  0.12155152  0.75917993  1.0
  Hg  Hg2  1  0.48247103  0.87844848  0.24082007  1.0
  Hg  Hg3  1  0.48247103  0.62155152  0.74082007  1.0
  H  H4  1  0.78093921  0.85092593  0.93056248  1.0
  H  H5  1  0.78093921  0.64907407  0.43056248  1.0
  H  H6  1  0.21906079  0.35092593  0.56943752  1.0
  H  H7  1  0.21906079  0.14907407  0.06943752  1.0
  N  N8  1  0.91573717  0.33129178  0.08116163  1.0
  N  N9  1  0.91573717  0.16870822  0.58116163  1.0
  N  N10  1  0.08426283  0.83129178  0.41883837  1.0
  N  N11  1  0.08426283  0.66870822  0.91883837  1.0
  O  O12  1  0.95164228  0.29552585  0.49504857  1.0
  O  O13  1  0.95164228  0.20447415  0.99504857  1.0
  O  O14  1  0.04835772  0.79552585  0.00495143  1.0
  O  O15  1  0.04835772  0.70447415  0.50495143  1.0
  O  O16  1  0.92592702  0.91281762  0.29666992  1.0
  O  O17  1  0.92592702  0.58718238  0.79666992  1.0
  O  O18  1  0.07407298  0.41281762  0.20333008  1.0
  O  O19  1  0.07407298  0.08718238  0.70333008  1.0
  O  O20  1  0.71253679  0.37279229  0.03673023  1.0
  O  O21  1  0.71253679  0.12720771  0.53673023  1.0
  O  O22  1  0.28746321  0.87279229  0.46326977  1.0
  O  O23  1  0.28746321  0.62720771  0.96326977  1.0
  O  O24  1  0.38711484  0.13449660  0.11827336  1.0
  O  O25  1  0.38711484  0.36550340  0.61827336  1.0
  O  O26  1  0.61288516  0.63449660  0.38172664  1.0
  O  O27  1  0.61288516  0.86550340  0.88172664  1.0
