# generated using pymatgen
data_Tm(BO2)6
_symmetry_space_group_name_H-M   'P 1'
_cell_length_a   8.38693207
_cell_length_b   8.38693207
_cell_length_c   8.38693207
_cell_angle_alpha   63.10249263
_cell_angle_beta   63.10249263
_cell_angle_gamma   63.10249263
_symmetry_Int_Tables_number   1
_chemical_formula_structural   Tm(BO2)6
_chemical_formula_sum   'Tm2 B12 O24'
_cell_volume   445.86134057
_cell_formula_units_Z   2
loop_
 _symmetry_equiv_pos_site_id
 _symmetry_equiv_pos_as_xyz
  1  'x, y, z'
loop_
 _atom_site_type_symbol
 _atom_site_label
 _atom_site_symmetry_multiplicity
 _atom_site_fract_x
 _atom_site_fract_y
 _atom_site_fract_z
 _atom_site_occupancy
  Tm  Tm0  1  0.00579897  0.00579897  0.00579897  1.0
  Tm  Tm1  1  0.50579897  0.50579897  -0.49420103  1.0
  O  O2  1  0.83891420  -0.21571636  0.12849227  1.0
  O  O3  1  0.33891420  0.62849227  -0.71571636  1.0
  O  O4  1  0.62849227  0.28428364  -0.66108580  1.0
  O  O5  1  1.12849227  -0.16108580  -0.21571636  1.0
  O  O6  1  0.28428364  0.33891420  -0.37150773  1.0
  O  O7  1  0.78428364  0.12849227  -0.16108580  1.0
  O  O8  1  1.25007337  -0.32390404  0.03321863  1.0
  O  O9  1  0.75007337  0.53321863  -0.82390404  1.0
  O  O10  1  0.53321863  0.17609596  -0.24992663  1.0
  O  O11  1  1.03321863  0.25007337  -0.32390404  1.0
  O  O12  1  0.17609596  0.75007337  -0.46678137  1.0
  O  O13  1  0.67609596  0.03321863  0.25007337  1.0
  O  O14  1  1.06981098  -0.45903650  -0.00163877  1.0
  O  O15  1  0.56981098  0.49836123  -0.95903650  1.0
  O  O16  1  0.49836123  0.04096350  -0.43018902  1.0
  O  O17  1  0.99836123  0.06981098  -0.45903650  1.0
  O  O18  1  0.04096350  0.56981098  -0.50163877  1.0
  O  O19  1  0.54096350  -0.00163877  0.06981098  1.0
  O  O20  1  0.37538923  0.54896017  -0.22205058  1.0
  O  O21  1  0.87538923  -0.72205058  0.04896017  1.0
  O  O22  1  0.27794942  0.04896017  -0.12461077  1.0
  O  O23  1  0.77794942  0.37538923  -0.45103983  1.0
  O  O24  1  1.04896017  -0.12461077  -0.72205058  1.0
  O  O25  1  0.54896017  0.77794942  -0.62461077  1.0
  B  B26  1  0.88989348  -0.38514838  0.09907436  1.0
  B  B27  1  0.38989348  0.59907436  -0.88514838  1.0
  B  B28  1  0.59907436  0.11485162  -0.61010652  1.0
  B  B29  1  1.09907436  -0.11010652  -0.38514838  1.0
  B  B30  1  0.11485162  0.38989348  -0.40092564  1.0
  B  B31  1  0.61485162  0.09907436  -0.11010652  1.0
  B  B32  1  1.20833980  -0.35881124  -0.10035957  1.0
  B  B33  1  0.70833980  0.39964043  -0.85881124  1.0
  B  B34  1  0.39964043  0.14118876  -0.29166020  1.0
  B  B35  1  0.89964043  0.20833980  -0.35881124  1.0
  B  B36  1  0.14118876  0.70833980  -0.60035957  1.0
  B  B37  1  0.64118876  -0.10035957  0.20833980  1.0
