# generated using pymatgen
data_YbVO4
_symmetry_space_group_name_H-M   'P 1'
_cell_length_a   5.95385581
_cell_length_b   5.95385581
_cell_length_c   5.95385581
_cell_angle_alpha   106.16514509
_cell_angle_beta   106.16514509
_cell_angle_gamma   116.30735369
_symmetry_Int_Tables_number   1
_chemical_formula_structural   YbVO4
_chemical_formula_sum   'Yb2 V2 O8'
_cell_volume   160.71532756
_cell_formula_units_Z   2
loop_
 _symmetry_equiv_pos_site_id
 _symmetry_equiv_pos_as_xyz
  1  'x, y, z'
loop_
 _atom_site_type_symbol
 _atom_site_label
 _atom_site_symmetry_multiplicity
 _atom_site_fract_x
 _atom_site_fract_y
 _atom_site_fract_z
 _atom_site_occupancy
  Yb  Yb0  1  0.75000000  1.25000000  0.50000000  1.0
  Yb  Yb1  1  -0.00000000  -0.00000000  -0.00000000  1.0
  V  V2  1  1.25000000  0.75000000  0.50000000  1.0
  V  V3  1  0.50000000  0.50000000  0.00000000  1.0
  O  O4  1  1.07608812  0.76151682  0.68542870  1.0
  O  O5  1  1.07608812  1.39065942  1.31457130  1.0
  O  O6  1  0.67391188  0.85934058  0.18542870  1.0
  O  O7  1  0.67391188  0.48848318  0.81457130  1.0
  O  O8  1  1.23848318  0.92391188  0.31457130  1.0
  O  O9  1  1.60934058  0.92391188  0.68542870  1.0
  O  O10  1  1.14065942  1.32608812  0.81457130  1.0
  O  O11  1  0.51151682  0.32608812  0.18542870  1.0
