# generated using pymatgen
data_K5CuSb2
_symmetry_space_group_name_H-M   'P 1'
_cell_length_a   10.07765222
_cell_length_b   10.07765222
_cell_length_c   10.07765222
_cell_angle_alpha   34.60370460
_cell_angle_beta   34.60370460
_cell_angle_gamma   34.60370460
_symmetry_Int_Tables_number   1
_chemical_formula_structural   K5CuSb2
_chemical_formula_sum   'K5 Cu1 Sb2'
_cell_volume   294.52221931
_cell_formula_units_Z   1
loop_
 _symmetry_equiv_pos_site_id
 _symmetry_equiv_pos_as_xyz
  1  'x, y, z'
loop_
 _atom_site_type_symbol
 _atom_site_label
 _atom_site_symmetry_multiplicity
 _atom_site_fract_x
 _atom_site_fract_y
 _atom_site_fract_z
 _atom_site_occupancy
  K  K0  1  0.78267448  0.78267448  0.78267448  1.0
  K  K1  1  1.21732552  1.21732552  0.21732552  1.0
  K  K2  1  1.63442937  0.63442937  0.63442937  1.0
  K  K3  1  1.36557063  0.36557063  0.36557063  1.0
  K  K4  1  1.50000000  0.50000000  0.50000000  1.0
  Cu  Cu5  1  0.00000000  0.00000000  0.00000000  1.0
  Sb  Sb6  1  0.91148718  0.91148718  0.91148718  1.0
  Sb  Sb7  1  1.08851282  1.08851282  0.08851282  1.0
