# generated using pymatgen
data_AsCS2N2OF5
_symmetry_space_group_name_H-M   'P 1'
_cell_length_a   8.27862830
_cell_length_b   11.26692960
_cell_length_c   10.47362682
_cell_angle_alpha   90.00000000
_cell_angle_beta   120.49679679
_cell_angle_gamma   90.00000000
_symmetry_Int_Tables_number   1
_chemical_formula_structural   AsCS2N2OF5
_chemical_formula_sum   'As4 C4 S8 N8 O4 F20'
_cell_volume   841.77446974
_cell_formula_units_Z   4
loop_
 _symmetry_equiv_pos_site_id
 _symmetry_equiv_pos_as_xyz
  1  'x, y, z'
loop_
 _atom_site_type_symbol
 _atom_site_label
 _atom_site_symmetry_multiplicity
 _atom_site_fract_x
 _atom_site_fract_y
 _atom_site_fract_z
 _atom_site_occupancy
  As  As0  1  0.32912738  0.62504002  0.12778882  1.0
  As  As1  1  0.32912738  0.87495998  0.62778882  1.0
  As  As2  1  0.67087262  0.12504002  0.37221118  1.0
  As  As3  1  0.67087262  0.37495998  0.87221118  1.0
  C  C4  1  0.01286431  0.82590710  0.33478404  1.0
  C  C5  1  0.01286431  0.67409290  0.83478404  1.0
  C  C6  1  0.98713569  0.32590710  0.16521596  1.0
  C  C7  1  0.98713569  0.17409290  0.66521596  1.0
  S  S8  1  0.08730516  0.93095532  0.24555472  1.0
  S  S9  1  0.08730516  0.56904468  0.74555472  1.0
  S  S10  1  0.91269484  0.43095532  0.25444528  1.0
  S  S11  1  0.91269484  0.06904468  0.75444528  1.0
  S  S12  1  0.75972322  0.82032753  0.07357888  1.0
  S  S13  1  0.75972322  0.67967247  0.57357888  1.0
  S  S14  1  0.24027678  0.32032753  0.42642112  1.0
  S  S15  1  0.24027678  0.17967247  0.92642112  1.0
  N  N16  1  0.09265813  0.41561347  0.41894136  1.0
  N  N17  1  0.09265813  0.08438653  0.91894136  1.0
  N  N18  1  0.90734187  0.91561347  0.08105864  1.0
  N  N19  1  0.90734187  0.58438653  0.58105864  1.0
  N  N20  1  0.14965356  0.27443376  0.25911580  1.0
  N  N21  1  0.14965356  0.22556624  0.75911580  1.0
  N  N22  1  0.85034644  0.77443376  0.24088420  1.0
  N  N23  1  0.85034644  0.72556624  0.74088420  1.0
  O  O24  1  0.10070043  0.79871492  0.47326510  1.0
  O  O25  1  0.10070043  0.70128508  0.97326510  1.0
  O  O26  1  0.89929957  0.29871492  0.02673490  1.0
  O  O27  1  0.89929957  0.20128508  0.52673490  1.0
  F  F28  1  0.21264551  0.61725762  0.23206827  1.0
  F  F29  1  0.21264551  0.88274238  0.73206827  1.0
  F  F30  1  0.78735449  0.11725762  0.26793173  1.0
  F  F31  1  0.78735449  0.38274238  0.76793173  1.0
  F  F32  1  0.23120361  0.48357066  0.04601068  1.0
  F  F33  1  0.23120361  0.01642934  0.54601068  1.0
  F  F34  1  0.76879639  0.98357066  0.45398932  1.0
  F  F35  1  0.76879639  0.51642934  0.95398932  1.0
  F  F36  1  0.40856699  0.77062907  0.19574488  1.0
  F  F37  1  0.40856699  0.72937093  0.69574488  1.0
  F  F38  1  0.59143301  0.27062907  0.30425512  1.0
  F  F39  1  0.59143301  0.22937093  0.80425512  1.0
  F  F40  1  0.42609938  0.86378728  0.50885779  1.0
  F  F41  1  0.42609938  0.63621272  1.00885779  1.0
  F  F42  1  0.57390062  0.36378728  -0.00885779  1.0
  F  F43  1  0.57390062  0.13621272  0.49114221  1.0
  F  F44  1  0.53568204  0.55861739  0.27275813  1.0
  F  F45  1  0.53568204  0.94138261  0.77275813  1.0
  F  F46  1  0.46431796  0.05861739  0.22724187  1.0
  F  F47  1  0.46431796  0.44138261  0.72724187  1.0
