# generated using pymatgen
data_Si2NiSe4
_symmetry_space_group_name_H-M   'P 1'
_cell_length_a   6.84443557
_cell_length_b   6.84443557
_cell_length_c   6.44358890
_cell_angle_alpha   71.67149246
_cell_angle_beta   108.32850754
_cell_angle_gamma   150.54346133
_symmetry_Int_Tables_number   1
_chemical_formula_structural   Si2NiSe4
_chemical_formula_sum   'Si2 Ni1 Se4'
_cell_volume   140.37686682
_cell_formula_units_Z   1
loop_
 _symmetry_equiv_pos_site_id
 _symmetry_equiv_pos_as_xyz
  1  'x, y, z'
loop_
 _atom_site_type_symbol
 _atom_site_label
 _atom_site_symmetry_multiplicity
 _atom_site_fract_x
 _atom_site_fract_y
 _atom_site_fract_z
 _atom_site_occupancy
  Si  Si0  1  0.73987161  -0.73987161  0.72184193  1.0
  Si  Si1  1  1.26012839  -0.26012839  0.27815807  1.0
  Ni  Ni2  1  0.00000000  0.00000000  0.00000000  1.0
  Se  Se3  1  0.86968239  -0.86968239  0.51374628  1.0
  Se  Se4  1  1.13031761  -0.13031761  0.48625372  1.0
  Se  Se5  1  0.62340272  -0.62340272  0.99397061  1.0
  Se  Se6  1  1.37659728  -0.37659728  0.00602939  1.0
