# generated using pymatgen
data_MgPb2WO6
_symmetry_space_group_name_H-M   'P 1'
_cell_length_a   11.59916012
_cell_length_b   7.99980636
_cell_length_c   5.79021896
_cell_angle_alpha   90.00000000
_cell_angle_beta   90.00000000
_cell_angle_gamma   90.00000000
_symmetry_Int_Tables_number   1
_chemical_formula_structural   MgPb2WO6
_chemical_formula_sum   'Mg4 Pb8 W4 O24'
_cell_volume   537.28040944
_cell_formula_units_Z   4
loop_
 _symmetry_equiv_pos_site_id
 _symmetry_equiv_pos_as_xyz
  1  'x, y, z'
loop_
 _atom_site_type_symbol
 _atom_site_label
 _atom_site_symmetry_multiplicity
 _atom_site_fract_x
 _atom_site_fract_y
 _atom_site_fract_z
 _atom_site_occupancy
  Mg  Mg0  1  0.62113888  0.25000000  0.74563770  1.0
  Mg  Mg1  1  0.12113888  0.25000000  0.75436230  1.0
  Mg  Mg2  1  0.37886112  0.75000000  0.25436230  1.0
  Mg  Mg3  1  0.87886112  0.75000000  0.24563770  1.0
  Pb  Pb4  1  0.64689903  0.99390210  0.21027105  1.0
  Pb  Pb5  1  0.64689903  0.50609790  0.21027105  1.0
  Pb  Pb6  1  0.14689903  0.99390210  0.28972895  1.0
  Pb  Pb7  1  0.14689903  0.50609790  0.28972895  1.0
  Pb  Pb8  1  0.35310097  0.49390210  0.78972895  1.0
  Pb  Pb9  1  0.35310097  0.00609790  0.78972895  1.0
  Pb  Pb10  1  0.85310097  0.49390210  0.71027105  1.0
  Pb  Pb11  1  0.85310097  0.00609790  0.71027105  1.0
  W  W12  1  0.88586494  0.25000000  0.24402328  1.0
  W  W13  1  0.38586494  0.25000000  0.25597672  1.0
  W  W14  1  0.11413506  0.75000000  0.75597672  1.0
  W  W15  1  0.61413506  0.75000000  0.74402328  1.0
  O  O16  1  0.86683231  0.49012458  0.27070597  1.0
  O  O17  1  0.86683231  0.00987542  0.27070597  1.0
  O  O18  1  0.36683231  0.49012458  0.22929403  1.0
  O  O19  1  0.36683231  0.00987542  0.22929403  1.0
  O  O20  1  0.13316769  0.99012458  0.72929403  1.0
  O  O21  1  0.13316769  0.50987542  0.72929403  1.0
  O  O22  1  0.63316769  0.99012458  0.77070597  1.0
  O  O23  1  0.63316769  0.50987542  0.77070597  1.0
  O  O24  1  0.99751369  0.25000000  0.48454928  1.0
  O  O25  1  0.49751369  0.25000000  0.01545072  1.0
  O  O26  1  0.00248631  0.75000000  0.51545072  1.0
  O  O27  1  0.50248631  0.75000000  0.98454928  1.0
  O  O28  1  0.99005727  0.25000000  0.00555461  1.0
  O  O29  1  0.49005727  0.25000000  0.49444539  1.0
  O  O30  1  0.00994273  0.75000000  0.99444539  1.0
  O  O31  1  0.50994273  0.75000000  0.50555461  1.0
  O  O32  1  0.76362281  0.25000000  0.52439124  1.0
  O  O33  1  0.26362281  0.25000000  0.97560876  1.0
  O  O34  1  0.23637719  0.75000000  0.47560876  1.0
  O  O35  1  0.73637719  0.75000000  0.02439124  1.0
  O  O36  1  0.74993644  0.25000000  0.03902903  1.0
  O  O37  1  0.24993644  0.25000000  0.46097097  1.0
  O  O38  1  0.25006356  0.75000000  0.96097097  1.0
  O  O39  1  0.75006356  0.75000000  0.53902903  1.0
