# generated using pymatgen
data_SeO2
_symmetry_space_group_name_H-M   'P 1'
_cell_length_a   5.22084095
_cell_length_b   4.63163545
_cell_length_c   8.30439644
_cell_angle_alpha   90.00000000
_cell_angle_beta   90.00000000
_cell_angle_gamma   90.00000000
_symmetry_Int_Tables_number   1
_chemical_formula_structural   SeO2
_chemical_formula_sum   'Se4 O8'
_cell_volume   200.80887628
_cell_formula_units_Z   4
loop_
 _symmetry_equiv_pos_site_id
 _symmetry_equiv_pos_as_xyz
  1  'x, y, z'
loop_
 _atom_site_type_symbol
 _atom_site_label
 _atom_site_symmetry_multiplicity
 _atom_site_fract_x
 _atom_site_fract_y
 _atom_site_fract_z
 _atom_site_occupancy
  Se  Se0  1  0.50000000  0.59935539  0.09881300  1.0
  Se  Se1  1  0.50000000  0.40064461  0.59881300  1.0
  Se  Se2  1  0.00000000  0.75856004  0.46769423  1.0
  Se  Se3  1  0.00000000  0.24143996  0.96769423  1.0
  O  O4  1  0.75051645  0.32418189  0.11701169  1.0
  O  O5  1  0.75051645  0.67581811  0.61701169  1.0
  O  O6  1  0.24948355  0.32418189  0.11701169  1.0
  O  O7  1  0.24948355  0.67581811  0.61701169  1.0
  O  O8  1  0.50000000  0.70676135  0.28723388  1.0
  O  O9  1  0.50000000  0.29323865  0.78723388  1.0
  O  O10  1  0.00000000  0.89020680  -0.01156451  1.0
  O  O11  1  0.00000000  0.10979320  0.48843549  1.0
