# generated using pymatgen
data_CsMo3Cl7
_symmetry_space_group_name_H-M   'P 1'
_cell_length_a   10.04140082
_cell_length_b   10.04140082
_cell_length_c   15.98775125
_cell_angle_alpha   90.00000000
_cell_angle_beta   90.00000000
_cell_angle_gamma   120.00000000
_symmetry_Int_Tables_number   1
_chemical_formula_structural   CsMo3Cl7
_chemical_formula_sum   'Cs4 Mo12 Cl28'
_cell_volume   1396.06815335
_cell_formula_units_Z   4
loop_
 _symmetry_equiv_pos_site_id
 _symmetry_equiv_pos_as_xyz
  1  'x, y, z'
loop_
 _atom_site_type_symbol
 _atom_site_label
 _atom_site_symmetry_multiplicity
 _atom_site_fract_x
 _atom_site_fract_y
 _atom_site_fract_z
 _atom_site_occupancy
  Cs  Cs0  1  0.33333333  0.66666667  0.33149357  1.0
  Cs  Cs1  1  0.66666667  0.33333333  0.83149357  1.0
  Cs  Cs2  1  0.00000000  0.00000000  0.03091230  1.0
  Cs  Cs3  1  0.00000000  0.00000000  0.53091230  1.0
  Mo  Mo4  1  0.67431964  0.48778285  0.21730450  1.0
  Mo  Mo5  1  0.48778285  0.67431964  0.71730450  1.0
  Mo  Mo6  1  0.81346320  0.32568036  0.21730450  1.0
  Mo  Mo7  1  0.51221715  0.18653680  0.21730450  1.0
  Mo  Mo8  1  0.32568036  0.81346320  0.71730450  1.0
  Mo  Mo9  1  0.18653680  0.51221715  0.71730450  1.0
  Mo  Mo10  1  0.82090459  0.47970716  0.35086504  1.0
  Mo  Mo11  1  0.47970716  0.82090459  0.85086504  1.0
  Mo  Mo12  1  0.65880257  0.17909541  0.35086504  1.0
  Mo  Mo13  1  0.52029284  0.34119743  0.35086504  1.0
  Mo  Mo14  1  0.17909541  0.65880257  0.85086504  1.0
  Mo  Mo15  1  0.34119743  0.52029284  0.85086504  1.0
  Cl  Cl16  1  0.03037091  0.67897152  0.43547008  1.0
  Cl  Cl17  1  0.67897152  0.03037091  0.93547008  1.0
  Cl  Cl18  1  0.64860061  0.96962909  0.43547008  1.0
  Cl  Cl19  1  0.32102848  0.35139939  0.43547008  1.0
  Cl  Cl20  1  0.96962909  0.64860061  0.93547008  1.0
  Cl  Cl21  1  0.35139939  0.32102848  0.93547008  1.0
  Cl  Cl22  1  0.30644819  0.98740091  0.13327991  1.0
  Cl  Cl23  1  0.98740091  0.30644819  0.63327991  1.0
  Cl  Cl24  1  0.68095272  0.69355181  0.13327991  1.0
  Cl  Cl25  1  0.01259909  0.31904728  0.13327991  1.0
  Cl  Cl26  1  0.69355181  0.68095272  0.63327991  1.0
  Cl  Cl27  1  0.31904728  0.01259909  0.63327991  1.0
  Cl  Cl28  1  0.68258200  0.62723458  0.34863712  1.0
  Cl  Cl29  1  0.62723458  0.68258200  0.84863712  1.0
  Cl  Cl30  1  0.94465259  0.31741800  0.34863712  1.0
  Cl  Cl31  1  0.37276542  0.05534741  0.34863712  1.0
  Cl  Cl32  1  0.31741800  0.94465259  0.84863712  1.0
  Cl  Cl33  1  0.05534741  0.37276542  0.84863712  1.0
  Cl  Cl34  1  0.95975459  0.61195252  0.21976346  1.0
  Cl  Cl35  1  0.61195252  0.95975459  0.71976346  1.0
  Cl  Cl36  1  0.65219793  0.04024541  0.21976346  1.0
  Cl  Cl37  1  0.38804748  0.34780207  0.21976346  1.0
  Cl  Cl38  1  0.04024541  0.65219793  0.71976346  1.0
  Cl  Cl39  1  0.34780207  0.38804748  0.71976346  1.0
  Cl  Cl40  1  0.33333333  0.66666667  -0.02587053  1.0
  Cl  Cl41  1  0.66666667  0.33333333  0.47412947  1.0
  Cl  Cl42  1  0.33333333  0.66666667  0.59430430  1.0
  Cl  Cl43  1  0.66666667  0.33333333  0.09430430  1.0
