# generated using pymatgen
data_Cs2LiCl3
_symmetry_space_group_name_H-M   'P 1'
_cell_length_a   11.89249511
_cell_length_b   11.89249511
_cell_length_c   7.87220594
_cell_angle_alpha   90.00000000
_cell_angle_beta   90.00000000
_cell_angle_gamma   159.24358238
_symmetry_Int_Tables_number   1
_chemical_formula_structural   Cs2LiCl3
_chemical_formula_sum   'Cs4 Li2 Cl6'
_cell_volume   394.57625861
_cell_formula_units_Z   2
loop_
 _symmetry_equiv_pos_site_id
 _symmetry_equiv_pos_as_xyz
  1  'x, y, z'
loop_
 _atom_site_type_symbol
 _atom_site_label
 _atom_site_symmetry_multiplicity
 _atom_site_fract_x
 _atom_site_fract_y
 _atom_site_fract_z
 _atom_site_occupancy
  Cs  Cs0  1  -0.00514431  1.00514431  0.75000000  1.0
  Cs  Cs1  1  -0.99485569  0.99485569  0.25000000  1.0
  Cs  Cs2  1  -0.82201421  0.82201421  0.75000000  1.0
  Cs  Cs3  1  -0.17798579  1.17798579  0.25000000  1.0
  Li  Li4  1  -0.64834612  0.64834612  0.75000000  1.0
  Li  Li5  1  -0.35165388  1.35165388  0.25000000  1.0
  Cl  Cl6  1  -0.58901005  0.58901005  0.99831164  1.0
  Cl  Cl7  1  -0.41098995  1.41098995  0.00168836  1.0
  Cl  Cl8  1  -0.58901005  0.58901005  0.50168836  1.0
  Cl  Cl9  1  -0.41098995  1.41098995  0.49831164  1.0
  Cl  Cl10  1  -0.20208749  1.20208749  0.75000000  1.0
  Cl  Cl11  1  -0.79791251  0.79791251  0.25000000  1.0
