# generated using pymatgen
data_WSNCl5
_symmetry_space_group_name_H-M   'P 1'
_cell_length_a   6.45236093
_cell_length_b   9.96795576
_cell_length_c   16.81828610
_cell_angle_alpha   90.00000000
_cell_angle_beta   109.12202000
_cell_angle_gamma   90.00000000
_symmetry_Int_Tables_number   1
_chemical_formula_structural   WSNCl5
_chemical_formula_sum   'W4 S4 N4 Cl20'
_cell_volume   1022.01433426
_cell_formula_units_Z   4
loop_
 _symmetry_equiv_pos_site_id
 _symmetry_equiv_pos_as_xyz
  1  'x, y, z'
loop_
 _atom_site_type_symbol
 _atom_site_label
 _atom_site_symmetry_multiplicity
 _atom_site_fract_x
 _atom_site_fract_y
 _atom_site_fract_z
 _atom_site_occupancy
  W  W0  1  0.90578925  0.13640682  0.40885395  1.0
  W  W1  1  0.90578925  0.36359318  0.90885395  1.0
  W  W2  1  0.09421075  0.63640682  0.09114605  1.0
  W  W3  1  0.09421075  0.86359318  0.59114605  1.0
  S  S4  1  0.44147023  0.19497712  0.24838281  1.0
  S  S5  1  0.44147023  0.30502288  0.74838281  1.0
  S  S6  1  0.55852977  0.69497712  0.25161719  1.0
  S  S7  1  0.55852977  0.80502288  0.75161719  1.0
  N  N8  1  0.65997052  0.17003795  0.32389263  1.0
  N  N9  1  0.65997052  0.32996205  0.82389263  1.0
  N  N10  1  0.34002948  0.67003795  0.17610737  1.0
  N  N11  1  0.34002948  0.82996205  0.67610737  1.0
  Cl  Cl12  1  0.46370758  0.07510065  0.15110163  1.0
  Cl  Cl13  1  0.46370758  0.42489935  0.65110163  1.0
  Cl  Cl14  1  0.53629242  0.57510065  0.34889837  1.0
  Cl  Cl15  1  0.53629242  0.92489935  0.84889837  1.0
  Cl  Cl16  1  0.95174239  0.48526566  0.16285607  1.0
  Cl  Cl17  1  0.95174239  0.01473434  0.66285607  1.0
  Cl  Cl18  1  0.04825761  0.98526566  0.33714393  1.0
  Cl  Cl19  1  0.04825761  0.51473434  0.83714393  1.0
  Cl  Cl20  1  0.87504262  0.80544501  0.11418136  1.0
  Cl  Cl21  1  0.87504262  0.69455499  0.61418136  1.0
  Cl  Cl22  1  0.12495738  0.30544501  0.38581864  1.0
  Cl  Cl23  1  0.12495738  0.19455499  0.88581864  1.0
  Cl  Cl24  1  0.82779161  0.23767489  0.00993210  1.0
  Cl  Cl25  1  0.82779161  0.26232511  0.50993210  1.0
  Cl  Cl26  1  0.17220839  0.73767489  0.49006790  1.0
  Cl  Cl27  1  0.17220839  0.76232511  0.99006790  1.0
  Cl  Cl28  1  0.74883928  0.94275755  0.45995208  1.0
  Cl  Cl29  1  0.74883928  0.55724245  0.95995208  1.0
  Cl  Cl30  1  0.25116072  0.44275755  0.04004792  1.0
  Cl  Cl31  1  0.25116072  0.05724245  0.54004792  1.0
