# generated using pymatgen
data_SrNiGe
_symmetry_space_group_name_H-M   'P 1'
_cell_length_a   5.74269109
_cell_length_b   4.19265131
_cell_length_c   11.42821536
_cell_angle_alpha   90.00000000
_cell_angle_beta   90.00000000
_cell_angle_gamma   90.00000000
_symmetry_Int_Tables_number   1
_chemical_formula_structural   SrNiGe
_chemical_formula_sum   'Sr4 Ni4 Ge4'
_cell_volume   275.15829921
_cell_formula_units_Z   4
loop_
 _symmetry_equiv_pos_site_id
 _symmetry_equiv_pos_as_xyz
  1  'x, y, z'
loop_
 _atom_site_type_symbol
 _atom_site_label
 _atom_site_symmetry_multiplicity
 _atom_site_fract_x
 _atom_site_fract_y
 _atom_site_fract_z
 _atom_site_occupancy
  Sr  Sr0  1  0.88079818  0.75000000  0.35689034  1.0
  Sr  Sr1  1  0.38079818  0.75000000  0.14310966  1.0
  Sr  Sr2  1  0.11920182  0.25000000  0.64310966  1.0
  Sr  Sr3  1  0.61920182  0.25000000  0.85689034  1.0
  Ni  Ni4  1  0.90015697  0.75000000  0.04427034  1.0
  Ni  Ni5  1  0.40015697  0.75000000  0.45572966  1.0
  Ni  Ni6  1  0.09984303  0.25000000  0.95572966  1.0
  Ni  Ni7  1  0.59984303  0.25000000  0.54427034  1.0
  Ge  Ge8  1  0.63504232  0.75000000  0.62895652  1.0
  Ge  Ge9  1  0.13504232  0.75000000  0.87104348  1.0
  Ge  Ge10  1  0.36495768  0.25000000  0.37104348  1.0
  Ge  Ge11  1  0.86495768  0.25000000  0.12895652  1.0
