# generated using pymatgen
data_Ta3SiTe6
_symmetry_space_group_name_H-M   'P 1'
_cell_length_a   6.41234400
_cell_length_b   14.78214363
_cell_length_c   11.57308735
_cell_angle_alpha   90.00000000
_cell_angle_beta   90.00000000
_cell_angle_gamma   90.00000000
_symmetry_Int_Tables_number   1
_chemical_formula_structural   Ta3SiTe6
_chemical_formula_sum   'Ta12 Si4 Te24'
_cell_volume   1096.99200216
_cell_formula_units_Z   4
loop_
 _symmetry_equiv_pos_site_id
 _symmetry_equiv_pos_as_xyz
  1  'x, y, z'
loop_
 _atom_site_type_symbol
 _atom_site_label
 _atom_site_symmetry_multiplicity
 _atom_site_fract_x
 _atom_site_fract_y
 _atom_site_fract_z
 _atom_site_occupancy
  Ta  Ta0  1  0.46791844  0.25000000  0.18768944  1.0
  Ta  Ta1  1  0.96791844  0.25000000  0.31231056  1.0
  Ta  Ta2  1  0.53208156  0.75000000  0.81231056  1.0
  Ta  Ta3  1  0.03208156  0.75000000  0.68768944  1.0
  Ta  Ta4  1  0.19712890  0.25000000  0.53244607  1.0
  Ta  Ta5  1  0.69712890  0.25000000  0.96755393  1.0
  Ta  Ta6  1  0.80287110  0.75000000  0.46755393  1.0
  Ta  Ta7  1  0.30287110  0.75000000  0.03244607  1.0
  Ta  Ta8  1  0.16671743  0.25000000  0.83562859  1.0
  Ta  Ta9  1  0.66671743  0.25000000  0.66437141  1.0
  Ta  Ta10  1  0.83328257  0.75000000  0.16437141  1.0
  Ta  Ta11  1  0.33328257  0.75000000  0.33562859  1.0
  Si  Si12  1  0.07502568  0.25000000  0.07521272  1.0
  Si  Si13  1  0.57502568  0.25000000  0.42478728  1.0
  Si  Si14  1  0.92497432  0.75000000  0.92478728  1.0
  Si  Si15  1  0.42497432  0.75000000  0.57521272  1.0
  Te  Te16  1  0.35485450  0.37384140  0.99708399  1.0
  Te  Te17  1  0.35485450  0.12615860  0.99708399  1.0
  Te  Te18  1  0.85485450  0.37384140  0.50291601  1.0
  Te  Te19  1  0.85485450  0.12615860  0.50291601  1.0
  Te  Te20  1  0.64514550  0.87384140  0.00291601  1.0
  Te  Te21  1  0.64514550  0.62615860  0.00291601  1.0
  Te  Te22  1  0.14514550  0.87384140  0.49708399  1.0
  Te  Te23  1  0.14514550  0.62615860  0.49708399  1.0
  Te  Te24  1  0.34877909  0.37946624  0.68213504  1.0
  Te  Te25  1  0.34877909  0.12053376  0.68213504  1.0
  Te  Te26  1  0.84877909  0.37946624  0.81786496  1.0
  Te  Te27  1  0.84877909  0.12053376  0.81786496  1.0
  Te  Te28  1  0.65122091  0.87946624  0.31786496  1.0
  Te  Te29  1  0.65122091  0.62053376  0.31786496  1.0
  Te  Te30  1  0.15122091  0.87946624  0.18213504  1.0
  Te  Te31  1  0.15122091  0.62053376  0.18213504  1.0
  Te  Te32  1  0.20377822  0.87767895  0.84339261  1.0
  Te  Te33  1  0.20377822  0.62232105  0.84339261  1.0
  Te  Te34  1  0.70377822  0.87767895  0.65660739  1.0
  Te  Te35  1  0.70377822  0.62232105  0.65660739  1.0
  Te  Te36  1  0.79622178  0.37767895  0.15660739  1.0
  Te  Te37  1  0.79622178  0.12232105  0.15660739  1.0
  Te  Te38  1  0.29622178  0.37767895  0.34339261  1.0
  Te  Te39  1  0.29622178  0.12232105  0.34339261  1.0
