# generated using pymatgen
data_V3SiNi2
_symmetry_space_group_name_H-M   'P 1'
_cell_length_a   7.52006247
_cell_length_b   7.52006247
_cell_length_c   7.52006247
_cell_angle_alpha   60.00000000
_cell_angle_beta   60.00000000
_cell_angle_gamma   60.00000000
_symmetry_Int_Tables_number   1
_chemical_formula_structural   V3SiNi2
_chemical_formula_sum   'V12 Si4 Ni8'
_cell_volume   300.71102223
_cell_formula_units_Z   4
loop_
 _symmetry_equiv_pos_site_id
 _symmetry_equiv_pos_as_xyz
  1  'x, y, z'
loop_
 _atom_site_type_symbol
 _atom_site_label
 _atom_site_symmetry_multiplicity
 _atom_site_fract_x
 _atom_site_fract_y
 _atom_site_fract_z
 _atom_site_occupancy
  V  V0  1  0.55082039  0.55082039  0.94917961  1.0
  V  V1  1  0.94917961  0.55082039  0.94917961  1.0
  V  V2  1  0.55082039  0.94917961  0.94917961  1.0
  V  V3  1  0.94917961  0.94917961  0.55082039  1.0
  V  V4  1  0.55082039  0.94917961  0.55082039  1.0
  V  V5  1  0.94917961  0.55082039  0.55082039  1.0
  V  V6  1  0.69917961  0.69917961  -0.69917961  1.0
  V  V7  1  1.30082039  -0.30082039  0.30082039  1.0
  V  V8  1  -0.30082039  0.30082039  0.30082039  1.0
  V  V9  1  0.30082039  0.30082039  -0.30082039  1.0
  V  V10  1  0.69917961  -0.69917961  0.69917961  1.0
  V  V11  1  -0.69917961  0.69917961  0.69917961  1.0
  Si  Si12  1  0.12500000  0.12500000  1.62500000  1.0
  Si  Si13  1  0.12500000  0.62500000  1.12500000  1.0
  Si  Si14  1  1.62500000  0.12500000  0.12500000  1.0
  Si  Si15  1  1.12500000  0.12500000  0.12500000  1.0
  Ni  Ni16  1  0.91312790  -0.08687210  0.26061630  1.0
  Ni  Ni17  1  0.91312790  -0.73938370  0.91312790  1.0
  Ni  Ni18  1  0.26061630  0.91312790  0.91312790  1.0
  Ni  Ni19  1  0.91312790  0.91312790  0.91312790  1.0
  Ni  Ni20  1  1.33687210  0.33687210  -0.01061630  1.0
  Ni  Ni21  1  1.33687210  -0.01061630  0.33687210  1.0
  Ni  Ni22  1  0.98938370  0.33687210  0.33687210  1.0
  Ni  Ni23  1  1.33687210  0.33687210  0.33687210  1.0
