# generated using pymatgen
data_TaCoGe
_symmetry_space_group_name_H-M   'P 1'
_cell_length_a   6.30661288
_cell_length_b   3.74634300
_cell_length_c   7.13587330
_cell_angle_alpha   90.00000000
_cell_angle_beta   90.00000000
_cell_angle_gamma   90.00000000
_symmetry_Int_Tables_number   1
_chemical_formula_structural   TaCoGe
_chemical_formula_sum   'Ta4 Co4 Ge4'
_cell_volume   168.59738743
_cell_formula_units_Z   4
loop_
 _symmetry_equiv_pos_site_id
 _symmetry_equiv_pos_as_xyz
  1  'x, y, z'
loop_
 _atom_site_type_symbol
 _atom_site_label
 _atom_site_symmetry_multiplicity
 _atom_site_fract_x
 _atom_site_fract_y
 _atom_site_fract_z
 _atom_site_occupancy
  Ta  Ta0  1  0.97863774  0.75000000  0.68317700  1.0
  Ta  Ta1  1  0.47863774  0.75000000  0.81682300  1.0
  Ta  Ta2  1  0.02136226  0.25000000  0.31682300  1.0
  Ta  Ta3  1  0.52136226  0.25000000  0.18317700  1.0
  Co  Co4  1  0.85970385  0.75000000  0.06302653  1.0
  Co  Co5  1  0.35970385  0.75000000  0.43697347  1.0
  Co  Co6  1  0.14029615  0.25000000  0.93697347  1.0
  Co  Co7  1  0.64029615  0.25000000  0.56302653  1.0
  Ge  Ge8  1  0.73125641  0.75000000  0.38127045  1.0
  Ge  Ge9  1  0.23125641  0.75000000  0.11872955  1.0
  Ge  Ge10  1  0.26874359  0.25000000  0.61872955  1.0
  Ge  Ge11  1  0.76874359  0.25000000  0.88127045  1.0
