# generated using pymatgen
data_EuCdPt
_symmetry_space_group_name_H-M   'P 1'
_cell_length_a   7.40028027
_cell_length_b   4.31963544
_cell_length_c   8.76731696
_cell_angle_alpha   90.00000000
_cell_angle_beta   90.00000000
_cell_angle_gamma   90.00000000
_symmetry_Int_Tables_number   1
_chemical_formula_structural   EuCdPt
_chemical_formula_sum   'Eu4 Cd4 Pt4'
_cell_volume   280.26055082
_cell_formula_units_Z   4
loop_
 _symmetry_equiv_pos_site_id
 _symmetry_equiv_pos_as_xyz
  1  'x, y, z'
loop_
 _atom_site_type_symbol
 _atom_site_label
 _atom_site_symmetry_multiplicity
 _atom_site_fract_x
 _atom_site_fract_y
 _atom_site_fract_z
 _atom_site_occupancy
  Eu  Eu0  1  0.95955588  0.75000000  0.67874747  1.0
  Eu  Eu1  1  0.45955588  0.75000000  0.82125253  1.0
  Eu  Eu2  1  0.04044412  0.25000000  0.32125253  1.0
  Eu  Eu3  1  0.54044412  0.25000000  0.17874747  1.0
  Cd  Cd4  1  0.86220468  0.75000000  0.06112328  1.0
  Cd  Cd5  1  0.36220468  0.75000000  0.43887672  1.0
  Cd  Cd6  1  0.13779532  0.25000000  0.93887672  1.0
  Cd  Cd7  1  0.63779532  0.25000000  0.56112328  1.0
  Pt  Pt8  1  0.74788591  0.75000000  0.36980870  1.0
  Pt  Pt9  1  0.24788591  0.75000000  0.13019130  1.0
  Pt  Pt10  1  0.25211409  0.25000000  0.63019130  1.0
  Pt  Pt11  1  0.75211409  0.25000000  0.86980870  1.0
