# generated using pymatgen
data_Rb2PtC4(BrN2)2
_symmetry_space_group_name_H-M   'P 1'
_cell_length_a   7.38654951
_cell_length_b   9.82219285
_cell_length_c   9.18327376
_cell_angle_alpha   90.00000000
_cell_angle_beta   107.40217761
_cell_angle_gamma   90.00000000
_symmetry_Int_Tables_number   1
_chemical_formula_structural   Rb2PtC4(BrN2)2
_chemical_formula_sum   'Rb4 Pt2 C8 Br4 N8'
_cell_volume   635.77024014
_cell_formula_units_Z   2
loop_
 _symmetry_equiv_pos_site_id
 _symmetry_equiv_pos_as_xyz
  1  'x, y, z'
loop_
 _atom_site_type_symbol
 _atom_site_label
 _atom_site_symmetry_multiplicity
 _atom_site_fract_x
 _atom_site_fract_y
 _atom_site_fract_z
 _atom_site_occupancy
  Rb  Rb0  1  0.98254735  0.28702648  0.11765862  1.0
  Rb  Rb1  1  0.98254735  0.21297352  0.61765862  1.0
  Rb  Rb2  1  0.01745265  0.78702648  0.38234138  1.0
  Rb  Rb3  1  0.01745265  0.71297352  0.88234138  1.0
  Pt  Pt4  1  0.50000000  0.50000000  0.50000000  1.0
  Pt  Pt5  1  0.50000000  0.00000000  0.00000000  1.0
  C  C6  1  0.69609472  0.46249680  0.39287400  1.0
  C  C7  1  0.69609472  0.03750320  0.89287400  1.0
  C  C8  1  0.30390528  0.96249680  0.10712600  1.0
  C  C9  1  0.30390528  0.53750320  0.60712600  1.0
  C  C10  1  0.69263319  0.04402855  0.20055310  1.0
  C  C11  1  0.69263319  0.45597145  0.70055310  1.0
  C  C12  1  0.30736681  0.54402855  0.29944690  1.0
  C  C13  1  0.30736681  0.95597145  0.79944690  1.0
  Br  Br14  1  0.39813612  0.25300907  0.46689631  1.0
  Br  Br15  1  0.39813612  0.24699093  0.96689631  1.0
  Br  Br16  1  0.60186388  0.75300907  0.03310369  1.0
  Br  Br17  1  0.60186388  0.74699093  0.53310369  1.0
  N  N18  1  0.81285244  0.43814019  0.33454876  1.0
  N  N19  1  0.81285244  0.06185981  0.83454876  1.0
  N  N20  1  0.18714756  0.93814019  0.16545124  1.0
  N  N21  1  0.18714756  0.56185981  0.66545124  1.0
  N  N22  1  0.80975776  0.06918151  0.31463748  1.0
  N  N23  1  0.80975776  0.43081849  0.81463748  1.0
  N  N24  1  0.19024224  0.56918151  0.18536252  1.0
  N  N25  1  0.19024224  0.93081849  0.68536252  1.0
