# generated using pymatgen
data_Na4Hf2(SiO4)3
_symmetry_space_group_name_H-M   'P 1'
_cell_length_a   9.15398973
_cell_length_b   9.15398973
_cell_length_c   9.15398973
_cell_angle_alpha   60.74126353
_cell_angle_beta   60.74126353
_cell_angle_gamma   60.74126353
_symmetry_Int_Tables_number   1
_chemical_formula_structural   Na4Hf2(SiO4)3
_chemical_formula_sum   'Na8 Hf4 Si6 O24'
_cell_volume   551.46777271
_cell_formula_units_Z   2
loop_
 _symmetry_equiv_pos_site_id
 _symmetry_equiv_pos_as_xyz
  1  'x, y, z'
loop_
 _atom_site_type_symbol
 _atom_site_label
 _atom_site_symmetry_multiplicity
 _atom_site_fract_x
 _atom_site_fract_y
 _atom_site_fract_z
 _atom_site_occupancy
  Na  Na0  1  0.61657712  0.25000000  -0.11657712  1.0
  Na  Na1  1  0.11657712  0.38342288  -0.25000000  1.0
  Na  Na2  1  0.75000000  0.11657712  -0.61657712  1.0
  Na  Na3  1  0.25000000  0.88342288  -0.38342288  1.0
  Na  Na4  1  0.38342288  0.75000000  -0.88342288  1.0
  Na  Na5  1  0.88342288  -0.38342288  0.25000000  1.0
  Na  Na6  1  0.50000000  0.50000000  -0.50000000  1.0
  Na  Na7  1  0.00000000  0.00000000  0.00000000  1.0
  Hf  Hf8  1  0.35374042  0.35374042  -0.64625958  1.0
  Hf  Hf9  1  0.85374042  0.85374042  -0.14625958  1.0
  Hf  Hf10  1  1.14625958  1.14625958  0.14625958  1.0
  Hf  Hf11  1  0.64625958  0.64625958  -0.35374042  1.0
  Si  Si12  1  0.95451404  0.25000000  -0.45451404  1.0
  Si  Si13  1  0.45451404  0.04548596  -0.25000000  1.0
  Si  Si14  1  0.75000000  -0.54548596  0.04548596  1.0
  Si  Si15  1  0.25000000  0.54548596  -0.04548596  1.0
  Si  Si16  1  1.04548596  -0.25000000  -0.54548596  1.0
  Si  Si17  1  0.54548596  -0.04548596  0.25000000  1.0
  O  O18  1  1.29262135  1.50948795  0.12619203  1.0
  O  O19  1  0.79262135  -0.37380797  0.00948795  1.0
  O  O20  1  0.37380797  0.99051205  -0.79262135  1.0
  O  O21  1  0.87380797  0.70737865  -0.50948795  1.0
  O  O22  1  0.49051205  0.87380797  -0.29262135  1.0
  O  O23  1  0.99051205  0.20737865  -0.62619203  1.0
  O  O24  1  0.70737865  0.49051205  -0.12619203  1.0
  O  O25  1  0.20737865  0.37380797  -0.00948795  1.0
  O  O26  1  1.12619203  1.29262135  0.50948795  1.0
  O  O27  1  0.62619203  0.00948795  -0.20737865  1.0
  O  O28  1  1.00948795  -0.20737865  -0.37380797  1.0
  O  O29  1  1.50948795  1.12619203  0.29262135  1.0
  O  O30  1  0.23010369  0.58096238  -0.56488204  1.0
  O  O31  1  0.73010369  -0.06488204  0.08096238  1.0
  O  O32  1  1.06488204  -0.08096238  -0.73010369  1.0
  O  O33  1  0.56488204  0.76989631  -0.58096238  1.0
  O  O34  1  0.41903762  0.56488204  -0.23010369  1.0
  O  O35  1  0.91903762  -0.73010369  0.06488204  1.0
  O  O36  1  0.76989631  0.41903762  -0.43511796  1.0
  O  O37  1  0.26989631  0.06488204  -0.08096238  1.0
  O  O38  1  0.43511796  0.23010369  -0.41903762  1.0
  O  O39  1  0.93511796  0.08096238  -0.26989631  1.0
  O  O40  1  1.08096238  -0.26989631  -0.06488204  1.0
  O  O41  1  0.58096238  0.43511796  -0.76989631  1.0
