# generated using pymatgen
data_Yb2FeC4
_symmetry_space_group_name_H-M   'P 1'
_cell_length_a   6.56445450
_cell_length_b   6.56445450
_cell_length_c   6.56445450
_cell_angle_alpha   110.29922328
_cell_angle_beta   86.51418679
_cell_angle_gamma   135.55135982
_symmetry_Int_Tables_number   1
_chemical_formula_structural   Yb2FeC4
_chemical_formula_sum   'Yb4 Fe2 C8'
_cell_volume   178.10883399
_cell_formula_units_Z   2
loop_
 _symmetry_equiv_pos_site_id
 _symmetry_equiv_pos_as_xyz
  1  'x, y, z'
loop_
 _atom_site_type_symbol
 _atom_site_label
 _atom_site_symmetry_multiplicity
 _atom_site_fract_x
 _atom_site_fract_y
 _atom_site_fract_z
 _atom_site_occupancy
  Yb  Yb0  1  0.64592493  0.84445919  0.49038412  1.0
  Yb  Yb1  1  0.85407507  0.34445919  1.19853427  1.0
  Yb  Yb2  1  0.14592493  0.65554081  0.80146573  1.0
  Yb  Yb3  1  1.35407507  1.15554081  1.50961588  1.0
  Fe  Fe4  1  0.75000000  0.75000000  0.00000000  1.0
  Fe  Fe5  1  0.25000000  0.25000000  -0.00000000  1.0
  C  C6  1  0.92070337  0.83070450  1.75140786  1.0
  C  C7  1  0.57929663  1.33070450  0.91000113  1.0
  C  C8  1  1.42070337  0.66929550  1.08999887  1.0
  C  C9  1  0.07929663  0.16929550  0.24859214  1.0
  C  C10  1  0.87284203  0.66163577  1.53447780  1.0
  C  C11  1  0.62715797  1.16163577  0.78879374  1.0
  C  C12  1  1.37284203  0.83836423  1.21120626  1.0
  C  C13  1  0.12715797  0.33836423  0.46552220  1.0
