# generated using pymatgen
data_BaGe3O8
_symmetry_space_group_name_H-M   'P 1'
_cell_length_a   7.11653648
_cell_length_b   7.11653648
_cell_length_c   9.43928219
_cell_angle_alpha   76.58815678
_cell_angle_beta   103.41184322
_cell_angle_gamma   139.06884870
_symmetry_Int_Tables_number   1
_chemical_formula_structural   BaGe3O8
_chemical_formula_sum   'Ba2 Ge6 O16'
_cell_volume   303.44716449
_cell_formula_units_Z   2
loop_
 _symmetry_equiv_pos_site_id
 _symmetry_equiv_pos_as_xyz
  1  'x, y, z'
loop_
 _atom_site_type_symbol
 _atom_site_label
 _atom_site_symmetry_multiplicity
 _atom_site_fract_x
 _atom_site_fract_y
 _atom_site_fract_z
 _atom_site_occupancy
  Ge  Ge0  1  0.77219392  0.72779819  0.68985274  1.0
  Ge  Ge1  1  0.27220181  0.22780608  0.18985274  1.0
  Ge  Ge2  1  1.20030320  0.26734992  0.81212004  1.0
  Ge  Ge3  1  0.73265008  -0.20030320  0.31212004  1.0
  Ge  Ge4  1  0.34412162  0.18822044  0.56762568  1.0
  Ge  Ge5  1  0.81177956  0.65587838  0.06762568  1.0
  Ba  Ba6  1  0.62942061  0.08499566  0.93986515  1.0
  Ba  Ba7  1  0.91500434  0.37057939  0.43986515  1.0
  O  O8  1  1.37221238  0.46650370  0.61843829  1.0
  O  O9  1  0.53349630  -0.37221238  0.11843829  1.0
  O  O10  1  1.20546946  0.51591679  0.84650566  1.0
  O  O11  1  0.48408321  -0.20546946  0.34650566  1.0
  O  O12  1  1.06032080  0.66102553  0.03320360  1.0
  O  O13  1  0.33897447  -0.06032080  0.53320360  1.0
  O  O14  1  0.83053149  0.02300759  0.71899889  1.0
  O  O15  1  0.97699241  0.16946851  0.21899889  1.0
  O  O16  1  0.71387314  0.43257752  0.66074323  1.0
  O  O17  1  0.56742248  0.28612686  0.16074323  1.0
  O  O18  1  1.01088975  0.82778746  0.26129527  1.0
  O  O19  1  0.17221254  -0.01088975  0.76129527  1.0
  O  O20  1  0.93675288  0.93260187  0.50062446  1.0
  O  O21  1  0.06739813  0.06324712  0.00062446  1.0
  O  O22  1  0.60766470  0.52296928  0.87912698  1.0
  O  O23  1  0.47703072  0.39233530  0.37912698  1.0
