# generated using pymatgen
data_EuFe3(BO3)4
_symmetry_space_group_name_H-M   'P 1'
_cell_length_a   6.15262620
_cell_length_b   6.15262620
_cell_length_c   6.15262620
_cell_angle_alpha   103.81039459
_cell_angle_beta   103.81039459
_cell_angle_gamma   103.81039459
_symmetry_Int_Tables_number   1
_chemical_formula_structural   EuFe3(BO3)4
_chemical_formula_sum   'Eu1 Fe3 B4 O12'
_cell_volume   208.55845570
_cell_formula_units_Z   1
loop_
 _symmetry_equiv_pos_site_id
 _symmetry_equiv_pos_as_xyz
  1  'x, y, z'
loop_
 _atom_site_type_symbol
 _atom_site_label
 _atom_site_symmetry_multiplicity
 _atom_site_fract_x
 _atom_site_fract_y
 _atom_site_fract_z
 _atom_site_occupancy
  Eu  Eu0  1  0.50000000  0.50000000  0.50000000  1.0
  Fe  Fe1  1  1.04858242  0.50000000  -0.04858242  1.0
  Fe  Fe2  1  0.50000000  0.95141758  0.04858242  1.0
  Fe  Fe3  1  0.95141758  0.04858242  0.50000000  1.0
  B  B4  1  0.44695081  1.00000000  -0.44695081  1.0
  B  B5  1  1.00000000  0.55304919  -0.55304919  1.0
  B  B6  1  0.55304919  0.44695081  -0.00000000  1.0
  B  B7  1  0.00000000  0.00000000  0.00000000  1.0
  O  O8  1  1.47206654  0.87642273  -0.28769587  1.0
  O  O9  1  1.28769587  0.12357727  -0.47206654  1.0
  O  O10  1  1.12357727  -0.47206654  0.28769587  1.0
  O  O11  1  0.52793346  0.28769587  0.12357727  1.0
  O  O12  1  0.71230413  1.47206654  -0.12357727  1.0
  O  O13  1  0.87642273  0.71230413  0.47206654  1.0
  O  O14  1  0.85685938  0.00000000  0.14314062  1.0
  O  O15  1  1.00000000  0.14314062  -0.14314062  1.0
  O  O16  1  1.14314062  -0.14314062  0.00000000  1.0
  O  O17  1  0.59000484  1.00000000  -0.59000484  1.0
  O  O18  1  1.00000000  0.40999516  -0.40999516  1.0
  O  O19  1  0.40999516  0.59000484  -0.00000000  1.0
