# generated using pymatgen
data_Zr2P7Ru12
_symmetry_space_group_name_H-M   'P 1'
_cell_length_a   9.34696885
_cell_length_b   9.34696885
_cell_length_c   3.89403877
_cell_angle_alpha   90.00000000
_cell_angle_beta   90.00000000
_cell_angle_gamma   120.00000000
_symmetry_Int_Tables_number   1
_chemical_formula_structural   Zr2P7Ru12
_chemical_formula_sum   'Zr2 P7 Ru12'
_cell_volume   294.62696638
_cell_formula_units_Z   1
loop_
 _symmetry_equiv_pos_site_id
 _symmetry_equiv_pos_as_xyz
  1  'x, y, z'
loop_
 _atom_site_type_symbol
 _atom_site_label
 _atom_site_symmetry_multiplicity
 _atom_site_fract_x
 _atom_site_fract_y
 _atom_site_fract_z
 _atom_site_occupancy
  Zr  Zr0  1  0.00000000  0.00000000  0.50000000  1.0
  Zr  Zr1  1  0.66666667  0.33333333  0.00000000  1.0
  P  P2  1  0.45393881  0.38306717  0.50000000  1.0
  P  P3  1  0.92912836  0.54606119  0.50000000  1.0
  P  P4  1  0.61693283  0.07087164  0.50000000  1.0
  P  P5  1  0.02695677  0.24337613  0.00000000  1.0
  P  P6  1  0.21641936  0.97304323  0.00000000  1.0
  P  P7  1  0.75662387  0.78358064  0.00000000  1.0
  P  P8  1  0.33333333  0.66666667  0.00000000  1.0
  Ru  Ru9  1  0.49638945  0.55544895  0.00000000  1.0
  Ru  Ru10  1  0.05905950  0.50361055  0.00000000  1.0
  Ru  Ru11  1  0.44455105  0.94094050  0.00000000  1.0
  Ru  Ru12  1  0.72416250  0.61056852  0.50000000  1.0
  Ru  Ru13  1  0.88640602  0.27583750  0.50000000  1.0
  Ru  Ru14  1  0.38943148  0.11359398  0.50000000  1.0
  Ru  Ru15  1  0.24430342  0.45196939  0.50000000  1.0
  Ru  Ru16  1  0.20766597  0.75569658  0.50000000  1.0
  Ru  Ru17  1  0.54803061  0.79233403  0.50000000  1.0
  Ru  Ru18  1  0.26249606  0.23451657  0.00000000  1.0
  Ru  Ru19  1  0.97202051  0.73750394  0.00000000  1.0
  Ru  Ru20  1  0.76548343  0.02797949  0.00000000  1.0
