# generated using pymatgen
data_Sr4Co(ReO6)2
_symmetry_space_group_name_H-M   'P 1'
_cell_length_a   9.57794812
_cell_length_b   9.57794812
_cell_length_c   9.57794812
_cell_angle_alpha   33.78631095
_cell_angle_beta   33.78631095
_cell_angle_gamma   33.78631095
_symmetry_Int_Tables_number   1
_chemical_formula_structural   Sr4Co(ReO6)2
_chemical_formula_sum   'Sr4 Co1 Re2 O12'
_cell_volume   242.11719476
_cell_formula_units_Z   1
loop_
 _symmetry_equiv_pos_site_id
 _symmetry_equiv_pos_as_xyz
  1  'x, y, z'
loop_
 _atom_site_type_symbol
 _atom_site_label
 _atom_site_symmetry_multiplicity
 _atom_site_fract_x
 _atom_site_fract_y
 _atom_site_fract_z
 _atom_site_occupancy
  Sr  Sr0  1  0.86636069  0.86636069  0.86636069  1.0
  Sr  Sr1  1  1.13363931  1.13363931  0.13363931  1.0
  Sr  Sr2  1  0.70903227  0.70903227  0.70903227  1.0
  Sr  Sr3  1  1.29096773  1.29096773  0.29096773  1.0
  Co  Co4  1  0.00000000  0.00000000  0.00000000  1.0
  Re  Re5  1  1.58050417  0.58050417  0.58050417  1.0
  Re  Re6  1  1.41949583  0.41949583  0.41949583  1.0
  O  O7  1  1.21546924  0.21546924  0.69680377  1.0
  O  O8  1  1.21546924  0.69680377  0.21546924  1.0
  O  O9  1  1.30319623  0.78453076  0.78453076  1.0
  O  O10  1  1.78453076  0.30319623  0.78453076  1.0
  O  O11  1  1.78453076  0.78453076  0.30319623  1.0
  O  O12  1  0.69680377  1.21546924  0.21546924  1.0
  O  O13  1  1.38176819  0.38176819  0.86954599  1.0
  O  O14  1  1.38176819  0.86954599  0.38176819  1.0
  O  O15  1  1.13045401  0.61823181  0.61823181  1.0
  O  O16  1  1.61823181  0.13045401  0.61823181  1.0
  O  O17  1  1.61823181  0.61823181  0.13045401  1.0
  O  O18  1  0.86954599  1.38176819  0.38176819  1.0
