# generated using pymatgen
data_Rb2SnTe5
_symmetry_space_group_name_H-M   'P 1'
_cell_length_a   10.06167804
_cell_length_b   10.06167804
_cell_length_c   10.06167804
_cell_angle_alpha   127.38091902
_cell_angle_beta   127.38091902
_cell_angle_gamma   77.63008344
_symmetry_Int_Tables_number   1
_chemical_formula_structural   Rb2SnTe5
_chemical_formula_sum   'Rb4 Sn2 Te10'
_cell_volume   623.65582381
_cell_formula_units_Z   2
loop_
 _symmetry_equiv_pos_site_id
 _symmetry_equiv_pos_as_xyz
  1  'x, y, z'
loop_
 _atom_site_type_symbol
 _atom_site_label
 _atom_site_symmetry_multiplicity
 _atom_site_fract_x
 _atom_site_fract_y
 _atom_site_fract_z
 _atom_site_occupancy
  Rb  Rb0  1  -0.00232493  -0.00232493  0.00000000  1.0
  Rb  Rb1  1  0.49767507  0.49767507  1.00000000  1.0
  Rb  Rb2  1  0.24769083  0.24769083  -0.00000000  1.0
  Rb  Rb3  1  0.74769083  0.74769083  1.00000000  1.0
  Sn  Sn4  1  0.24765338  0.74765338  0.50000000  1.0
  Sn  Sn5  1  0.74765338  0.24765338  0.50000000  1.0
  Te  Te6  1  0.46065662  0.96065662  1.15245081  1.0
  Te  Te7  1  0.30820581  0.46065662  0.50000000  1.0
  Te  Te8  1  0.96065662  0.80820581  1.50000000  1.0
  Te  Te9  1  0.80820581  0.30820581  0.84754919  1.0
  Te  Te10  1  1.18713789  0.68713789  1.15251695  1.0
  Te  Te11  1  1.03462094  1.18713789  1.50000000  1.0
  Te  Te12  1  0.68713789  0.53462094  0.50000000  1.0
  Te  Te13  1  0.53462094  1.03462094  0.84748305  1.0
  Te  Te14  1  0.99765946  0.49765946  0.50000000  1.0
  Te  Te15  1  0.49765946  0.99765946  0.50000000  1.0
