# generated using pymatgen
data_KAg3Se2
_symmetry_space_group_name_H-M   'P 1'
_cell_length_a   8.64389414
_cell_length_b   8.64389414
_cell_length_c   8.94324925
_cell_angle_alpha   65.57031646
_cell_angle_beta   114.42968354
_cell_angle_gamma   150.42108470
_symmetry_Int_Tables_number   1
_chemical_formula_structural   KAg3Se2
_chemical_formula_sum   'K2 Ag6 Se4'
_cell_volume   298.14546056
_cell_formula_units_Z   2
loop_
 _symmetry_equiv_pos_site_id
 _symmetry_equiv_pos_as_xyz
  1  'x, y, z'
loop_
 _atom_site_type_symbol
 _atom_site_label
 _atom_site_symmetry_multiplicity
 _atom_site_fract_x
 _atom_site_fract_y
 _atom_site_fract_z
 _atom_site_occupancy
  K  K0  1  0.86379967  0.13620033  0.94906125  1.0
  K  K1  1  0.13620033  -0.13620033  0.05093875  1.0
  Ag  Ag2  1  0.94360985  0.05639015  0.59916502  1.0
  Ag  Ag3  1  0.05639015  -0.05639015  0.40083498  1.0
  Ag  Ag4  1  0.68688126  0.31311874  0.43283491  1.0
  Ag  Ag5  1  0.31311874  -0.31311874  0.56716509  1.0
  Ag  Ag6  1  0.59320025  0.40679975  0.64649886  1.0
  Ag  Ag7  1  0.40679975  -0.40679975  0.35350114  1.0
  Se  Se8  1  0.79809410  0.20190590  0.29517165  1.0
  Se  Se9  1  0.20190590  -0.20190590  0.70482835  1.0
  Se  Se10  1  0.48560851  -0.48560851  0.79111768  1.0
  Se  Se11  1  0.51439149  0.48560851  0.20888232  1.0
