# generated using pymatgen
data_Gd5(CoB3)2
_symmetry_space_group_name_H-M   'P 1'
_cell_length_a   8.48904194
_cell_length_b   8.48904194
_cell_length_c   8.48904194
_cell_angle_alpha   37.16992133
_cell_angle_beta   37.16992133
_cell_angle_gamma   37.16992133
_symmetry_Int_Tables_number   1
_chemical_formula_structural   Gd5(CoB3)2
_chemical_formula_sum   'Gd5 Co2 B6'
_cell_volume   200.15121947
_cell_formula_units_Z   1
loop_
 _symmetry_equiv_pos_site_id
 _symmetry_equiv_pos_as_xyz
  1  'x, y, z'
loop_
 _atom_site_type_symbol
 _atom_site_label
 _atom_site_symmetry_multiplicity
 _atom_site_fract_x
 _atom_site_fract_y
 _atom_site_fract_z
 _atom_site_occupancy
  Co  Co0  1  0.87923341  0.87923341  0.87923341  1.0
  Co  Co1  1  1.12076659  1.12076659  0.12076659  1.0
  Gd  Gd2  1  1.58350338  0.58350338  0.58350338  1.0
  Gd  Gd3  1  1.41649662  0.41649662  0.41649662  1.0
  Gd  Gd4  1  0.74854457  0.74854457  0.74854457  1.0
  Gd  Gd5  1  1.25145543  1.25145543  0.25145543  1.0
  Gd  Gd6  1  0.00000000  0.00000000  0.00000000  1.0
  B  B7  1  1.16809544  0.50000000  0.83190456  1.0
  B  B8  1  1.16809544  0.83190456  0.50000000  1.0
  B  B9  1  1.50000000  0.16809544  0.83190456  1.0
  B  B10  1  1.50000000  0.83190456  0.16809544  1.0
  B  B11  1  1.83190456  0.50000000  0.16809544  1.0
  B  B12  1  1.83190456  0.16809544  0.50000000  1.0
