# generated using pymatgen
data_SiO2
_symmetry_space_group_name_H-M   'P 1'
_cell_length_a   6.06070562
_cell_length_b   6.06070562
_cell_length_c   4.77097046
_cell_angle_alpha   90.00000000
_cell_angle_beta   90.00000000
_cell_angle_gamma   92.40687255
_symmetry_Int_Tables_number   1
_chemical_formula_structural   SiO2
_chemical_formula_sum   'Si4 O8'
_cell_volume   175.09341140
_cell_formula_units_Z   4
loop_
 _symmetry_equiv_pos_site_id
 _symmetry_equiv_pos_as_xyz
  1  'x, y, z'
loop_
 _atom_site_type_symbol
 _atom_site_label
 _atom_site_symmetry_multiplicity
 _atom_site_fract_x
 _atom_site_fract_y
 _atom_site_fract_z
 _atom_site_occupancy
  Si  Si0  1  0.65316067  0.98574869  0.62889391  1.0
  Si  Si1  1  -0.01425131  1.65316067  0.37110609  1.0
  Si  Si2  1  -0.65316067  1.01425131  0.12889391  1.0
  Si  Si3  1  0.01425131  0.34683933  0.87110609  1.0
  O  O4  1  0.49053821  0.90034730  0.88262665  1.0
  O  O5  1  -0.09965270  1.49053821  0.11737335  1.0
  O  O6  1  -0.49053821  1.09965270  0.38262665  1.0
  O  O7  1  0.09965270  0.50946179  0.61737335  1.0
  O  O8  1  -0.16588522  1.16588522  0.75000000  1.0
  O  O9  1  0.16588522  0.83411478  0.25000000  1.0
  O  O10  1  0.22615614  0.22615614  0.00000000  1.0
  O  O11  1  0.77384386  0.77384386  0.50000000  1.0
