# generated using pymatgen
data_CuPN2
_symmetry_space_group_name_H-M   'P 1'
_cell_length_a   5.02178638
_cell_length_b   5.02178638
_cell_length_c   5.02178638
_cell_angle_alpha   126.90871012
_cell_angle_beta   126.90871012
_cell_angle_gamma   78.39966940
_symmetry_Int_Tables_number   1
_chemical_formula_structural   CuPN2
_chemical_formula_sum   'Cu2 P2 N4'
_cell_volume   78.40570607
_cell_formula_units_Z   2
loop_
 _symmetry_equiv_pos_site_id
 _symmetry_equiv_pos_as_xyz
  1  'x, y, z'
loop_
 _atom_site_type_symbol
 _atom_site_label
 _atom_site_symmetry_multiplicity
 _atom_site_fract_x
 _atom_site_fract_y
 _atom_site_fract_z
 _atom_site_occupancy
  Cu  Cu0  1  0.25000000  0.75000000  0.50000000  1.0
  Cu  Cu1  1  0.50000000  0.50000000  -0.00000000  1.0
  P  P2  1  0.75000000  0.25000000  0.50000000  1.0
  P  P3  1  1.00000000  1.00000000  1.00000000  1.0
  N  N4  1  1.04237429  1.12500000  1.41737429  1.0
  N  N5  1  1.37500000  0.95762571  1.08262571  1.0
  N  N6  1  0.87500000  1.29237429  0.91737429  1.0
  N  N7  1  0.70762571  0.62500000  0.58262571  1.0
