# generated using pymatgen
data_NiSn(ClO)6
_symmetry_space_group_name_H-M   'P 1'
_cell_length_a   7.15039982
_cell_length_b   7.15039982
_cell_length_c   7.15039982
_cell_angle_alpha   105.46870968
_cell_angle_beta   105.46870968
_cell_angle_gamma   105.46870968
_symmetry_Int_Tables_number   1
_chemical_formula_structural   NiSn(ClO)6
_chemical_formula_sum   'Ni1 Sn1 Cl6 O6'
_cell_volume   316.32244998
_cell_formula_units_Z   1
loop_
 _symmetry_equiv_pos_site_id
 _symmetry_equiv_pos_as_xyz
  1  'x, y, z'
loop_
 _atom_site_type_symbol
 _atom_site_label
 _atom_site_symmetry_multiplicity
 _atom_site_fract_x
 _atom_site_fract_y
 _atom_site_fract_z
 _atom_site_occupancy
  Ni  Ni0  1  -0.00000000  -0.00000000  -0.00000000  1.0
  Sn  Sn1  1  0.50000000  0.50000000  0.50000000  1.0
  Cl  Cl2  1  1.47655191  0.69675807  -0.16957093  1.0
  Cl  Cl3  1  1.30324193  0.16957093  -0.47655191  1.0
  Cl  Cl4  1  1.16957093  -0.47655191  0.30324193  1.0
  Cl  Cl5  1  0.52344809  0.30324193  0.16957093  1.0
  Cl  Cl6  1  0.69675807  0.83042907  0.47655191  1.0
  Cl  Cl7  1  0.83042907  1.47655191  -0.30324193  1.0
  O  O8  1  0.86180357  0.76215160  0.02625374  1.0
  O  O9  1  1.23784840  -0.02625374  0.13819643  1.0
  O  O10  1  0.97374626  0.13819643  0.23784840  1.0
  O  O11  1  1.13819643  0.23784840  -0.02625374  1.0
  O  O12  1  0.76215160  1.02625374  -0.13819643  1.0
  O  O13  1  1.02625374  0.86180357  -0.23784840  1.0
