# generated using pymatgen
data_RbS
_symmetry_space_group_name_H-M   'P 1'
_cell_length_a   8.97734126
_cell_length_b   8.97734126
_cell_length_c   6.15978925
_cell_angle_alpha   90.00000000
_cell_angle_beta   90.00000000
_cell_angle_gamma   120.00000000
_symmetry_Int_Tables_number   1
_chemical_formula_structural   RbS
_chemical_formula_sum   'Rb6 S6'
_cell_volume   429.92426201
_cell_formula_units_Z   6
loop_
 _symmetry_equiv_pos_site_id
 _symmetry_equiv_pos_as_xyz
  1  'x, y, z'
loop_
 _atom_site_type_symbol
 _atom_site_label
 _atom_site_symmetry_multiplicity
 _atom_site_fract_x
 _atom_site_fract_y
 _atom_site_fract_z
 _atom_site_occupancy
  Rb  Rb0  1  0.35814572  0.35814572  0.50000000  1.0
  Rb  Rb1  1  0.00000000  0.64185428  0.50000000  1.0
  Rb  Rb2  1  0.64185428  0.00000000  0.50000000  1.0
  Rb  Rb3  1  0.69527532  0.69527532  0.00000000  1.0
  Rb  Rb4  1  0.00000000  0.30472468  0.00000000  1.0
  Rb  Rb5  1  0.30472468  0.00000000  0.00000000  1.0
  S  S6  1  0.33333333  0.66666667  0.82558931  1.0
  S  S7  1  0.33333333  0.66666667  0.17441069  1.0
  S  S8  1  0.66666667  0.33333333  0.82558931  1.0
  S  S9  1  0.66666667  0.33333333  0.17441069  1.0
  S  S10  1  0.00000000  0.00000000  0.67359732  1.0
  S  S11  1  0.00000000  0.00000000  0.32640268  1.0
