# generated using pymatgen
data_LaMgSi2
_symmetry_space_group_name_H-M   'P 1'
_cell_length_a   18.74803669
_cell_length_b   18.74803669
_cell_length_c   18.74803669
_cell_angle_alpha   166.75262395
_cell_angle_beta   166.75262395
_cell_angle_gamma   18.77682939
_symmetry_Int_Tables_number   1
_chemical_formula_structural   LaMgSi2
_chemical_formula_sum   'La4 Mg4 Si8'
_cell_volume   346.01079969
_cell_formula_units_Z   4
loop_
 _symmetry_equiv_pos_site_id
 _symmetry_equiv_pos_as_xyz
  1  'x, y, z'
loop_
 _atom_site_type_symbol
 _atom_site_label
 _atom_site_symmetry_multiplicity
 _atom_site_fract_x
 _atom_site_fract_y
 _atom_site_fract_z
 _atom_site_occupancy
  La  La0  1  0.57695170  0.57695170  1.00000000  1.0
  La  La1  1  1.32695170  0.82695170  0.50000000  1.0
  La  La2  1  1.17304830  0.67304830  0.50000000  1.0
  La  La3  1  1.42304830  1.42304830  1.00000000  1.0
  Mg  Mg4  1  1.25006375  1.25006375  1.00000000  1.0
  Mg  Mg5  1  1.00006375  1.50006375  0.50000000  1.0
  Mg  Mg6  1  0.49993625  -0.00006375  0.50000000  1.0
  Mg  Mg7  1  0.74993625  0.74993625  -0.00000000  1.0
  Si  Si8  1  0.11080204  0.11080204  0.00000000  1.0
  Si  Si9  1  0.86080204  1.36080204  0.50000000  1.0
  Si  Si10  1  0.63919796  1.13919796  0.50000000  1.0
  Si  Si11  1  0.88919796  0.88919796  0.00000000  1.0
  Si  Si12  1  0.04769420  0.04769420  0.00000000  1.0
  Si  Si13  1  0.79769420  1.29769420  0.50000000  1.0
  Si  Si14  1  0.70230580  1.20230580  0.50000000  1.0
  Si  Si15  1  0.95230580  0.95230580  -0.00000000  1.0
