# generated using pymatgen
data_La5(C2Br)3
_symmetry_space_group_name_H-M   'P 1'
_cell_length_a   11.75429890
_cell_length_b   11.75429890
_cell_length_c   16.85589491
_cell_angle_alpha   56.46483622
_cell_angle_beta   123.53516378
_cell_angle_gamma   160.33189792
_symmetry_Int_Tables_number   1
_chemical_formula_structural   La5(C2Br)3
_chemical_formula_sum   'La10 C12 Br6'
_cell_volume   649.03327499
_cell_formula_units_Z   2
loop_
 _symmetry_equiv_pos_site_id
 _symmetry_equiv_pos_as_xyz
  1  'x, y, z'
loop_
 _atom_site_type_symbol
 _atom_site_label
 _atom_site_symmetry_multiplicity
 _atom_site_fract_x
 _atom_site_fract_y
 _atom_site_fract_z
 _atom_site_occupancy
  La  La0  1  0.83901199  -0.83901199  0.35278306  1.0
  La  La1  1  0.16098801  -0.16098801  0.64721694  1.0
  La  La2  1  0.83453182  0.16546818  0.89808749  1.0
  La  La3  1  1.16546818  -0.16546818  0.10191251  1.0
  La  La4  1  1.49952943  -0.49952943  0.89525004  1.0
  La  La5  1  0.50047057  0.49952943  0.10474996  1.0
  La  La6  1  1.49784066  -0.49784066  0.60244570  1.0
  La  La7  1  0.50215934  0.49784066  0.39755430  1.0
  La  La8  1  0.17097328  -0.17097328  0.88176102  1.0
  La  La9  1  0.82902672  -0.82902672  0.11823898  1.0
  C  C10  1  0.96543103  0.03456897  0.97980246  1.0
  C  C11  1  1.03456897  -0.03456897  0.02019754  1.0
  C  C12  1  0.96538925  -0.96538925  0.46501902  1.0
  C  C13  1  0.03461075  -0.03461075  0.53498098  1.0
  C  C14  1  0.69685642  0.30314358  0.78479974  1.0
  C  C15  1  1.30314358  -0.30314358  0.21520026  1.0
  C  C16  1  0.62970933  0.37029067  0.96810711  1.0
  C  C17  1  1.37029067  -0.37029067  0.03189289  1.0
  C  C18  1  0.62854390  0.37145610  0.73027686  1.0
  C  C19  1  1.37145610  -0.37145610  0.26972314  1.0
  C  C20  1  0.30184516  -0.30184516  0.98410292  1.0
  C  C21  1  0.69815484  -0.69815484  0.01589708  1.0
  Br  Br22  1  0.98695224  -0.98695224  0.74017152  1.0
  Br  Br23  1  0.01304776  -0.01304776  0.25982848  1.0
  Br  Br24  1  0.66739731  0.33260269  0.51403558  1.0
  Br  Br25  1  1.33260269  -0.33260269  0.48596442  1.0
  Br  Br26  1  0.33025646  -0.33025646  0.75085406  1.0
  Br  Br27  1  0.66974354  -0.66974354  0.24914594  1.0
