# generated using pymatgen
data_La2Co3
_symmetry_space_group_name_H-M   'P 1'
_cell_length_a   5.68275356
_cell_length_b   5.68275356
_cell_length_c   7.88513638
_cell_angle_alpha   90.00000000
_cell_angle_beta   90.00000000
_cell_angle_gamma   130.71800456
_symmetry_Int_Tables_number   1
_chemical_formula_structural   La2Co3
_chemical_formula_sum   'La4 Co6'
_cell_volume   192.99924059
_cell_formula_units_Z   2
loop_
 _symmetry_equiv_pos_site_id
 _symmetry_equiv_pos_as_xyz
  1  'x, y, z'
loop_
 _atom_site_type_symbol
 _atom_site_label
 _atom_site_symmetry_multiplicity
 _atom_site_fract_x
 _atom_site_fract_y
 _atom_site_fract_z
 _atom_site_occupancy
  La  La0  1  0.34881924  0.65118076  0.91023098  1.0
  La  La1  1  -0.15118076  0.15118076  0.58976902  1.0
  La  La2  1  -0.34881924  0.34881924  0.08976902  1.0
  La  La3  1  0.15118076  0.84881924  0.41023098  1.0
  Co  Co4  1  -0.16405501  0.66405501  0.75000000  1.0
  Co  Co5  1  0.33594499  1.16405501  0.75000000  1.0
  Co  Co6  1  0.66405501  0.83594499  0.25000000  1.0
  Co  Co7  1  0.16405501  0.33594499  0.25000000  1.0
  Co  Co8  1  0.00000000  0.00000000  0.00000000  1.0
  Co  Co9  1  0.50000000  0.50000000  0.50000000  1.0
