# generated using pymatgen
data_Ta2Co4O9
_symmetry_space_group_name_H-M   'P 1'
_cell_length_a   5.12493629
_cell_length_b   5.12493629
_cell_length_c   14.32970576
_cell_angle_alpha   90.00000000
_cell_angle_beta   90.00000000
_cell_angle_gamma   120.00000000
_symmetry_Int_Tables_number   1
_chemical_formula_structural   Ta2Co4O9
_chemical_formula_sum   'Ta4 Co8 O18'
_cell_volume   325.94539192
_cell_formula_units_Z   2
loop_
 _symmetry_equiv_pos_site_id
 _symmetry_equiv_pos_as_xyz
  1  'x, y, z'
loop_
 _atom_site_type_symbol
 _atom_site_label
 _atom_site_symmetry_multiplicity
 _atom_site_fract_x
 _atom_site_fract_y
 _atom_site_fract_z
 _atom_site_occupancy
  Ta  Ta0  1  0.00000000  0.00000000  0.14474121  1.0
  Ta  Ta1  1  0.00000000  0.00000000  0.64474121  1.0
  Ta  Ta2  1  0.00000000  0.00000000  0.35525879  1.0
  Ta  Ta3  1  0.00000000  0.00000000  0.85525879  1.0
  Co  Co4  1  0.33333333  0.66666667  0.31489728  1.0
  Co  Co5  1  0.33333333  0.66666667  0.81489728  1.0
  Co  Co6  1  0.66666667  0.33333333  0.18510272  1.0
  Co  Co7  1  0.66666667  0.33333333  0.68510272  1.0
  Co  Co8  1  0.33333333  0.66666667  0.00743417  1.0
  Co  Co9  1  0.33333333  0.66666667  0.50743417  1.0
  Co  Co10  1  0.66666667  0.33333333  0.49256583  1.0
  Co  Co11  1  0.66666667  0.33333333  0.99256583  1.0
  O  O12  1  0.70504107  0.70504107  0.25000000  1.0
  O  O13  1  0.70504107  0.00000000  0.75000000  1.0
  O  O14  1  0.00000000  0.70504107  0.75000000  1.0
  O  O15  1  0.00000000  0.29495893  0.25000000  1.0
  O  O16  1  0.29495893  0.29495893  0.75000000  1.0
  O  O17  1  0.29495893  0.00000000  0.25000000  1.0
  O  O18  1  0.98644533  0.66092378  0.08301020  1.0
  O  O19  1  0.98644533  0.32552155  0.58301020  1.0
  O  O20  1  0.66092378  0.98644533  0.41698980  1.0
  O  O21  1  0.66092378  0.67447845  0.91698980  1.0
  O  O22  1  0.67447845  0.66092378  0.58301020  1.0
  O  O23  1  0.67447845  0.01355467  0.08301020  1.0
  O  O24  1  0.33907622  0.01355467  0.58301020  1.0
  O  O25  1  0.33907622  0.32552155  0.08301020  1.0
  O  O26  1  0.01355467  0.67447845  0.41698980  1.0
  O  O27  1  0.01355467  0.33907622  0.91698980  1.0
  O  O28  1  0.32552155  0.98644533  0.91698980  1.0
  O  O29  1  0.32552155  0.33907622  0.41698980  1.0
