# generated using pymatgen
data_BiRhS
_symmetry_space_group_name_H-M   'P 1'
_cell_length_a   6.20914345
_cell_length_b   6.20914345
_cell_length_c   6.20914345
_cell_angle_alpha   90.00000000
_cell_angle_beta   90.00000000
_cell_angle_gamma   90.00000000
_symmetry_Int_Tables_number   1
_chemical_formula_structural   BiRhS
_chemical_formula_sum   'Bi4 Rh4 S4'
_cell_volume   239.38397794
_cell_formula_units_Z   4
loop_
 _symmetry_equiv_pos_site_id
 _symmetry_equiv_pos_as_xyz
  1  'x, y, z'
loop_
 _atom_site_type_symbol
 _atom_site_label
 _atom_site_symmetry_multiplicity
 _atom_site_fract_x
 _atom_site_fract_y
 _atom_site_fract_z
 _atom_site_occupancy
  Bi  Bi0  1  0.12865917  0.62865917  0.87134083  1.0
  Bi  Bi1  1  0.62865917  0.87134083  0.12865917  1.0
  Bi  Bi2  1  0.87134083  0.12865917  0.62865917  1.0
  Bi  Bi3  1  0.37134083  0.37134083  0.37134083  1.0
  Rh  Rh4  1  0.47676402  0.97676402  0.52323598  1.0
  Rh  Rh5  1  0.97676402  0.52323598  0.47676402  1.0
  Rh  Rh6  1  0.52323598  0.47676402  0.97676402  1.0
  Rh  Rh7  1  0.02323598  0.02323598  0.02323598  1.0
  S  S8  1  0.88113570  0.38113570  0.11886430  1.0
  S  S9  1  0.38113570  0.11886430  0.88113570  1.0
  S  S10  1  0.11886430  0.88113570  0.38113570  1.0
  S  S11  1  0.61886430  0.61886430  0.61886430  1.0
