# generated using pymatgen
data_SrLuCuSe3
_symmetry_space_group_name_H-M   'P 1'
_cell_length_a   7.09386834
_cell_length_b   7.09386834
_cell_length_c   10.48276190
_cell_angle_alpha   90.00000000
_cell_angle_beta   90.00000000
_cell_angle_gamma   146.75150447
_symmetry_Int_Tables_number   1
_chemical_formula_structural   SrLuCuSe3
_chemical_formula_sum   'Sr2 Lu2 Cu2 Se6'
_cell_volume   289.22608448
_cell_formula_units_Z   2
loop_
 _symmetry_equiv_pos_site_id
 _symmetry_equiv_pos_as_xyz
  1  'x, y, z'
loop_
 _atom_site_type_symbol
 _atom_site_label
 _atom_site_symmetry_multiplicity
 _atom_site_fract_x
 _atom_site_fract_y
 _atom_site_fract_z
 _atom_site_occupancy
  Sr  Sr0  1  -0.24712262  0.24712262  0.75000000  1.0
  Sr  Sr1  1  0.24712262  0.75287738  0.25000000  1.0
  Lu  Lu2  1  0.00000000  0.00000000  0.00000000  1.0
  Lu  Lu3  1  0.00000000  0.00000000  0.50000000  1.0
  Cu  Cu4  1  0.47165332  0.52834668  0.75000000  1.0
  Cu  Cu5  1  -0.47165332  0.47165332  0.25000000  1.0
  Se  Se6  1  0.36269387  0.63730613  0.93729937  1.0
  Se  Se7  1  0.36269387  0.63730613  0.56270063  1.0
  Se  Se8  1  -0.36269387  0.36269387  0.43729937  1.0
  Se  Se9  1  -0.36269387  0.36269387  0.06270063  1.0
  Se  Se10  1  0.07849293  0.92150707  0.75000000  1.0
  Se  Se11  1  -0.07849293  0.07849293  0.25000000  1.0
