# generated using pymatgen
data_Ba2Ca2CuN2
_symmetry_space_group_name_H-M   'P 1'
_cell_length_a   10.74406632
_cell_length_b   10.74406632
_cell_length_c   15.50182006
_cell_angle_alpha   90.00000000
_cell_angle_beta   90.00000000
_cell_angle_gamma   90.00000000
_symmetry_Int_Tables_number   1
_chemical_formula_structural   Ba2Ca2CuN2
_chemical_formula_sum   'Ba16 Ca16 Cu8 N16'
_cell_volume   1789.45199640
_cell_formula_units_Z   8
loop_
 _symmetry_equiv_pos_site_id
 _symmetry_equiv_pos_as_xyz
  1  'x, y, z'
loop_
 _atom_site_type_symbol
 _atom_site_label
 _atom_site_symmetry_multiplicity
 _atom_site_fract_x
 _atom_site_fract_y
 _atom_site_fract_z
 _atom_site_occupancy
  Ba  Ba0  1  0.09267799  0.26845626  0.83664259  1.0
  Ba  Ba1  1  0.09267799  0.73154374  0.33664259  1.0
  Ba  Ba2  1  0.59267799  0.76845626  0.16335741  1.0
  Ba  Ba3  1  0.59267799  0.23154374  0.66335741  1.0
  Ba  Ba4  1  0.26845626  0.09267799  0.66335741  1.0
  Ba  Ba5  1  0.26845626  0.90732201  0.16335741  1.0
  Ba  Ba6  1  0.76845626  0.59267799  0.33664259  1.0
  Ba  Ba7  1  0.76845626  0.40732201  0.83664259  1.0
  Ba  Ba8  1  0.90732201  0.26845626  0.33664259  1.0
  Ba  Ba9  1  0.90732201  0.73154374  0.83664259  1.0
  Ba  Ba10  1  0.40732201  0.76845626  0.66335741  1.0
  Ba  Ba11  1  0.40732201  0.23154374  0.16335741  1.0
  Ba  Ba12  1  0.73154374  0.09267799  0.16335741  1.0
  Ba  Ba13  1  0.73154374  0.90732201  0.66335741  1.0
  Ba  Ba14  1  0.23154374  0.59267799  0.83664259  1.0
  Ba  Ba15  1  0.23154374  0.40732201  0.33664259  1.0
  Ca  Ca16  1  0.55387443  0.72871942  0.91641939  1.0
  Ca  Ca17  1  0.55387443  0.27128058  0.41641939  1.0
  Ca  Ca18  1  1.05387443  0.22871942  0.08358061  1.0
  Ca  Ca19  1  1.05387443  0.77128058  0.58358061  1.0
  Ca  Ca20  1  0.72871942  0.55387443  0.58358061  1.0
  Ca  Ca21  1  0.72871942  0.44612557  0.08358061  1.0
  Ca  Ca22  1  0.22871942  1.05387443  0.41641939  1.0
  Ca  Ca23  1  0.22871942  -0.05387443  0.91641939  1.0
  Ca  Ca24  1  0.44612557  0.72871942  0.41641939  1.0
  Ca  Ca25  1  0.44612557  0.27128058  0.91641939  1.0
  Ca  Ca26  1  -0.05387443  0.22871942  0.58358061  1.0
  Ca  Ca27  1  -0.05387443  0.77128058  0.08358061  1.0
  Ca  Ca28  1  0.27128058  0.55387443  0.08358061  1.0
  Ca  Ca29  1  0.27128058  0.44612557  0.58358061  1.0
  Ca  Ca30  1  0.77128058  1.05387443  0.91641939  1.0
  Ca  Ca31  1  0.77128058  -0.05387443  0.41641939  1.0
  Cu  Cu32  1  0.08276673  0.91723327  0.75000000  1.0
  Cu  Cu33  1  0.08276673  0.08276673  0.25000000  1.0
  Cu  Cu34  1  0.58276673  0.41723327  0.25000000  1.0
  Cu  Cu35  1  0.58276673  0.58276673  0.75000000  1.0
  Cu  Cu36  1  0.91723327  0.08276673  0.75000000  1.0
  Cu  Cu37  1  0.91723327  0.91723327  0.25000000  1.0
  Cu  Cu38  1  0.41723327  0.58276673  0.25000000  1.0
  Cu  Cu39  1  0.41723327  0.41723327  0.75000000  1.0
  N  N40  1  1.01937369  0.41105596  0.98885576  1.0
  N  N41  1  1.01937369  0.58894404  0.48885576  1.0
  N  N42  1  0.51937369  0.91105596  0.01114424  1.0
  N  N43  1  0.51937369  0.08894404  0.51114424  1.0
  N  N44  1  0.41105596  1.01937369  0.51114424  1.0
  N  N45  1  0.41105596  -0.01937369  0.01114424  1.0
  N  N46  1  0.91105596  0.51937369  0.48885576  1.0
  N  N47  1  0.91105596  0.48062631  0.98885576  1.0
  N  N48  1  -0.01937369  0.41105596  0.48885576  1.0
  N  N49  1  -0.01937369  0.58894404  0.98885576  1.0
  N  N50  1  0.48062631  0.91105596  0.51114424  1.0
  N  N51  1  0.48062631  0.08894404  0.01114424  1.0
  N  N52  1  0.58894404  1.01937369  0.01114424  1.0
  N  N53  1  0.58894404  -0.01937369  0.51114424  1.0
  N  N54  1  0.08894404  0.51937369  0.98885576  1.0
  N  N55  1  0.08894404  0.48062631  0.48885576  1.0
