# generated using pymatgen
data_Rb2CoSe2
_symmetry_space_group_name_H-M   'P 1'
_cell_length_a   8.42864090
_cell_length_b   8.42864090
_cell_length_c   8.42864090
_cell_angle_alpha   129.21997257
_cell_angle_beta   70.49090744
_cell_angle_gamma   134.56010082
_symmetry_Int_Tables_number   1
_chemical_formula_structural   Rb2CoSe2
_chemical_formula_sum   'Rb4 Co2 Se4'
_cell_volume   323.93922413
_cell_formula_units_Z   2
loop_
 _symmetry_equiv_pos_site_id
 _symmetry_equiv_pos_as_xyz
  1  'x, y, z'
loop_
 _atom_site_type_symbol
 _atom_site_label
 _atom_site_symmetry_multiplicity
 _atom_site_fract_x
 _atom_site_fract_y
 _atom_site_fract_z
 _atom_site_occupancy
  Rb  Rb0  1  0.14528770  0.32792893  0.47321663  1.0
  Rb  Rb1  1  0.35471230  0.82792893  1.18264123  1.0
  Rb  Rb2  1  0.64528770  1.17207107  0.81735877  1.0
  Rb  Rb3  1  0.85471230  0.67207107  0.52678337  1.0
  Co  Co4  1  0.25000000  0.25000000  -0.00000000  1.0
  Co  Co5  1  0.75000000  0.75000000  0.00000000  1.0
  Se  Se6  1  0.40318009  0.32625653  0.72943661  1.0
  Se  Se7  1  0.09681991  0.82625653  0.92307644  1.0
  Se  Se8  1  0.90318009  1.17374347  1.07692356  1.0
  Se  Se9  1  0.59681991  0.67374347  0.27056339  1.0
