# generated using pymatgen
data_LiFeHSO5
_symmetry_space_group_name_H-M   'P 1'
_cell_length_a   9.84323701
_cell_length_b   5.51918635
_cell_length_c   7.53980375
_cell_angle_alpha   90.00000000
_cell_angle_beta   110.57002509
_cell_angle_gamma   90.00000000
_symmetry_Int_Tables_number   1
_chemical_formula_structural   LiFeHSO5
_chemical_formula_sum   'Li4 Fe4 H4 S4 O20'
_cell_volume   383.49689110
_cell_formula_units_Z   4
loop_
 _symmetry_equiv_pos_site_id
 _symmetry_equiv_pos_as_xyz
  1  'x, y, z'
loop_
 _atom_site_type_symbol
 _atom_site_label
 _atom_site_symmetry_multiplicity
 _atom_site_fract_x
 _atom_site_fract_y
 _atom_site_fract_z
 _atom_site_occupancy
  Fe  Fe0  1  0.94707840  0.76224438  0.86976024  1.0
  Fe  Fe1  1  0.94707840  0.73775562  0.36976024  1.0
  Fe  Fe2  1  0.05292160  0.26224438  0.63023976  1.0
  Fe  Fe3  1  0.05292160  0.23775562  0.13023976  1.0
  Li  Li4  1  0.58699799  0.93565419  0.80710830  1.0
  Li  Li5  1  0.58699799  0.56434581  0.30710830  1.0
  Li  Li6  1  0.41300201  0.43565419  0.69289170  1.0
  Li  Li7  1  0.41300201  0.06434581  0.19289170  1.0
  S  S8  1  0.28779183  0.56093490  0.99625600  1.0
  S  S9  1  0.28779183  0.93906510  0.49625600  1.0
  S  S10  1  0.71220817  0.06093490  0.50374400  1.0
  S  S11  1  0.71220817  0.43906510  0.00374400  1.0
  H  H12  1  0.83124385  0.49961933  0.58825147  1.0
  H  H13  1  0.83124385  1.00038067  0.08825147  1.0
  H  H14  1  0.16875615  -0.00038067  0.91174853  1.0
  H  H15  1  0.16875615  0.50038067  0.41174853  1.0
  O  O16  1  0.85064677  0.44462003  0.95854701  1.0
  O  O17  1  0.85064677  0.05537997  0.45854701  1.0
  O  O18  1  0.14935323  0.94462003  0.54145299  1.0
  O  O19  1  0.14935323  0.55537997  0.04145299  1.0
  O  O20  1  0.74226521  0.94780082  0.69500433  1.0
  O  O21  1  0.74226521  0.55219918  0.19500433  1.0
  O  O22  1  0.25773479  0.44780082  0.80499567  1.0
  O  O23  1  0.25773479  0.05219918  0.30499567  1.0
  O  O24  1  0.59657903  0.58127610  0.85907975  1.0
  O  O25  1  0.59657903  0.91872390  0.35907975  1.0
  O  O26  1  0.40342097  0.08127610  0.64092025  1.0
  O  O27  1  0.40342097  0.41872390  0.14092025  1.0
  O  O28  1  0.33532092  0.81615317  0.99507343  1.0
  O  O29  1  0.33532092  0.68384683  0.49507343  1.0
  O  O30  1  0.66467908  0.31615317  0.50492657  1.0
  O  O31  1  0.66467908  0.18384683  0.00492657  1.0
  O  O32  1  0.92947861  0.56991241  0.62549281  1.0
  O  O33  1  0.92947861  0.93008759  0.12549281  1.0
  O  O34  1  0.07052139  0.06991241  0.87450719  1.0
  O  O35  1  0.07052139  0.43008759  0.37450719  1.0
