# generated using pymatgen
data_FeBiO3
_symmetry_space_group_name_H-M   'P 1'
_cell_length_a   3.86721112
_cell_length_b   7.73285134
_cell_length_c   3.86678482
_cell_angle_alpha   90.00000000
_cell_angle_beta   90.00033442
_cell_angle_gamma   90.00000000
_symmetry_Int_Tables_number   1
_chemical_formula_structural   FeBiO3
_chemical_formula_sum   'Fe2 Bi2 O6'
_cell_volume   115.63453208
_cell_formula_units_Z   2
loop_
 _symmetry_equiv_pos_site_id
 _symmetry_equiv_pos_as_xyz
  1  'x, y, z'
loop_
 _atom_site_type_symbol
 _atom_site_label
 _atom_site_symmetry_multiplicity
 _atom_site_fract_x
 _atom_site_fract_y
 _atom_site_fract_z
 _atom_site_occupancy
  O  O0  1  0.50000000  0.50000000  0.50000000  1.0
  O  O1  1  0.50000000  -0.00000000  0.50000000  1.0
  O  O2  1  0.50007220  0.25000000  1.00006457  1.0
  O  O3  1  0.49992780  0.75000000  -0.00006457  1.0
  O  O4  1  0.00003023  0.25000000  0.50014245  1.0
  O  O5  1  0.99996977  0.75000000  0.49985755  1.0
  Fe  Fe6  1  0.50002785  0.25000000  0.50004874  1.0
  Fe  Fe7  1  0.49997215  0.75000000  0.49995126  1.0
  Bi  Bi8  1  0.00000000  0.50000000  0.00000000  1.0
  Bi  Bi9  1  0.00000000  0.00000000  0.00000000  1.0
