# generated using pymatgen
data_AlH6CNO5
_symmetry_space_group_name_H-M   'P 1'
_cell_length_a   5.78418885
_cell_length_b   6.81371093
_cell_length_c   11.84553767
_cell_angle_alpha   90.00000000
_cell_angle_beta   90.00000000
_cell_angle_gamma   90.00000000
_symmetry_Int_Tables_number   1
_chemical_formula_structural   AlH6CNO5
_chemical_formula_sum   'Al4 H24 C4 N4 O20'
_cell_volume   466.85385255
_cell_formula_units_Z   4
loop_
 _symmetry_equiv_pos_site_id
 _symmetry_equiv_pos_as_xyz
  1  'x, y, z'
loop_
 _atom_site_type_symbol
 _atom_site_label
 _atom_site_symmetry_multiplicity
 _atom_site_fract_x
 _atom_site_fract_y
 _atom_site_fract_z
 _atom_site_occupancy
  Al  Al0  1  0.48878392  0.75000000  0.75149930  1.0
  Al  Al1  1  0.98878392  0.75000000  0.74850070  1.0
  Al  Al2  1  0.51121608  0.25000000  0.24850070  1.0
  Al  Al3  1  0.01121608  0.25000000  0.25149930  1.0
  H  H4  1  0.23965272  0.48257000  0.83506290  1.0
  H  H5  1  0.23965272  0.01743000  0.83506290  1.0
  H  H6  1  0.73965272  0.48257000  0.66493710  1.0
  H  H7  1  0.73965272  0.01743000  0.66493710  1.0
  H  H8  1  0.76034728  0.98257000  0.16493710  1.0
  H  H9  1  0.76034728  0.51743000  0.16493710  1.0
  H  H10  1  0.26034728  0.98257000  0.33506290  1.0
  H  H11  1  0.26034728  0.51743000  0.33506290  1.0
  H  H12  1  0.23734819  0.37389064  0.66221660  1.0
  H  H13  1  0.23734819  0.12610936  0.66221660  1.0
  H  H14  1  0.73734819  0.37389064  0.83778340  1.0
  H  H15  1  0.73734819  0.12610936  0.83778340  1.0
  H  H16  1  0.76265181  0.87389064  0.33778340  1.0
  H  H17  1  0.76265181  0.62610936  0.33778340  1.0
  H  H18  1  0.26265181  0.87389064  0.16221660  1.0
  H  H19  1  0.26265181  0.62610936  0.16221660  1.0
  H  H20  1  0.34164560  0.75000000  0.04212315  1.0
  H  H21  1  0.84164560  0.75000000  0.45787685  1.0
  H  H22  1  0.65835440  0.25000000  0.95787685  1.0
  H  H23  1  0.15835440  0.25000000  0.54212315  1.0
  H  H24  1  0.06030594  0.75000000  0.08712548  1.0
  H  H25  1  0.56030594  0.75000000  0.41287452  1.0
  H  H26  1  0.93969406  0.25000000  0.91287452  1.0
  H  H27  1  0.43969406  0.25000000  0.58712548  1.0
  C  C28  1  0.24420962  0.75000000  0.53687383  1.0
  C  C29  1  0.74420962  0.75000000  0.96312617  1.0
  C  C30  1  0.75579038  0.25000000  0.46312617  1.0
  C  C31  1  0.25579038  0.25000000  0.03687383  1.0
  N  N32  1  0.23398555  0.75000000  0.11206489  1.0
  N  N33  1  0.73398555  0.75000000  0.38793511  1.0
  N  N34  1  0.76601445  0.25000000  0.88793511  1.0
  N  N35  1  0.26601445  0.25000000  0.61206489  1.0
  O  O36  1  0.23865125  0.93576755  0.76664527  1.0
  O  O37  1  0.23865125  0.56423245  0.76664527  1.0
  O  O38  1  0.73865125  0.93576755  0.73335473  1.0
  O  O39  1  0.73865125  0.56423245  0.73335473  1.0
  O  O40  1  0.76134875  0.43576755  0.23335473  1.0
  O  O41  1  0.76134875  0.06423245  0.23335473  1.0
  O  O42  1  0.26134875  0.43576755  0.26664527  1.0
  O  O43  1  0.26134875  0.06423245  0.26664527  1.0
  O  O44  1  0.43539337  0.75000000  0.59411350  1.0
  O  O45  1  0.93539337  0.75000000  0.90588650  1.0
  O  O46  1  0.56460663  0.25000000  0.40588650  1.0
  O  O47  1  0.06460663  0.25000000  0.09411350  1.0
  O  O48  1  0.04348031  0.75000000  0.58815245  1.0
  O  O49  1  0.54348031  0.75000000  0.91184755  1.0
  O  O50  1  0.95651969  0.25000000  0.41184755  1.0
  O  O51  1  0.45651969  0.25000000  0.08815245  1.0
  O  O52  1  0.75267626  0.75000000  0.07111538  1.0
  O  O53  1  0.25267626  0.75000000  0.42888462  1.0
  O  O54  1  0.24732374  0.25000000  0.92888462  1.0
  O  O55  1  0.74732374  0.25000000  0.57111538  1.0
