# generated using pymatgen
data_GeP2O9
_symmetry_space_group_name_H-M   'P 1'
_cell_length_a   8.47384626
_cell_length_b   4.88572872
_cell_length_c   16.41354783
_cell_angle_alpha   90.00000000
_cell_angle_beta   117.17312624
_cell_angle_gamma   90.00000000
_symmetry_Int_Tables_number   1
_chemical_formula_structural   GeP2O9
_chemical_formula_sum   'Ge4 P8 O36'
_cell_volume   604.53596356
_cell_formula_units_Z   4
loop_
 _symmetry_equiv_pos_site_id
 _symmetry_equiv_pos_as_xyz
  1  'x, y, z'
loop_
 _atom_site_type_symbol
 _atom_site_label
 _atom_site_symmetry_multiplicity
 _atom_site_fract_x
 _atom_site_fract_y
 _atom_site_fract_z
 _atom_site_occupancy
  P  P0  1  0.51092469  0.24687803  0.10604115  1.0
  P  P1  1  0.51092469  0.25312197  0.60604115  1.0
  P  P2  1  0.48907531  0.74687803  0.39395885  1.0
  P  P3  1  0.48907531  0.75312197  0.89395885  1.0
  P  P4  1  -0.01081922  0.24717512  0.39394323  1.0
  P  P5  1  -0.01081922  0.25282488  0.89394323  1.0
  P  P6  1  1.01081922  0.74717512  0.10605677  1.0
  P  P7  1  1.01081922  0.75282488  0.60605677  1.0
  O  O8  1  0.95829000  0.44673389  0.07674901  1.0
  O  O9  1  0.95829000  0.05326611  0.57674901  1.0
  O  O10  1  0.04171000  0.94673389  0.42325099  1.0
  O  O11  1  0.04171000  0.55326611  0.92325099  1.0
  O  O12  1  0.84621536  0.93482731  0.07312057  1.0
  O  O13  1  0.84621536  0.56517269  0.57312057  1.0
  O  O14  1  0.15378464  0.43482731  0.42687943  1.0
  O  O15  1  0.15378464  0.06517269  0.92687943  1.0
  O  O16  1  0.65363392  0.93463775  0.42680884  1.0
  O  O17  1  0.65363392  0.56536225  0.92680884  1.0
  O  O18  1  0.34636608  0.43463775  0.07319116  1.0
  O  O19  1  0.34636608  0.06536225  0.57319116  1.0
  O  O20  1  0.65048693  0.35475374  0.07806288  1.0
  O  O21  1  0.65048693  0.14524626  0.57806288  1.0
  O  O22  1  0.34951307  0.85475374  0.42193712  1.0
  O  O23  1  0.34951307  0.64524626  0.92193712  1.0
  O  O24  1  0.54164817  0.44645152  0.42334937  1.0
  O  O25  1  0.54164817  0.05354848  0.92334937  1.0
  O  O26  1  0.45835183  0.94645152  0.07665063  1.0
  O  O27  1  0.45835183  0.55354848  0.57665063  1.0
  O  O28  1  0.25130672  0.10837479  0.24798854  1.0
  O  O29  1  0.25130672  0.39162521  0.74798854  1.0
  O  O30  1  0.74869328  0.60837479  0.25201146  1.0
  O  O31  1  0.74869328  0.89162521  0.75201146  1.0
  O  O32  1  0.90531777  0.25446487  0.28506433  1.0
  O  O33  1  0.90531777  0.24553513  0.78506433  1.0
  O  O34  1  0.09468223  0.75446487  0.21493567  1.0
  O  O35  1  0.09468223  0.74553513  0.71493567  1.0
  O  O36  1  0.59471284  0.25207746  0.21493634  1.0
  O  O37  1  0.59471284  0.24792254  0.71493634  1.0
  O  O38  1  0.40528716  0.75207746  0.28506366  1.0
  O  O39  1  0.40528716  0.74792254  0.78506366  1.0
  O  O40  1  0.84954021  0.35454391  0.42200620  1.0
  O  O41  1  0.84954021  0.14545609  0.92200620  1.0
  O  O42  1  0.15045979  0.85454391  0.07799380  1.0
  O  O43  1  0.15045979  0.64545609  0.57799380  1.0
  Ge  Ge44  1  0.74985547  0.25025040  0.00002839  1.0
  Ge  Ge45  1  0.74985547  0.24974960  0.50002839  1.0
  Ge  Ge46  1  0.25014453  0.75025040  0.49997161  1.0
  Ge  Ge47  1  0.25014453  0.74974960  0.99997161  1.0
