# generated using pymatgen
data_CoH16(N5O4)2
_symmetry_space_group_name_H-M   'P 1'
_cell_length_a   10.40534762
_cell_length_b   9.12071040
_cell_length_c   6.85539785
_cell_angle_alpha   79.90810492
_cell_angle_beta   59.65270756
_cell_angle_gamma   40.43918752
_symmetry_Int_Tables_number   1
_chemical_formula_structural   CoH16(N5O4)2
_chemical_formula_sum   'Co1 H16 N10 O8'
_cell_volume   337.76706556
_cell_formula_units_Z   1
loop_
 _symmetry_equiv_pos_site_id
 _symmetry_equiv_pos_as_xyz
  1  'x, y, z'
loop_
 _atom_site_type_symbol
 _atom_site_label
 _atom_site_symmetry_multiplicity
 _atom_site_fract_x
 _atom_site_fract_y
 _atom_site_fract_z
 _atom_site_occupancy
  Co  Co0  1  -0.50000000  0.50000000  0.50000000  1.0
  H  H1  1  1.09873515  -0.00597847  0.62291301  1.0
  H  H2  1  1.62291301  0.28433031  0.09873515  1.0
  H  H3  1  0.99402153  0.09873515  0.28433031  1.0
  H  H4  1  1.28433031  0.62291301  -0.00597847  1.0
  H  H5  1  0.90126485  1.00597847  0.37708699  1.0
  H  H6  1  0.37708699  0.71566969  0.90126485  1.0
  H  H7  1  1.00597847  0.90126485  0.71566969  1.0
  H  H8  1  0.71566969  0.37708699  1.00597847  1.0
  H  H9  1  0.87348124  0.38475646  0.61524354  1.0
  H  H10  1  1.61524354  0.12651876  -0.12651876  1.0
  H  H11  1  1.38475646  -0.12651876  0.12651876  1.0
  H  H12  1  1.12651876  0.61524354  0.38475646  1.0
  H  H13  1  1.03089665  0.30214932  0.69785068  1.0
  H  H14  1  1.69785068  -0.03089665  0.03089665  1.0
  H  H15  1  1.30214932  0.03089665  -0.03089665  1.0
  H  H16  1  0.96910335  0.69785068  0.30214932  1.0
  N  N17  1  0.62307123  0.62307123  -0.62307123  1.0
  N  N18  1  0.37692877  1.37692877  -0.37692877  1.0
  N  N19  1  1.57883287  -0.24174693  0.24174693  1.0
  N  N20  1  1.24174693  0.42116713  0.57883287  1.0
  N  N21  1  0.75825307  0.57883287  0.42116713  1.0
  N  N22  1  1.42116713  0.24174693  -0.24174693  1.0
  N  N23  1  1.68698396  -0.20276043  0.20276043  1.0
  N  N24  1  1.20276043  0.31301604  0.68698396  1.0
  N  N25  1  0.79723957  0.68698396  0.31301604  1.0
  N  N26  1  1.31301604  0.20276043  -0.20276043  1.0
  O  O27  1  0.15523253  -0.15523253  1.60033106  1.0
  O  O28  1  0.60033106  -0.60033106  1.15523253  1.0
  O  O29  1  -0.15523253  0.15523253  1.39966894  1.0
  O  O30  1  0.39966894  -0.39966894  0.84476747  1.0
  O  O31  1  0.93964620  0.29112533  0.70887467  1.0
  O  O32  1  1.70887467  0.06035380  -0.06035380  1.0
  O  O33  1  1.29112533  -0.06035380  0.06035380  1.0
  O  O34  1  1.06035380  0.70887467  0.29112533  1.0
