# generated using pymatgen
data_KIn(WO4)2
_symmetry_space_group_name_H-M   'P 1'
_cell_length_a   7.56394180
_cell_length_b   7.56394180
_cell_length_c   7.47198057
_cell_angle_alpha   61.06439936
_cell_angle_beta   118.93560064
_cell_angle_gamma   94.21819142
_symmetry_Int_Tables_number   1
_chemical_formula_structural   KIn(WO4)2
_chemical_formula_sum   'K2 In2 W4 O16'
_cell_volume   320.15160017
_cell_formula_units_Z   2
loop_
 _symmetry_equiv_pos_site_id
 _symmetry_equiv_pos_as_xyz
  1  'x, y, z'
loop_
 _atom_site_type_symbol
 _atom_site_label
 _atom_site_symmetry_multiplicity
 _atom_site_fract_x
 _atom_site_fract_y
 _atom_site_fract_z
 _atom_site_occupancy
  K  K0  1  0.20858626  0.20858626  0.25000000  1.0
  K  K1  1  0.79141374  0.79141374  0.75000000  1.0
  In  In2  1  0.77369794  0.77369794  0.25000000  1.0
  In  In3  1  0.22630206  0.22630206  0.75000000  1.0
  W  W4  1  0.69613508  0.29905018  0.22206363  1.0
  W  W5  1  0.70094982  0.30386492  0.72206363  1.0
  W  W6  1  1.29905018  -0.30386492  0.27793637  1.0
  W  W7  1  1.30386492  -0.29905018  0.77793637  1.0
  O  O8  1  0.62236119  0.24421793  0.44129604  1.0
  O  O9  1  0.75578207  0.37763881  0.94129604  1.0
  O  O10  1  1.24421793  -0.37763881  0.05870396  1.0
  O  O11  1  1.37763881  -0.24421793  0.55870396  1.0
  O  O12  1  1.60741204  -0.38191756  0.05107663  1.0
  O  O13  1  1.38191756  -0.60741204  0.55107663  1.0
  O  O14  1  0.61808244  0.60741204  0.44892337  1.0
  O  O15  1  0.39258796  0.38191756  0.94892337  1.0
  O  O16  1  0.73291262  0.03706326  0.28454648  1.0
  O  O17  1  0.96293674  0.26708738  0.78454648  1.0
  O  O18  1  1.03706326  -0.26708738  0.21545352  1.0
  O  O19  1  1.26708738  -0.03706326  0.71545352  1.0
  O  O20  1  1.32278564  -0.04276031  0.10957827  1.0
  O  O21  1  1.04276031  -0.32278564  0.60957827  1.0
  O  O22  1  0.95723969  0.32278564  0.39042173  1.0
  O  O23  1  0.67721436  0.04276031  0.89042173  1.0
