# generated using pymatgen
data_Cs2LiVBr6
_symmetry_space_group_name_H-M   'P 1'
_cell_length_a   7.72397180
_cell_length_b   7.72397180
_cell_length_c   6.49679109
_cell_angle_alpha   90.00000000
_cell_angle_beta   90.00000000
_cell_angle_gamma   120.00000000
_symmetry_Int_Tables_number   1
_chemical_formula_structural   Cs2LiVBr6
_chemical_formula_sum   'Cs2 Li1 V1 Br6'
_cell_volume   335.66873559
_cell_formula_units_Z   1
loop_
 _symmetry_equiv_pos_site_id
 _symmetry_equiv_pos_as_xyz
  1  'x, y, z'
loop_
 _atom_site_type_symbol
 _atom_site_label
 _atom_site_symmetry_multiplicity
 _atom_site_fract_x
 _atom_site_fract_y
 _atom_site_fract_z
 _atom_site_occupancy
  Cs  Cs0  1  0.33333333  0.66666667  0.26237570  1.0
  Cs  Cs1  1  0.66666667  0.33333333  0.73762430  1.0
  Li  Li2  1  0.00000000  0.00000000  0.00000000  1.0
  V  V3  1  0.00000000  0.00000000  0.50000000  1.0
  Br  Br4  1  0.31074740  0.15537370  0.26846866  1.0
  Br  Br5  1  0.15537370  0.31074740  0.73153134  1.0
  Br  Br6  1  0.15537370  0.84462630  0.73153134  1.0
  Br  Br7  1  0.84462630  0.15537370  0.26846866  1.0
  Br  Br8  1  0.84462630  0.68925260  0.26846866  1.0
  Br  Br9  1  0.68925260  0.84462630  0.73153134  1.0
