# generated using pymatgen
data_Cd2PO4F
_symmetry_space_group_name_H-M   'P 1'
_cell_length_a   7.85316424
_cell_length_b   7.85316424
_cell_length_c   10.76277632
_cell_angle_alpha   61.96018156
_cell_angle_beta   118.03981844
_cell_angle_gamma   128.68172543
_symmetry_Int_Tables_number   1
_chemical_formula_structural   Cd2PO4F
_chemical_formula_sum   'Cd8 P4 O16 F4'
_cell_volume   442.11120761
_cell_formula_units_Z   4
loop_
 _symmetry_equiv_pos_site_id
 _symmetry_equiv_pos_as_xyz
  1  'x, y, z'
loop_
 _atom_site_type_symbol
 _atom_site_label
 _atom_site_symmetry_multiplicity
 _atom_site_fract_x
 _atom_site_fract_y
 _atom_site_fract_z
 _atom_site_occupancy
  Cd  Cd0  1  0.79274846  0.68552672  0.98792694  1.0
  Cd  Cd1  1  1.68552672  -0.20725154  0.51207306  1.0
  Cd  Cd2  1  1.20725154  -0.68552672  0.01207306  1.0
  Cd  Cd3  1  0.31447328  0.20725154  0.48792694  1.0
  Cd  Cd4  1  0.93899891  -0.74367598  0.65250691  1.0
  Cd  Cd5  1  0.25632402  -0.06100109  0.84749309  1.0
  Cd  Cd6  1  1.06100109  0.74367598  0.34749309  1.0
  Cd  Cd7  1  1.74367598  0.06100109  0.15250691  1.0
  P  P8  1  0.76527740  -0.58670978  0.80520276  1.0
  P  P9  1  1.41329022  -0.23472260  0.69479724  1.0
  P  P10  1  1.23472260  0.58670978  0.19479724  1.0
  P  P11  1  0.58670978  0.23472260  0.30520276  1.0
  O  O12  1  1.22501419  -0.39040508  0.58921422  1.0
  O  O13  1  0.60959492  0.22501419  0.91078578  1.0
  O  O14  1  0.77498581  0.39040508  0.41078578  1.0
  O  O15  1  1.39040508  -0.22501419  0.08921422  1.0
  O  O16  1  1.07156574  0.64617124  0.18406090  1.0
  O  O17  1  0.64617124  0.07156574  0.31593910  1.0
  O  O18  1  0.92843426  -0.64617124  0.81593910  1.0
  O  O19  1  1.35382876  -0.07156574  0.68406090  1.0
  O  O20  1  1.37821972  0.55365786  0.35529484  1.0
  O  O21  1  0.55365786  0.37821972  0.14470516  1.0
  O  O22  1  0.62178028  -0.55365786  0.64470516  1.0
  O  O23  1  1.44634214  -0.37821972  0.85529484  1.0
  O  O24  1  1.09535493  -0.63784061  0.14886923  1.0
  O  O25  1  0.36215939  0.09535493  0.35113077  1.0
  O  O26  1  0.90464507  0.63784061  0.85113077  1.0
  O  O27  1  1.63784061  -0.09535493  0.64886923  1.0
  F  F28  1  0.93016258  0.90411032  0.39029822  1.0
  F  F29  1  1.90411032  -0.06983742  0.10970178  1.0
  F  F30  1  1.06983742  -0.90411032  0.60970178  1.0
  F  F31  1  0.09588968  0.06983742  0.89029822  1.0
