# generated using pymatgen
data_MgAs2(XeF8)2
_symmetry_space_group_name_H-M   'P 1'
_cell_length_a   9.32253271
_cell_length_b   15.91071297
_cell_length_c   5.51933403
_cell_angle_alpha   90.00000000
_cell_angle_beta   90.00000000
_cell_angle_gamma   90.00000000
_symmetry_Int_Tables_number   1
_chemical_formula_structural   MgAs2(XeF8)2
_chemical_formula_sum   'Mg2 As4 Xe4 F32'
_cell_volume   818.67256224
_cell_formula_units_Z   2
loop_
 _symmetry_equiv_pos_site_id
 _symmetry_equiv_pos_as_xyz
  1  'x, y, z'
loop_
 _atom_site_type_symbol
 _atom_site_label
 _atom_site_symmetry_multiplicity
 _atom_site_fract_x
 _atom_site_fract_y
 _atom_site_fract_z
 _atom_site_occupancy
  Mg  Mg0  1  0.50000000  0.50000000  0.00000000  1.0
  Mg  Mg1  1  0.00000000  0.00000000  0.00000000  1.0
  As  As2  1  0.26060016  0.57806142  0.50000000  1.0
  As  As3  1  0.76060016  0.92193858  0.50000000  1.0
  As  As4  1  0.73939984  0.42193858  0.50000000  1.0
  As  As5  1  0.23939984  0.07806142  0.50000000  1.0
  Xe  Xe6  1  0.33049703  0.83181525  0.00000000  1.0
  Xe  Xe7  1  0.83049703  0.66818475  0.00000000  1.0
  Xe  Xe8  1  0.66950297  0.16818475  0.00000000  1.0
  Xe  Xe9  1  0.16950297  0.33181525  0.00000000  1.0
  F  F10  1  0.40430790  0.56915594  0.73125309  1.0
  F  F11  1  0.40430790  0.56915594  0.26874691  1.0
  F  F12  1  0.90430790  0.93084406  0.73125309  1.0
  F  F13  1  0.90430790  0.93084406  0.26874691  1.0
  F  F14  1  0.59569210  0.43084406  0.73125309  1.0
  F  F15  1  0.59569210  0.43084406  0.26874691  1.0
  F  F16  1  0.09569210  0.06915594  0.73125309  1.0
  F  F17  1  0.09569210  0.06915594  0.26874691  1.0
  F  F18  1  0.13149076  0.58658396  0.73354792  1.0
  F  F19  1  0.13149076  0.58658396  0.26645208  1.0
  F  F20  1  0.63149076  0.91341604  0.73354792  1.0
  F  F21  1  0.63149076  0.91341604  0.26645208  1.0
  F  F22  1  0.86850924  0.41341604  0.73354792  1.0
  F  F23  1  0.86850924  0.41341604  0.26645208  1.0
  F  F24  1  0.36850924  0.08658396  0.73354792  1.0
  F  F25  1  0.36850924  0.08658396  0.26645208  1.0
  F  F26  1  0.29297614  0.68807704  0.50000000  1.0
  F  F27  1  0.79297614  0.81192296  0.50000000  1.0
  F  F28  1  0.70702386  0.31192296  0.50000000  1.0
  F  F29  1  0.20702386  0.18807704  0.50000000  1.0
  F  F30  1  0.25100901  0.96641977  0.50000000  1.0
  F  F31  1  0.75100901  0.53358023  0.50000000  1.0
  F  F32  1  0.74899099  0.03358023  0.50000000  1.0
  F  F33  1  0.24899099  0.46641977  0.50000000  1.0
  F  F34  1  0.49117890  0.74926089  0.00000000  1.0
  F  F35  1  0.99117890  0.75073911  0.00000000  1.0
  F  F36  1  0.50882110  0.25073911  0.00000000  1.0
  F  F37  1  0.00882110  0.24926089  0.00000000  1.0
  F  F38  1  0.15890561  0.91866942  0.00000000  1.0
  F  F39  1  0.65890561  0.58133058  0.00000000  1.0
  F  F40  1  0.84109439  0.08133058  0.00000000  1.0
  F  F41  1  0.34109439  0.41866942  0.00000000  1.0
