# generated using pymatgen
data_Rb3AgSn3Se8
_symmetry_space_group_name_H-M   'P 1'
_cell_length_a   8.62406930
_cell_length_b   8.62406930
_cell_length_c   13.73566110
_cell_angle_alpha   90.00000000
_cell_angle_beta   90.00000000
_cell_angle_gamma   90.00000000
_symmetry_Int_Tables_number   1
_chemical_formula_structural   Rb3AgSn3Se8
_chemical_formula_sum   'Rb6 Ag2 Sn6 Se16'
_cell_volume   1021.58390621
_cell_formula_units_Z   2
loop_
 _symmetry_equiv_pos_site_id
 _symmetry_equiv_pos_as_xyz
  1  'x, y, z'
loop_
 _atom_site_type_symbol
 _atom_site_label
 _atom_site_symmetry_multiplicity
 _atom_site_fract_x
 _atom_site_fract_y
 _atom_site_fract_z
 _atom_site_occupancy
  Rb  Rb0  1  0.00000000  0.00000000  0.27970712  1.0
  Rb  Rb1  1  0.00000000  0.00000000  0.72029288  1.0
  Rb  Rb2  1  0.50000000  0.50000000  0.72029288  1.0
  Rb  Rb3  1  0.50000000  0.50000000  0.27970712  1.0
  Rb  Rb4  1  0.00000000  0.00000000  0.00000000  1.0
  Rb  Rb5  1  0.50000000  0.50000000  0.00000000  1.0
  Ag  Ag6  1  0.50000000  0.00000000  0.00000000  1.0
  Ag  Ag7  1  0.00000000  0.50000000  0.00000000  1.0
  Sn  Sn8  1  0.50000000  0.00000000  0.24118619  1.0
  Sn  Sn9  1  0.50000000  0.00000000  0.75881381  1.0
  Sn  Sn10  1  0.00000000  0.50000000  0.75881381  1.0
  Sn  Sn11  1  0.00000000  0.50000000  0.24118619  1.0
  Sn  Sn12  1  0.50000000  0.00000000  0.50000000  1.0
  Sn  Sn13  1  0.00000000  0.50000000  0.50000000  1.0
  Se  Se14  1  0.84170154  0.65829846  0.37529992  1.0
  Se  Se15  1  0.84170154  0.34170154  0.62470008  1.0
  Se  Se16  1  0.34170154  0.15829846  0.62470008  1.0
  Se  Se17  1  0.34170154  0.84170154  0.37529992  1.0
  Se  Se18  1  0.65829846  0.84170154  0.62470008  1.0
  Se  Se19  1  0.65829846  0.15829846  0.37529992  1.0
  Se  Se20  1  0.15829846  0.34170154  0.37529992  1.0
  Se  Se21  1  0.15829846  0.65829846  0.62470008  1.0
  Se  Se22  1  0.67091878  0.82908122  0.13862440  1.0
  Se  Se23  1  0.67091878  0.17091878  0.86137560  1.0
  Se  Se24  1  0.17091878  0.32908122  0.86137560  1.0
  Se  Se25  1  0.17091878  0.67091878  0.13862440  1.0
  Se  Se26  1  0.82908122  0.67091878  0.86137560  1.0
  Se  Se27  1  0.82908122  0.32908122  0.13862440  1.0
  Se  Se28  1  0.32908122  0.17091878  0.13862440  1.0
  Se  Se29  1  0.32908122  0.82908122  0.86137560  1.0
