# generated using pymatgen
data_CaH6(SO4)4
_symmetry_space_group_name_H-M   'P 1'
_cell_length_a   8.90333344
_cell_length_b   7.83918972
_cell_length_c   5.52769229
_cell_angle_alpha   99.93868066
_cell_angle_beta   103.69373976
_cell_angle_gamma   88.42544738
_symmetry_Int_Tables_number   1
_chemical_formula_structural   CaH6(SO4)4
_chemical_formula_sum   'Ca1 H6 S4 O16'
_cell_volume   369.17705500
_cell_formula_units_Z   1
loop_
 _symmetry_equiv_pos_site_id
 _symmetry_equiv_pos_as_xyz
  1  'x, y, z'
loop_
 _atom_site_type_symbol
 _atom_site_label
 _atom_site_symmetry_multiplicity
 _atom_site_fract_x
 _atom_site_fract_y
 _atom_site_fract_z
 _atom_site_occupancy
  Ca  Ca0  1  0.50000000  0.00000000  -0.50000000  1.0
  H  H1  1  0.87799495  0.03236521  -0.77978475  1.0
  H  H2  1  0.12200505  0.96763479  -0.22021525  1.0
  H  H3  1  0.69970814  0.52444331  -0.81012384  1.0
  H  H4  1  0.30029186  0.47555669  -0.18987616  1.0
  H  H5  1  0.82558285  0.52585760  -0.20896269  1.0
  H  H6  1  0.17441715  0.47414240  -0.79103731  1.0
  S  S7  1  0.72697631  0.81735340  -0.96902775  1.0
  S  S8  1  0.27302369  0.18264660  -0.03097225  1.0
  S  S9  1  0.76349918  0.33743350  -0.55562355  1.0
  S  S10  1  0.23650082  0.66256650  -0.44437645  1.0
  O  O11  1  0.75889427  0.62800952  -0.99068487  1.0
  O  O12  1  0.24110573  0.37199048  -0.00931513  1.0
  O  O13  1  0.61160310  0.86668896  -0.82009500  1.0
  O  O14  1  0.38839690  0.13331104  -0.17990500  1.0
  O  O15  1  0.88719670  0.90221961  -0.81771935  1.0
  O  O16  1  0.11280330  0.09778039  -0.18228065  1.0
  O  O17  1  0.85633218  0.24279847  -0.71612696  1.0
  O  O18  1  0.14366782  0.75720153  -0.28387304  1.0
  O  O19  1  0.64959028  0.45887666  -0.70334378  1.0
  O  O20  1  0.35040972  0.54112334  -0.29665622  1.0
  O  O21  1  0.33225161  0.76177712  -0.55164490  1.0
  O  O22  1  0.66774839  0.23822288  -0.44835510  1.0
  O  O23  1  0.87743962  0.45647523  -0.34198938  1.0
  O  O24  1  0.12256038  0.54352477  -0.65801062  1.0
  O  O25  1  0.68736891  0.87150598  -0.21702835  1.0
  O  O26  1  0.31263109  0.12849402  -0.78297165  1.0
