# generated using pymatgen
data_Zn7Sb8Rh9
_symmetry_space_group_name_H-M   'P 1'
_cell_length_a   8.55538056
_cell_length_b   8.55538056
_cell_length_c   8.55538056
_cell_angle_alpha   60.00000000
_cell_angle_beta   60.00000000
_cell_angle_gamma   60.00000000
_symmetry_Int_Tables_number   1
_chemical_formula_structural   Zn7Sb8Rh9
_chemical_formula_sum   'Zn7 Sb8 Rh9'
_cell_volume   442.79529667
_cell_formula_units_Z   1
loop_
 _symmetry_equiv_pos_site_id
 _symmetry_equiv_pos_as_xyz
  1  'x, y, z'
loop_
 _atom_site_type_symbol
 _atom_site_label
 _atom_site_symmetry_multiplicity
 _atom_site_fract_x
 _atom_site_fract_y
 _atom_site_fract_z
 _atom_site_occupancy
  Zn  Zn0  1  1.50000000  0.00000000  -0.00000000  1.0
  Zn  Zn1  1  1.00000000  0.50000000  -0.50000000  1.0
  Zn  Zn2  1  0.00000000  1.50000000  -0.00000000  1.0
  Zn  Zn3  1  0.50000000  1.00000000  -0.50000000  1.0
  Zn  Zn4  1  0.00000000  -0.00000000  0.50000000  1.0
  Zn  Zn5  1  0.50000000  -0.50000000  1.00000000  1.0
  Zn  Zn6  1  0.00000000  0.00000000  0.00000000  1.0
  Sb  Sb7  1  -0.72916527  0.72916527  0.72916527  1.0
  Sb  Sb8  1  -0.27083473  0.27083473  0.72916527  1.0
  Sb  Sb9  1  0.72916527  0.72916527  -0.72916527  1.0
  Sb  Sb10  1  0.27083473  1.27083473  -0.27083473  1.0
  Sb  Sb11  1  0.27083473  -0.27083473  1.27083473  1.0
  Sb  Sb12  1  -0.27083473  0.27083473  0.27083473  1.0
  Sb  Sb13  1  0.75000000  0.75000000  -0.25000000  1.0
  Sb  Sb14  1  1.25000000  0.25000000  0.25000000  1.0
  Rh  Rh15  1  0.87675088  0.87675088  -0.12324912  1.0
  Rh  Rh16  1  1.12324912  0.12324912  0.63025264  1.0
  Rh  Rh17  1  1.12324912  0.63025264  0.12324912  1.0
  Rh  Rh18  1  0.36974736  0.87675088  -0.12324912  1.0
  Rh  Rh19  1  1.63025264  0.12324912  0.12324912  1.0
  Rh  Rh20  1  0.87675088  0.36974736  -0.12324912  1.0
  Rh  Rh21  1  0.87675088  0.87675088  -0.63025264  1.0
  Rh  Rh22  1  1.12324912  0.12324912  0.12324912  1.0
  Rh  Rh23  1  -0.50000000  0.50000000  0.50000000  1.0
