# generated using pymatgen
data_NaSc(SeO3)2
_symmetry_space_group_name_H-M   'P 1'
_cell_length_a   13.01963006
_cell_length_b   5.56483300
_cell_length_c   8.33582982
_cell_angle_alpha   90.00000000
_cell_angle_beta   90.00000000
_cell_angle_gamma   90.00000000
_symmetry_Int_Tables_number   1
_chemical_formula_structural   NaSc(SeO3)2
_chemical_formula_sum   'Na4 Sc4 Se8 O24'
_cell_volume   603.94810071
_cell_formula_units_Z   4
loop_
 _symmetry_equiv_pos_site_id
 _symmetry_equiv_pos_as_xyz
  1  'x, y, z'
loop_
 _atom_site_type_symbol
 _atom_site_label
 _atom_site_symmetry_multiplicity
 _atom_site_fract_x
 _atom_site_fract_y
 _atom_site_fract_z
 _atom_site_occupancy
  Na  Na0  1  0.10518163  0.75000000  0.98405453  1.0
  Na  Na1  1  0.60518163  0.75000000  0.51594547  1.0
  Na  Na2  1  0.89481837  0.25000000  0.01594547  1.0
  Na  Na3  1  0.39481837  0.25000000  0.48405453  1.0
  Sc  Sc4  1  0.39694099  0.75000000  0.80128718  1.0
  Sc  Sc5  1  0.89694099  0.75000000  0.69871282  1.0
  Sc  Sc6  1  0.60305901  0.25000000  0.19871282  1.0
  Sc  Sc7  1  0.10305901  0.25000000  0.30128718  1.0
  Se  Se8  1  0.43187857  0.75000000  0.21732345  1.0
  Se  Se9  1  0.93187857  0.75000000  0.28267655  1.0
  Se  Se10  1  0.56812143  0.25000000  0.78267655  1.0
  Se  Se11  1  0.06812143  0.25000000  0.71732345  1.0
  Se  Se12  1  0.20909703  0.75000000  0.50192843  1.0
  Se  Se13  1  0.70909703  0.75000000  0.99807157  1.0
  Se  Se14  1  0.79090297  0.25000000  0.49807157  1.0
  Se  Se15  1  0.29090297  0.25000000  0.00192843  1.0
  O  O16  1  0.49980003  0.48742906  0.70149527  1.0
  O  O17  1  0.49980003  0.01257094  0.70149527  1.0
  O  O18  1  -0.00019997  0.48742906  0.79850473  1.0
  O  O19  1  -0.00019997  0.01257094  0.79850473  1.0
  O  O20  1  0.50019997  0.98742906  0.29850473  1.0
  O  O21  1  0.50019997  0.51257094  0.29850473  1.0
  O  O22  1  1.00019997  0.98742906  0.20149527  1.0
  O  O23  1  1.00019997  0.51257094  0.20149527  1.0
  O  O24  1  0.28629172  0.49310771  0.87403016  1.0
  O  O25  1  0.28629172  0.00689229  0.87403016  1.0
  O  O26  1  0.78629172  0.49310771  0.62596984  1.0
  O  O27  1  0.78629172  0.00689229  0.62596984  1.0
  O  O28  1  0.71370828  0.99310771  0.12596984  1.0
  O  O29  1  0.71370828  0.50689229  0.12596984  1.0
  O  O30  1  0.21370828  0.99310771  0.37403016  1.0
  O  O31  1  0.21370828  0.50689229  0.37403016  1.0
  O  O32  1  0.47163148  0.75000000  0.02163203  1.0
  O  O33  1  0.97163148  0.75000000  0.47836797  1.0
  O  O34  1  0.52836852  0.25000000  0.97836797  1.0
  O  O35  1  0.02836852  0.25000000  0.52163203  1.0
  O  O36  1  0.33487562  0.75000000  0.56543218  1.0
  O  O37  1  0.83487562  0.75000000  0.93456782  1.0
  O  O38  1  0.66512438  0.25000000  0.43456782  1.0
  O  O39  1  0.16512438  0.25000000  0.06543218  1.0
