# generated using pymatgen
data_Ti5Si4
_symmetry_space_group_name_H-M   'P 1'
_cell_length_a   6.70875533
_cell_length_b   6.70875533
_cell_length_c   12.18861696
_cell_angle_alpha   90.00000000
_cell_angle_beta   90.00000000
_cell_angle_gamma   90.00000000
_symmetry_Int_Tables_number   1
_chemical_formula_structural   Ti5Si4
_chemical_formula_sum   'Ti20 Si16'
_cell_volume   548.57793489
_cell_formula_units_Z   4
loop_
 _symmetry_equiv_pos_site_id
 _symmetry_equiv_pos_as_xyz
  1  'x, y, z'
loop_
 _atom_site_type_symbol
 _atom_site_label
 _atom_site_symmetry_multiplicity
 _atom_site_fract_x
 _atom_site_fract_y
 _atom_site_fract_z
 _atom_site_occupancy
  Ti  Ti0  1  1.00236446  0.65482492  0.03179150  1.0
  Ti  Ti1  1  0.50236446  0.84517508  0.71820850  1.0
  Ti  Ti2  1  0.34517508  -0.00236446  0.46820850  1.0
  Ti  Ti3  1  0.84517508  0.50236446  0.28179150  1.0
  Ti  Ti4  1  -0.00236446  0.34517508  0.53179150  1.0
  Ti  Ti5  1  0.49763554  0.15482492  0.21820850  1.0
  Ti  Ti6  1  0.65482492  1.00236446  0.96820850  1.0
  Ti  Ti7  1  0.15482492  0.49763554  0.78179150  1.0
  Ti  Ti8  1  0.49583804  0.64934794  0.12204215  1.0
  Ti  Ti9  1  0.99583804  0.85065206  0.62795785  1.0
  Ti  Ti10  1  0.35065206  0.50416196  0.37795785  1.0
  Ti  Ti11  1  0.85065206  0.99583804  0.37204215  1.0
  Ti  Ti12  1  0.50416196  0.35065206  0.62204215  1.0
  Ti  Ti13  1  0.00416196  0.14934794  0.12795785  1.0
  Ti  Ti14  1  0.64934794  0.49583804  0.87795785  1.0
  Ti  Ti15  1  0.14934794  0.00416196  0.87204215  1.0
  Ti  Ti16  1  0.17087943  0.82912057  0.25000000  1.0
  Ti  Ti17  1  0.67087943  0.67087943  0.50000000  1.0
  Ti  Ti18  1  0.82912057  0.17087943  0.75000000  1.0
  Ti  Ti19  1  0.32912057  0.32912057  0.00000000  1.0
  Si  Si20  1  0.35742171  0.70528912  0.92258135  1.0
  Si  Si21  1  0.85742171  0.79471088  0.82741865  1.0
  Si  Si22  1  0.29471088  0.64257829  0.57741865  1.0
  Si  Si23  1  0.79471088  0.85742171  0.17258135  1.0
  Si  Si24  1  0.64257829  0.29471088  0.42258135  1.0
  Si  Si25  1  0.14257829  0.20528912  0.32741865  1.0
  Si  Si26  1  0.70528912  0.35742171  0.07741865  1.0
  Si  Si27  1  0.20528912  0.14257829  0.67258135  1.0
  Si  Si28  1  0.30153952  0.95592039  0.06354151  1.0
  Si  Si29  1  0.80153952  0.54407961  0.68645849  1.0
  Si  Si30  1  0.04407961  0.69846048  0.43645849  1.0
  Si  Si31  1  0.54407961  0.80153952  0.31354151  1.0
  Si  Si32  1  0.69846048  0.04407961  0.56354151  1.0
  Si  Si33  1  0.19846048  0.45592039  0.18645849  1.0
  Si  Si34  1  0.95592039  0.30153952  0.93645849  1.0
  Si  Si35  1  0.45592039  0.19846048  0.81354151  1.0
