# generated using pymatgen
data_Mg4P6SN12
_symmetry_space_group_name_H-M   'P 1'
_cell_length_a   7.23054454
_cell_length_b   7.23054454
_cell_length_c   7.23054454
_cell_angle_alpha   109.47122063
_cell_angle_beta   109.47122063
_cell_angle_gamma   109.47122063
_symmetry_Int_Tables_number   1
_chemical_formula_structural   Mg4P6SN12
_chemical_formula_sum   'Mg4 P6 S1 N12'
_cell_volume   290.99875144
_cell_formula_units_Z   1
loop_
 _symmetry_equiv_pos_site_id
 _symmetry_equiv_pos_as_xyz
  1  'x, y, z'
loop_
 _atom_site_type_symbol
 _atom_site_label
 _atom_site_symmetry_multiplicity
 _atom_site_fract_x
 _atom_site_fract_y
 _atom_site_fract_z
 _atom_site_occupancy
  Mg  Mg0  1  0.65818582  0.65818582  0.65818582  1.0
  Mg  Mg1  1  1.00000000  1.00000000  0.34181418  1.0
  Mg  Mg2  1  1.00000000  0.34181418  1.00000000  1.0
  Mg  Mg3  1  0.34181418  1.00000000  1.00000000  1.0
  P  P4  1  0.25000000  0.75000000  0.50000000  1.0
  P  P5  1  0.75000000  0.25000000  0.50000000  1.0
  P  P6  1  0.25000000  0.50000000  0.75000000  1.0
  P  P7  1  0.50000000  0.25000000  0.75000000  1.0
  P  P8  1  0.75000000  0.50000000  0.25000000  1.0
  P  P9  1  0.50000000  0.75000000  0.25000000  1.0
  S  S10  1  0.00000000  0.00000000  0.00000000  1.0
  N  N11  1  0.71433979  0.44045019  0.44045019  1.0
  N  N12  1  0.44045019  0.71433979  0.44045019  1.0
  N  N13  1  1.00000000  1.27388959  0.55954981  1.0
  N  N14  1  1.27388959  1.00000000  0.55954981  1.0
  N  N15  1  0.44045019  0.44045019  0.71433979  1.0
  N  N16  1  0.72611041  0.72611041  0.28566021  1.0
  N  N17  1  1.00000000  0.55954981  1.27388959  1.0
  N  N18  1  0.72611041  0.28566021  0.72611041  1.0
  N  N19  1  0.28566021  0.72611041  0.72611041  1.0
  N  N20  1  0.55954981  1.00000000  1.27388959  1.0
  N  N21  1  1.27388959  0.55954981  1.00000000  1.0
  N  N22  1  0.55954981  1.27388959  1.00000000  1.0
