# generated using pymatgen
data_Tc2P3
_symmetry_space_group_name_H-M   'P 1'
_cell_length_a   6.38127524
_cell_length_b   6.38127524
_cell_length_c   9.01503639
_cell_angle_alpha   57.34492754
_cell_angle_beta   122.65507246
_cell_angle_gamma   151.86083885
_symmetry_Int_Tables_number   1
_chemical_formula_structural   Tc2P3
_chemical_formula_sum   'Tc4 P6'
_cell_volume   143.87073429
_cell_formula_units_Z   2
loop_
 _symmetry_equiv_pos_site_id
 _symmetry_equiv_pos_as_xyz
  1  'x, y, z'
loop_
 _atom_site_type_symbol
 _atom_site_label
 _atom_site_symmetry_multiplicity
 _atom_site_fract_x
 _atom_site_fract_y
 _atom_site_fract_z
 _atom_site_occupancy
  Tc  Tc0  1  0.75023103  0.24976897  0.63638195  1.0
  Tc  Tc1  1  1.24976897  -0.24976897  0.36361805  1.0
  Tc  Tc2  1  0.63504933  0.36495067  0.85572669  1.0
  Tc  Tc3  1  1.36495067  -0.36495067  0.14427331  1.0
  P  P4  1  0.90201160  -0.90201160  0.37126825  1.0
  P  P5  1  0.09798840  -0.09798840  0.62873175  1.0
  P  P6  1  0.88943792  0.11056208  0.95940407  1.0
  P  P7  1  1.11056208  -0.11056208  0.04059593  1.0
  P  P8  1  1.41194761  -0.41194761  0.67818443  1.0
  P  P9  1  0.58805239  0.41194761  0.32181557  1.0
