# generated using pymatgen
data_CdCu2Te3(ClO4)2
_symmetry_space_group_name_H-M   'P 1'
_cell_length_a   8.72040864
_cell_length_b   8.36145748
_cell_length_c   8.14671847
_cell_angle_alpha   90.00000000
_cell_angle_beta   101.64974101
_cell_angle_gamma   90.00000000
_symmetry_Int_Tables_number   1
_chemical_formula_structural   CdCu2Te3(ClO4)2
_chemical_formula_sum   'Cd2 Cu4 Te6 Cl4 O16'
_cell_volume   581.78399561
_cell_formula_units_Z   2
loop_
 _symmetry_equiv_pos_site_id
 _symmetry_equiv_pos_as_xyz
  1  'x, y, z'
loop_
 _atom_site_type_symbol
 _atom_site_label
 _atom_site_symmetry_multiplicity
 _atom_site_fract_x
 _atom_site_fract_y
 _atom_site_fract_z
 _atom_site_occupancy
  Cd  Cd0  1  -0.00000000  0.33605595  0.75000000  1.0
  Cd  Cd1  1  -0.00000000  0.66394405  0.25000000  1.0
  Cu  Cu2  1  0.64607218  0.59528761  0.58465969  1.0
  Cu  Cu3  1  0.35392782  0.59528761  0.91534031  1.0
  Cu  Cu4  1  0.35392782  0.40471239  0.41534031  1.0
  Cu  Cu5  1  0.64607218  0.40471239  0.08465969  1.0
  Te  Te6  1  0.34180917  0.82263713  0.57256156  1.0
  Te  Te7  1  0.65819083  0.82263713  0.92743844  1.0
  Te  Te8  1  0.65819083  0.17736287  0.42743844  1.0
  Te  Te9  1  0.34180917  0.17736287  0.07256156  1.0
  Te  Te10  1  -0.00000000  0.74310795  0.75000000  1.0
  Te  Te11  1  -0.00000000  0.25689205  0.25000000  1.0
  Cl  Cl12  1  0.23810928  0.17606858  0.69907162  1.0
  Cl  Cl13  1  0.76189072  0.17606858  0.80092838  1.0
  Cl  Cl14  1  0.76189072  0.82393142  0.30092838  1.0
  Cl  Cl15  1  0.23810928  0.82393142  0.19907162  1.0
  O  O16  1  0.36630372  0.80817377  0.82225125  1.0
  O  O17  1  0.63369628  0.80817377  0.67774875  1.0
  O  O18  1  0.63369628  0.19182623  0.17774875  1.0
  O  O19  1  0.36630372  0.19182623  0.32225125  1.0
  O  O20  1  0.11930588  0.75018772  0.53810842  1.0
  O  O21  1  0.88069412  0.75018772  0.96189158  1.0
  O  O22  1  0.88069412  0.24981228  0.46189158  1.0
  O  O23  1  0.11930588  0.24981228  0.03810842  1.0
  O  O24  1  0.13277778  0.57025870  0.86257511  1.0
  O  O25  1  0.86722222  0.57025870  0.63742489  1.0
  O  O26  1  0.86722222  0.42974130  0.13742489  1.0
  O  O27  1  0.13277778  0.42974130  0.36257511  1.0
  O  O28  1  0.41970853  0.60393357  0.53231463  1.0
  O  O29  1  0.58029147  0.60393357  0.96768537  1.0
  O  O30  1  0.58029147  0.39606643  0.46768537  1.0
  O  O31  1  0.41970853  0.39606643  0.03231463  1.0
