# generated using pymatgen
data_Zn(Bi3O5)4
_symmetry_space_group_name_H-M   'P 1'
_cell_length_a   8.85307061
_cell_length_b   8.85307061
_cell_length_c   8.85307061
_cell_angle_alpha   109.47122063
_cell_angle_beta   109.47122063
_cell_angle_gamma   109.47122063
_symmetry_Int_Tables_number   1
_chemical_formula_structural   Zn(Bi3O5)4
_chemical_formula_sum   'Zn1 Bi12 O20'
_cell_volume   534.14589360
_cell_formula_units_Z   1
loop_
 _symmetry_equiv_pos_site_id
 _symmetry_equiv_pos_as_xyz
  1  'x, y, z'
loop_
 _atom_site_type_symbol
 _atom_site_label
 _atom_site_symmetry_multiplicity
 _atom_site_fract_x
 _atom_site_fract_y
 _atom_site_fract_z
 _atom_site_occupancy
  O  O0  1  0.37388581  0.37388581  0.37388581  1.0
  O  O1  1  1.00000000  1.00000000  0.62611419  1.0
  O  O2  1  1.00000000  0.62611419  1.00000000  1.0
  O  O3  1  0.62611419  1.00000000  1.00000000  1.0
  O  O4  1  0.61904886  0.73467537  0.37925290  1.0
  O  O5  1  0.73467537  0.37925290  0.61904886  1.0
  O  O6  1  0.37925290  0.61904886  0.73467537  1.0
  O  O7  1  1.35542247  1.23979596  0.62074710  1.0
  O  O8  1  0.76020404  1.11562651  1.38095114  1.0
  O  O9  1  0.88437349  0.64457753  0.26532463  1.0
  O  O10  1  0.64457753  0.26532463  0.88437349  1.0
  O  O11  1  1.23979596  0.62074710  1.35542247  1.0
  O  O12  1  1.11562651  1.38095114  0.76020404  1.0
  O  O13  1  1.38095114  0.76020404  1.11562651  1.0
  O  O14  1  0.26532463  0.88437349  0.64457753  1.0
  O  O15  1  0.62074710  1.35542247  1.23979596  1.0
  O  O16  1  0.77076300  0.77076300  0.77076300  1.0
  O  O17  1  1.00000000  1.00000000  0.22923700  1.0
  O  O18  1  1.00000000  0.22923700  1.00000000  1.0
  O  O19  1  0.22923700  1.00000000  1.00000000  1.0
  Bi  Bi20  1  0.18099813  0.32091261  0.48833814  1.0
  Bi  Bi21  1  0.32091261  0.48833814  0.18099813  1.0
  Bi  Bi22  1  0.48833814  0.18099813  0.32091261  1.0
  Bi  Bi23  1  0.83257447  0.69265999  0.51166186  1.0
  Bi  Bi24  1  1.30734001  1.13991448  0.81900187  1.0
  Bi  Bi25  1  0.86008552  1.16742553  1.67908739  1.0
  Bi  Bi26  1  1.16742553  1.67908739  0.86008552  1.0
  Bi  Bi27  1  0.69265999  0.51166186  0.83257447  1.0
  Bi  Bi28  1  1.13991448  0.81900187  1.30734001  1.0
  Bi  Bi29  1  0.81900187  1.30734001  1.13991448  1.0
  Bi  Bi30  1  1.67908739  0.86008552  1.16742553  1.0
  Bi  Bi31  1  0.51166186  0.83257447  0.69265999  1.0
  Zn  Zn32  1  0.00000000  0.00000000  0.00000000  1.0
