# generated using pymatgen
data_LiTaS2
_symmetry_space_group_name_H-M   'P 1'
_cell_length_a   3.35311521
_cell_length_b   3.35311521
_cell_length_c   12.93570566
_cell_angle_alpha   90.00000000
_cell_angle_beta   90.00000000
_cell_angle_gamma   120.00000000
_symmetry_Int_Tables_number   1
_chemical_formula_structural   LiTaS2
_chemical_formula_sum   'Li2 Ta2 S4'
_cell_volume   125.95566553
_cell_formula_units_Z   2
loop_
 _symmetry_equiv_pos_site_id
 _symmetry_equiv_pos_as_xyz
  1  'x, y, z'
loop_
 _atom_site_type_symbol
 _atom_site_label
 _atom_site_symmetry_multiplicity
 _atom_site_fract_x
 _atom_site_fract_y
 _atom_site_fract_z
 _atom_site_occupancy
  Li  Li0  1  0.00000000  0.00000000  0.50000000  1.0
  Li  Li1  1  0.00000000  0.00000000  0.00000000  1.0
  Ta  Ta2  1  0.00000000  0.00000000  0.25000000  1.0
  Ta  Ta3  1  0.00000000  0.00000000  0.75000000  1.0
  S  S4  1  0.33333333  0.66666667  0.37206115  1.0
  S  S5  1  0.33333333  0.66666667  0.12793885  1.0
  S  S6  1  0.66666667  0.33333333  0.87206115  1.0
  S  S7  1  0.66666667  0.33333333  0.62793885  1.0
