# generated using pymatgen
data_Fe3Se3O10
_symmetry_space_group_name_H-M   'P 1'
_cell_length_a   8.42816220
_cell_length_b   8.39403481
_cell_length_c   8.41543665
_cell_angle_alpha   68.88894487
_cell_angle_beta   60.59188005
_cell_angle_gamma   67.82772534
_symmetry_Int_Tables_number   1
_chemical_formula_structural   Fe3Se3O10
_chemical_formula_sum   'Fe6 Se6 O20'
_cell_volume   468.87400510
_cell_formula_units_Z   2
loop_
 _symmetry_equiv_pos_site_id
 _symmetry_equiv_pos_as_xyz
  1  'x, y, z'
loop_
 _atom_site_type_symbol
 _atom_site_label
 _atom_site_symmetry_multiplicity
 _atom_site_fract_x
 _atom_site_fract_y
 _atom_site_fract_z
 _atom_site_occupancy
  O  O0  1  -0.29719484  -0.58785234  -0.63159592  1.0
  O  O1  1  -0.70280516  -0.41214766  -0.36840408  1.0
  O  O2  1  -0.53969273  -0.79500139  -0.55073571  1.0
  O  O3  1  -0.46030727  -0.20499861  -0.44926429  1.0
  O  O4  1  -0.86191875  -0.70427402  -0.63921725  1.0
  O  O5  1  -0.13808125  -0.29572598  -0.36078275  1.0
  O  O6  1  -0.44400408  -0.80434694  -0.94681602  1.0
  O  O7  1  -0.55599592  -0.19565306  -0.05318398  1.0
  O  O8  1  -0.61349568  -0.78189231  -0.19833496  1.0
  O  O9  1  -0.38650432  -0.21810769  -0.80166504  1.0
  O  O10  1  -0.33108705  -0.56216566  -0.95559471  1.0
  O  O11  1  -0.66891295  -0.43783434  -0.04440529  1.0
  O  O12  1  -0.88535634  -0.65576338  -0.30205737  1.0
  O  O13  1  -0.11464366  -0.34423662  -0.69794263  1.0
  O  O14  1  -0.75631709  -0.39662376  -0.71616783  1.0
  O  O15  1  -0.24368291  -0.60337624  -0.28383217  1.0
  O  O16  1  -0.76450980  -0.97172461  -0.80047744  1.0
  O  O17  1  -0.23549020  -0.02827539  -0.19952256  1.0
  O  O18  1  -0.97047776  -0.65734422  -0.91105781  1.0
  O  O19  1  -0.02952224  -0.34265578  -0.08894219  1.0
  Se  Se20  1  -0.76634668  -0.26605944  -0.92725170  1.0
  Se  Se21  1  -0.23365332  -0.73394056  -0.07274830  1.0
  Se  Se22  1  -0.95507097  -0.81137969  -0.70719124  1.0
  Se  Se23  1  -0.04492903  -0.18862031  -0.29280876  1.0
  Se  Se24  1  -0.69384209  -0.83951931  -0.32144035  1.0
  Se  Se25  1  -0.30615791  -0.16048069  -0.67855965  1.0
  Fe  Fe26  1  -0.50000000  -0.00000000  0.00000000  1.0
  Fe  Fe27  1  0.00000000  -0.50000000  -0.50000000  1.0
  Fe  Fe28  1  -0.60050494  -0.64303960  -0.75744222  1.0
  Fe  Fe29  1  -0.39949506  -0.35696040  -0.24255778  1.0
  Fe  Fe30  1  -0.20794495  -0.46458276  -0.83891271  1.0
  Fe  Fe31  1  -0.79205505  -0.53541724  -0.16108729  1.0
