# generated using pymatgen
data_LiHf2(AsO4)3
_symmetry_space_group_name_H-M   'P 1'
_cell_length_a   9.19870192
_cell_length_b   9.19870192
_cell_length_c   9.19870192
_cell_angle_alpha   60.65496089
_cell_angle_beta   60.65496089
_cell_angle_gamma   60.65496089
_symmetry_Int_Tables_number   1
_chemical_formula_structural   LiHf2(AsO4)3
_chemical_formula_sum   'Li2 Hf4 As6 O24'
_cell_volume   558.52102857
_cell_formula_units_Z   2
loop_
 _symmetry_equiv_pos_site_id
 _symmetry_equiv_pos_as_xyz
  1  'x, y, z'
loop_
 _atom_site_type_symbol
 _atom_site_label
 _atom_site_symmetry_multiplicity
 _atom_site_fract_x
 _atom_site_fract_y
 _atom_site_fract_z
 _atom_site_occupancy
  Li  Li0  1  1.00000000  0.00000000  -0.00000000  1.0
  Li  Li1  1  0.50000000  0.50000000  0.50000000  1.0
  Hf  Hf2  1  0.85961880  -0.14038120  -0.14038120  1.0
  Hf  Hf3  1  0.35961880  0.35961880  0.35961880  1.0
  Hf  Hf4  1  0.64038120  0.64038120  -0.35961880  1.0
  Hf  Hf5  1  1.14038120  0.14038120  0.14038120  1.0
  As  As6  1  0.45611152  0.75000000  0.04388848  1.0
  As  As7  1  0.95611152  -0.45611152  0.25000000  1.0
  As  As8  1  0.25000000  0.95611152  -0.45611152  1.0
  As  As9  1  0.75000000  1.04388848  -0.54388848  1.0
  As  As10  1  0.54388848  0.25000000  -0.04388848  1.0
  As  As11  1  1.04388848  0.45611152  -0.25000000  1.0
  O  O12  1  0.81371546  0.99856279  -0.37466277  1.0
  O  O13  1  1.31371546  0.12533723  -0.50143721  1.0
  O  O14  1  0.87466277  0.50143721  -0.31371546  1.0
  O  O15  1  0.37466277  0.18628454  0.00143721  1.0
  O  O16  1  1.00143721  0.37466277  -0.81371546  1.0
  O  O17  1  0.50143721  0.68628454  -0.12533723  1.0
  O  O18  1  0.18628454  1.00143721  -0.62533723  1.0
  O  O19  1  0.68628454  0.87466277  -0.49856279  1.0
  O  O20  1  0.62533723  0.81371546  -0.00143721  1.0
  O  O21  1  1.12533723  -0.50143721  0.31371546  1.0
  O  O22  1  0.49856279  0.31371546  0.12533723  1.0
  O  O23  1  0.99856279  0.62533723  -0.18628454  1.0
  O  O24  1  0.74443052  0.08169502  -0.05838527  1.0
  O  O25  1  1.24443052  0.44161473  -0.41830498  1.0
  O  O26  1  0.55838527  0.41830498  -0.24443052  1.0
  O  O27  1  1.05838527  0.25556948  -0.08169502  1.0
  O  O28  1  0.91830498  0.05838527  0.25556948  1.0
  O  O29  1  0.41830498  0.75556948  -0.44161473  1.0
  O  O30  1  1.25556948  -0.08169502  0.05838527  1.0
  O  O31  1  0.75556948  0.55838527  -0.58169502  1.0
  O  O32  1  0.94161473  -0.25556948  0.08169502  1.0
  O  O33  1  0.44161473  0.58169502  0.24443052  1.0
  O  O34  1  0.58169502  1.24443052  -0.55838527  1.0
  O  O35  1  1.08169502  -0.05838527  -0.25556948  1.0
