# generated using pymatgen
data_SiO2
_symmetry_space_group_name_H-M   'P 1'
_cell_length_a   13.34851446
_cell_length_b   13.34851446
_cell_length_c   13.34851446
_cell_angle_alpha   113.43356319
_cell_angle_beta   142.93724704
_cell_angle_gamma   78.71664089
_symmetry_Int_Tables_number   1
_chemical_formula_structural   SiO2
_chemical_formula_sum   'Si24 O48'
_cell_volume   1283.01335290
_cell_formula_units_Z   24
loop_
 _symmetry_equiv_pos_site_id
 _symmetry_equiv_pos_as_xyz
  1  'x, y, z'
loop_
 _atom_site_type_symbol
 _atom_site_label
 _atom_site_symmetry_multiplicity
 _atom_site_fract_x
 _atom_site_fract_y
 _atom_site_fract_z
 _atom_site_occupancy
  Si  Si0  1  1.62709542  1.37575410  1.62317676  1.0
  Si  Si1  1  1.74742266  0.99608133  1.12317676  1.0
  Si  Si2  1  1.74742266  1.62424590  1.75134133  1.0
  Si  Si3  1  1.62709542  1.00391867  1.25134133  1.0
  Si  Si4  1  1.25257734  1.37575410  1.24865867  1.0
  Si  Si5  1  1.37290458  0.99608133  0.74865867  1.0
  Si  Si6  1  1.37290458  1.62424590  1.37682324  1.0
  Si  Si7  1  1.25257734  1.00391867  0.87682324  1.0
  Si  Si8  1  1.01108804  0.76683086  1.63286120  1.0
  Si  Si9  1  1.36603034  1.62177316  1.13286120  1.0
  Si  Si10  1  1.36603034  1.23316914  1.74425718  1.0
  Si  Si11  1  1.01108804  1.37822684  1.24425718  1.0
  Si  Si12  1  0.63396966  0.76683086  1.25574282  1.0
  Si  Si13  1  0.98891196  1.62177316  0.75574282  1.0
  Si  Si14  1  0.98891196  1.23316914  1.36713880  1.0
  Si  Si15  1  0.63396966  1.37822684  0.86713880  1.0
  Si  Si16  1  1.18512943  0.62177331  0.56335612  1.0
  Si  Si17  1  1.44158281  1.37822669  1.06335612  1.0
  Si  Si18  1  1.55841719  0.62177331  0.93664388  1.0
  Si  Si19  1  1.81487057  1.37822669  1.43664388  1.0
  Si  Si20  1  0.80279614  1.23576685  0.56702929  1.0
  Si  Si21  1  0.83126244  0.76423315  0.06702929  1.0
  Si  Si22  1  1.16873756  1.23576685  0.93297071  1.0
  Si  Si23  1  1.19720386  0.76423315  0.43297071  1.0
  O  O24  1  1.06972868  0.67996196  1.56789429  1.0
  O  O25  1  1.38793232  1.49816561  1.06789429  1.0
  O  O26  1  1.38793232  1.32003804  1.88976672  1.0
  O  O27  1  1.06972868  1.50183439  1.38976672  1.0
  O  O28  1  0.61206768  0.67996196  1.11023328  1.0
  O  O29  1  0.93027132  1.49816561  0.61023328  1.0
  O  O30  1  0.93027132  1.32003804  1.43210571  1.0
  O  O31  1  0.61206768  1.50183439  0.93210571  1.0
  O  O32  1  1.14960470  1.35800651  1.26442654  1.0
  O  O33  1  0.40642003  1.11482184  0.76442654  1.0
  O  O34  1  1.40642003  1.64199349  1.29159819  1.0
  O  O35  1  0.14960470  0.88517816  0.79159819  1.0
  O  O36  1  1.59357997  1.35800651  1.70840181  1.0
  O  O37  1  0.85039530  1.11482184  1.20840181  1.0
  O  O38  1  1.85039530  1.64199349  1.73557346  1.0
  O  O39  1  0.59357997  0.88517816  1.23557346  1.0
  O  O40  1  0.72486420  1.28171447  0.62304072  1.0
  O  O41  1  0.84132625  0.89817652  0.12304072  1.0
  O  O42  1  0.84132625  1.71828553  0.94314973  1.0
  O  O43  1  0.72486420  1.10182348  0.44314973  1.0
  O  O44  1  1.15867375  1.28171447  1.05685027  1.0
  O  O45  1  1.27513580  0.89817652  0.55685027  1.0
  O  O46  1  1.27513580  1.71828553  1.37695928  1.0
  O  O47  1  1.15867375  1.10182348  0.87695928  1.0
  O  O48  1  1.24655295  0.70040719  0.54614576  1.0
  O  O49  1  1.34573857  1.29959281  1.04614576  1.0
  O  O50  1  1.65426143  0.70040719  0.95385424  1.0
  O  O51  1  1.75344705  1.29959281  1.45385424  1.0
  O  O52  1  0.82739874  0.78795409  1.46055535  1.0
  O  O53  1  1.17260126  1.63315661  0.96055535  1.0
  O  O54  1  1.17260126  1.21204591  1.53944465  1.0
  O  O55  1  0.82739874  1.36684339  1.03944465  1.0
  O  O56  1  1.44624723  1.36114127  1.41489404  1.0
  O  O57  1  1.55375277  0.96864682  0.91489404  1.0
  O  O58  1  1.55375277  1.63885873  1.58510596  1.0
  O  O59  1  1.44624723  1.03135318  1.08510596  1.0
  O  O60  1  0.00000000  0.71689934  0.71689934  1.0
  O  O61  1  0.50000000  0.71689934  1.21689934  1.0
  O  O62  1  0.50000000  1.28310066  0.78310066  1.0
  O  O63  1  1.00000000  1.28310066  1.28310066  1.0
  O  O64  1  1.25474113  1.00000000  0.75474113  1.0
  O  O65  1  1.25474113  1.50000000  1.25474113  1.0
  O  O66  1  1.74525887  1.00000000  1.24525887  1.0
  O  O67  1  1.74525887  1.50000000  1.74525887  1.0
  O  O68  1  0.99047666  0.74047666  0.25000000  1.0
  O  O69  1  1.00952334  1.25952334  0.75000000  1.0
  O  O70  1  1.64643240  1.39643240  1.25000000  1.0
  O  O71  1  1.35356760  0.60356760  0.75000000  1.0
