# generated using pymatgen
data_K(Cu4Se)2
_symmetry_space_group_name_H-M   'P 1'
_cell_length_a   4.96126159
_cell_length_b   4.96084966
_cell_length_c   12.25697661
_cell_angle_alpha   90.00000000
_cell_angle_beta   90.00000000
_cell_angle_gamma   90.00000000
_symmetry_Int_Tables_number   1
_chemical_formula_structural   K(Cu4Se)2
_chemical_formula_sum   'K1 Cu8 Se2'
_cell_volume   301.66960206
_cell_formula_units_Z   1
loop_
 _symmetry_equiv_pos_site_id
 _symmetry_equiv_pos_as_xyz
  1  'x, y, z'
loop_
 _atom_site_type_symbol
 _atom_site_label
 _atom_site_symmetry_multiplicity
 _atom_site_fract_x
 _atom_site_fract_y
 _atom_site_fract_z
 _atom_site_occupancy
  K  K0  1  0.00000000  0.00000000  0.00000000  1.0
  Cu  Cu1  1  0.73702533  0.73704860  0.76070499  1.0
  Cu  Cu2  1  0.73702533  0.73704860  0.23929501  1.0
  Cu  Cu3  1  0.73702533  0.26295140  0.76070499  1.0
  Cu  Cu4  1  0.73702533  0.26295140  0.23929501  1.0
  Cu  Cu5  1  0.26297467  0.73704860  0.76070499  1.0
  Cu  Cu6  1  0.26297467  0.73704860  0.23929501  1.0
  Cu  Cu7  1  0.26297467  0.26295140  0.76070499  1.0
  Cu  Cu8  1  0.26297467  0.26295140  0.23929501  1.0
  Se  Se9  1  0.00000000  0.00000000  0.64189423  1.0
  Se  Se10  1  0.00000000  0.00000000  0.35810577  1.0
