# generated using pymatgen
data_BaBiSe2ClO6
_symmetry_space_group_name_H-M   'P 1'
_cell_length_a   10.55773958
_cell_length_b   10.55773958
_cell_length_c   7.02067886
_cell_angle_alpha   90.00000000
_cell_angle_beta   90.00000000
_cell_angle_gamma   150.53637410
_symmetry_Int_Tables_number   1
_chemical_formula_structural   BaBiSe2ClO6
_chemical_formula_sum   'Ba2 Bi2 Se4 Cl2 O12'
_cell_volume   384.92147762
_cell_formula_units_Z   2
loop_
 _symmetry_equiv_pos_site_id
 _symmetry_equiv_pos_as_xyz
  1  'x, y, z'
loop_
 _atom_site_type_symbol
 _atom_site_label
 _atom_site_symmetry_multiplicity
 _atom_site_fract_x
 _atom_site_fract_y
 _atom_site_fract_z
 _atom_site_occupancy
  Ba  Ba0  1  -0.77481465  0.77481465  0.45181378  1.0
  Ba  Ba1  1  -0.22518535  1.22518535  0.95181378  1.0
  Bi  Bi2  1  -0.57653349  0.57653349  0.16092342  1.0
  Bi  Bi3  1  -0.42346651  1.42346651  0.66092342  1.0
  Se  Se4  1  -0.97012520  0.97012520  0.30811623  1.0
  Se  Se5  1  -0.02987480  1.02987480  0.80811623  1.0
  Se  Se6  1  -0.85175359  0.85175359  0.93657656  1.0
  Se  Se7  1  -0.14824641  1.14824641  0.43657656  1.0
  Cl  Cl8  1  -0.35014191  1.35014191  0.27507213  1.0
  Cl  Cl9  1  -0.64985809  0.64985809  0.77507213  1.0
  O  O10  1  -0.27288705  0.76458856  0.37250088  1.0
  O  O11  1  -0.23541144  1.72711295  0.87250088  1.0
  O  O12  1  0.23541144  1.27288705  0.37250088  1.0
  O  O13  1  -0.72711295  1.23541144  0.87250088  1.0
  O  O14  1  -0.41277053  0.91339913  0.27997467  1.0
  O  O15  1  -0.08660087  1.58722947  0.77997467  1.0
  O  O16  1  0.08660087  1.41277053  0.27997467  1.0
  O  O17  1  -0.58722947  1.08660087  0.77997467  1.0
  O  O18  1  -0.91919844  0.91919844  0.50106517  1.0
  O  O19  1  -0.08080156  1.08080156  0.00106517  1.0
  O  O20  1  -0.77903817  0.77903817  0.05478161  1.0
  O  O21  1  -0.22096183  1.22096183  0.55478161  1.0
