# generated using pymatgen
data_RbNb(GeO3)3
_symmetry_space_group_name_H-M   'P 1'
_cell_length_a   7.17242535
_cell_length_b   7.17242535
_cell_length_c   10.30770115
_cell_angle_alpha   90.00000000
_cell_angle_beta   90.00000000
_cell_angle_gamma   120.00000000
_symmetry_Int_Tables_number   1
_chemical_formula_structural   RbNb(GeO3)3
_chemical_formula_sum   'Rb2 Nb2 Ge6 O18'
_cell_volume   459.22394388
_cell_formula_units_Z   2
loop_
 _symmetry_equiv_pos_site_id
 _symmetry_equiv_pos_as_xyz
  1  'x, y, z'
loop_
 _atom_site_type_symbol
 _atom_site_label
 _atom_site_symmetry_multiplicity
 _atom_site_fract_x
 _atom_site_fract_y
 _atom_site_fract_z
 _atom_site_occupancy
  Rb  Rb0  1  -0.00000000  -0.00000000  0.50000000  1.0
  Rb  Rb1  1  -0.00000000  -0.00000000  0.00000000  1.0
  Nb  Nb2  1  0.33333333  0.66666667  0.50000000  1.0
  Nb  Nb3  1  0.33333333  0.66666667  -0.00000000  1.0
  Ge  Ge4  1  0.58794725  0.54335357  0.25000000  1.0
  Ge  Ge5  1  0.58794725  0.04459367  0.75000000  1.0
  Ge  Ge6  1  0.95540633  0.54335357  0.75000000  1.0
  Ge  Ge7  1  0.95540633  0.41205275  0.25000000  1.0
  Ge  Ge8  1  0.45664643  0.41205275  0.75000000  1.0
  Ge  Ge9  1  0.45664643  0.04459367  0.25000000  1.0
  O  O10  1  0.10585820  0.43869029  0.38978294  1.0
  O  O11  1  0.10585820  0.43869029  0.11021706  1.0
  O  O12  1  0.10585820  0.66716792  0.88978294  1.0
  O  O13  1  0.10585820  0.66716792  0.61021706  1.0
  O  O14  1  0.33283208  0.43869029  0.88978294  1.0
  O  O15  1  0.33283208  0.43869029  0.61021706  1.0
  O  O16  1  0.33283208  0.89414180  0.38978294  1.0
  O  O17  1  0.33283208  0.89414180  0.11021706  1.0
  O  O18  1  0.56130971  0.89414180  0.88978294  1.0
  O  O19  1  0.56130971  0.89414180  0.61021706  1.0
  O  O20  1  0.56130971  0.66716792  0.38978294  1.0
  O  O21  1  0.56130971  0.66716792  0.11021706  1.0
  O  O22  1  0.86003592  0.59850425  0.25000000  1.0
  O  O23  1  0.86003592  0.26153167  0.75000000  1.0
  O  O24  1  0.73846833  0.59850425  0.75000000  1.0
  O  O25  1  0.73846833  0.13996408  0.25000000  1.0
  O  O26  1  0.40149575  0.13996408  0.75000000  1.0
  O  O27  1  0.40149575  0.26153167  0.25000000  1.0
