# generated using pymatgen
data_Na2CrNiF7
_symmetry_space_group_name_H-M   'P 1'
_cell_length_a   7.35910815
_cell_length_b   7.35910815
_cell_length_c   7.35910815
_cell_angle_alpha   120.91224437
_cell_angle_beta   90.56255202
_cell_angle_gamma   118.45426804
_symmetry_Int_Tables_number   1
_chemical_formula_structural   Na2CrNiF7
_chemical_formula_sum   'Na4 Cr2 Ni2 F14'
_cell_volume   282.98621157
_cell_formula_units_Z   2
loop_
 _symmetry_equiv_pos_site_id
 _symmetry_equiv_pos_as_xyz
  1  'x, y, z'
loop_
 _atom_site_type_symbol
 _atom_site_label
 _atom_site_symmetry_multiplicity
 _atom_site_fract_x
 _atom_site_fract_y
 _atom_site_fract_z
 _atom_site_occupancy
  Na  Na0  1  0.50000000  1.00000000  1.00000000  1.0
  Na  Na1  1  0.50000000  0.50000000  0.50000000  1.0
  Na  Na2  1  0.50000000  0.00000000  0.50000000  1.0
  Na  Na3  1  0.00000000  0.00000000  0.00000000  1.0
  Cr  Cr4  1  -0.00000000  0.50000000  0.50000000  1.0
  Cr  Cr5  1  0.50000000  0.50000000  1.00000000  1.0
  Ni  Ni6  1  1.00000000  1.50000000  1.00000000  1.0
  Ni  Ni7  1  1.00000000  1.00000000  0.50000000  1.0
  F  F8  1  1.32058889  1.63394235  1.08258943  1.0
  F  F9  1  0.94864708  0.76200054  1.58258943  1.0
  F  F10  1  0.67941111  0.76200054  1.31335345  1.0
  F  F11  1  1.05135292  1.63394235  0.81335345  1.0
  F  F12  1  1.32058889  1.23799946  0.68664655  1.0
  F  F13  1  0.94864708  0.36605765  1.18664655  1.0
  F  F14  1  0.67941111  0.36605765  0.91741057  1.0
  F  F15  1  1.05135292  1.23799946  0.41741057  1.0
  F  F16  1  1.63622215  0.72675631  0.90946584  1.0
  F  F17  1  1.68270953  1.27324369  1.40946584  1.0
  F  F18  1  0.36377785  0.27324369  0.09053416  1.0
  F  F19  1  0.31729047  0.72675631  0.59053416  1.0
  F  F20  1  1.10644977  0.85644977  0.25000000  1.0
  F  F21  1  0.89355023  0.14355023  0.75000000  1.0
