# generated using pymatgen
data_KY(CO3)4
_symmetry_space_group_name_H-M   'P 1'
_cell_length_a   9.21135921
_cell_length_b   9.21135921
_cell_length_c   9.21135921
_cell_angle_alpha   101.18307567
_cell_angle_beta   101.18307567
_cell_angle_gamma   127.74228700
_symmetry_Int_Tables_number   1
_chemical_formula_structural   KY(CO3)4
_chemical_formula_sum   'K2 Y2 C8 O24'
_cell_volume   554.88742073
_cell_formula_units_Z   2
loop_
 _symmetry_equiv_pos_site_id
 _symmetry_equiv_pos_as_xyz
  1  'x, y, z'
loop_
 _atom_site_type_symbol
 _atom_site_label
 _atom_site_symmetry_multiplicity
 _atom_site_fract_x
 _atom_site_fract_y
 _atom_site_fract_z
 _atom_site_occupancy
  Y  Y0  1  0.75000000  1.25000000  0.50000000  1.0
  Y  Y1  1  0.00000000  0.00000000  0.00000000  1.0
  C  C2  1  1.30646408  1.03454360  1.27185855  1.0
  C  C3  1  0.76268504  1.03460552  0.72814145  1.0
  C  C4  1  0.78454360  1.01268504  0.22807952  1.0
  C  C5  1  1.78460552  1.55646408  1.77192048  1.0
  C  C6  1  0.44353592  1.21545640  1.22814145  1.0
  C  C7  1  0.98731496  0.21539448  0.77185855  1.0
  C  C8  1  1.96545640  1.23731496  1.27192048  1.0
  C  C9  1  0.96539448  1.69353592  0.72807952  1.0
  O  O10  1  1.39629497  1.01724469  1.37877579  1.0
  O  O11  1  0.63846890  1.01751919  0.62122421  1.0
  O  O12  1  0.76724469  0.88846890  0.12094971  1.0
  O  O13  1  1.76751919  1.64629497  1.87905029  1.0
  O  O14  1  0.35370503  1.23275531  1.12122421  1.0
  O  O15  1  1.11153110  0.23248081  0.87877579  1.0
  O  O16  1  1.98275531  1.36153110  1.37905029  1.0
  O  O17  1  0.98248081  1.60370503  0.62094971  1.0
  O  O18  1  1.12007890  0.92296830  0.19717050  1.0
  O  O19  1  1.72579780  1.92290840  1.80282950  1.0
  O  O20  1  0.67296830  0.97579780  0.30288940  1.0
  O  O21  1  1.67290840  1.37007890  1.69711060  1.0
  O  O22  1  1.62992110  1.32703170  1.30282950  1.0
  O  O23  1  1.02420220  1.32709160  0.69717050  1.0
  O  O24  1  1.07703170  0.27420220  1.19711060  1.0
  O  O25  1  0.07709160  0.87992110  0.80288940  1.0
  O  O26  1  1.45269746  1.54738343  1.50025108  1.0
  O  O27  1  1.04713234  0.95244638  1.49974892  1.0
  O  O28  1  1.29738343  1.29713234  1.59468597  1.0
  O  O29  1  1.70244638  1.70269746  1.40531403  1.0
  O  O30  1  0.29730254  0.70261657  0.99974892  1.0
  O  O31  1  0.70286766  1.29755362  1.00025108  1.0
  O  O32  1  0.45261657  0.95286766  0.90531403  1.0
  O  O33  1  1.04755362  1.54730254  1.09468597  1.0
  K  K34  1  0.25000000  0.75000000  0.50000000  1.0
  K  K35  1  0.50000000  0.50000000  -0.00000000  1.0
