# generated using pymatgen
data_SrAl2O4
_symmetry_space_group_name_H-M   'P 1'
_cell_length_a   9.00529151
_cell_length_b   9.00529151
_cell_length_c   8.49762785
_cell_angle_alpha   90.00000000
_cell_angle_beta   90.00000000
_cell_angle_gamma   120.00000000
_symmetry_Int_Tables_number   1
_chemical_formula_structural   SrAl2O4
_chemical_formula_sum   'Sr6 Al12 O24'
_cell_volume   596.79323393
_cell_formula_units_Z   6
loop_
 _symmetry_equiv_pos_site_id
 _symmetry_equiv_pos_as_xyz
  1  'x, y, z'
loop_
 _atom_site_type_symbol
 _atom_site_label
 _atom_site_symmetry_multiplicity
 _atom_site_fract_x
 _atom_site_fract_y
 _atom_site_fract_z
 _atom_site_occupancy
  Sr  Sr0  1  0.33333333  0.66666667  0.01183930  1.0
  Sr  Sr1  1  0.66666667  0.33333333  0.51183930  1.0
  Sr  Sr2  1  0.33333333  0.66666667  0.46883612  1.0
  Sr  Sr3  1  0.66666667  0.33333333  -0.03116388  1.0
  Sr  Sr4  1  0.00000000  0.00000000  0.00507128  1.0
  Sr  Sr5  1  0.00000000  0.00000000  0.50507128  1.0
  Al  Al6  1  0.32216440  0.98367627  0.31049801  1.0
  Al  Al7  1  0.98367627  0.66151187  0.81049801  1.0
  Al  Al8  1  0.66151187  0.67783560  0.31049801  1.0
  Al  Al9  1  0.01632373  0.33848813  0.31049801  1.0
  Al  Al10  1  0.67783560  0.01632373  0.81049801  1.0
  Al  Al11  1  0.33848813  0.32216440  0.81049801  1.0
  Al  Al12  1  0.97904257  0.66171390  0.20233486  1.0
  Al  Al13  1  0.66171390  0.68267133  0.70233486  1.0
  Al  Al14  1  0.68267133  0.02095743  0.20233486  1.0
  Al  Al15  1  0.33828610  0.31732867  0.20233486  1.0
  Al  Al16  1  0.02095743  0.33828610  0.70233486  1.0
  Al  Al17  1  0.31732867  0.97904257  0.70233486  1.0
  O  O18  1  0.27388483  0.90352335  0.50600803  1.0
  O  O19  1  0.90352335  0.62963852  0.00600803  1.0
  O  O20  1  0.62963852  0.72611517  0.50600803  1.0
  O  O21  1  0.09647665  0.37036148  0.50600803  1.0
  O  O22  1  0.72611517  0.09647665  0.00600803  1.0
  O  O23  1  0.37036148  0.27388483  0.00600803  1.0
  O  O24  1  0.45676322  0.90649049  0.23643233  1.0
  O  O25  1  0.90649049  0.44972727  0.73643233  1.0
  O  O26  1  0.44972727  0.54323678  0.23643233  1.0
  O  O27  1  0.09350951  0.55027273  0.23643233  1.0
  O  O28  1  0.54323678  0.09350951  0.73643233  1.0
  O  O29  1  0.55027273  0.45676322  0.73643233  1.0
  O  O30  1  0.11887111  0.88713696  0.21819978  1.0
  O  O31  1  0.88713696  0.76826585  0.71819978  1.0
  O  O32  1  0.76826585  0.88112889  0.21819978  1.0
  O  O33  1  0.11286304  0.23173415  0.21819978  1.0
  O  O34  1  0.88112889  0.11286304  0.71819978  1.0
  O  O35  1  0.23173415  0.11887111  0.71819978  1.0
  O  O36  1  0.79225492  0.58267878  0.32061142  1.0
  O  O37  1  0.58267878  0.79042386  0.82061142  1.0
  O  O38  1  0.79042386  0.20774508  0.32061142  1.0
  O  O39  1  0.41732122  0.20957614  0.32061142  1.0
  O  O40  1  0.20774508  0.41732122  0.82061142  1.0
  O  O41  1  0.20957614  0.79225492  0.82061142  1.0
