# generated using pymatgen
data_Rb5GeP3
_symmetry_space_group_name_H-M   'P 1'
_cell_length_a   15.70693830
_cell_length_b   5.48385400
_cell_length_c   14.96406096
_cell_angle_alpha   90.00000000
_cell_angle_beta   90.00000000
_cell_angle_gamma   90.00000000
_symmetry_Int_Tables_number   1
_chemical_formula_structural   Rb5GeP3
_chemical_formula_sum   'Rb20 Ge4 P12'
_cell_volume   1288.92275346
_cell_formula_units_Z   4
loop_
 _symmetry_equiv_pos_site_id
 _symmetry_equiv_pos_as_xyz
  1  'x, y, z'
loop_
 _atom_site_type_symbol
 _atom_site_label
 _atom_site_symmetry_multiplicity
 _atom_site_fract_x
 _atom_site_fract_y
 _atom_site_fract_z
 _atom_site_occupancy
  Rb  Rb0  1  0.98281593  0.75000000  0.87979294  1.0
  Rb  Rb1  1  0.48281593  0.75000000  0.62020706  1.0
  Rb  Rb2  1  0.01718407  0.25000000  0.12020706  1.0
  Rb  Rb3  1  0.51718407  0.25000000  0.37979294  1.0
  Rb  Rb4  1  0.93237878  0.75000000  0.57330293  1.0
  Rb  Rb5  1  0.43237878  0.75000000  0.92669707  1.0
  Rb  Rb6  1  0.06762122  0.25000000  0.42669707  1.0
  Rb  Rb7  1  0.56762122  0.25000000  0.07330293  1.0
  Rb  Rb8  1  0.91595970  0.75000000  0.31700588  1.0
  Rb  Rb9  1  0.41595970  0.75000000  0.18299412  1.0
  Rb  Rb10  1  0.08404030  0.25000000  0.68299412  1.0
  Rb  Rb11  1  0.58404030  0.25000000  0.81700588  1.0
  Rb  Rb12  1  0.73339882  0.75000000  0.73110025  1.0
  Rb  Rb13  1  0.23339882  0.75000000  0.76889975  1.0
  Rb  Rb14  1  0.26660118  0.25000000  0.26889975  1.0
  Rb  Rb15  1  0.76660118  0.25000000  0.23110025  1.0
  Rb  Rb16  1  0.69587674  0.75000000  0.44210138  1.0
  Rb  Rb17  1  0.19587674  0.75000000  0.05789862  1.0
  Rb  Rb18  1  0.30412326  0.25000000  0.55789862  1.0
  Rb  Rb19  1  0.80412326  0.25000000  0.94210138  1.0
  Ge  Ge20  1  0.71963297  0.75000000  0.08281153  1.0
  Ge  Ge21  1  0.21963297  0.75000000  0.41718847  1.0
  Ge  Ge22  1  0.28036703  0.25000000  0.91718847  1.0
  Ge  Ge23  1  0.78036703  0.25000000  0.58281153  1.0
  P  P24  1  0.63671551  0.75000000  0.20984111  1.0
  P  P25  1  0.13671551  0.75000000  0.29015889  1.0
  P  P26  1  0.36328449  0.25000000  0.79015889  1.0
  P  P27  1  0.86328449  0.25000000  0.70984111  1.0
  P  P28  1  0.86661828  0.75000000  0.09038682  1.0
  P  P29  1  0.36661828  0.75000000  0.40961318  1.0
  P  P30  1  0.13338172  0.25000000  0.90961318  1.0
  P  P31  1  0.63338172  0.25000000  0.59038682  1.0
  P  P32  1  0.65476421  0.75000000  0.94581745  1.0
  P  P33  1  0.15476421  0.75000000  0.55418255  1.0
  P  P34  1  0.34523579  0.25000000  0.05418255  1.0
  P  P35  1  0.84523579  0.25000000  0.44581745  1.0
