# generated using pymatgen
data_Ce(IO3)2
_symmetry_space_group_name_H-M   'P 1'
_cell_length_a   12.73380426
_cell_length_b   12.73380426
_cell_length_c   4.88128159
_cell_angle_alpha   90.00000000
_cell_angle_beta   90.00000000
_cell_angle_gamma   90.00000000
_symmetry_Int_Tables_number   1
_chemical_formula_structural   Ce(IO3)2
_chemical_formula_sum   'Ce4 I8 O24'
_cell_volume   791.49869143
_cell_formula_units_Z   4
loop_
 _symmetry_equiv_pos_site_id
 _symmetry_equiv_pos_as_xyz
  1  'x, y, z'
loop_
 _atom_site_type_symbol
 _atom_site_label
 _atom_site_symmetry_multiplicity
 _atom_site_fract_x
 _atom_site_fract_y
 _atom_site_fract_z
 _atom_site_occupancy
  Ce  Ce0  1  0.25000000  0.25000000  0.25000000  1.0
  Ce  Ce1  1  0.75000000  0.75000000  0.25000000  1.0
  Ce  Ce2  1  0.25000000  0.75000000  0.75000000  1.0
  Ce  Ce3  1  0.75000000  0.25000000  0.75000000  1.0
  I  I4  1  0.48150817  0.68935562  0.25405061  1.0
  I  I5  1  0.98150817  0.18935562  0.24594939  1.0
  I  I6  1  0.68935562  0.51849183  0.74594939  1.0
  I  I7  1  0.18935562  0.01849183  0.75405061  1.0
  I  I8  1  0.51849183  0.31064438  0.25405061  1.0
  I  I9  1  0.01849183  0.81064438  0.24594939  1.0
  I  I10  1  0.31064438  0.48150817  0.74594939  1.0
  I  I11  1  0.81064438  0.98150817  0.75405061  1.0
  O  O12  1  0.86872979  0.27275621  0.08754735  1.0
  O  O13  1  0.36872979  0.77275621  0.41245265  1.0
  O  O14  1  0.27275621  0.13127021  0.91245265  1.0
  O  O15  1  0.77275621  0.63127021  0.58754735  1.0
  O  O16  1  0.13127021  0.72724379  0.08754735  1.0
  O  O17  1  0.63127021  0.22724379  0.41245265  1.0
  O  O18  1  0.72724379  0.86872979  0.91245265  1.0
  O  O19  1  0.22724379  0.36872979  0.58754735  1.0
  O  O20  1  0.40927243  0.22271796  0.43143905  1.0
  O  O21  1  0.90927243  0.72271796  0.06856095  1.0
  O  O22  1  0.22271796  0.59072757  0.56856095  1.0
  O  O23  1  0.72271796  0.09072757  0.93143905  1.0
  O  O24  1  0.59072757  0.77728204  0.43143905  1.0
  O  O25  1  0.09072757  0.27728204  0.06856095  1.0
  O  O26  1  0.77728204  0.40927243  0.56856095  1.0
  O  O27  1  0.27728204  0.90927243  0.93143905  1.0
  O  O28  1  0.36573101  0.37291135  1.04372721  1.0
  O  O29  1  0.86573101  0.87291135  0.45627279  1.0
  O  O30  1  0.37291135  0.63426899  -0.04372721  1.0
  O  O31  1  0.87291135  0.13426899  0.54372721  1.0
  O  O32  1  0.63426899  0.62708865  1.04372721  1.0
  O  O33  1  0.13426899  0.12708865  0.45627279  1.0
  O  O34  1  0.62708865  0.36573101  -0.04372721  1.0
  O  O35  1  0.12708865  0.86573101  0.54372721  1.0
