# generated using pymatgen
data_K2Zr3OF12
_symmetry_space_group_name_H-M   'P 1'
_cell_length_a   10.76020241
_cell_length_b   10.76020241
_cell_length_c   10.76020241
_cell_angle_alpha   42.37432116
_cell_angle_beta   42.37432116
_cell_angle_gamma   42.37432116
_symmetry_Int_Tables_number   1
_chemical_formula_structural   K2Zr3OF12
_chemical_formula_sum   'K4 Zr6 O2 F24'
_cell_volume   512.28700120
_cell_formula_units_Z   2
loop_
 _symmetry_equiv_pos_site_id
 _symmetry_equiv_pos_as_xyz
  1  'x, y, z'
loop_
 _atom_site_type_symbol
 _atom_site_label
 _atom_site_symmetry_multiplicity
 _atom_site_fract_x
 _atom_site_fract_y
 _atom_site_fract_z
 _atom_site_occupancy
  K  K0  1  0.86160587  0.86160587  0.86160587  1.0
  K  K1  1  1.13839413  1.13839413  0.13839413  1.0
  K  K2  1  1.50000000  0.50000000  0.50000000  1.0
  K  K3  1  0.00000000  0.00000000  0.00000000  1.0
  Zr  Zr4  1  1.42255855  1.42255855  -0.03101699  1.0
  Zr  Zr5  1  1.42255855  0.96898301  0.42255855  1.0
  Zr  Zr6  1  1.03101699  0.57744145  0.57744145  1.0
  Zr  Zr7  1  1.57744145  0.03101699  0.57744145  1.0
  Zr  Zr8  1  1.57744145  0.57744145  0.03101699  1.0
  Zr  Zr9  1  0.96898301  1.42255855  0.42255855  1.0
  O  O10  1  0.71472118  0.71472118  0.71472118  1.0
  O  O11  1  1.28527882  1.28527882  0.28527882  1.0
  F  F12  1  1.29557451  0.29557451  0.63073832  1.0
  F  F13  1  1.29557451  0.63073832  0.29557451  1.0
  F  F14  1  1.36926168  0.70442549  0.70442549  1.0
  F  F15  1  1.70442549  0.36926168  0.70442549  1.0
  F  F16  1  1.70442549  0.70442549  0.36926168  1.0
  F  F17  1  1.63073832  0.29557451  0.29557451  1.0
  F  F18  1  1.08584996  1.08584996  0.59852127  1.0
  F  F19  1  1.08584996  1.59852127  0.08584996  1.0
  F  F20  1  1.40147873  0.91415004  -0.08584996  1.0
  F  F21  1  0.91415004  1.40147873  -0.08584996  1.0
  F  F22  1  0.91415004  0.91415004  0.40147873  1.0
  F  F23  1  1.59852127  1.08584996  0.08584996  1.0
  F  F24  1  1.34882024  1.34882024  -0.08763329  1.0
  F  F25  1  1.34882024  0.91236671  0.34882024  1.0
  F  F26  1  1.08763329  0.65117976  0.65117976  1.0
  F  F27  1  1.65117976  0.08763329  0.65117976  1.0
  F  F28  1  1.65117976  0.65117976  0.08763329  1.0
  F  F29  1  0.91236671  1.34882024  0.34882024  1.0
  F  F30  1  0.64948442  -0.00000000  -0.64948442  1.0
  F  F31  1  0.64948442  -0.64948442  -0.00000000  1.0
  F  F32  1  -0.00000000  0.64948442  -0.64948442  1.0
  F  F33  1  0.00000000  0.35051558  -0.35051558  1.0
  F  F34  1  0.35051558  0.00000000  -0.35051558  1.0
  F  F35  1  0.35051558  -0.35051558  0.00000000  1.0
