# generated using pymatgen
data_SmCoO3
_symmetry_space_group_name_H-M   'P 1'
_cell_length_a   5.38067153
_cell_length_b   7.55105335
_cell_length_c   5.33075287
_cell_angle_alpha   90.00000000
_cell_angle_beta   90.00000000
_cell_angle_gamma   90.00000000
_symmetry_Int_Tables_number   1
_chemical_formula_structural   SmCoO3
_chemical_formula_sum   'Sm4 Co4 O12'
_cell_volume   216.58709128
_cell_formula_units_Z   4
loop_
 _symmetry_equiv_pos_site_id
 _symmetry_equiv_pos_as_xyz
  1  'x, y, z'
loop_
 _atom_site_type_symbol
 _atom_site_label
 _atom_site_symmetry_multiplicity
 _atom_site_fract_x
 _atom_site_fract_y
 _atom_site_fract_z
 _atom_site_occupancy
  Sm  Sm0  1  0.04324236  0.75000000  0.50740259  1.0
  Sm  Sm1  1  0.54324236  0.75000000  0.99259741  1.0
  Sm  Sm2  1  0.95675764  0.25000000  0.49259741  1.0
  Sm  Sm3  1  0.45675764  0.25000000  0.00740259  1.0
  Co  Co4  1  0.50000000  0.00000000  0.50000000  1.0
  Co  Co5  1  0.50000000  0.50000000  0.50000000  1.0
  Co  Co6  1  0.00000000  0.00000000  0.00000000  1.0
  Co  Co7  1  0.00000000  0.50000000  0.00000000  1.0
  O  O8  1  0.29646179  0.96208392  0.79729280  1.0
  O  O9  1  0.29646179  0.53791608  0.79729280  1.0
  O  O10  1  0.79646179  0.96208392  0.70270720  1.0
  O  O11  1  0.79646179  0.53791608  0.70270720  1.0
  O  O12  1  0.70353821  0.46208392  0.20270720  1.0
  O  O13  1  0.70353821  0.03791608  0.20270720  1.0
  O  O14  1  0.20353821  0.46208392  0.29729280  1.0
  O  O15  1  0.20353821  0.03791608  0.29729280  1.0
  O  O16  1  0.98447203  0.75000000  0.07619563  1.0
  O  O17  1  0.48447203  0.75000000  0.42380437  1.0
  O  O18  1  0.01552797  0.25000000  0.92380437  1.0
  O  O19  1  0.51552797  0.25000000  0.57619563  1.0
