# generated using pymatgen
data_NaZr(PO4)2
_symmetry_space_group_name_H-M   'P 1'
_cell_length_a   8.80820657
_cell_length_b   5.44011517
_cell_length_c   16.45447124
_cell_angle_alpha   90.00000000
_cell_angle_beta   119.18611036
_cell_angle_gamma   90.00000000
_symmetry_Int_Tables_number   1
_chemical_formula_structural   NaZr(PO4)2
_chemical_formula_sum   'Na4 Zr4 P8 O32'
_cell_volume   688.35713247
_cell_formula_units_Z   4
loop_
 _symmetry_equiv_pos_site_id
 _symmetry_equiv_pos_as_xyz
  1  'x, y, z'
loop_
 _atom_site_type_symbol
 _atom_site_label
 _atom_site_symmetry_multiplicity
 _atom_site_fract_x
 _atom_site_fract_y
 _atom_site_fract_z
 _atom_site_occupancy
  Zr  Zr0  1  0.74999590  0.75037939  0.49996995  1.0
  Zr  Zr1  1  0.74999590  0.24962061  -0.00003005  1.0
  Zr  Zr2  1  0.25000410  0.75037939  1.00003005  1.0
  Zr  Zr3  1  0.25000410  0.24962061  0.50003005  1.0
  O  O4  1  0.70657586  0.48361560  0.39761608  1.0
  O  O5  1  0.70657586  0.51638440  0.89761608  1.0
  O  O6  1  0.29342414  0.48361560  0.10238392  1.0
  O  O7  1  0.29342414  0.51638440  0.60238392  1.0
  O  O8  1  0.70652195  1.01685211  0.39751194  1.0
  O  O9  1  0.70652195  -0.01685211  0.89751194  1.0
  O  O10  1  0.29347805  1.01685211  0.10248806  1.0
  O  O11  1  0.29347805  -0.01685211  0.60248806  1.0
  O  O12  1  0.79321513  0.51617780  0.10229396  1.0
  O  O13  1  0.79321513  0.48382220  0.60229396  1.0
  O  O14  1  0.20678487  0.51617780  0.39770604  1.0
  O  O15  1  0.20678487  0.48382220  0.89770604  1.0
  O  O16  1  0.20646531  0.01706779  0.89762999  1.0
  O  O17  1  0.20646531  -0.01706779  0.39762999  1.0
  O  O18  1  0.79353469  0.01706779  0.60237001  1.0
  O  O19  1  0.79353469  -0.01706779  0.10237001  1.0
  O  O20  1  0.01186859  0.25009512  0.04806642  1.0
  O  O21  1  0.01186859  0.74990488  0.54806642  1.0
  O  O22  1  0.98813141  0.25009512  0.45193358  1.0
  O  O23  1  0.98813141  0.74990488  0.95193358  1.0
  O  O24  1  0.48812295  0.75011614  0.45182512  1.0
  O  O25  1  0.48812295  0.24988386  0.95182512  1.0
  O  O26  1  0.51187705  0.75011614  0.04817488  1.0
  O  O27  1  0.51187705  0.24988386  0.54817488  1.0
  O  O28  1  0.74572525  0.74949668  0.22084461  1.0
  O  O29  1  0.74572525  0.25050332  0.72084461  1.0
  O  O30  1  0.25427475  0.74949668  0.27915539  1.0
  O  O31  1  0.25427475  0.25050332  0.77915539  1.0
  O  O32  1  0.75456219  0.74953933  0.77919299  1.0
  O  O33  1  0.75456219  0.25046067  0.27919299  1.0
  O  O34  1  0.24543781  0.74953933  0.72080701  1.0
  O  O35  1  0.24543781  0.25046067  0.22080701  1.0
  Na  Na36  1  -0.00000000  0.25027283  0.25000000  1.0
  Na  Na37  1  0.00000000  0.74972717  0.75000000  1.0
  Na  Na38  1  0.50000000  0.74976540  0.25000000  1.0
  Na  Na39  1  0.50000000  0.25023460  0.75000000  1.0
  P  P40  1  0.79062724  0.74970389  0.88110292  1.0
  P  P41  1  0.79062724  0.25029611  0.38110292  1.0
  P  P42  1  0.20937276  0.74970389  0.61889708  1.0
  P  P43  1  0.20937276  0.25029611  0.11889708  1.0
  P  P44  1  0.70943321  0.74966200  0.11889791  1.0
  P  P45  1  0.70943321  0.25033800  0.61889791  1.0
  P  P46  1  0.29056679  0.74966200  0.38110209  1.0
  P  P47  1  0.29056679  0.25033800  0.88110209  1.0
