# generated using pymatgen
data_Ba(CuP2)2
_symmetry_space_group_name_H-M   'P 1'
_cell_length_a   10.85288080
_cell_length_b   9.95037599
_cell_length_c   5.81013685
_cell_angle_alpha   82.55476621
_cell_angle_beta   65.38294774
_cell_angle_gamma   32.06228606
_symmetry_Int_Tables_number   1
_chemical_formula_structural   Ba(CuP2)2
_chemical_formula_sum   'Ba2 Cu4 P8'
_cell_volume   268.38864207
_cell_formula_units_Z   2
loop_
 _symmetry_equiv_pos_site_id
 _symmetry_equiv_pos_as_xyz
  1  'x, y, z'
loop_
 _atom_site_type_symbol
 _atom_site_label
 _atom_site_symmetry_multiplicity
 _atom_site_fract_x
 _atom_site_fract_y
 _atom_site_fract_z
 _atom_site_occupancy
  Ba  Ba0  1  -0.25000000  0.75000000  0.75000000  1.0
  Ba  Ba1  1  0.50000000  0.50000000  0.50000000  1.0
  Cu  Cu2  1  0.37212421  0.37212421  0.12787579  1.0
  Cu  Cu3  1  0.12787579  0.12787579  0.37212421  1.0
  Cu  Cu4  1  0.87787579  -0.12212421  0.12212421  1.0
  Cu  Cu5  1  1.12212421  0.12212421  -0.12212421  1.0
  P  P6  1  0.45331660  -0.06139728  0.42651620  1.0
  P  P7  1  0.18156448  0.42651620  0.93860272  1.0
  P  P8  1  -0.06139728  0.45331660  1.18156448  1.0
  P  P9  1  0.42651620  0.18156448  0.45331660  1.0
  P  P10  1  0.79668340  0.31139728  -0.17651620  1.0
  P  P11  1  0.06843552  0.82348380  0.31139728  1.0
  P  P12  1  0.31139728  0.79668340  0.06843552  1.0
  P  P13  1  -0.17651620  1.06843552  0.79668340  1.0
