# generated using pymatgen
data_KCr2PbF9
_symmetry_space_group_name_H-M   'P 1'
_cell_length_a   9.97870853
_cell_length_b   5.50958857
_cell_length_c   14.16510729
_cell_angle_alpha   90.00000000
_cell_angle_beta   90.00000000
_cell_angle_gamma   90.00000000
_symmetry_Int_Tables_number   1
_chemical_formula_structural   KCr2PbF9
_chemical_formula_sum   'K4 Cr8 Pb4 F36'
_cell_volume   778.77746324
_cell_formula_units_Z   4
loop_
 _symmetry_equiv_pos_site_id
 _symmetry_equiv_pos_as_xyz
  1  'x, y, z'
loop_
 _atom_site_type_symbol
 _atom_site_label
 _atom_site_symmetry_multiplicity
 _atom_site_fract_x
 _atom_site_fract_y
 _atom_site_fract_z
 _atom_site_occupancy
  K  K0  1  0.77146796  0.75000000  0.80184983  1.0
  K  K1  1  0.27146796  0.75000000  0.69815017  1.0
  K  K2  1  0.22853204  0.25000000  0.19815017  1.0
  K  K3  1  0.72853204  0.25000000  0.30184983  1.0
  Cr  Cr4  1  0.93431585  0.75000000  0.15385207  1.0
  Cr  Cr5  1  0.43431585  0.75000000  0.34614793  1.0
  Cr  Cr6  1  0.06568415  0.25000000  0.84614793  1.0
  Cr  Cr7  1  0.56568415  0.25000000  0.65385207  1.0
  Cr  Cr8  1  0.72929397  0.75000000  0.50928971  1.0
  Cr  Cr9  1  0.22929397  0.75000000  0.99071029  1.0
  Cr  Cr10  1  0.27070603  0.25000000  0.49071029  1.0
  Cr  Cr11  1  0.77070603  0.25000000  0.00928971  1.0
  Pb  Pb12  1  0.55228372  0.75000000  0.11159659  1.0
  Pb  Pb13  1  0.05228372  0.75000000  0.38840341  1.0
  Pb  Pb14  1  0.44771628  0.25000000  0.88840341  1.0
  Pb  Pb15  1  0.94771628  0.25000000  0.61159659  1.0
  F  F16  1  0.75756742  0.75000000  0.20374278  1.0
  F  F17  1  0.25756742  0.75000000  0.29625722  1.0
  F  F18  1  0.24243258  0.25000000  0.79625722  1.0
  F  F19  1  0.74243258  0.25000000  0.70374278  1.0
  F  F20  1  0.98373377  0.98469616  0.24628466  1.0
  F  F21  1  0.98373377  0.51530384  0.24628466  1.0
  F  F22  1  0.48373377  0.98469616  0.25371534  1.0
  F  F23  1  0.48373377  0.51530384  0.25371534  1.0
  F  F24  1  0.01626623  0.48469616  0.75371534  1.0
  F  F25  1  0.01626623  0.01530384  0.75371534  1.0
  F  F26  1  0.51626623  0.48469616  0.74628466  1.0
  F  F27  1  0.51626623  0.01530384  0.74628466  1.0
  F  F28  1  0.88549344  0.99866975  0.06194522  1.0
  F  F29  1  0.88549344  0.50133025  0.06194522  1.0
  F  F30  1  0.38549344  0.99866975  0.43805478  1.0
  F  F31  1  0.38549344  0.50133025  0.43805478  1.0
  F  F32  1  0.11450656  0.49866975  0.93805478  1.0
  F  F33  1  0.11450656  0.00133025  0.93805478  1.0
  F  F34  1  0.61450656  0.49866975  0.56194522  1.0
  F  F35  1  0.61450656  0.00133025  0.56194522  1.0
  F  F36  1  0.84438619  0.98940168  0.45375067  1.0
  F  F37  1  0.84438619  0.51059832  0.45375067  1.0
  F  F38  1  0.34438619  0.98940168  0.04624933  1.0
  F  F39  1  0.34438619  0.51059832  0.04624933  1.0
  F  F40  1  0.15561381  0.48940168  0.54624933  1.0
  F  F41  1  0.15561381  0.01059832  0.54624933  1.0
  F  F42  1  0.65561381  0.48940168  0.95375067  1.0
  F  F43  1  0.65561381  0.01059832  0.95375067  1.0
  F  F44  1  0.84342179  0.75000000  0.61560437  1.0
  F  F45  1  0.34342179  0.75000000  0.88439563  1.0
  F  F46  1  0.15657821  0.25000000  0.38439563  1.0
  F  F47  1  0.65657821  0.25000000  0.11560437  1.0
  F  F48  1  0.61993315  0.75000000  0.39334323  1.0
  F  F49  1  0.11993315  0.75000000  0.10665677  1.0
  F  F50  1  0.38006685  0.25000000  0.60665677  1.0
  F  F51  1  0.88006685  0.25000000  0.89334323  1.0
