# generated using pymatgen
data_Sb2S3
_symmetry_space_group_name_H-M   'P 1'
_cell_length_a   12.20836320
_cell_length_b   3.87271159
_cell_length_c   11.22923369
_cell_angle_alpha   90.00000000
_cell_angle_beta   90.00000000
_cell_angle_gamma   90.00000000
_symmetry_Int_Tables_number   1
_chemical_formula_structural   Sb2S3
_chemical_formula_sum   'Sb8 S12'
_cell_volume   530.91221309
_cell_formula_units_Z   4
loop_
 _symmetry_equiv_pos_site_id
 _symmetry_equiv_pos_as_xyz
  1  'x, y, z'
loop_
 _atom_site_type_symbol
 _atom_site_label
 _atom_site_symmetry_multiplicity
 _atom_site_fract_x
 _atom_site_fract_y
 _atom_site_fract_z
 _atom_site_occupancy
  Sb  Sb0  1  0.46520490  0.75000000  0.17118357  1.0
  Sb  Sb1  1  0.96520490  0.75000000  0.32881643  1.0
  Sb  Sb2  1  0.53479510  0.25000000  0.82881643  1.0
  Sb  Sb3  1  0.03479510  0.25000000  0.67118357  1.0
  Sb  Sb4  1  0.14005908  0.75000000  0.96645962  1.0
  Sb  Sb5  1  0.64005908  0.75000000  0.53354038  1.0
  Sb  Sb6  1  0.85994092  0.25000000  0.03354038  1.0
  Sb  Sb7  1  0.35994092  0.25000000  0.46645962  1.0
  S  S8  1  0.45514043  0.75000000  0.62541304  1.0
  S  S9  1  0.95514043  0.75000000  0.87458696  1.0
  S  S10  1  0.54485957  0.25000000  0.37458696  1.0
  S  S11  1  0.04485957  0.25000000  0.12541304  1.0
  S  S12  1  0.30124433  0.75000000  0.31201093  1.0
  S  S13  1  0.80124433  0.75000000  0.18798907  1.0
  S  S14  1  0.69875567  0.25000000  0.68798907  1.0
  S  S15  1  0.19875567  0.25000000  0.81201093  1.0
  S  S16  1  0.12438605  0.75000000  0.55640255  1.0
  S  S17  1  0.62438605  0.75000000  0.94359745  1.0
  S  S18  1  0.87561395  0.25000000  0.44359745  1.0
  S  S19  1  0.37561395  0.25000000  0.05640255  1.0
