# generated using pymatgen
data_CCl3F
_symmetry_space_group_name_H-M   'P 1'
_cell_length_a   6.17443013
_cell_length_b   10.48887870
_cell_length_c   18.21546270
_cell_angle_alpha   90.00000000
_cell_angle_beta   90.00000000
_cell_angle_gamma   90.00000000
_symmetry_Int_Tables_number   1
_chemical_formula_structural   CCl3F
_chemical_formula_sum   'C8 Cl24 F8'
_cell_volume   1179.68525531
_cell_formula_units_Z   8
loop_
 _symmetry_equiv_pos_site_id
 _symmetry_equiv_pos_as_xyz
  1  'x, y, z'
loop_
 _atom_site_type_symbol
 _atom_site_label
 _atom_site_symmetry_multiplicity
 _atom_site_fract_x
 _atom_site_fract_y
 _atom_site_fract_z
 _atom_site_occupancy
  C  C0  1  0.40966032  0.90135299  0.63624407  1.0
  C  C1  1  0.40966032  0.59864701  0.13624407  1.0
  C  C2  1  0.90966032  0.90135299  0.86375593  1.0
  C  C3  1  0.90966032  0.59864701  0.36375593  1.0
  C  C4  1  0.59033968  0.40135299  0.86375593  1.0
  C  C5  1  0.59033968  0.09864701  0.36375593  1.0
  C  C6  1  0.09033968  0.40135299  0.63624407  1.0
  C  C7  1  0.09033968  0.09864701  0.13624407  1.0
  Cl  Cl8  1  0.46107210  0.54780804  0.84237090  1.0
  Cl  Cl9  1  0.46107210  0.95219196  0.34237090  1.0
  Cl  Cl10  1  0.96107210  0.54780804  0.65762910  1.0
  Cl  Cl11  1  0.96107210  0.95219196  0.15762910  1.0
  Cl  Cl12  1  0.53892790  0.04780804  0.65762910  1.0
  Cl  Cl13  1  0.53892790  0.45219196  0.15762910  1.0
  Cl  Cl14  1  0.03892790  0.04780804  0.84237090  1.0
  Cl  Cl15  1  0.03892790  0.45219196  0.34237090  1.0
  Cl  Cl16  1  0.13556684  0.92736350  0.61075396  1.0
  Cl  Cl17  1  0.13556684  0.57263650  0.11075396  1.0
  Cl  Cl18  1  0.63556684  0.92736350  0.88924604  1.0
  Cl  Cl19  1  0.63556684  0.57263650  0.38924604  1.0
  Cl  Cl20  1  0.86443316  0.42736350  0.88924604  1.0
  Cl  Cl21  1  0.86443316  0.07263650  0.38924604  1.0
  Cl  Cl22  1  0.36443316  0.42736350  0.61075396  1.0
  Cl  Cl23  1  0.36443316  0.07263650  0.11075396  1.0
  Cl  Cl24  1  0.05110005  0.82018191  0.93491192  1.0
  Cl  Cl25  1  0.05110005  0.67981809  0.43491192  1.0
  Cl  Cl26  1  0.55110005  0.82018191  0.56508808  1.0
  Cl  Cl27  1  0.55110005  0.67981809  0.06508808  1.0
  Cl  Cl28  1  0.94889995  0.32018191  0.56508808  1.0
  Cl  Cl29  1  0.94889995  0.17981809  0.06508808  1.0
  Cl  Cl30  1  0.44889995  0.32018191  0.93491192  1.0
  Cl  Cl31  1  0.44889995  0.17981809  0.43491192  1.0
  F  F32  1  0.41254936  0.82619289  0.69727494  1.0
  F  F33  1  0.41254936  0.67380711  0.19727494  1.0
  F  F34  1  0.91254936  0.82619289  0.80272506  1.0
  F  F35  1  0.91254936  0.67380711  0.30272506  1.0
  F  F36  1  0.58745064  0.32619289  0.80272506  1.0
  F  F37  1  0.58745064  0.17380711  0.30272506  1.0
  F  F38  1  0.08745064  0.32619289  0.69727494  1.0
  F  F39  1  0.08745064  0.17380711  0.19727494  1.0
