# generated using pymatgen
data_Ge5(Te4As)2
_symmetry_space_group_name_H-M   'P 1'
_cell_length_a   4.19747162
_cell_length_b   4.19747162
_cell_length_c   27.21933558
_cell_angle_alpha   90.00000000
_cell_angle_beta   90.00000000
_cell_angle_gamma   120.00000000
_symmetry_Int_Tables_number   1
_chemical_formula_structural   Ge5(Te4As)2
_chemical_formula_sum   'Ge5 Te8 As2'
_cell_volume   415.32080727
_cell_formula_units_Z   1
loop_
 _symmetry_equiv_pos_site_id
 _symmetry_equiv_pos_as_xyz
  1  'x, y, z'
loop_
 _atom_site_type_symbol
 _atom_site_label
 _atom_site_symmetry_multiplicity
 _atom_site_fract_x
 _atom_site_fract_y
 _atom_site_fract_z
 _atom_site_occupancy
  Ge  Ge0  1  0.33333333  0.66666667  0.25874360  1.0
  Ge  Ge1  1  0.66666667  0.33333333  0.74125640  1.0
  Ge  Ge2  1  0.33333333  0.66666667  0.87089481  1.0
  Ge  Ge3  1  0.66666667  0.33333333  0.12910519  1.0
  Ge  Ge4  1  0.00000000  0.00000000  0.00000000  1.0
  Te  Te5  1  0.33333333  0.66666667  0.06440191  1.0
  Te  Te6  1  0.66666667  0.33333333  0.93559809  1.0
  Te  Te7  1  0.33333333  0.66666667  0.44596141  1.0
  Te  Te8  1  0.66666667  0.33333333  0.55403859  1.0
  Te  Te9  1  0.33333333  0.66666667  0.67830083  1.0
  Te  Te10  1  0.66666667  0.33333333  0.32169917  1.0
  Te  Te11  1  0.00000000  0.00000000  0.19315969  1.0
  Te  Te12  1  0.00000000  0.00000000  0.80684031  1.0
  As  As13  1  0.00000000  0.00000000  0.38971824  1.0
  As  As14  1  0.00000000  0.00000000  0.61028176  1.0
