# generated using pymatgen
data_RbSmO2
_symmetry_space_group_name_H-M   'P 1'
_cell_length_a   6.86833496
_cell_length_b   6.86833496
_cell_length_c   6.86833496
_cell_angle_alpha   30.59432068
_cell_angle_beta   30.59432068
_cell_angle_gamma   30.59432068
_symmetry_Int_Tables_number   1
_chemical_formula_structural   RbSmO2
_chemical_formula_sum   'Rb1 Sm1 O2'
_cell_volume   74.40944156
_cell_formula_units_Z   1
loop_
 _symmetry_equiv_pos_site_id
 _symmetry_equiv_pos_as_xyz
  1  'x, y, z'
loop_
 _atom_site_type_symbol
 _atom_site_label
 _atom_site_symmetry_multiplicity
 _atom_site_fract_x
 _atom_site_fract_y
 _atom_site_fract_z
 _atom_site_occupancy
  Rb  Rb0  1  0.00000000  0.00000000  0.00000000  1.0
  Sm  Sm1  1  1.50000000  0.50000000  0.50000000  1.0
  O  O2  1  0.77424743  0.77424743  0.77424743  1.0
  O  O3  1  1.22575257  1.22575257  0.22575257  1.0
