# generated using pymatgen
data_GdGaPd
_symmetry_space_group_name_H-M   'P 1'
_cell_length_a   7.03140940
_cell_length_b   4.49962491
_cell_length_c   7.71069741
_cell_angle_alpha   90.00000000
_cell_angle_beta   90.00000000
_cell_angle_gamma   90.00000000
_symmetry_Int_Tables_number   1
_chemical_formula_structural   GdGaPd
_chemical_formula_sum   'Gd4 Ga4 Pd4'
_cell_volume   243.95647979
_cell_formula_units_Z   4
loop_
 _symmetry_equiv_pos_site_id
 _symmetry_equiv_pos_as_xyz
  1  'x, y, z'
loop_
 _atom_site_type_symbol
 _atom_site_label
 _atom_site_symmetry_multiplicity
 _atom_site_fract_x
 _atom_site_fract_y
 _atom_site_fract_z
 _atom_site_occupancy
  Gd  Gd0  1  1.01912306  0.75000000  0.69752357  1.0
  Gd  Gd1  1  0.51912306  0.75000000  0.80247643  1.0
  Gd  Gd2  1  -0.01912306  0.25000000  0.30247643  1.0
  Gd  Gd3  1  0.48087694  0.25000000  0.19752357  1.0
  Ga  Ga4  1  0.67347953  0.75000000  0.42406005  1.0
  Ga  Ga5  1  0.17347953  0.75000000  0.07593995  1.0
  Ga  Ga6  1  0.32652047  0.25000000  0.57593995  1.0
  Ga  Ga7  1  0.82652047  0.25000000  0.92406005  1.0
  Pd  Pd8  1  0.78311496  0.75000000  0.09726022  1.0
  Pd  Pd9  1  0.28311496  0.75000000  0.40273978  1.0
  Pd  Pd10  1  0.21688504  0.25000000  0.90273978  1.0
  Pd  Pd11  1  0.71688504  0.25000000  0.59726022  1.0
