# generated using pymatgen
data_Ni9S8
_symmetry_space_group_name_H-M   'P 1'
_cell_length_a   7.26250595
_cell_length_b   7.26250595
_cell_length_c   9.38570191
_cell_angle_alpha   90.00000000
_cell_angle_beta   90.00000000
_cell_angle_gamma   100.71164721
_symmetry_Int_Tables_number   1
_chemical_formula_structural   Ni9S8
_chemical_formula_sum   'Ni18 S16'
_cell_volume   486.41334872
_cell_formula_units_Z   2
loop_
 _symmetry_equiv_pos_site_id
 _symmetry_equiv_pos_as_xyz
  1  'x, y, z'
loop_
 _atom_site_type_symbol
 _atom_site_label
 _atom_site_symmetry_multiplicity
 _atom_site_fract_x
 _atom_site_fract_y
 _atom_site_fract_z
 _atom_site_occupancy
  Ni  Ni0  1  0.05728837  0.68814114  0.37811585  1.0
  Ni  Ni1  1  -0.31185886  1.05728837  0.62188415  1.0
  Ni  Ni2  1  0.31185886  0.94271163  0.62188415  1.0
  Ni  Ni3  1  -0.05728837  1.31185886  0.37811585  1.0
  Ni  Ni4  1  -0.28917980  1.54002996  0.12566049  1.0
  Ni  Ni5  1  0.54002996  0.71082020  0.87433951  1.0
  Ni  Ni6  1  -0.54002996  1.28917980  0.87433951  1.0
  Ni  Ni7  1  0.28917980  0.45997004  0.12566049  1.0
  Ni  Ni8  1  -0.00000000  1.50000000  0.77014824  1.0
  Ni  Ni9  1  0.50000000  1.00000000  0.22985176  1.0
  Ni  Ni10  1  0.00000000  0.00000000  0.28505149  1.0
  Ni  Ni11  1  0.00000000  0.00000000  0.71494851  1.0
  Ni  Ni12  1  0.23543800  0.76456200  0.00000000  1.0
  Ni  Ni13  1  -0.23543800  1.23543800  0.00000000  1.0
  Ni  Ni14  1  0.77731957  0.77731957  0.50000000  1.0
  Ni  Ni15  1  0.22268043  0.22268043  0.50000000  1.0
  Ni  Ni16  1  0.50000000  0.50000000  0.50000000  1.0
  Ni  Ni17  1  0.00000000  0.00000000  0.00000000  1.0
  S  S18  1  0.03346634  0.73050246  0.61946918  1.0
  S  S19  1  -0.26949754  1.03346634  0.38053082  1.0
  S  S20  1  0.26949754  0.96653366  0.38053082  1.0
  S  S21  1  -0.03346634  1.26949754  0.61946918  1.0
  S  S22  1  -0.49767980  1.25885017  0.11376704  1.0
  S  S23  1  0.25885017  0.50232020  0.88623296  1.0
  S  S24  1  -0.25885017  1.49767980  0.88623296  1.0
  S  S25  1  0.49767980  0.74114983  0.11376704  1.0
  S  S26  1  -0.01863300  1.75144760  0.13938879  1.0
  S  S27  1  0.75144760  0.98136700  0.86061121  1.0
  S  S28  1  -0.75144760  1.01863300  0.86061121  1.0
  S  S29  1  0.01863300  0.24855240  0.13938879  1.0
  S  S30  1  -0.25164814  1.51633090  0.36444320  1.0
  S  S31  1  0.51633090  0.74835186  0.63555680  1.0
  S  S32  1  -0.51633090  1.25164814  0.63555680  1.0
  S  S33  1  0.25164814  0.48366910  0.36444320  1.0
