# generated using pymatgen
data_VBrO
_symmetry_space_group_name_H-M   'P 1'
_cell_length_a   3.42323685
_cell_length_b   3.85711036
_cell_length_c   9.20171902
_cell_angle_alpha   90.00000000
_cell_angle_beta   90.00000000
_cell_angle_gamma   90.00000000
_symmetry_Int_Tables_number   1
_chemical_formula_structural   VBrO
_chemical_formula_sum   'V2 Br2 O2'
_cell_volume   121.49767863
_cell_formula_units_Z   2
loop_
 _symmetry_equiv_pos_site_id
 _symmetry_equiv_pos_as_xyz
  1  'x, y, z'
loop_
 _atom_site_type_symbol
 _atom_site_label
 _atom_site_symmetry_multiplicity
 _atom_site_fract_x
 _atom_site_fract_y
 _atom_site_fract_z
 _atom_site_occupancy
  V  V0  1  0.00000000  0.50000000  0.08846671  1.0
  V  V1  1  0.50000000  0.00000000  0.91153329  1.0
  Br  Br2  1  0.00000000  0.00000000  0.71046402  1.0
  Br  Br3  1  0.50000000  0.50000000  0.28953598  1.0
  O  O4  1  0.00000000  0.00000000  0.04647248  1.0
  O  O5  1  0.50000000  0.50000000  0.95352752  1.0
