# generated using pymatgen
data_HfSiPt
_symmetry_space_group_name_H-M   'P 1'
_cell_length_a   6.59216737
_cell_length_b   3.90651046
_cell_length_c   7.57208333
_cell_angle_alpha   90.00000000
_cell_angle_beta   90.00000000
_cell_angle_gamma   90.00000000
_symmetry_Int_Tables_number   1
_chemical_formula_structural   HfSiPt
_chemical_formula_sum   'Hf4 Si4 Pt4'
_cell_volume   194.99909779
_cell_formula_units_Z   4
loop_
 _symmetry_equiv_pos_site_id
 _symmetry_equiv_pos_as_xyz
  1  'x, y, z'
loop_
 _atom_site_type_symbol
 _atom_site_label
 _atom_site_symmetry_multiplicity
 _atom_site_fract_x
 _atom_site_fract_y
 _atom_site_fract_z
 _atom_site_occupancy
  Hf  Hf0  1  0.97437927  0.75000000  0.67697464  1.0
  Hf  Hf1  1  0.47437927  0.75000000  0.82302536  1.0
  Hf  Hf2  1  0.02562073  0.25000000  0.32302536  1.0
  Hf  Hf3  1  0.52562073  0.25000000  0.17697464  1.0
  Si  Si4  1  0.73928772  0.75000000  0.37728088  1.0
  Si  Si5  1  0.23928772  0.75000000  0.12271912  1.0
  Si  Si6  1  0.26071228  0.25000000  0.62271912  1.0
  Si  Si7  1  0.76071228  0.25000000  0.87728088  1.0
  Pt  Pt8  1  0.85448851  0.75000000  0.06519821  1.0
  Pt  Pt9  1  0.35448851  0.75000000  0.43480179  1.0
  Pt  Pt10  1  0.14551149  0.25000000  0.93480179  1.0
  Pt  Pt11  1  0.64551149  0.25000000  0.56519821  1.0
