# generated using pymatgen
data_Sc3Si3Ir
_symmetry_space_group_name_H-M   'P 1'
_cell_length_a   11.65305858
_cell_length_b   4.04295113
_cell_length_c   10.20772197
_cell_angle_alpha   90.00000000
_cell_angle_beta   90.00000000
_cell_angle_gamma   90.00000000
_symmetry_Int_Tables_number   1
_chemical_formula_structural   Sc3Si3Ir
_chemical_formula_sum   'Sc12 Si12 Ir4'
_cell_volume   480.91381675
_cell_formula_units_Z   4
loop_
 _symmetry_equiv_pos_site_id
 _symmetry_equiv_pos_as_xyz
  1  'x, y, z'
loop_
 _atom_site_type_symbol
 _atom_site_label
 _atom_site_symmetry_multiplicity
 _atom_site_fract_x
 _atom_site_fract_y
 _atom_site_fract_z
 _atom_site_occupancy
  Sc  Sc0  1  0.48037191  0.75000000  0.12291189  1.0
  Sc  Sc1  1  0.98037191  0.75000000  0.37708811  1.0
  Sc  Sc2  1  0.51962809  0.25000000  0.87708811  1.0
  Sc  Sc3  1  0.01962809  0.25000000  0.62291189  1.0
  Sc  Sc4  1  0.20034901  0.75000000  0.15774103  1.0
  Sc  Sc5  1  0.70034901  0.75000000  0.34225897  1.0
  Sc  Sc6  1  0.79965099  0.25000000  0.84225897  1.0
  Sc  Sc7  1  0.29965099  0.25000000  0.65774103  1.0
  Sc  Sc8  1  0.89822060  0.75000000  0.08046815  1.0
  Sc  Sc9  1  0.39822060  0.75000000  0.41953185  1.0
  Sc  Sc10  1  0.10177940  0.25000000  0.91953185  1.0
  Sc  Sc11  1  0.60177940  0.25000000  0.58046815  1.0
  Si  Si12  1  0.45454088  0.75000000  0.69289206  1.0
  Si  Si13  1  0.95454088  0.75000000  0.80710794  1.0
  Si  Si14  1  0.54545912  0.25000000  0.30710794  1.0
  Si  Si15  1  0.04545912  0.25000000  0.19289206  1.0
  Si  Si16  1  0.17827888  0.75000000  0.51374077  1.0
  Si  Si17  1  0.67827888  0.75000000  0.98625923  1.0
  Si  Si18  1  0.82172112  0.25000000  0.48625923  1.0
  Si  Si19  1  0.32172112  0.25000000  0.01374077  1.0
  Si  Si20  1  0.15801327  0.75000000  0.74930528  1.0
  Si  Si21  1  0.65801327  0.75000000  0.75069472  1.0
  Si  Si22  1  0.84198673  0.25000000  0.25069472  1.0
  Si  Si23  1  0.34198673  0.25000000  0.24930528  1.0
  Ir  Ir24  1  0.32336136  0.75000000  0.88924439  1.0
  Ir  Ir25  1  0.82336136  0.75000000  0.61075561  1.0
  Ir  Ir26  1  0.67663864  0.25000000  0.11075561  1.0
  Ir  Ir27  1  0.17663864  0.25000000  0.38924439  1.0
