# generated using pymatgen
data_CdCu(SeO3)2
_symmetry_space_group_name_H-M   'P 1'
_cell_length_a   7.46427947
_cell_length_b   11.39963282
_cell_length_c   7.40084994
_cell_angle_alpha   90.00000000
_cell_angle_beta   95.20056583
_cell_angle_gamma   90.00000000
_symmetry_Int_Tables_number   1
_chemical_formula_structural   CdCu(SeO3)2
_chemical_formula_sum   'Cd4 Cu4 Se8 O24'
_cell_volume   627.14633906
_cell_formula_units_Z   4
loop_
 _symmetry_equiv_pos_site_id
 _symmetry_equiv_pos_as_xyz
  1  'x, y, z'
loop_
 _atom_site_type_symbol
 _atom_site_label
 _atom_site_symmetry_multiplicity
 _atom_site_fract_x
 _atom_site_fract_y
 _atom_site_fract_z
 _atom_site_occupancy
  Cd  Cd0  1  0.74512531  0.96568263  0.51395735  1.0
  Cd  Cd1  1  0.74512531  0.53431737  0.01395735  1.0
  Cd  Cd2  1  0.25487469  0.46568263  0.98604265  1.0
  Cd  Cd3  1  0.25487469  0.03431737  0.48604265  1.0
  Cu  Cu4  1  0.68783385  0.90460415  0.98277098  1.0
  Cu  Cu5  1  0.68783385  0.59539585  0.48277098  1.0
  Cu  Cu6  1  0.31216615  0.40460415  0.51722902  1.0
  Cu  Cu7  1  0.31216615  0.09539585  0.01722902  1.0
  Se  Se8  1  0.93905812  0.39948485  0.69277472  1.0
  Se  Se9  1  0.93905812  0.10051515  0.19277472  1.0
  Se  Se10  1  0.06094188  0.89948485  0.80722528  1.0
  Se  Se11  1  0.06094188  0.60051515  0.30722528  1.0
  Se  Se12  1  0.44201759  0.71662885  0.76952590  1.0
  Se  Se13  1  0.44201759  0.78337115  0.26952590  1.0
  Se  Se14  1  0.55798241  0.21662885  0.73047410  1.0
  Se  Se15  1  0.55798241  0.28337115  0.23047410  1.0
  O  O16  1  0.97376699  0.37450394  0.92133023  1.0
  O  O17  1  0.97376699  0.12549606  0.42133023  1.0
  O  O18  1  0.02623301  0.87450394  0.57866977  1.0
  O  O19  1  0.02623301  0.62549606  0.07866977  1.0
  O  O20  1  0.86193398  0.97856336  0.83111949  1.0
  O  O21  1  0.86193398  0.52143664  0.33111949  1.0
  O  O22  1  0.13806602  0.47856336  0.66888051  1.0
  O  O23  1  0.13806602  0.02143664  0.16888051  1.0
  O  O24  1  0.78269670  0.51282763  0.70484999  1.0
  O  O25  1  0.78269670  0.98717237  0.20484999  1.0
  O  O26  1  0.21730330  0.01282763  0.79515001  1.0
  O  O27  1  0.21730330  0.48717237  0.29515001  1.0
  O  O28  1  0.65183101  0.78244593  0.79600974  1.0
  O  O29  1  0.65183101  0.71755407  0.29600974  1.0
  O  O30  1  0.34816899  0.28244593  0.70399026  1.0
  O  O31  1  0.34816899  0.21755407  0.20399026  1.0
  O  O32  1  0.46136549  0.63395768  0.57674771  1.0
  O  O33  1  0.46136549  0.86604232  0.07674771  1.0
  O  O34  1  0.53863451  0.13395768  0.92325229  1.0
  O  O35  1  0.53863451  0.36604232  0.42325229  1.0
  O  O36  1  0.46494758  0.61065739  0.93926978  1.0
  O  O37  1  0.46494758  0.88934261  0.43926978  1.0
  O  O38  1  0.53505242  0.11065739  0.56073022  1.0
  O  O39  1  0.53505242  0.38934261  0.06073022  1.0
