# generated using pymatgen
data_Tl2Cu(CO3)2
_symmetry_space_group_name_H-M   'P 1'
_cell_length_a   7.82718266
_cell_length_b   10.05942519
_cell_length_c   9.35396625
_cell_angle_alpha   90.00000000
_cell_angle_beta   110.99412314
_cell_angle_gamma   90.00000000
_symmetry_Int_Tables_number   1
_chemical_formula_structural   Tl2Cu(CO3)2
_chemical_formula_sum   'Tl8 Cu4 C8 O24'
_cell_volume   687.61171427
_cell_formula_units_Z   4
loop_
 _symmetry_equiv_pos_site_id
 _symmetry_equiv_pos_as_xyz
  1  'x, y, z'
loop_
 _atom_site_type_symbol
 _atom_site_label
 _atom_site_symmetry_multiplicity
 _atom_site_fract_x
 _atom_site_fract_y
 _atom_site_fract_z
 _atom_site_occupancy
  O  O0  1  0.96720346  0.49471568  0.23800653  1.0
  O  O1  1  0.96720346  0.00528432  0.73800653  1.0
  O  O2  1  0.03279654  0.99471568  0.26199347  1.0
  O  O3  1  0.03279654  0.50528432  0.76199347  1.0
  O  O4  1  0.51898190  0.08302889  0.15792809  1.0
  O  O5  1  0.51898190  0.41697111  0.65792809  1.0
  O  O6  1  0.48101810  0.58302889  0.34207191  1.0
  O  O7  1  0.48101810  0.91697111  0.84207191  1.0
  O  O8  1  0.70012098  0.43218771  0.36910287  1.0
  O  O9  1  0.70012098  0.06781229  0.86910287  1.0
  O  O10  1  0.29987902  0.93218771  0.13089713  1.0
  O  O11  1  0.29987902  0.56781229  0.63089713  1.0
  O  O12  1  0.94322396  0.17127542  0.36088396  1.0
  O  O13  1  0.94322396  0.32872458  0.86088396  1.0
  O  O14  1  0.05677604  0.67127542  0.13911604  1.0
  O  O15  1  0.05677604  0.82872458  0.63911604  1.0
  O  O16  1  0.96414508  0.18862040  0.12935069  1.0
  O  O17  1  0.96414508  0.31137960  0.62935069  1.0
  O  O18  1  0.03585492  0.68862040  0.37064931  1.0
  O  O19  1  0.03585492  0.81137960  0.87064931  1.0
  O  O20  1  0.23623457  0.37265986  0.49796605  1.0
  O  O21  1  0.23623457  0.12734014  0.99796605  1.0
  O  O22  1  0.76376543  0.87265986  0.00203395  1.0
  O  O23  1  0.76376543  0.62734014  0.50203395  1.0
  Cu  Cu24  1  0.96611837  0.39389242  0.42718238  1.0
  Cu  Cu25  1  0.96611837  0.10610758  0.92718238  1.0
  Cu  Cu26  1  0.03388163  0.89389242  0.07281762  1.0
  Cu  Cu27  1  0.03388163  0.60610758  0.57281762  1.0
  Tl  Tl28  1  0.62574835  0.28828046  0.02880909  1.0
  Tl  Tl29  1  0.62574835  0.21171954  0.52880909  1.0
  Tl  Tl30  1  0.37425165  0.78828046  0.47119091  1.0
  Tl  Tl31  1  0.37425165  0.71171954  0.97119091  1.0
  Tl  Tl32  1  0.77579780  0.88946271  0.35675289  1.0
  Tl  Tl33  1  0.77579780  0.61053729  0.85675289  1.0
  Tl  Tl34  1  0.22420220  0.38946271  0.14324711  1.0
  Tl  Tl35  1  0.22420220  0.11053729  0.64324711  1.0
  C  C36  1  0.98067573  0.11864060  0.25126073  1.0
  C  C37  1  0.98067573  0.38135940  0.75126073  1.0
  C  C38  1  0.01932427  0.61864060  0.24873927  1.0
  C  C39  1  0.01932427  0.88135940  0.74873927  1.0
  C  C40  1  0.64745167  0.95226137  0.90426592  1.0
  C  C41  1  0.64745167  0.54773863  0.40426592  1.0
  C  C42  1  0.35254833  0.45226137  0.59573408  1.0
  C  C43  1  0.35254833  0.04773863  0.09573408  1.0
