# generated using pymatgen
data_NaBrO3
_symmetry_space_group_name_H-M   'P 1'
_cell_length_a   6.84205372
_cell_length_b   6.84205372
_cell_length_c   6.84205372
_cell_angle_alpha   90.00000000
_cell_angle_beta   90.00000000
_cell_angle_gamma   90.00000000
_symmetry_Int_Tables_number   1
_chemical_formula_structural   NaBrO3
_chemical_formula_sum   'Na4 Br4 O12'
_cell_volume   320.30184467
_cell_formula_units_Z   4
loop_
 _symmetry_equiv_pos_site_id
 _symmetry_equiv_pos_as_xyz
  1  'x, y, z'
loop_
 _atom_site_type_symbol
 _atom_site_label
 _atom_site_symmetry_multiplicity
 _atom_site_fract_x
 _atom_site_fract_y
 _atom_site_fract_z
 _atom_site_occupancy
  Na  Na0  1  0.42352747  0.92352747  0.57647253  1.0
  Na  Na1  1  0.92352747  0.57647253  0.42352747  1.0
  Na  Na2  1  0.57647253  0.42352747  0.92352747  1.0
  Na  Na3  1  0.07647253  0.07647253  0.07647253  1.0
  Br  Br4  1  0.09297361  0.59297361  0.90702639  1.0
  Br  Br5  1  0.59297361  0.90702639  0.09297361  1.0
  Br  Br6  1  0.90702639  0.09297361  0.59297361  1.0
  Br  Br7  1  0.40702639  0.40702639  0.40702639  1.0
  O  O8  1  0.21349547  0.40087026  0.00824205  1.0
  O  O9  1  0.99175795  0.71349547  0.09912974  1.0
  O  O10  1  -0.09912974  0.49175795  0.78650453  1.0
  O  O11  1  0.71349547  0.09912974  0.99175795  1.0
  O  O12  1  0.49175795  0.78650453  -0.09912974  1.0
  O  O13  1  0.40087026  0.00824205  0.21349547  1.0
  O  O14  1  0.78650453  -0.09912974  0.49175795  1.0
  O  O15  1  0.00824205  0.21349547  0.40087026  1.0
  O  O16  1  0.09912974  0.99175795  0.71349547  1.0
  O  O17  1  0.28650453  0.59912974  0.50824205  1.0
  O  O18  1  0.50824205  0.28650453  0.59912974  1.0
  O  O19  1  0.59912974  0.50824205  0.28650453  1.0
