# generated using pymatgen
data_H8PtN2(ClO)2
_symmetry_space_group_name_H-M   'P 1'
_cell_length_a   6.24355792
_cell_length_b   7.07433138
_cell_length_c   8.11062509
_cell_angle_alpha   90.00000000
_cell_angle_beta   104.86564094
_cell_angle_gamma   90.00000000
_symmetry_Int_Tables_number   1
_chemical_formula_structural   H8PtN2(ClO)2
_chemical_formula_sum   'H16 Pt2 N4 Cl4 O4'
_cell_volume   346.24798613
_cell_formula_units_Z   2
loop_
 _symmetry_equiv_pos_site_id
 _symmetry_equiv_pos_as_xyz
  1  'x, y, z'
loop_
 _atom_site_type_symbol
 _atom_site_label
 _atom_site_symmetry_multiplicity
 _atom_site_fract_x
 _atom_site_fract_y
 _atom_site_fract_z
 _atom_site_occupancy
  H  H0  1  0.87221141  0.33714339  0.87411716  1.0
  H  H1  1  0.87221141  0.16285661  0.37411716  1.0
  H  H2  1  0.12778859  0.83714339  0.62588284  1.0
  H  H3  1  0.12778859  0.66285661  0.12588284  1.0
  H  H4  1  0.80482029  0.60721284  0.71477707  1.0
  H  H5  1  0.80482029  0.89278716  0.21477707  1.0
  H  H6  1  0.19517971  0.10721284  0.78522293  1.0
  H  H7  1  0.19517971  0.39278716  0.28522293  1.0
  H  H8  1  0.32513395  0.73898987  0.54564483  1.0
  H  H9  1  0.32513395  0.76101013  0.04564483  1.0
  H  H10  1  0.67486605  0.23898987  0.95435517  1.0
  H  H11  1  0.67486605  0.26101013  0.45435517  1.0
  H  H12  1  0.09953311  0.66310536  0.91297518  1.0
  H  H13  1  0.09953311  0.83689464  0.41297518  1.0
  H  H14  1  0.90046689  0.16310536  0.58702482  1.0
  H  H15  1  0.90046689  0.33689464  0.08702482  1.0
  Pt  Pt16  1  0.00000000  0.00000000  0.00000000  1.0
  Pt  Pt17  1  0.00000000  0.50000000  0.50000000  1.0
  N  N18  1  0.84231011  0.25888742  0.97491473  1.0
  N  N19  1  0.84231011  0.24111258  0.47491473  1.0
  N  N20  1  0.15768989  0.75888742  0.52508527  1.0
  N  N21  1  0.15768989  0.74111258  0.02508527  1.0
  Cl  Cl22  1  0.66207669  0.85438440  0.87259214  1.0
  Cl  Cl23  1  0.66207669  0.64561560  0.37259214  1.0
  Cl  Cl24  1  0.33792331  0.35438440  0.62740786  1.0
  Cl  Cl25  1  0.33792331  0.14561560  0.12740786  1.0
  O  O26  1  0.93668108  0.52692149  0.73289650  1.0
  O  O27  1  0.93668108  0.97307851  0.23289650  1.0
  O  O28  1  0.06331892  0.02692149  0.76710350  1.0
  O  O29  1  0.06331892  0.47307851  0.26710350  1.0
