# generated using pymatgen
data_La8AlPd24
_symmetry_space_group_name_H-M   'P 1'
_cell_length_a   8.54651725
_cell_length_b   8.54651725
_cell_length_c   8.54651725
_cell_angle_alpha   90.00000000
_cell_angle_beta   90.00000000
_cell_angle_gamma   90.00000000
_symmetry_Int_Tables_number   1
_chemical_formula_structural   La8AlPd24
_chemical_formula_sum   'La8 Al1 Pd24'
_cell_volume   624.26289188
_cell_formula_units_Z   1
loop_
 _symmetry_equiv_pos_site_id
 _symmetry_equiv_pos_as_xyz
  1  'x, y, z'
loop_
 _atom_site_type_symbol
 _atom_site_label
 _atom_site_symmetry_multiplicity
 _atom_site_fract_x
 _atom_site_fract_y
 _atom_site_fract_z
 _atom_site_occupancy
  La  La0  1  0.74809581  0.74809581  0.74809581  1.0
  La  La1  1  0.74809581  0.74809581  0.25190419  1.0
  La  La2  1  0.74809581  0.25190419  0.74809581  1.0
  La  La3  1  0.74809581  0.25190419  0.25190419  1.0
  La  La4  1  0.25190419  0.74809581  0.74809581  1.0
  La  La5  1  0.25190419  0.74809581  0.25190419  1.0
  La  La6  1  0.25190419  0.25190419  0.74809581  1.0
  La  La7  1  0.25190419  0.25190419  0.25190419  1.0
  Al  Al8  1  0.00000000  0.00000000  0.00000000  1.0
  Pd  Pd9  1  0.73898624  0.50000000  0.00000000  1.0
  Pd  Pd10  1  0.73898624  0.00000000  0.50000000  1.0
  Pd  Pd11  1  0.50000000  0.73898624  0.00000000  1.0
  Pd  Pd12  1  0.50000000  0.00000000  0.73898624  1.0
  Pd  Pd13  1  0.50000000  0.00000000  0.26101376  1.0
  Pd  Pd14  1  0.50000000  0.26101376  0.00000000  1.0
  Pd  Pd15  1  0.00000000  0.73898624  0.50000000  1.0
  Pd  Pd16  1  0.00000000  0.50000000  0.73898624  1.0
  Pd  Pd17  1  0.00000000  0.50000000  0.26101376  1.0
  Pd  Pd18  1  0.00000000  0.26101376  0.50000000  1.0
  Pd  Pd19  1  0.26101376  0.50000000  0.00000000  1.0
  Pd  Pd20  1  0.26101376  0.00000000  0.50000000  1.0
  Pd  Pd21  1  0.74626307  0.50000000  0.50000000  1.0
  Pd  Pd22  1  0.50000000  0.74626307  0.50000000  1.0
  Pd  Pd23  1  0.50000000  0.50000000  0.74626307  1.0
  Pd  Pd24  1  0.50000000  0.50000000  0.25373693  1.0
  Pd  Pd25  1  0.50000000  0.25373693  0.50000000  1.0
  Pd  Pd26  1  0.25373693  0.50000000  0.50000000  1.0
  Pd  Pd27  1  0.70712340  0.00000000  0.00000000  1.0
  Pd  Pd28  1  0.00000000  0.70712340  0.00000000  1.0
  Pd  Pd29  1  0.00000000  0.00000000  0.70712340  1.0
  Pd  Pd30  1  0.00000000  0.00000000  0.29287660  1.0
  Pd  Pd31  1  0.00000000  0.29287660  0.00000000  1.0
  Pd  Pd32  1  0.29287660  0.00000000  0.00000000  1.0
