# generated using pymatgen
data_La3PBr3
_symmetry_space_group_name_H-M   'P 1'
_cell_length_a   10.50139768
_cell_length_b   10.50139768
_cell_length_c   10.50139768
_cell_angle_alpha   109.47122063
_cell_angle_beta   109.47122063
_cell_angle_gamma   109.47122063
_symmetry_Int_Tables_number   1
_chemical_formula_structural   La3PBr3
_chemical_formula_sum   'La12 P4 Br12'
_cell_volume   891.49605339
_cell_formula_units_Z   4
loop_
 _symmetry_equiv_pos_site_id
 _symmetry_equiv_pos_as_xyz
  1  'x, y, z'
loop_
 _atom_site_type_symbol
 _atom_site_label
 _atom_site_symmetry_multiplicity
 _atom_site_fract_x
 _atom_site_fract_y
 _atom_site_fract_z
 _atom_site_occupancy
  La  La0  1  1.75000000  1.23718792  1.26281208  1.0
  La  La1  1  0.75000000  1.01281208  0.48718792  1.0
  La  La2  1  1.02562417  0.26281208  1.01281208  1.0
  La  La3  1  0.47437583  0.48718792  0.23718792  1.0
  La  La4  1  1.26281208  1.01281208  1.02562417  1.0
  La  La5  1  1.23718792  1.26281208  0.75000000  1.0
  La  La6  1  1.01281208  1.02562417  0.26281208  1.0
  La  La7  1  1.48718792  0.75000000  1.01281208  1.0
  La  La8  1  1.01281208  1.48718792  0.75000000  1.0
  La  La9  1  1.48718792  1.23718792  1.47437583  1.0
  La  La10  1  0.23718792  0.47437583  0.48718792  1.0
  La  La11  1  1.26281208  0.75000000  1.23718792  1.0
  P  P12  1  1.50000000  1.00000000  1.25000000  1.0
  P  P13  1  1.00000000  1.25000000  0.50000000  1.0
  P  P14  1  0.25000000  0.25000000  0.25000000  1.0
  P  P15  1  1.25000000  0.50000000  1.00000000  1.0
  Br  Br16  1  0.51167359  0.50583679  0.75583679  1.0
  Br  Br17  1  0.98832641  0.74416321  0.99416321  1.0
  Br  Br18  1  1.25000000  0.75583679  0.74416321  1.0
  Br  Br19  1  1.25000000  0.99416321  0.50583679  1.0
  Br  Br20  1  0.99416321  1.50583679  1.25000000  1.0
  Br  Br21  1  1.50583679  1.75583679  1.51167359  1.0
  Br  Br22  1  0.74416321  0.25000000  0.75583679  1.0
  Br  Br23  1  0.75583679  0.51167359  0.50583679  1.0
  Br  Br24  1  0.99416321  0.98832641  0.74416321  1.0
  Br  Br25  1  1.50583679  1.25000000  0.99416321  1.0
  Br  Br26  1  0.75583679  0.74416321  0.25000000  1.0
  Br  Br27  1  1.74416321  0.99416321  0.98832641  1.0
