# generated using pymatgen
data_Sn4Ir
_symmetry_space_group_name_H-M   'P 1'
_cell_length_a   6.89803240
_cell_length_b   6.89803240
_cell_length_c   8.71358700
_cell_angle_alpha   90.00000000
_cell_angle_beta   90.00000000
_cell_angle_gamma   120.00000000
_symmetry_Int_Tables_number   1
_chemical_formula_structural   Sn4Ir
_chemical_formula_sum   'Sn12 Ir3'
_cell_volume   359.06912518
_cell_formula_units_Z   3
loop_
 _symmetry_equiv_pos_site_id
 _symmetry_equiv_pos_as_xyz
  1  'x, y, z'
loop_
 _atom_site_type_symbol
 _atom_site_label
 _atom_site_symmetry_multiplicity
 _atom_site_fract_x
 _atom_site_fract_y
 _atom_site_fract_z
 _atom_site_occupancy
  Sn  Sn0  1  0.26299199  0.76475683  0.09871757  1.0
  Sn  Sn1  1  0.76475683  0.26299199  0.90128243  1.0
  Sn  Sn2  1  0.50176484  0.73700801  0.76538423  1.0
  Sn  Sn3  1  0.23524317  0.49823516  0.43205090  1.0
  Sn  Sn4  1  0.73700801  0.50176484  0.23461577  1.0
  Sn  Sn5  1  0.49823516  0.23524317  0.56794910  1.0
  Sn  Sn6  1  0.90901281  0.90901281  0.00000000  1.0
  Sn  Sn7  1  0.00000000  0.09098719  0.66666667  1.0
  Sn  Sn8  1  0.09098719  0.00000000  0.33333333  1.0
  Sn  Sn9  1  0.36847762  0.36847762  0.00000000  1.0
  Sn  Sn10  1  0.00000000  0.63152238  0.66666667  1.0
  Sn  Sn11  1  0.63152238  0.00000000  0.33333333  1.0
  Ir  Ir12  1  0.68967610  0.68967610  0.50000000  1.0
  Ir  Ir13  1  0.00000000  0.31032390  0.16666667  1.0
  Ir  Ir14  1  0.31032390  0.00000000  0.83333333  1.0
