# generated using pymatgen
data_MoH6NO3F2
_symmetry_space_group_name_H-M   'P 1'
_cell_length_a   8.76431436
_cell_length_b   8.76431436
_cell_length_c   7.96723728
_cell_angle_alpha   77.80290402
_cell_angle_beta   102.19709598
_cell_angle_gamma   64.97008671
_symmetry_Int_Tables_number   1
_chemical_formula_structural   MoH6NO3F2
_chemical_formula_sum   'Mo4 H24 N4 O12 F8'
_cell_volume   509.80853069
_cell_formula_units_Z   4
loop_
 _symmetry_equiv_pos_site_id
 _symmetry_equiv_pos_as_xyz
  1  'x, y, z'
loop_
 _atom_site_type_symbol
 _atom_site_label
 _atom_site_symmetry_multiplicity
 _atom_site_fract_x
 _atom_site_fract_y
 _atom_site_fract_z
 _atom_site_occupancy
  Mo  Mo0  1  0.98914164  -0.26897540  0.23060314  1.0
  Mo  Mo1  1  0.73102460  -0.01085836  0.26939686  1.0
  Mo  Mo2  1  1.01085836  0.26897540  0.76939686  1.0
  Mo  Mo3  1  1.26897540  0.01085836  0.73060314  1.0
  H  H4  1  0.64274369  -0.45151108  0.36668718  1.0
  H  H5  1  0.54848892  -0.35725631  0.13331282  1.0
  H  H6  1  1.35725631  0.45151108  0.63331282  1.0
  H  H7  1  1.45151108  0.35725631  0.86668718  1.0
  H  H8  1  0.60422935  -0.57081668  0.24004881  1.0
  H  H9  1  0.42918332  -0.39577065  0.25995119  1.0
  H  H10  1  1.39577065  0.57081668  0.75995119  1.0
  H  H11  1  1.57081668  0.39577065  0.74004881  1.0
  H  H12  1  1.12695369  0.29313467  0.15635113  1.0
  H  H13  1  1.29313467  0.12695369  0.34364887  1.0
  H  H14  1  0.87304631  -0.29313467  0.84364887  1.0
  H  H15  1  0.70686533  -0.12695369  0.65635113  1.0
  H  H16  1  0.86895584  -0.76774713  0.15732678  1.0
  H  H17  1  0.23225287  -0.13104416  0.34267322  1.0
  H  H18  1  1.13104416  0.76774713  0.84267322  1.0
  H  H19  1  1.76774713  0.13104416  0.65732678  1.0
  H  H20  1  0.91244495  -0.80820662  0.37448971  1.0
  H  H21  1  0.19179338  -0.08755505  0.12551029  1.0
  H  H22  1  1.08755505  0.80820662  0.62551029  1.0
  H  H23  1  1.80820662  0.08755505  0.87448971  1.0
  H  H24  1  1.24184976  0.34247925  0.31738534  1.0
  H  H25  1  1.34247925  0.24184976  0.18261466  1.0
  H  H26  1  0.75815024  -0.34247925  0.68261466  1.0
  H  H27  1  0.65752075  -0.24184976  0.81738534  1.0
  N  N28  1  0.55576332  -0.44423668  0.25000000  1.0
  N  N29  1  1.44423668  0.44423668  0.75000000  1.0
  N  N30  1  1.25074933  0.25074933  0.25000000  1.0
  N  N31  1  0.74925067  -0.25074933  0.75000000  1.0
  O  O32  1  0.89579364  -0.40264530  0.22171355  1.0
  O  O33  1  0.59735470  -0.10420636  0.27828645  1.0
  O  O34  1  1.10420636  0.40264530  0.77828645  1.0
  O  O35  1  1.40264530  0.10420636  0.72171355  1.0
  O  O36  1  0.96840640  -0.19242378  0.44105866  1.0
  O  O37  1  0.80757622  -0.03159360  0.05894134  1.0
  O  O38  1  1.03159360  0.19242378  0.55894134  1.0
  O  O39  1  1.19242378  0.03159360  0.94105866  1.0
  O  O40  1  0.19850872  -0.17016498  0.23937723  1.0
  O  O41  1  0.82983502  -0.80149128  0.26062277  1.0
  O  O42  1  1.80149128  0.17016498  0.76062277  1.0
  O  O43  1  1.17016498  0.80149128  0.73937723  1.0
  F  F44  1  1.06959030  0.69257007  0.01108852  1.0
  F  F45  1  1.69257007  0.06959030  0.48891148  1.0
  F  F46  1  0.93040970  -0.69257007  0.98891148  1.0
  F  F47  1  0.30742993  -0.06959030  0.51108852  1.0
  F  F48  1  1.23512488  0.51344390  0.39714708  1.0
  F  F49  1  1.51344390  0.23512488  0.10285292  1.0
  F  F50  1  0.76487512  -0.51344390  0.60285292  1.0
  F  F51  1  0.48655610  -0.23512488  0.89714708  1.0
