# generated using pymatgen
data_Ba2FeO4
_symmetry_space_group_name_H-M   'P 1'
_cell_length_a   6.22665121
_cell_length_b   7.72994064
_cell_length_c   11.52158387
_cell_angle_alpha   90.00000000
_cell_angle_beta   118.09819615
_cell_angle_gamma   90.00000000
_symmetry_Int_Tables_number   1
_chemical_formula_structural   Ba2FeO4
_chemical_formula_sum   'Ba8 Fe4 O16'
_cell_volume   489.19412478
_cell_formula_units_Z   4
loop_
 _symmetry_equiv_pos_site_id
 _symmetry_equiv_pos_as_xyz
  1  'x, y, z'
loop_
 _atom_site_type_symbol
 _atom_site_label
 _atom_site_symmetry_multiplicity
 _atom_site_fract_x
 _atom_site_fract_y
 _atom_site_fract_z
 _atom_site_occupancy
  Ba  Ba0  1  0.97816988  0.49210341  0.19650567  1.0
  Ba  Ba1  1  0.97816988  0.00789659  0.69650567  1.0
  Ba  Ba2  1  0.02183012  0.99210341  0.30349433  1.0
  Ba  Ba3  1  0.02183012  0.50789659  0.80349433  1.0
  Ba  Ba4  1  0.32152344  0.15440237  0.07705219  1.0
  Ba  Ba5  1  0.32152344  0.34559763  0.57705219  1.0
  Ba  Ba6  1  0.67847656  0.65440237  0.42294781  1.0
  Ba  Ba7  1  0.67847656  0.84559763  0.92294781  1.0
  Fe  Fe8  1  0.65865495  0.22185686  0.41641575  1.0
  Fe  Fe9  1  0.65865495  0.27814314  0.91641575  1.0
  Fe  Fe10  1  0.34134505  0.72185686  0.08358425  1.0
  Fe  Fe11  1  0.34134505  0.77814314  0.58358425  1.0
  O  O12  1  0.87100206  0.31471590  0.36972557  1.0
  O  O13  1  0.87100206  0.18528410  0.86972557  1.0
  O  O14  1  0.12899794  0.81471590  0.13027443  1.0
  O  O15  1  0.12899794  0.68528410  0.63027443  1.0
  O  O16  1  0.74847365  0.16251735  0.07015046  1.0
  O  O17  1  0.74847365  0.33748265  0.57015046  1.0
  O  O18  1  0.25152635  0.66251735  0.42984954  1.0
  O  O19  1  0.25152635  0.83748265  0.92984954  1.0
  O  O20  1  0.69587558  0.99593981  0.40015914  1.0
  O  O21  1  0.69587558  0.50406019  0.90015914  1.0
  O  O22  1  0.30412442  0.49593981  0.09984086  1.0
  O  O23  1  0.30412442  0.00406019  0.59984086  1.0
  O  O24  1  0.33404000  0.24942537  0.33689863  1.0
  O  O25  1  0.33404000  0.25057463  0.83689863  1.0
  O  O26  1  0.66596000  0.74942537  0.16310137  1.0
  O  O27  1  0.66596000  0.75057463  0.66310137  1.0
