# generated using pymatgen
data_SnPHO4
_symmetry_space_group_name_H-M   'P 1'
_cell_length_a   4.69241676
_cell_length_b   14.05919660
_cell_length_c   5.96240753
_cell_angle_alpha   90.00000000
_cell_angle_beta   99.42620685
_cell_angle_gamma   90.00000000
_symmetry_Int_Tables_number   1
_chemical_formula_structural   SnPHO4
_chemical_formula_sum   'Sn4 P4 H4 O16'
_cell_volume   388.03836223
_cell_formula_units_Z   4
loop_
 _symmetry_equiv_pos_site_id
 _symmetry_equiv_pos_as_xyz
  1  'x, y, z'
loop_
 _atom_site_type_symbol
 _atom_site_label
 _atom_site_symmetry_multiplicity
 _atom_site_fract_x
 _atom_site_fract_y
 _atom_site_fract_z
 _atom_site_occupancy
  Sn  Sn0  1  0.47637951  0.16299556  0.40480185  1.0
  Sn  Sn1  1  0.47637951  0.33700444  0.90480185  1.0
  Sn  Sn2  1  0.52362049  0.66299556  0.09519815  1.0
  Sn  Sn3  1  0.52362049  0.83700444  0.59519815  1.0
  P  P4  1  0.95935608  0.34963575  0.44813110  1.0
  P  P5  1  0.95935608  0.15036425  0.94813110  1.0
  P  P6  1  0.04064392  0.84963575  0.05186890  1.0
  P  P7  1  0.04064392  0.65036425  0.55186890  1.0
  H  H8  1  0.90965603  0.98746459  0.19182253  1.0
  H  H9  1  0.90965603  0.51253541  0.69182253  1.0
  H  H10  1  0.09034397  0.48746459  0.30817747  1.0
  H  H11  1  0.09034397  0.01253541  0.80817747  1.0
  O  O12  1  0.94775210  0.91769656  0.24006617  1.0
  O  O13  1  0.94775210  0.58230344  0.74006617  1.0
  O  O14  1  0.05224790  0.41769656  0.25993383  1.0
  O  O15  1  0.05224790  0.08230344  0.75993383  1.0
  O  O16  1  0.85628287  0.09309825  0.13848239  1.0
  O  O17  1  0.85628287  0.40690175  0.63848239  1.0
  O  O18  1  0.14371713  0.59309825  0.36151761  1.0
  O  O19  1  0.14371713  0.90690175  0.86151761  1.0
  O  O20  1  0.77564709  0.71391789  0.44786913  1.0
  O  O21  1  0.77564709  0.78608211  0.94786913  1.0
  O  O22  1  0.22435291  0.21391789  0.05213087  1.0
  O  O23  1  0.22435291  0.28608211  0.55213087  1.0
  O  O24  1  0.72330248  0.28517825  0.31008923  1.0
  O  O25  1  0.72330248  0.21482175  0.81008923  1.0
  O  O26  1  0.27669752  0.78517825  0.18991077  1.0
  O  O27  1  0.27669752  0.71482175  0.68991077  1.0
