# generated using pymatgen
data_LaNiSb3
_symmetry_space_group_name_H-M   'P 1'
_cell_length_a   12.98153435
_cell_length_b   6.30240520
_cell_length_c   12.28857539
_cell_angle_alpha   90.00000000
_cell_angle_beta   90.00000000
_cell_angle_gamma   90.00000000
_symmetry_Int_Tables_number   1
_chemical_formula_structural   LaNiSb3
_chemical_formula_sum   'La8 Ni8 Sb24'
_cell_volume   1005.38843782
_cell_formula_units_Z   8
loop_
 _symmetry_equiv_pos_site_id
 _symmetry_equiv_pos_as_xyz
  1  'x, y, z'
loop_
 _atom_site_type_symbol
 _atom_site_label
 _atom_site_symmetry_multiplicity
 _atom_site_fract_x
 _atom_site_fract_y
 _atom_site_fract_z
 _atom_site_occupancy
  La  La0  1  0.80288792  0.72159370  0.75000000  1.0
  La  La1  1  0.80288792  0.77840630  0.25000000  1.0
  La  La2  1  0.19711208  0.22159370  0.75000000  1.0
  La  La3  1  0.19711208  0.27840630  0.25000000  1.0
  La  La4  1  0.20118259  0.75000000  -0.00000000  1.0
  La  La5  1  0.20118259  0.75000000  0.50000000  1.0
  La  La6  1  0.79881741  0.25000000  -0.00000000  1.0
  La  La7  1  0.79881741  0.25000000  0.50000000  1.0
  Ni  Ni8  1  0.59632303  0.95249193  0.86385122  1.0
  Ni  Ni9  1  0.59632303  0.95249193  0.63614878  1.0
  Ni  Ni10  1  0.59632303  0.54750807  0.36385122  1.0
  Ni  Ni11  1  0.59632303  0.54750807  0.13614878  1.0
  Ni  Ni12  1  0.40367697  0.45249193  0.86385122  1.0
  Ni  Ni13  1  0.40367697  0.45249193  0.63614878  1.0
  Ni  Ni14  1  0.40367697  0.04750807  0.36385122  1.0
  Ni  Ni15  1  0.40367697  0.04750807  0.13614878  1.0
  Sb  Sb16  1  0.99702368  0.98555885  0.87641067  1.0
  Sb  Sb17  1  0.99702368  0.98555885  0.62358933  1.0
  Sb  Sb18  1  0.99702368  0.51444115  0.37641067  1.0
  Sb  Sb19  1  0.99702368  0.51444115  0.12358933  1.0
  Sb  Sb20  1  0.00297632  0.48555885  0.87641067  1.0
  Sb  Sb21  1  0.00297632  0.48555885  0.62358933  1.0
  Sb  Sb22  1  0.00297632  0.01444115  0.37641067  1.0
  Sb  Sb23  1  0.00297632  0.01444115  0.12358933  1.0
  Sb  Sb24  1  0.55587375  0.59453312  0.75000000  1.0
  Sb  Sb25  1  0.55587375  0.90546688  0.25000000  1.0
  Sb  Sb26  1  0.44412625  0.09453312  0.75000000  1.0
  Sb  Sb27  1  0.44412625  0.40546688  0.25000000  1.0
  Sb  Sb28  1  0.28691189  0.72233318  0.75000000  1.0
  Sb  Sb29  1  0.28691189  0.77766682  0.25000000  1.0
  Sb  Sb30  1  0.71308811  0.22233318  0.75000000  1.0
  Sb  Sb31  1  0.71308811  0.27766682  0.25000000  1.0
  Sb  Sb32  1  0.71914706  0.75000000  -0.00000000  1.0
  Sb  Sb33  1  0.71914706  0.75000000  0.50000000  1.0
  Sb  Sb34  1  0.28085294  0.25000000  0.00000000  1.0
  Sb  Sb35  1  0.28085294  0.25000000  0.50000000  1.0
  Sb  Sb36  1  0.47226310  0.75000000  -0.00000000  1.0
  Sb  Sb37  1  0.47226310  0.75000000  0.50000000  1.0
  Sb  Sb38  1  0.52773690  0.25000000  -0.00000000  1.0
  Sb  Sb39  1  0.52773690  0.25000000  0.50000000  1.0
