# generated using pymatgen
data_Cd6Sb5
_symmetry_space_group_name_H-M   'P 1'
_cell_length_a   9.26710284
_cell_length_b   9.26710284
_cell_length_c   9.26710284
_cell_angle_alpha   94.12065307
_cell_angle_beta   94.12065307
_cell_angle_gamma   94.12065307
_symmetry_Int_Tables_number   1
_chemical_formula_structural   Cd6Sb5
_chemical_formula_sum   'Cd12 Sb10'
_cell_volume   789.36564380
_cell_formula_units_Z   2
loop_
 _symmetry_equiv_pos_site_id
 _symmetry_equiv_pos_as_xyz
  1  'x, y, z'
loop_
 _atom_site_type_symbol
 _atom_site_label
 _atom_site_symmetry_multiplicity
 _atom_site_fract_x
 _atom_site_fract_y
 _atom_site_fract_z
 _atom_site_occupancy
  Cd  Cd0  1  1.42778795  0.81751856  -0.23215279  1.0
  Cd  Cd1  1  0.81751856  0.76784721  0.42778795  1.0
  Cd  Cd2  1  0.76784721  1.42778795  -0.18248144  1.0
  Cd  Cd3  1  0.92778795  0.26784721  -0.68248144  1.0
  Cd  Cd4  1  0.26784721  0.31751856  -0.07221205  1.0
  Cd  Cd5  1  0.31751856  0.92778795  -0.73215279  1.0
  Cd  Cd6  1  0.57221205  0.18248144  0.23215279  1.0
  Cd  Cd7  1  1.18248144  0.23215279  -0.42778795  1.0
  Cd  Cd8  1  1.23215279  -0.42778795  0.18248144  1.0
  Cd  Cd9  1  1.07221205  0.73215279  0.68248144  1.0
  Cd  Cd10  1  1.73215279  0.68248144  0.07221205  1.0
  Cd  Cd11  1  1.68248144  0.07221205  0.73215279  1.0
  Sb  Sb12  1  0.65282360  0.65282360  0.65282360  1.0
  Sb  Sb13  1  0.15282360  0.15282360  0.15282360  1.0
  Sb  Sb14  1  0.34717640  0.34717640  0.34717640  1.0
  Sb  Sb15  1  0.84717640  0.84717640  0.84717640  1.0
  Sb  Sb16  1  0.94054477  0.55945523  0.25000000  1.0
  Sb  Sb17  1  0.55945523  1.25000000  -0.05945523  1.0
  Sb  Sb18  1  1.25000000  0.94054477  -0.44054477  1.0
  Sb  Sb19  1  1.44054477  -0.25000000  0.05945523  1.0
  Sb  Sb20  1  0.75000000  0.05945523  0.44054477  1.0
  Sb  Sb21  1  1.05945523  0.44054477  -0.25000000  1.0
