# generated using pymatgen
data_Y(PO)2
_symmetry_space_group_name_H-M   'P 1'
_cell_length_a   7.98305872
_cell_length_b   7.98305872
_cell_length_c   7.98305872
_cell_angle_alpha   104.15889409
_cell_angle_beta   104.15889409
_cell_angle_gamma   120.71555783
_symmetry_Int_Tables_number   1
_chemical_formula_structural   Y(PO)2
_chemical_formula_sum   'Y4 P8 O8'
_cell_volume   380.14288710
_cell_formula_units_Z   4
loop_
 _symmetry_equiv_pos_site_id
 _symmetry_equiv_pos_as_xyz
  1  'x, y, z'
loop_
 _atom_site_type_symbol
 _atom_site_label
 _atom_site_symmetry_multiplicity
 _atom_site_fract_x
 _atom_site_fract_y
 _atom_site_fract_z
 _atom_site_occupancy
  Y  Y0  1  1.37500000  1.12500000  1.25000000  1.0
  Y  Y1  1  0.87500000  1.12500000  0.75000000  1.0
  Y  Y2  1  0.87500000  1.12500000  0.25000000  1.0
  Y  Y3  1  0.87500000  1.62500000  0.75000000  1.0
  P  P4  1  1.19956517  1.48851531  0.71104985  1.0
  P  P5  1  0.97253454  0.76148469  0.21104985  1.0
  P  P6  1  0.77746546  0.48851531  0.28895015  1.0
  P  P7  1  1.55043483  0.76148469  0.78895015  1.0
  P  P8  1  0.51148469  0.22253454  0.71104985  1.0
  P  P9  1  1.23851531  1.44956517  1.21104985  1.0
  P  P10  1  0.51148469  0.80043483  0.28895015  1.0
  P  P11  1  1.23851531  1.02746546  0.78895015  1.0
  O  O12  1  1.22271792  1.37662504  0.84609288  1.0
  O  O13  1  1.21946784  0.87337496  1.34609288  1.0
  O  O14  1  0.53053216  0.37662504  0.15390712  1.0
  O  O15  1  0.52728208  0.87337496  0.65390712  1.0
  O  O16  1  0.62337496  0.46946784  0.84609288  1.0
  O  O17  1  1.12662504  1.47271792  0.34609288  1.0
  O  O18  1  0.62337496  0.77728208  0.15390712  1.0
  O  O19  1  1.12662504  1.78053216  0.65390712  1.0
