# generated using pymatgen
data_K2ReCl5O
_symmetry_space_group_name_H-M   'P 1'
_cell_length_a   13.55451960
_cell_length_b   10.15517172
_cell_length_c   6.98341494
_cell_angle_alpha   90.00000000
_cell_angle_beta   90.00000000
_cell_angle_gamma   90.00000000
_symmetry_Int_Tables_number   1
_chemical_formula_structural   K2ReCl5O
_chemical_formula_sum   'K8 Re4 Cl20 O4'
_cell_volume   961.25641040
_cell_formula_units_Z   4
loop_
 _symmetry_equiv_pos_site_id
 _symmetry_equiv_pos_as_xyz
  1  'x, y, z'
loop_
 _atom_site_type_symbol
 _atom_site_label
 _atom_site_symmetry_multiplicity
 _atom_site_fract_x
 _atom_site_fract_y
 _atom_site_fract_z
 _atom_site_occupancy
  K  K0  1  0.64151906  0.49841355  0.32467601  1.0
  K  K1  1  0.64151906  0.00158645  0.32467601  1.0
  K  K2  1  0.14151906  0.49841355  0.17532399  1.0
  K  K3  1  0.14151906  0.00158645  0.17532399  1.0
  K  K4  1  0.35848094  0.99841355  0.67532399  1.0
  K  K5  1  0.35848094  0.50158645  0.67532399  1.0
  K  K6  1  0.85848094  0.99841355  0.82467601  1.0
  K  K7  1  0.85848094  0.50158645  0.82467601  1.0
  Re  Re8  1  0.90311319  0.25000000  0.32331641  1.0
  Re  Re9  1  0.40311319  0.25000000  0.17668359  1.0
  Re  Re10  1  0.09688681  0.75000000  0.67668359  1.0
  Re  Re11  1  0.59688681  0.75000000  0.82331641  1.0
  Cl  Cl12  1  0.88969761  0.48458048  0.30297776  1.0
  Cl  Cl13  1  0.88969761  0.01541952  0.30297776  1.0
  Cl  Cl14  1  0.38969761  0.48458048  0.19702224  1.0
  Cl  Cl15  1  0.38969761  0.01541952  0.19702224  1.0
  Cl  Cl16  1  0.11030239  0.98458048  0.69702224  1.0
  Cl  Cl17  1  0.11030239  0.51541952  0.69702224  1.0
  Cl  Cl18  1  0.61030239  0.98458048  0.80297776  1.0
  Cl  Cl19  1  0.61030239  0.51541952  0.80297776  1.0
  Cl  Cl20  1  0.99602094  0.25000000  0.03125272  1.0
  Cl  Cl21  1  0.49602094  0.25000000  0.46874728  1.0
  Cl  Cl22  1  0.00397906  0.75000000  0.96874728  1.0
  Cl  Cl23  1  0.50397906  0.75000000  0.53125272  1.0
  Cl  Cl24  1  0.78039055  0.25000000  0.56973175  1.0
  Cl  Cl25  1  0.28039055  0.25000000  0.93026825  1.0
  Cl  Cl26  1  0.21960945  0.75000000  0.43026825  1.0
  Cl  Cl27  1  0.71960945  0.75000000  0.06973175  1.0
  Cl  Cl28  1  0.75495935  0.25000000  0.10197560  1.0
  Cl  Cl29  1  0.25495935  0.25000000  0.39802440  1.0
  Cl  Cl30  1  0.24504065  0.75000000  0.89802440  1.0
  Cl  Cl31  1  0.74504065  0.75000000  0.60197560  1.0
  O  O32  1  0.00080893  0.25000000  0.47195333  1.0
  O  O33  1  0.50080893  0.25000000  0.02804667  1.0
  O  O34  1  0.99919107  0.75000000  0.52804667  1.0
  O  O35  1  0.49919107  0.75000000  0.97195333  1.0
