# generated using pymatgen
data_Li3Zn2SbO6
_symmetry_space_group_name_H-M   'P 1'
_cell_length_a   5.29479049
_cell_length_b   5.29479049
_cell_length_c   5.25987323
_cell_angle_alpha   79.95746298
_cell_angle_beta   100.04253702
_cell_angle_gamma   60.33126969
_symmetry_Int_Tables_number   1
_chemical_formula_structural   Li3Zn2SbO6
_chemical_formula_sum   'Li3 Zn2 Sb1 O6'
_cell_volume   120.16557824
_cell_formula_units_Z   1
loop_
 _symmetry_equiv_pos_site_id
 _symmetry_equiv_pos_as_xyz
  1  'x, y, z'
loop_
 _atom_site_type_symbol
 _atom_site_label
 _atom_site_symmetry_multiplicity
 _atom_site_fract_x
 _atom_site_fract_y
 _atom_site_fract_z
 _atom_site_occupancy
  Li  Li0  1  0.66939993  -0.33060007  0.50000000  1.0
  Li  Li1  1  1.33060007  0.33060007  0.50000000  1.0
  Li  Li2  1  0.00000000  -0.00000000  0.50000000  1.0
  Zn  Zn3  1  0.83345395  -0.16654605  0.00000000  1.0
  Zn  Zn4  1  1.16654605  0.16654605  0.00000000  1.0
  Sb  Sb5  1  0.50000000  -0.50000000  0.00000000  1.0
  O  O6  1  0.42223253  -0.10714563  0.76296712  1.0
  O  O7  1  1.10714563  0.57776747  0.76296712  1.0
  O  O8  1  0.89285437  -0.57776747  0.23703288  1.0
  O  O9  1  1.57776747  0.10714563  0.23703288  1.0
  O  O10  1  0.73660135  -0.73660135  0.77114685  1.0
  O  O11  1  0.26339865  -0.26339865  0.22885315  1.0
