# generated using pymatgen
data_Sr4Li2Ta2Al2N8O
_symmetry_space_group_name_H-M   'P 1'
_cell_length_a   6.05108081
_cell_length_b   10.03779643
_cell_length_c   10.95151795
_cell_angle_alpha   90.00000000
_cell_angle_beta   120.23714280
_cell_angle_gamma   90.00000000
_symmetry_Int_Tables_number   1
_chemical_formula_structural   Sr4Li2Ta2Al2N8O
_chemical_formula_sum   'Sr8 Li4 Ta4 Al4 N16 O2'
_cell_volume   574.68984892
_cell_formula_units_Z   2
loop_
 _symmetry_equiv_pos_site_id
 _symmetry_equiv_pos_as_xyz
  1  'x, y, z'
loop_
 _atom_site_type_symbol
 _atom_site_label
 _atom_site_symmetry_multiplicity
 _atom_site_fract_x
 _atom_site_fract_y
 _atom_site_fract_z
 _atom_site_occupancy
  Sr  Sr0  1  0.06771570  0.75508393  0.07140478  1.0
  Sr  Sr1  1  0.06771570  0.74491607  0.57140478  1.0
  Sr  Sr2  1  0.93228430  0.25508393  0.42859522  1.0
  Sr  Sr3  1  0.93228430  0.24491607  0.92859522  1.0
  Sr  Sr4  1  0.73741000  0.56248395  0.20509410  1.0
  Sr  Sr5  1  0.73741000  0.93751605  0.70509410  1.0
  Sr  Sr6  1  0.26259000  0.06248395  0.29490590  1.0
  Sr  Sr7  1  0.26259000  0.43751605  0.79490590  1.0
  Li  Li8  1  0.30747769  0.98696521  0.00373537  1.0
  Li  Li9  1  0.30747769  0.51303479  0.50373537  1.0
  Li  Li10  1  0.69252231  0.48696521  0.49626463  1.0
  Li  Li11  1  0.69252231  0.01303479  0.99626463  1.0
  Ta  Ta12  1  0.27529599  0.40016613  0.24113613  1.0
  Ta  Ta13  1  0.27529599  0.09983387  0.74113613  1.0
  Ta  Ta14  1  0.72470401  0.90016613  0.25886387  1.0
  Ta  Ta15  1  0.72470401  0.59983387  0.75886387  1.0
  Al  Al16  1  0.38654442  0.74681260  0.40295451  1.0
  Al  Al17  1  0.38654442  0.75318740  0.90295451  1.0
  Al  Al18  1  0.61345558  0.24681260  0.09704549  1.0
  Al  Al19  1  0.61345558  0.25318740  0.59704549  1.0
  N  N20  1  0.06863696  0.83354671  0.32947768  1.0
  N  N21  1  0.06863696  0.66645329  0.82947768  1.0
  N  N22  1  0.93136304  0.33354671  0.17052232  1.0
  N  N23  1  0.93136304  0.16645329  0.67052232  1.0
  N  N24  1  0.31770545  0.58623303  0.29872124  1.0
  N  N25  1  0.31770545  0.91376697  0.79872124  1.0
  N  N26  1  0.68229455  0.08623303  0.20127876  1.0
  N  N27  1  0.68229455  0.41376697  0.70127876  1.0
  N  N28  1  0.50244432  0.80121634  0.08955470  1.0
  N  N29  1  0.50244432  0.69878366  0.58955470  1.0
  N  N30  1  0.49755568  0.30121634  0.41044530  1.0
  N  N31  1  0.49755568  0.19878366  0.91044530  1.0
  N  N32  1  0.61832935  0.86795855  0.39834315  1.0
  N  N33  1  0.61832935  0.63204145  0.89834315  1.0
  N  N34  1  0.38167065  0.36795855  0.10165685  1.0
  N  N35  1  0.38167065  0.13204145  0.60165685  1.0
  O  O36  1  0.00000000  0.00000000  0.00000000  1.0
  O  O37  1  0.00000000  0.50000000  0.50000000  1.0
