# generated using pymatgen
data_SrIn2Rh
_symmetry_space_group_name_H-M   'P 1'
_cell_length_a   5.92051213
_cell_length_b   5.92051213
_cell_length_c   8.16789039
_cell_angle_alpha   90.00000000
_cell_angle_beta   90.00000000
_cell_angle_gamma   136.61154293
_symmetry_Int_Tables_number   1
_chemical_formula_structural   SrIn2Rh
_chemical_formula_sum   'Sr2 In4 Rh2'
_cell_volume   196.67445984
_cell_formula_units_Z   2
loop_
 _symmetry_equiv_pos_site_id
 _symmetry_equiv_pos_as_xyz
  1  'x, y, z'
loop_
 _atom_site_type_symbol
 _atom_site_label
 _atom_site_symmetry_multiplicity
 _atom_site_fract_x
 _atom_site_fract_y
 _atom_site_fract_z
 _atom_site_occupancy
  Sr  Sr0  1  0.06003559  0.93996441  0.75000000  1.0
  Sr  Sr1  1  -0.06003559  0.06003559  0.25000000  1.0
  In  In2  1  0.34543510  0.65456490  0.94663208  1.0
  In  In3  1  0.34543510  0.65456490  0.55336792  1.0
  In  In4  1  -0.34543510  0.34543510  0.44663208  1.0
  In  In5  1  -0.34543510  0.34543510  0.05336792  1.0
  Rh  Rh6  1  -0.21835969  0.21835969  0.75000000  1.0
  Rh  Rh7  1  0.21835969  0.78164031  0.25000000  1.0
