# generated using pymatgen
data_AlH2Pb3OF9
_symmetry_space_group_name_H-M   'P 1'
_cell_length_a   5.98999978
_cell_length_b   5.76244855
_cell_length_c   12.88753452
_cell_angle_alpha   93.79378936
_cell_angle_beta   99.47861337
_cell_angle_gamma   90.30313503
_symmetry_Int_Tables_number   1
_chemical_formula_structural   AlH2Pb3OF9
_chemical_formula_sum   'Al2 H4 Pb6 O2 F18'
_cell_volume   437.74582633
_cell_formula_units_Z   2
loop_
 _symmetry_equiv_pos_site_id
 _symmetry_equiv_pos_as_xyz
  1  'x, y, z'
loop_
 _atom_site_type_symbol
 _atom_site_label
 _atom_site_symmetry_multiplicity
 _atom_site_fract_x
 _atom_site_fract_y
 _atom_site_fract_z
 _atom_site_occupancy
  Al  Al0  1  -0.87684446  -0.69411241  -0.69054056  1.0
  Al  Al1  1  -0.12315554  -0.30588759  -0.30945944  1.0
  H  H2  1  -0.16858320  -0.90406659  -0.42786157  1.0
  H  H3  1  -0.83141680  -0.09593341  -0.57213843  1.0
  H  H4  1  -0.74666535  -0.32632884  -0.51773832  1.0
  H  H5  1  -0.25333465  -0.67367116  -0.48226168  1.0
  Pb  Pb6  1  -0.62540824  -0.81878220  -0.36691753  1.0
  Pb  Pb7  1  -0.37459176  -0.18121780  -0.63308247  1.0
  Pb  Pb8  1  -0.98836995  -0.23092543  -0.88552062  1.0
  Pb  Pb9  1  -0.01163005  -0.76907457  -0.11447938  1.0
  Pb  Pb10  1  -0.43802146  -0.75058180  -0.88012313  1.0
  Pb  Pb11  1  -0.56197854  -0.24941820  -0.11987687  1.0
  O  O12  1  -0.29073708  -0.84108539  -0.47993980  1.0
  O  O13  1  -0.70926292  -0.15891461  -0.52006020  1.0
  F  F14  1  -0.98934787  -0.77637154  -0.83177177  1.0
  F  F15  1  -0.01065213  -0.22362846  -0.16822823  1.0
  F  F16  1  -0.73911554  -1.00322128  -0.98784676  1.0
  F  F17  1  -0.26088446  0.00322128  -0.01215324  1.0
  F  F18  1  -0.77156110  -0.61815336  -0.55204206  1.0
  F  F19  1  -0.22843890  -0.38184664  -0.44795794  1.0
  F  F20  1  -0.00880570  -0.96294962  -0.65616851  1.0
  F  F21  1  -0.99119430  -0.03705038  -0.34383149  1.0
  F  F22  1  -0.75051329  -0.50332705  -0.99816556  1.0
  F  F23  1  -0.24948671  -0.49667295  -0.00183444  1.0
  F  F24  1  -0.62311276  -0.86656656  -0.70804262  1.0
  F  F25  1  -0.37688724  -0.13343344  -0.29195738  1.0
  F  F26  1  -0.86411920  -0.47083912  -0.30905840  1.0
  F  F27  1  -0.13588080  -0.52916088  -0.69094160  1.0
  F  F28  1  -0.72701324  -0.44200627  -0.73150311  1.0
  F  F29  1  -0.27298676  -0.55799373  -0.26849689  1.0
  F  F30  1  -0.64415280  -0.85001798  -0.17588694  1.0
  F  F31  1  -0.35584720  -0.14998202  -0.82411306  1.0
