# generated using pymatgen
data_Tl3Ir(NO2)6
_symmetry_space_group_name_H-M   'P 1'
_cell_length_a   7.64476699
_cell_length_b   7.64476699
_cell_length_c   7.64476699
_cell_angle_alpha   60.00000000
_cell_angle_beta   60.00000000
_cell_angle_gamma   60.00000000
_symmetry_Int_Tables_number   1
_chemical_formula_structural   Tl3Ir(NO2)6
_chemical_formula_sum   'Tl3 Ir1 N6 O12'
_cell_volume   315.92046539
_cell_formula_units_Z   1
loop_
 _symmetry_equiv_pos_site_id
 _symmetry_equiv_pos_as_xyz
  1  'x, y, z'
loop_
 _atom_site_type_symbol
 _atom_site_label
 _atom_site_symmetry_multiplicity
 _atom_site_fract_x
 _atom_site_fract_y
 _atom_site_fract_z
 _atom_site_occupancy
  Tl  Tl0  1  0.75000000  0.75000000  -0.25000000  1.0
  Tl  Tl1  1  1.25000000  0.25000000  0.25000000  1.0
  Tl  Tl2  1  -0.50000000  0.50000000  0.50000000  1.0
  Ir  Ir3  1  0.00000000  0.00000000  -0.00000000  1.0
  N  N4  1  -0.81451419  0.81451419  0.81451419  1.0
  N  N5  1  -0.18548581  0.18548581  0.81451419  1.0
  N  N6  1  0.81451419  0.81451419  -0.81451419  1.0
  N  N7  1  0.18548581  1.18548581  -0.18548581  1.0
  N  N8  1  0.18548581  -0.18548581  1.18548581  1.0
  N  N9  1  -0.18548581  0.18548581  0.18548581  1.0
  O  O10  1  1.58490384  -0.00000000  0.00000000  1.0
  O  O11  1  1.00000000  0.41509616  -0.41509616  1.0
  O  O12  1  1.00000000  0.58490384  -0.58490384  1.0
  O  O13  1  1.41509616  0.00000000  -0.00000000  1.0
  O  O14  1  0.00000000  1.58490384  0.00000000  1.0
  O  O15  1  0.41509616  1.00000000  -0.41509616  1.0
  O  O16  1  -0.00000000  -0.00000000  0.58490384  1.0
  O  O17  1  0.41509616  -0.41509616  1.00000000  1.0
  O  O18  1  0.58490384  1.00000000  -0.58490384  1.0
  O  O19  1  -0.00000000  1.41509616  0.00000000  1.0
  O  O20  1  0.58490384  -0.58490384  1.00000000  1.0
  O  O21  1  -0.00000000  -0.00000000  0.41509616  1.0
