# generated using pymatgen
data_Ca5Ag3
_symmetry_space_group_name_H-M   'P 1'
_cell_length_a   9.37253595
_cell_length_b   9.37253595
_cell_length_c   9.37253595
_cell_angle_alpha   129.42754739
_cell_angle_beta   129.42754739
_cell_angle_gamma   74.32359783
_symmetry_Int_Tables_number   1
_chemical_formula_structural   Ca5Ag3
_chemical_formula_sum   'Ca10 Ag6'
_cell_volume   478.84460017
_cell_formula_units_Z   2
loop_
 _symmetry_equiv_pos_site_id
 _symmetry_equiv_pos_as_xyz
  1  'x, y, z'
loop_
 _atom_site_type_symbol
 _atom_site_label
 _atom_site_symmetry_multiplicity
 _atom_site_fract_x
 _atom_site_fract_y
 _atom_site_fract_z
 _atom_site_occupancy
  Ca  Ca0  1  1.18677807  0.68677807  1.16402729  1.0
  Ca  Ca1  1  0.47724922  0.97724922  1.16402729  1.0
  Ca  Ca2  1  1.02275078  1.18677807  1.50000000  1.0
  Ca  Ca3  1  0.31322193  0.47724922  0.50000000  1.0
  Ca  Ca4  1  0.68677807  0.52275078  0.50000000  1.0
  Ca  Ca5  1  0.97724922  0.81322193  1.50000000  1.0
  Ca  Ca6  1  0.52275078  1.02275078  0.83597271  1.0
  Ca  Ca7  1  0.81322193  0.31322193  0.83597271  1.0
  Ca  Ca8  1  0.00000000  0.00000000  0.00000000  1.0
  Ca  Ca9  1  0.50000000  0.50000000  1.00000000  1.0
  Ag  Ag10  1  0.87369212  0.37369212  1.24738423  1.0
  Ag  Ag11  1  0.62630788  0.87369212  1.50000000  1.0
  Ag  Ag12  1  0.37369212  0.12630788  0.50000000  1.0
  Ag  Ag13  1  0.12630788  0.62630788  0.75261577  1.0
  Ag  Ag14  1  0.75000000  0.75000000  1.00000000  1.0
  Ag  Ag15  1  0.25000000  0.25000000  0.00000000  1.0
