# generated using pymatgen
data_Y3Ga9Pt2
_symmetry_space_group_name_H-M   'P 1'
_cell_length_a   8.23717200
_cell_length_b   8.23717200
_cell_length_c   8.23717200
_cell_angle_alpha   150.33428526
_cell_angle_beta   104.55085472
_cell_angle_gamma   83.09825623
_symmetry_Int_Tables_number   1
_chemical_formula_structural   Y3Ga9Pt2
_chemical_formula_sum   'Y3 Ga9 Pt2'
_cell_volume   262.07016260
_cell_formula_units_Z   1
loop_
 _symmetry_equiv_pos_site_id
 _symmetry_equiv_pos_as_xyz
  1  'x, y, z'
loop_
 _atom_site_type_symbol
 _atom_site_label
 _atom_site_symmetry_multiplicity
 _atom_site_fract_x
 _atom_site_fract_y
 _atom_site_fract_z
 _atom_site_occupancy
  Y  Y0  1  0.00000000  0.00000000  0.00000000  1.0
  Y  Y1  1  0.67640075  0.67640075  1.00000000  1.0
  Y  Y2  1  1.32359925  1.32359925  1.00000000  1.0
  Ga  Ga3  1  0.50000000  -0.00000000  0.50000000  1.0
  Ga  Ga4  1  1.29357409  0.66875317  0.62482092  1.0
  Ga  Ga5  1  0.70642591  0.33124683  0.37517908  1.0
  Ga  Ga6  1  1.04393226  0.66875317  0.37517908  1.0
  Ga  Ga7  1  0.95606774  0.33124683  0.62482092  1.0
  Ga  Ga8  1  1.59134554  0.87068688  0.72065866  1.0
  Ga  Ga9  1  0.40865446  0.12931312  0.27934134  1.0
  Ga  Ga10  1  1.15002822  0.87068688  0.27934134  1.0
  Ga  Ga11  1  0.84997178  0.12931312  0.72065866  1.0
  Pt  Pt12  1  0.27233269  0.50000000  0.77233269  1.0
  Pt  Pt13  1  0.72766731  0.50000000  1.22766731  1.0
