# generated using pymatgen
data_Tb2Fe17
_symmetry_space_group_name_H-M   'P 1'
_cell_length_a   6.36496999
_cell_length_b   6.36496999
_cell_length_c   6.36496999
_cell_angle_alpha   82.20720379
_cell_angle_beta   82.20720379
_cell_angle_gamma   82.20720379
_symmetry_Int_Tables_number   1
_chemical_formula_structural   Tb2Fe17
_chemical_formula_sum   'Tb2 Fe17'
_cell_volume   251.31142240
_cell_formula_units_Z   1
loop_
 _symmetry_equiv_pos_site_id
 _symmetry_equiv_pos_as_xyz
  1  'x, y, z'
loop_
 _atom_site_type_symbol
 _atom_site_label
 _atom_site_symmetry_multiplicity
 _atom_site_fract_x
 _atom_site_fract_y
 _atom_site_fract_z
 _atom_site_occupancy
  Tb  Tb0  1  0.65773170  0.65773170  -0.34226830  1.0
  Tb  Tb1  1  1.34226830  1.34226830  0.34226830  1.0
  Fe  Fe2  1  0.34206245  0.34206245  -0.15831435  1.0
  Fe  Fe3  1  0.34206245  0.84168565  -0.65793755  1.0
  Fe  Fe4  1  0.15831435  0.65793755  -0.34206245  1.0
  Fe  Fe5  1  0.65793755  0.15831435  -0.34206245  1.0
  Fe  Fe6  1  0.65793755  -0.34206245  0.15831435  1.0
  Fe  Fe7  1  0.84168565  0.34206245  -0.65793755  1.0
  Fe  Fe8  1  0.70057004  -0.00000000  0.29942996  1.0
  Fe  Fe9  1  0.70057004  -0.70057004  -0.00000000  1.0
  Fe  Fe10  1  -0.00000000  0.70057004  -0.70057004  1.0
  Fe  Fe11  1  0.00000000  0.29942996  -0.29942996  1.0
  Fe  Fe12  1  1.29942996  0.00000000  -0.29942996  1.0
  Fe  Fe13  1  0.29942996  -0.29942996  -0.00000000  1.0
  Fe  Fe14  1  1.00000000  1.50000000  0.00000000  1.0
  Fe  Fe15  1  1.00000000  0.00000000  -0.50000000  1.0
  Fe  Fe16  1  0.50000000  0.00000000  0.00000000  1.0
  Fe  Fe17  1  0.90418308  0.90418308  -0.09581692  1.0
  Fe  Fe18  1  1.09581692  1.09581692  0.09581692  1.0
