# generated using pymatgen
data_BaAl2(PO5)2
_symmetry_space_group_name_H-M   'P 1'
_cell_length_a   6.12523737
_cell_length_b   4.99717582
_cell_length_c   6.72956595
_cell_angle_alpha   106.89962128
_cell_angle_beta   110.94017691
_cell_angle_gamma   92.92673440
_symmetry_Int_Tables_number   1
_chemical_formula_structural   BaAl2(PO5)2
_chemical_formula_sum   'Ba1 Al2 P2 O10'
_cell_volume   181.28392383
_cell_formula_units_Z   1
loop_
 _symmetry_equiv_pos_site_id
 _symmetry_equiv_pos_as_xyz
  1  'x, y, z'
loop_
 _atom_site_type_symbol
 _atom_site_label
 _atom_site_symmetry_multiplicity
 _atom_site_fract_x
 _atom_site_fract_y
 _atom_site_fract_z
 _atom_site_occupancy
  Al  Al0  1  -0.64213265  -0.68353914  -0.26399516  1.0
  Al  Al1  1  -0.35786735  -0.31646086  -0.73600484  1.0
  P  P2  1  -0.80053131  -0.31929980  -0.58779040  1.0
  P  P3  1  -0.19946869  -0.68070020  -0.41220960  1.0
  O  O4  1  -0.23371741  -0.92897844  -0.62632344  1.0
  O  O5  1  -0.76628259  -0.07102156  -0.37367656  1.0
  O  O6  1  -0.93763879  -0.61030645  -0.23209008  1.0
  O  O7  1  -0.06236121  -0.38969355  -0.76790992  1.0
  O  O8  1  -0.74491215  -0.59596330  -0.53360573  1.0
  O  O9  1  -0.25508785  -0.40403670  -0.46639427  1.0
  O  O10  1  -0.65050912  -0.24057845  -0.71261954  1.0
  O  O11  1  -0.34949088  -0.75942155  -0.28738046  1.0
  O  O12  1  -0.52442401  -0.67614821  -0.95328481  1.0
  O  O13  1  -0.47557599  -0.32385179  -0.04671519  1.0
  Ba  Ba14  1  0.00000000  0.00000000  0.00000000  1.0
