# generated using pymatgen
data_Zr3AlN
_symmetry_space_group_name_H-M   'P 1'
_cell_length_a   6.01875480
_cell_length_b   6.01875480
_cell_length_c   9.01358290
_cell_angle_alpha   90.00000000
_cell_angle_beta   90.00000000
_cell_angle_gamma   147.48691328
_symmetry_Int_Tables_number   1
_chemical_formula_structural   Zr3AlN
_chemical_formula_sum   'Zr6 Al2 N2'
_cell_volume   175.50235553
_cell_formula_units_Z   2
loop_
 _symmetry_equiv_pos_site_id
 _symmetry_equiv_pos_as_xyz
  1  'x, y, z'
loop_
 _atom_site_type_symbol
 _atom_site_label
 _atom_site_symmetry_multiplicity
 _atom_site_fract_x
 _atom_site_fract_y
 _atom_site_fract_z
 _atom_site_occupancy
  Zr  Zr0  1  0.04419794  0.95580206  0.75000000  1.0
  Zr  Zr1  1  -0.04419794  0.04419794  0.25000000  1.0
  Zr  Zr2  1  0.37355049  0.62644951  0.95801126  1.0
  Zr  Zr3  1  0.37355049  0.62644951  0.54198874  1.0
  Zr  Zr4  1  -0.37355049  0.37355049  0.45801126  1.0
  Zr  Zr5  1  -0.37355049  0.37355049  0.04198874  1.0
  Al  Al6  1  -0.25255901  0.25255901  0.75000000  1.0
  Al  Al7  1  0.25255901  0.74744099  0.25000000  1.0
  N  N8  1  0.00000000  0.00000000  0.00000000  1.0
  N  N9  1  0.00000000  0.00000000  0.50000000  1.0
