# generated using pymatgen
data_BiBO3
_symmetry_space_group_name_H-M   'P 1'
_cell_length_a   6.66249306
_cell_length_b   5.11100897
_cell_length_c   8.50443848
_cell_angle_alpha   90.00000000
_cell_angle_beta   109.47443120
_cell_angle_gamma   90.00000000
_symmetry_Int_Tables_number   1
_chemical_formula_structural   BiBO3
_chemical_formula_sum   'Bi4 B4 O12'
_cell_volume   273.02611579
_cell_formula_units_Z   4
loop_
 _symmetry_equiv_pos_site_id
 _symmetry_equiv_pos_as_xyz
  1  'x, y, z'
loop_
 _atom_site_type_symbol
 _atom_site_label
 _atom_site_symmetry_multiplicity
 _atom_site_fract_x
 _atom_site_fract_y
 _atom_site_fract_z
 _atom_site_occupancy
  Bi  Bi0  1  0.25305795  0.26981869  0.37896749  1.0
  Bi  Bi1  1  0.25305795  0.23018131  0.87896749  1.0
  Bi  Bi2  1  0.74694205  0.76981869  0.12103251  1.0
  Bi  Bi3  1  0.74694205  0.73018131  0.62103251  1.0
  B  B4  1  0.78186790  0.24368726  0.38498821  1.0
  B  B5  1  0.78186790  0.25631274  0.88498821  1.0
  B  B6  1  0.21813210  0.74368726  0.11501179  1.0
  B  B7  1  0.21813210  0.75631274  0.61501179  1.0
  O  O8  1  0.91779389  0.38903209  0.32658519  1.0
  O  O9  1  0.91779389  0.11096791  0.82658519  1.0
  O  O10  1  0.08220611  0.88903209  0.17341481  1.0
  O  O11  1  0.08220611  0.61096791  0.67341481  1.0
  O  O12  1  0.75675062  0.97597051  0.35799514  1.0
  O  O13  1  0.75675062  0.52402949  0.85799514  1.0
  O  O14  1  0.24324938  0.47597051  0.14200486  1.0
  O  O15  1  0.24324938  0.02402949  0.64200486  1.0
  O  O16  1  0.66069339  0.36336684  0.46856063  1.0
  O  O17  1  0.66069339  0.13663316  0.96856063  1.0
  O  O18  1  0.33930661  0.86336684  0.03143937  1.0
  O  O19  1  0.33930661  0.63663316  0.53143937  1.0
