# generated using pymatgen
data_SrSi2
_symmetry_space_group_name_H-M   'P 1'
_cell_length_a   11.62813916
_cell_length_b   11.62813916
_cell_length_c   11.62813916
_cell_angle_alpha   150.21854194
_cell_angle_beta   150.21854194
_cell_angle_gamma   42.62070170
_symmetry_Int_Tables_number   1
_chemical_formula_structural   SrSi2
_chemical_formula_sum   'Sr4 Si8'
_cell_volume   386.91771598
_cell_formula_units_Z   4
loop_
 _symmetry_equiv_pos_site_id
 _symmetry_equiv_pos_as_xyz
  1  'x, y, z'
loop_
 _atom_site_type_symbol
 _atom_site_label
 _atom_site_symmetry_multiplicity
 _atom_site_fract_x
 _atom_site_fract_y
 _atom_site_fract_z
 _atom_site_occupancy
  Sr  Sr0  1  0.37500000  0.12500000  0.25000000  1.0
  Sr  Sr1  1  0.87500000  0.12500000  0.75000000  1.0
  Sr  Sr2  1  0.87500000  1.12500000  1.25000000  1.0
  Sr  Sr3  1  0.87500000  0.62500000  0.75000000  1.0
  Si  Si4  1  1.05001393  0.27191681  0.77809712  1.0
  Si  Si5  1  1.25618031  0.97808319  1.27809712  1.0
  Si  Si6  1  0.49381969  0.27191681  0.22190288  1.0
  Si  Si7  1  0.69998607  0.97808319  0.72190288  1.0
  Si  Si8  1  0.72808319  0.50618031  0.77809712  1.0
  Si  Si9  1  0.02191681  0.30001393  0.27809712  1.0
  Si  Si10  1  0.72808319  0.94998607  1.22190288  1.0
  Si  Si11  1  0.02191681  0.74381969  0.72190288  1.0
