# generated using pymatgen
data_Na6P2H2O9
_symmetry_space_group_name_H-M   'P 1'
_cell_length_a   5.58447084
_cell_length_b   5.58447084
_cell_length_c   17.23888313
_cell_angle_alpha   78.47090866
_cell_angle_beta   101.52909134
_cell_angle_gamma   121.09175035
_symmetry_Int_Tables_number   1
_chemical_formula_structural   Na6P2H2O9
_chemical_formula_sum   'Na12 P4 H4 O18'
_cell_volume   448.09211493
_cell_formula_units_Z   2
loop_
 _symmetry_equiv_pos_site_id
 _symmetry_equiv_pos_as_xyz
  1  'x, y, z'
loop_
 _atom_site_type_symbol
 _atom_site_label
 _atom_site_symmetry_multiplicity
 _atom_site_fract_x
 _atom_site_fract_y
 _atom_site_fract_z
 _atom_site_occupancy
  Na  Na0  1  0.68812170  -0.01298432  0.21516968  1.0
  Na  Na1  1  1.01298432  -0.68812170  0.71516968  1.0
  Na  Na2  1  0.98701568  0.68812170  0.28483032  1.0
  Na  Na3  1  1.31187830  0.01298432  0.78483032  1.0
  Na  Na4  1  1.78986940  0.15624099  0.04687311  1.0
  Na  Na5  1  0.84375901  -0.78986940  0.54687311  1.0
  Na  Na6  1  1.15624099  0.78986940  0.45312689  1.0
  Na  Na7  1  0.21013060  -0.15624099  0.95312689  1.0
  Na  Na8  1  1.40719032  -0.59547786  0.40234431  1.0
  Na  Na9  1  1.59547786  -0.40719032  0.90234431  1.0
  Na  Na10  1  0.40452214  0.40719032  0.09765569  1.0
  Na  Na11  1  0.59280968  0.59547786  0.59765569  1.0
  P  P12  1  0.73038283  0.04860787  0.38607711  1.0
  P  P13  1  0.95139213  -0.73038283  0.88607711  1.0
  P  P14  1  1.04860787  0.73038283  0.11392289  1.0
  P  P15  1  1.26961717  -0.04860787  0.61392289  1.0
  H  H16  1  0.43944858  0.27237354  0.27203339  1.0
  H  H17  1  0.72762646  0.56055142  0.77203339  1.0
  H  H18  1  1.27237354  -0.56055142  0.22796661  1.0
  H  H19  1  1.56055142  -0.27237354  0.72796661  1.0
  O  O20  1  1.94753562  0.01053341  0.35289092  1.0
  O  O21  1  0.98946659  -0.94753562  0.85289092  1.0
  O  O22  1  1.01053341  0.94753562  0.14710908  1.0
  O  O23  1  0.05246438  -0.01053341  0.64710908  1.0
  O  O24  1  0.62354565  -0.16443923  0.46241198  1.0
  O  O25  1  1.16443923  -0.62354565  0.96241198  1.0
  O  O26  1  0.83556077  0.62354565  0.03758802  1.0
  O  O27  1  1.37645435  0.16443923  0.53758802  1.0
  O  O28  1  0.46931225  -0.01073997  0.32170575  1.0
  O  O29  1  1.01073997  -0.46931225  0.82170575  1.0
  O  O30  1  0.98926003  0.46931225  0.17829425  1.0
  O  O31  1  1.53068775  0.01073997  0.67829425  1.0
  O  O32  1  0.35793401  -0.12947237  0.09319265  1.0
  O  O33  1  1.12947237  -0.35793401  0.59319265  1.0
  O  O34  1  0.87052763  0.35793401  0.40680735  1.0
  O  O35  1  1.64206599  0.12947237  0.90680735  1.0
  O  O36  1  0.46274372  0.46274372  0.25000000  1.0
  O  O37  1  0.53725628  0.53725628  0.75000000  1.0
