# generated using pymatgen
data_Na2SrSn4
_symmetry_space_group_name_H-M   'P 1'
_cell_length_a   10.16451295
_cell_length_b   10.16451295
_cell_length_c   6.64853543
_cell_angle_alpha   87.77514835
_cell_angle_beta   92.22485165
_cell_angle_gamma   140.74784344
_symmetry_Int_Tables_number   1
_chemical_formula_structural   Na2SrSn4
_chemical_formula_sum   'Na4 Sr2 Sn8'
_cell_volume   434.26161610
_cell_formula_units_Z   2
loop_
 _symmetry_equiv_pos_site_id
 _symmetry_equiv_pos_as_xyz
  1  'x, y, z'
loop_
 _atom_site_type_symbol
 _atom_site_label
 _atom_site_symmetry_multiplicity
 _atom_site_fract_x
 _atom_site_fract_y
 _atom_site_fract_z
 _atom_site_occupancy
  Na  Na0  1  0.68599460  0.09360922  0.77815438  1.0
  Na  Na1  1  0.90639078  0.31400540  0.27815438  1.0
  Na  Na2  1  1.09360922  0.68599460  0.72184562  1.0
  Na  Na3  1  0.31400540  -0.09360922  0.22184562  1.0
  Sr  Sr4  1  0.71799872  0.71799872  0.75000000  1.0
  Sr  Sr5  1  0.28200128  0.28200128  0.25000000  1.0
  Sn  Sn6  1  1.33571168  0.63910767  0.99256724  1.0
  Sn  Sn7  1  0.36089233  -0.33571168  0.49256724  1.0
  Sn  Sn8  1  0.63910767  0.33571168  0.50743276  1.0
  Sn  Sn9  1  0.66428832  0.36089233  0.00743276  1.0
  Sn  Sn10  1  0.27872700  0.12198422  0.76419728  1.0
  Sn  Sn11  1  0.87801578  0.72127300  0.26419728  1.0
  Sn  Sn12  1  1.12198422  0.27872700  0.73580272  1.0
  Sn  Sn13  1  0.72127300  -0.12198422  0.23580272  1.0
