# generated using pymatgen
data_Mg(Co2Ge3)2
_symmetry_space_group_name_H-M   'P 1'
_cell_length_a   6.15335889
_cell_length_b   6.15335889
_cell_length_c   6.15335889
_cell_angle_alpha   119.97738564
_cell_angle_beta   119.97738564
_cell_angle_gamma   90.03917369
_symmetry_Int_Tables_number   1
_chemical_formula_structural   Mg(Co2Ge3)2
_chemical_formula_sum   'Mg1 Co4 Ge6'
_cell_volume   164.80487487
_cell_formula_units_Z   1
loop_
 _symmetry_equiv_pos_site_id
 _symmetry_equiv_pos_as_xyz
  1  'x, y, z'
loop_
 _atom_site_type_symbol
 _atom_site_label
 _atom_site_symmetry_multiplicity
 _atom_site_fract_x
 _atom_site_fract_y
 _atom_site_fract_z
 _atom_site_occupancy
  Mg  Mg0  1  0.00000000  0.00000000  0.00000000  1.0
  Co  Co1  1  0.75852902  0.75852902  0.36052482  1.0
  Co  Co2  1  1.24147098  0.60199580  1.00000000  1.0
  Co  Co3  1  0.60199580  1.24147098  1.00000000  1.0
  Co  Co4  1  0.39800420  0.39800420  0.63947518  1.0
  Ge  Ge5  1  1.12643776  1.12643776  0.66596506  1.0
  Ge  Ge6  1  0.87356224  1.53952730  1.00000000  1.0
  Ge  Ge7  1  1.53952730  0.87356224  1.00000000  1.0
  Ge  Ge8  1  0.46047270  0.46047270  0.33403494  1.0
  Ge  Ge9  1  0.50000000  -0.00000000  0.50000000  1.0
  Ge  Ge10  1  -0.00000000  0.50000000  0.50000000  1.0
