# generated using pymatgen
data_Cu3B5Pt9
_symmetry_space_group_name_H-M   'P 1'
_cell_length_a   9.10766628
_cell_length_b   9.10766628
_cell_length_c   2.96034533
_cell_angle_alpha   90.00000000
_cell_angle_beta   90.00000000
_cell_angle_gamma   120.00000000
_symmetry_Int_Tables_number   1
_chemical_formula_structural   Cu3B5Pt9
_chemical_formula_sum   'Cu3 B5 Pt9'
_cell_volume   212.66069306
_cell_formula_units_Z   1
loop_
 _symmetry_equiv_pos_site_id
 _symmetry_equiv_pos_as_xyz
  1  'x, y, z'
loop_
 _atom_site_type_symbol
 _atom_site_label
 _atom_site_symmetry_multiplicity
 _atom_site_fract_x
 _atom_site_fract_y
 _atom_site_fract_z
 _atom_site_occupancy
  Cu  Cu0  1  0.54285404  0.54285404  0.00000000  1.0
  Cu  Cu1  1  -0.00000000  0.45714596  0.00000000  1.0
  Cu  Cu2  1  0.45714596  0.00000000  0.00000000  1.0
  B  B3  1  0.18901204  0.18901204  0.50000000  1.0
  B  B4  1  0.00000000  0.81098796  0.50000000  1.0
  B  B5  1  0.81098796  0.00000000  0.50000000  1.0
  B  B6  1  0.33333333  0.66666667  0.00000000  1.0
  B  B7  1  0.66666667  0.33333333  0.00000000  1.0
  Pt  Pt8  1  0.19544952  0.73406163  0.50000000  1.0
  Pt  Pt9  1  0.73406163  0.19544952  0.50000000  1.0
  Pt  Pt10  1  0.53861211  0.80455048  0.50000000  1.0
  Pt  Pt11  1  0.26593837  0.46138789  0.50000000  1.0
  Pt  Pt12  1  0.80455048  0.53861211  0.50000000  1.0
  Pt  Pt13  1  0.46138789  0.26593837  0.50000000  1.0
  Pt  Pt14  1  0.82370776  0.82370776  0.00000000  1.0
  Pt  Pt15  1  -0.00000000  0.17629224  0.00000000  1.0
  Pt  Pt16  1  0.17629224  0.00000000  0.00000000  1.0
