# generated using pymatgen
data_SiO2
_symmetry_space_group_name_H-M   'P 1'
_cell_length_a   11.90471807
_cell_length_b   11.90471807
_cell_length_c   7.62911733
_cell_angle_alpha   90.00000000
_cell_angle_beta   90.00000000
_cell_angle_gamma   105.27782843
_symmetry_Int_Tables_number   1
_chemical_formula_structural   SiO2
_chemical_formula_sum   'Si18 O36'
_cell_volume   1043.00538226
_cell_formula_units_Z   18
loop_
 _symmetry_equiv_pos_site_id
 _symmetry_equiv_pos_as_xyz
  1  'x, y, z'
loop_
 _atom_site_type_symbol
 _atom_site_label
 _atom_site_symmetry_multiplicity
 _atom_site_fract_x
 _atom_site_fract_y
 _atom_site_fract_z
 _atom_site_occupancy
  Si  Si0  1  0.28125934  1.11534189  0.70468680  1.0
  Si  Si1  1  -0.28125934  0.88465811  0.70468680  1.0
  Si  Si2  1  -0.11534189  0.71874066  0.29531320  1.0
  Si  Si3  1  0.11534189  1.28125934  0.29531320  1.0
  Si  Si4  1  -0.28125934  0.88465811  0.29531320  1.0
  Si  Si5  1  0.28125934  1.11534189  0.29531320  1.0
  Si  Si6  1  0.11534189  1.28125934  0.70468680  1.0
  Si  Si7  1  -0.11534189  0.71874066  0.70468680  1.0
  Si  Si8  1  -0.84908454  0.84908454  0.70394939  1.0
  Si  Si9  1  -0.15091546  0.15091546  0.70394939  1.0
  Si  Si10  1  -0.84908454  0.84908454  0.29605061  1.0
  Si  Si11  1  -0.15091546  0.15091546  0.29605061  1.0
  Si  Si12  1  -0.72995667  0.72995667  0.00000000  1.0
  Si  Si13  1  -0.27004333  0.27004333  0.00000000  1.0
  Si  Si14  1  0.47014411  1.12533183  0.00000000  1.0
  Si  Si15  1  -0.47014411  0.87466817  0.00000000  1.0
  Si  Si16  1  -0.12533183  0.52985589  0.00000000  1.0
  Si  Si17  1  0.12533183  1.47014411  0.00000000  1.0
  O  O18  1  0.21433197  1.21433197  0.75025163  1.0
  O  O19  1  -0.21433197  0.78566803  0.75025163  1.0
  O  O20  1  -0.21433197  0.78566803  0.24974837  1.0
  O  O21  1  0.21433197  1.21433197  0.24974837  1.0
  O  O22  1  -0.80643742  0.98782618  0.74591821  1.0
  O  O23  1  0.80643742  1.01217382  0.74591821  1.0
  O  O24  1  0.01217382  1.80643742  0.25408179  1.0
  O  O25  1  -0.01217382  0.19356258  0.25408179  1.0
  O  O26  1  0.80643742  1.01217382  0.25408179  1.0
  O  O27  1  -0.80643742  0.98782618  0.25408179  1.0
  O  O28  1  -0.01217382  0.19356258  0.74591821  1.0
  O  O29  1  0.01217382  1.80643742  0.74591821  1.0
  O  O30  1  -0.77880084  0.77880084  0.82470978  1.0
  O  O31  1  -0.22119916  0.22119916  0.82470978  1.0
  O  O32  1  -0.77880084  0.77880084  0.17529022  1.0
  O  O33  1  -0.22119916  0.22119916  0.17529022  1.0
  O  O34  1  0.50000000  1.00000000  0.00000000  1.0
  O  O35  1  -0.00000000  0.50000000  0.00000000  1.0
  O  O36  1  -0.58886017  0.76969882  0.00000000  1.0
  O  O37  1  0.58886017  1.23030118  0.00000000  1.0
  O  O38  1  0.23030118  1.58886017  0.00000000  1.0
  O  O39  1  -0.23030118  0.41113983  0.00000000  1.0
  O  O40  1  0.39719122  1.13733395  0.82437871  1.0
  O  O41  1  -0.39719122  0.86266605  0.82437871  1.0
  O  O42  1  -0.13733395  0.60280878  0.17562129  1.0
  O  O43  1  0.13733395  1.39719122  0.17562129  1.0
  O  O44  1  -0.39719122  0.86266605  0.17562129  1.0
  O  O45  1  0.39719122  1.13733395  0.17562129  1.0
  O  O46  1  0.13733395  1.39719122  0.82437871  1.0
  O  O47  1  -0.13733395  0.60280878  0.82437871  1.0
  O  O48  1  -0.82353735  0.82353735  0.50000000  1.0
  O  O49  1  -0.17646265  0.17646265  0.50000000  1.0
  O  O50  1  0.32154465  1.12365112  0.50000000  1.0
  O  O51  1  -0.32154465  0.87634888  0.50000000  1.0
  O  O52  1  -0.12365112  0.67845535  0.50000000  1.0
  O  O53  1  0.12365112  1.32154465  0.50000000  1.0
