# generated using pymatgen
data_CaV2P2(H4O7)2
_symmetry_space_group_name_H-M   'P 1'
_cell_length_a   6.39419527
_cell_length_b   6.39450362
_cell_length_c   6.69805258
_cell_angle_alpha   93.92102263
_cell_angle_beta   107.09797628
_cell_angle_gamma   89.53437570
_symmetry_Int_Tables_number   1
_chemical_formula_structural   CaV2P2(H4O7)2
_chemical_formula_sum   'Ca1 V2 P2 H8 O14'
_cell_volume   261.13063618
_cell_formula_units_Z   1
loop_
 _symmetry_equiv_pos_site_id
 _symmetry_equiv_pos_as_xyz
  1  'x, y, z'
loop_
 _atom_site_type_symbol
 _atom_site_label
 _atom_site_symmetry_multiplicity
 _atom_site_fract_x
 _atom_site_fract_y
 _atom_site_fract_z
 _atom_site_occupancy
  Ca  Ca0  1  0.52632090  0.46291126  0.84134664  1.0
  V  V1  1  0.49547547  0.17096439  0.29820336  1.0
  V  V2  1  0.06203338  0.68207054  0.47765165  1.0
  P  P3  1  0.53024731  0.67137989  0.37643799  1.0
  P  P4  1  0.03017637  0.17242306  0.39294304  1.0
  H  H5  1  0.53181541  0.01853766  0.90857550  1.0
  H  H6  1  0.28954572  0.07794172  0.79374712  1.0
  H  H7  1  0.09322488  0.57943351  0.89848505  1.0
  H  H8  1  0.26050596  0.76970221  0.98367631  1.0
  H  H9  1  0.74666897  0.80856526  0.77006722  1.0
  H  H10  1  0.81819104  0.81220797  0.02145533  1.0
  H  H11  1  0.93759484  0.31477334  0.76354680  1.0
  H  H12  1  1.00095832  0.29309698  1.01239442  1.0
  O  O13  1  0.55544402  0.21571119  0.54824949  1.0
  O  O14  1  0.98756747  0.67898573  0.22780043  1.0
  O  O15  1  0.38732849  0.64562157  0.52665102  1.0
  O  O16  1  0.45468132  0.86058073  0.24084187  1.0
  O  O17  1  0.76730089  0.70326130  0.52707497  1.0
  O  O18  1  0.50855340  0.47446240  0.21899658  1.0
  O  O19  1  0.78926592  0.14240003  0.25840141  1.0
  O  O20  1  0.10667442  0.99295534  0.54547409  1.0
  O  O21  1  0.16506500  0.18335023  0.23309350  1.0
  O  O22  1  0.06614685  0.37647731  0.54272605  1.0
  O  O23  1  0.41709058  0.12616933  0.91455654  1.0
  O  O24  1  0.19694140  0.67264487  0.85884537  1.0
  O  O25  1  0.69151018  0.81589951  0.89452233  1.0
  O  O26  1  0.91187146  0.37307267  0.89393593  1.0
