# generated using pymatgen
data_Na2Ge2Se5
_symmetry_space_group_name_H-M   'P 1'
_cell_length_a   9.64176267
_cell_length_b   9.64176267
_cell_length_c   11.25883375
_cell_angle_alpha   90.00000000
_cell_angle_beta   90.00000000
_cell_angle_gamma   91.31230077
_symmetry_Int_Tables_number   1
_chemical_formula_structural   Na2Ge2Se5
_chemical_formula_sum   'Na8 Ge8 Se20'
_cell_volume   1046.38705080
_cell_formula_units_Z   4
loop_
 _symmetry_equiv_pos_site_id
 _symmetry_equiv_pos_as_xyz
  1  'x, y, z'
loop_
 _atom_site_type_symbol
 _atom_site_label
 _atom_site_symmetry_multiplicity
 _atom_site_fract_x
 _atom_site_fract_y
 _atom_site_fract_z
 _atom_site_occupancy
  Na  Na0  1  -0.07500688  1.42498720  0.25000000  1.0
  Na  Na1  1  0.42498720  0.92499312  0.75000000  1.0
  Na  Na2  1  -0.42498720  1.07500688  0.25000000  1.0
  Na  Na3  1  0.07500688  0.57501280  0.75000000  1.0
  Na  Na4  1  0.85458383  0.85458383  0.50000000  1.0
  Na  Na5  1  0.85458383  0.85458383  0.00000000  1.0
  Na  Na6  1  0.14541617  0.14541617  0.50000000  1.0
  Na  Na7  1  0.14541617  0.14541617  0.00000000  1.0
  Ge  Ge8  1  0.31371977  0.40563032  0.25000000  1.0
  Ge  Ge9  1  -0.59436968  1.31371977  0.75000000  1.0
  Ge  Ge10  1  0.59436968  0.68628023  0.25000000  1.0
  Ge  Ge11  1  -0.31371977  1.59436968  0.75000000  1.0
  Ge  Ge12  1  0.25575760  0.74424240  0.42022927  1.0
  Ge  Ge13  1  0.25575760  0.74424240  0.07977073  1.0
  Ge  Ge14  1  -0.25575760  1.25575760  0.92022927  1.0
  Ge  Ge15  1  -0.25575760  1.25575760  0.57977073  1.0
  Se  Se16  1  -0.44128731  1.44128731  0.25000000  1.0
  Se  Se17  1  0.44128731  0.55871269  0.75000000  1.0
  Se  Se18  1  0.20200221  0.49877667  0.42399913  1.0
  Se  Se19  1  0.20200221  0.49877667  0.07600087  1.0
  Se  Se20  1  -0.50122333  1.20200221  0.92399913  1.0
  Se  Se21  1  -0.50122333  1.20200221  0.57600087  1.0
  Se  Se22  1  0.50122333  0.79799779  0.42399913  1.0
  Se  Se23  1  0.50122333  0.79799779  0.07600087  1.0
  Se  Se24  1  -0.20200221  1.50122333  0.92399913  1.0
  Se  Se25  1  -0.20200221  1.50122333  0.57600087  1.0
  Se  Se26  1  -0.16800393  1.73150951  0.25000000  1.0
  Se  Se27  1  0.73150951  0.83199607  0.75000000  1.0
  Se  Se28  1  -0.73150951  1.16800393  0.25000000  1.0
  Se  Se29  1  0.16800393  0.26849049  0.75000000  1.0
  Se  Se30  1  0.15681756  0.84318244  0.91267077  1.0
  Se  Se31  1  0.15681756  0.84318244  0.58732923  1.0
  Se  Se32  1  -0.15681756  1.15681756  0.41267077  1.0
  Se  Se33  1  -0.15681756  1.15681756  0.08732923  1.0
  Se  Se34  1  0.15043798  0.84956202  0.25000000  1.0
  Se  Se35  1  -0.15043798  1.15043798  0.75000000  1.0
