# generated using pymatgen
data_CaPbO3
_symmetry_space_group_name_H-M   'P 1'
_cell_length_a   5.99267705
_cell_length_b   8.26465122
_cell_length_c   5.75895809
_cell_angle_alpha   90.00000000
_cell_angle_beta   90.00000000
_cell_angle_gamma   90.00000000
_symmetry_Int_Tables_number   1
_chemical_formula_structural   CaPbO3
_chemical_formula_sum   'Ca4 Pb4 O12'
_cell_volume   285.22613884
_cell_formula_units_Z   4
loop_
 _symmetry_equiv_pos_site_id
 _symmetry_equiv_pos_as_xyz
  1  'x, y, z'
loop_
 _atom_site_type_symbol
 _atom_site_label
 _atom_site_symmetry_multiplicity
 _atom_site_fract_x
 _atom_site_fract_y
 _atom_site_fract_z
 _atom_site_occupancy
  Ca  Ca0  1  0.05930330  0.75000000  0.51741560  1.0
  Ca  Ca1  1  0.55930330  0.75000000  0.98258440  1.0
  Ca  Ca2  1  0.94069670  0.25000000  0.48258440  1.0
  Ca  Ca3  1  0.44069670  0.25000000  0.01741560  1.0
  Pb  Pb4  1  0.50000000  0.00000000  0.50000000  1.0
  Pb  Pb5  1  0.50000000  0.50000000  0.50000000  1.0
  Pb  Pb6  1  0.00000000  0.00000000  0.00000000  1.0
  Pb  Pb7  1  0.00000000  0.50000000  0.00000000  1.0
  O  O8  1  0.30471027  0.92996654  0.80935447  1.0
  O  O9  1  0.30471027  0.57003346  0.80935447  1.0
  O  O10  1  0.80471027  0.92996654  0.69064553  1.0
  O  O11  1  0.80471027  0.57003346  0.69064553  1.0
  O  O12  1  0.69528973  0.42996654  0.19064553  1.0
  O  O13  1  0.69528973  0.07003346  0.19064553  1.0
  O  O14  1  0.19528973  0.42996654  0.30935447  1.0
  O  O15  1  0.19528973  0.07003346  0.30935447  1.0
  O  O16  1  0.93413013  0.75000000  0.13239401  1.0
  O  O17  1  0.43413013  0.75000000  0.36760599  1.0
  O  O18  1  0.06586987  0.25000000  0.86760599  1.0
  O  O19  1  0.56586987  0.25000000  0.63239401  1.0
