# generated using pymatgen
data_BaBrO
_symmetry_space_group_name_H-M   'P 1'
_cell_length_a   7.86036445
_cell_length_b   4.23660387
_cell_length_c   10.34511784
_cell_angle_alpha   90.00000000
_cell_angle_beta   90.00000000
_cell_angle_gamma   90.00000000
_symmetry_Int_Tables_number   1
_chemical_formula_structural   BaBrO
_chemical_formula_sum   'Ba4 Br4 O4'
_cell_volume   344.50536019
_cell_formula_units_Z   4
loop_
 _symmetry_equiv_pos_site_id
 _symmetry_equiv_pos_as_xyz
  1  'x, y, z'
loop_
 _atom_site_type_symbol
 _atom_site_label
 _atom_site_symmetry_multiplicity
 _atom_site_fract_x
 _atom_site_fract_y
 _atom_site_fract_z
 _atom_site_occupancy
  Ba  Ba0  1  0.71090436  0.75000000  0.39310972  1.0
  Ba  Ba1  1  0.21090436  0.75000000  0.10689028  1.0
  Ba  Ba2  1  0.28909564  0.25000000  0.60689028  1.0
  Ba  Ba3  1  0.78909564  0.25000000  0.89310972  1.0
  Br  Br4  1  0.95338277  0.75000000  0.66636638  1.0
  Br  Br5  1  0.45338277  0.75000000  0.83363362  1.0
  Br  Br6  1  0.04661723  0.25000000  0.33363362  1.0
  Br  Br7  1  0.54661723  0.25000000  0.16636638  1.0
  O  O8  1  0.90541121  0.75000000  0.02148895  1.0
  O  O9  1  0.40541121  0.75000000  0.47851105  1.0
  O  O10  1  0.09458879  0.25000000  0.97851105  1.0
  O  O11  1  0.59458879  0.25000000  0.52148895  1.0
