# generated using pymatgen
data_CoH2CO3
_symmetry_space_group_name_H-M   'P 1'
_cell_length_a   7.74983333
_cell_length_b   7.74983333
_cell_length_c   7.74983333
_cell_angle_alpha   97.92342565
_cell_angle_beta   97.92342565
_cell_angle_gamma   97.92342565
_symmetry_Int_Tables_number   1
_chemical_formula_structural   CoH2CO3
_chemical_formula_sum   'Co6 H12 C6 O18'
_cell_volume   450.73517387
_cell_formula_units_Z   6
loop_
 _symmetry_equiv_pos_site_id
 _symmetry_equiv_pos_as_xyz
  1  'x, y, z'
loop_
 _atom_site_type_symbol
 _atom_site_label
 _atom_site_symmetry_multiplicity
 _atom_site_fract_x
 _atom_site_fract_y
 _atom_site_fract_z
 _atom_site_occupancy
  H  H0  1  0.79006458  0.66628851  0.09976087  1.0
  H  H1  1  0.66628851  1.09976087  -0.20993542  1.0
  H  H2  1  1.09976087  0.79006458  -0.33371149  1.0
  H  H3  1  1.20993542  0.33371149  -0.09976087  1.0
  H  H4  1  1.33371149  -0.09976087  0.20993542  1.0
  H  H5  1  0.90023913  0.20993542  0.33371149  1.0
  H  H6  1  0.85691419  0.53708509  0.59058352  1.0
  H  H7  1  1.53708509  0.59058352  -0.14308581  1.0
  H  H8  1  1.59058352  -0.14308581  0.53708509  1.0
  H  H9  1  1.14308581  0.46291491  -0.59058352  1.0
  H  H10  1  0.46291491  0.40941648  0.14308581  1.0
  H  H11  1  0.40941648  1.14308581  -0.53708509  1.0
  Co  Co12  1  1.07390468  0.71302595  -0.01872031  1.0
  Co  Co13  1  0.71302595  0.98127969  0.07390468  1.0
  Co  Co14  1  0.98127969  1.07390468  -0.28697405  1.0
  Co  Co15  1  0.92609532  0.28697405  0.01872031  1.0
  Co  Co16  1  1.28697405  0.01872031  -0.07390468  1.0
  Co  Co17  1  1.01872031  -0.07390468  0.28697405  1.0
  O  O18  1  0.91015510  1.47026592  -0.16590725  1.0
  O  O19  1  1.47026592  0.83409275  -0.08984490  1.0
  O  O20  1  0.83409275  0.91015510  0.47026592  1.0
  O  O21  1  1.08984490  -0.47026592  0.16590725  1.0
  O  O22  1  0.52973408  0.16590725  0.08984490  1.0
  O  O23  1  1.16590725  0.08984490  -0.47026592  1.0
  O  O24  1  0.88138061  1.27829974  -0.41841907  1.0
  O  O25  1  1.27829974  0.58158093  -0.11861939  1.0
  O  O26  1  0.58158093  0.88138061  0.27829974  1.0
  O  O27  1  1.11861939  -0.27829974  0.41841907  1.0
  O  O28  1  0.72170026  0.41841907  0.11861939  1.0
  O  O29  1  1.41841907  0.11861939  -0.27829974  1.0
  O  O30  1  0.85277940  0.77645382  0.07335812  1.0
  O  O31  1  0.77645382  1.07335812  -0.14722060  1.0
  O  O32  1  1.07335812  0.85277940  -0.22354618  1.0
  O  O33  1  1.14722060  0.22354618  -0.07335812  1.0
  O  O34  1  1.22354618  -0.07335812  0.14722060  1.0
  O  O35  1  0.92664188  0.14722060  0.22354618  1.0
  C  C36  1  0.88218357  1.42950599  -0.33346573  1.0
  C  C37  1  1.42950599  0.66653427  -0.11781643  1.0
  C  C38  1  0.66653427  0.88218357  0.42950599  1.0
  C  C39  1  1.11781643  -0.42950599  0.33346573  1.0
  C  C40  1  0.57049401  0.33346573  0.11781643  1.0
  C  C41  1  1.33346573  0.11781643  -0.42950599  1.0
