# generated using pymatgen
data_K3V(SO)2
_symmetry_space_group_name_H-M   'P 1'
_cell_length_a   10.72536528
_cell_length_b   7.36550813
_cell_length_c   11.83330078
_cell_angle_alpha   90.00000000
_cell_angle_beta   122.16123162
_cell_angle_gamma   90.00000000
_symmetry_Int_Tables_number   1
_chemical_formula_structural   K3V(SO)2
_chemical_formula_sum   'K12 V4 S8 O8'
_cell_volume   791.36189946
_cell_formula_units_Z   4
loop_
 _symmetry_equiv_pos_site_id
 _symmetry_equiv_pos_as_xyz
  1  'x, y, z'
loop_
 _atom_site_type_symbol
 _atom_site_label
 _atom_site_symmetry_multiplicity
 _atom_site_fract_x
 _atom_site_fract_y
 _atom_site_fract_z
 _atom_site_occupancy
  K  K0  1  0.93736820  0.23897039  0.38120429  1.0
  K  K1  1  0.93736820  0.26102961  0.88120429  1.0
  K  K2  1  0.06263180  0.73897039  0.11879571  1.0
  K  K3  1  0.06263180  0.76102961  0.61879571  1.0
  K  K4  1  0.23374303  0.22173204  0.29541933  1.0
  K  K5  1  0.23374303  0.27826796  0.79541933  1.0
  K  K6  1  0.76625697  0.72173204  0.20458067  1.0
  K  K7  1  0.76625697  0.77826796  0.70458067  1.0
  K  K8  1  0.48710749  0.14120957  0.16001363  1.0
  K  K9  1  0.48710749  0.35879043  0.66001363  1.0
  K  K10  1  0.51289251  0.64120957  0.33998637  1.0
  K  K11  1  0.51289251  0.85879043  0.83998637  1.0
  V  V12  1  0.69500157  0.29774658  0.02615189  1.0
  V  V13  1  0.69500157  0.20225342  0.52615189  1.0
  V  V14  1  0.30499843  0.79774658  0.47384811  1.0
  V  V15  1  0.30499843  0.70225342  0.97384811  1.0
  S  S16  1  0.86231312  0.07848141  0.08973628  1.0
  S  S17  1  0.86231312  0.42151859  0.58973628  1.0
  S  S18  1  0.13768688  0.57848141  0.41026372  1.0
  S  S19  1  0.13768688  0.92151859  0.91026372  1.0
  S  S20  1  0.75025744  0.96712327  0.44158095  1.0
  S  S21  1  0.75025744  0.53287673  0.94158095  1.0
  S  S22  1  0.24974256  0.46712327  0.05841905  1.0
  S  S23  1  0.24974256  0.03287673  0.55841905  1.0
  O  O24  1  0.52838913  0.28636476  0.41315806  1.0
  O  O25  1  0.52838913  0.21363524  0.91315806  1.0
  O  O26  1  0.47161087  0.78636476  0.08684194  1.0
  O  O27  1  0.47161087  0.71363524  0.58684194  1.0
  O  O28  1  0.69613402  0.36638351  0.16150964  1.0
  O  O29  1  0.69613402  0.13361649  0.66150964  1.0
  O  O30  1  0.30386598  0.86638351  0.33849036  1.0
  O  O31  1  0.30386598  0.63361649  0.83849036  1.0
