# generated using pymatgen
data_Ti6Al16Rh7
_symmetry_space_group_name_H-M   'P 1'
_cell_length_a   8.56939671
_cell_length_b   8.56939671
_cell_length_c   8.56939671
_cell_angle_alpha   60.00000000
_cell_angle_beta   60.00000000
_cell_angle_gamma   60.00000000
_symmetry_Int_Tables_number   1
_chemical_formula_structural   Ti6Al16Rh7
_chemical_formula_sum   'Ti6 Al16 Rh7'
_cell_volume   444.97513985
_cell_formula_units_Z   1
loop_
 _symmetry_equiv_pos_site_id
 _symmetry_equiv_pos_as_xyz
  1  'x, y, z'
loop_
 _atom_site_type_symbol
 _atom_site_label
 _atom_site_symmetry_multiplicity
 _atom_site_fract_x
 _atom_site_fract_y
 _atom_site_fract_z
 _atom_site_occupancy
  Ti  Ti0  1  -0.67823371  0.67823371  0.67823371  1.0
  Ti  Ti1  1  -0.32176629  0.32176629  0.67823371  1.0
  Ti  Ti2  1  0.67823371  0.67823371  -0.67823371  1.0
  Ti  Ti3  1  0.32176629  1.32176629  -0.32176629  1.0
  Ti  Ti4  1  0.32176629  -0.32176629  1.32176629  1.0
  Ti  Ti5  1  -0.32176629  0.32176629  0.32176629  1.0
  Al  Al6  1  0.65831099  0.65831099  -0.34168901  1.0
  Al  Al7  1  1.34168901  0.34168901  -0.02506703  1.0
  Al  Al8  1  1.34168901  -0.02506703  0.34168901  1.0
  Al  Al9  1  1.02506703  0.65831099  -0.34168901  1.0
  Al  Al10  1  0.97493297  0.34168901  0.34168901  1.0
  Al  Al11  1  0.65831099  1.02506703  -0.34168901  1.0
  Al  Al12  1  0.65831099  0.65831099  0.02506703  1.0
  Al  Al13  1  1.34168901  0.34168901  0.34168901  1.0
  Al  Al14  1  0.88009182  0.88009182  -0.11990818  1.0
  Al  Al15  1  1.11990818  0.11990818  0.64027546  1.0
  Al  Al16  1  1.11990818  0.64027546  0.11990818  1.0
  Al  Al17  1  0.35972454  0.88009182  -0.11990818  1.0
  Al  Al18  1  1.64027546  0.11990818  0.11990818  1.0
  Al  Al19  1  0.88009182  0.35972454  -0.11990818  1.0
  Al  Al20  1  0.88009182  0.88009182  -0.64027546  1.0
  Al  Al21  1  1.11990818  0.11990818  0.11990818  1.0
  Rh  Rh22  1  1.50000000  -0.00000000  0.00000000  1.0
  Rh  Rh23  1  1.00000000  0.50000000  -0.50000000  1.0
  Rh  Rh24  1  -0.00000000  1.50000000  0.00000000  1.0
  Rh  Rh25  1  0.50000000  1.00000000  -0.50000000  1.0
  Rh  Rh26  1  0.00000000  -0.00000000  0.50000000  1.0
  Rh  Rh27  1  0.50000000  -0.50000000  1.00000000  1.0
  Rh  Rh28  1  0.00000000  0.00000000  0.00000000  1.0
