# generated using pymatgen
data_Cd3AsCl3
_symmetry_space_group_name_H-M   'P 1'
_cell_length_a   13.42184881
_cell_length_b   8.26111846
_cell_length_c   7.22695825
_cell_angle_alpha   90.00000000
_cell_angle_beta   90.00000000
_cell_angle_gamma   90.00000000
_symmetry_Int_Tables_number   1
_chemical_formula_structural   Cd3AsCl3
_chemical_formula_sum   'Cd12 As4 Cl12'
_cell_volume   801.32139508
_cell_formula_units_Z   4
loop_
 _symmetry_equiv_pos_site_id
 _symmetry_equiv_pos_as_xyz
  1  'x, y, z'
loop_
 _atom_site_type_symbol
 _atom_site_label
 _atom_site_symmetry_multiplicity
 _atom_site_fract_x
 _atom_site_fract_y
 _atom_site_fract_z
 _atom_site_occupancy
  Cd  Cd0  1  0.91161807  0.25000000  0.49668275  1.0
  Cd  Cd1  1  0.41161807  0.25000000  0.00331725  1.0
  Cd  Cd2  1  0.08838193  0.75000000  0.50331725  1.0
  Cd  Cd3  1  0.58838193  0.75000000  0.99668275  1.0
  Cd  Cd4  1  0.73703167  0.25000000  0.01000561  1.0
  Cd  Cd5  1  0.23703167  0.25000000  0.48999439  1.0
  Cd  Cd6  1  0.26296833  0.75000000  0.98999439  1.0
  Cd  Cd7  1  0.76296833  0.75000000  0.51000561  1.0
  Cd  Cd8  1  0.00000000  0.50000000  0.00000000  1.0
  Cd  Cd9  1  0.00000000  0.00000000  0.00000000  1.0
  Cd  Cd10  1  0.50000000  0.50000000  0.50000000  1.0
  Cd  Cd11  1  0.50000000  0.00000000  0.50000000  1.0
  As  As12  1  0.91597492  0.25000000  0.14142532  1.0
  As  As13  1  0.41597492  0.25000000  0.35857468  1.0
  As  As14  1  0.08402508  0.75000000  0.85857468  1.0
  As  As15  1  0.58402508  0.75000000  0.64142532  1.0
  Cl  Cl16  1  0.66651545  0.97834365  0.19397907  1.0
  Cl  Cl17  1  0.66651545  0.52165635  0.19397907  1.0
  Cl  Cl18  1  0.16651545  0.97834365  0.30602093  1.0
  Cl  Cl19  1  0.16651545  0.52165635  0.30602093  1.0
  Cl  Cl20  1  0.33348455  0.47834365  0.80602093  1.0
  Cl  Cl21  1  0.33348455  0.02165635  0.80602093  1.0
  Cl  Cl22  1  0.83348455  0.47834365  0.69397907  1.0
  Cl  Cl23  1  0.83348455  0.02165635  0.69397907  1.0
  Cl  Cl24  1  0.58160023  0.25000000  0.81070066  1.0
  Cl  Cl25  1  0.08160023  0.25000000  0.68929934  1.0
  Cl  Cl26  1  0.41839977  0.75000000  0.18929934  1.0
  Cl  Cl27  1  0.91839977  0.75000000  0.31070066  1.0
