# generated using pymatgen
data_AlIO
_symmetry_space_group_name_H-M   'P 1'
_cell_length_a   5.84031792
_cell_length_b   9.95628230
_cell_length_c   5.12220717
_cell_angle_alpha   90.00000000
_cell_angle_beta   90.00000000
_cell_angle_gamma   90.00000000
_symmetry_Int_Tables_number   1
_chemical_formula_structural   AlIO
_chemical_formula_sum   'Al4 I4 O4'
_cell_volume   297.84535462
_cell_formula_units_Z   4
loop_
 _symmetry_equiv_pos_site_id
 _symmetry_equiv_pos_as_xyz
  1  'x, y, z'
loop_
 _atom_site_type_symbol
 _atom_site_label
 _atom_site_symmetry_multiplicity
 _atom_site_fract_x
 _atom_site_fract_y
 _atom_site_fract_z
 _atom_site_occupancy
  Al  Al0  1  0.40202112  0.07487701  0.49429456  1.0
  Al  Al1  1  0.90202112  0.92512299  0.49429456  1.0
  Al  Al2  1  0.59797888  0.92512299  -0.00570544  1.0
  Al  Al3  1  0.09797888  0.07487701  -0.00570544  1.0
  I  I4  1  0.50113992  0.31214308  0.58287883  1.0
  I  I5  1  1.00113992  0.68785692  0.58287883  1.0
  I  I6  1  0.49886008  0.68785692  0.08287883  1.0
  I  I7  1  -0.00113992  0.31214308  0.08287883  1.0
  O  O8  1  0.13018277  0.02552275  0.65182660  1.0
  O  O9  1  0.63018277  0.97447725  0.65182660  1.0
  O  O10  1  0.86981723  0.97447725  0.15182660  1.0
  O  O11  1  0.36981723  0.02552275  0.15182660  1.0
