# generated using pymatgen
data_GdIn2Rh
_symmetry_space_group_name_H-M   'P 1'
_cell_length_a   5.52764935
_cell_length_b   5.52764935
_cell_length_c   8.05504343
_cell_angle_alpha   90.00000000
_cell_angle_beta   90.00000000
_cell_angle_gamma   133.29703789
_symmetry_Int_Tables_number   1
_chemical_formula_structural   GdIn2Rh
_chemical_formula_sum   'Gd2 In4 Rh2'
_cell_volume   179.12896176
_cell_formula_units_Z   2
loop_
 _symmetry_equiv_pos_site_id
 _symmetry_equiv_pos_as_xyz
  1  'x, y, z'
loop_
 _atom_site_type_symbol
 _atom_site_label
 _atom_site_symmetry_multiplicity
 _atom_site_fract_x
 _atom_site_fract_y
 _atom_site_fract_z
 _atom_site_occupancy
  Gd  Gd0  1  0.43342889  0.56657111  0.75000000  1.0
  Gd  Gd1  1  -0.43342889  0.43342889  0.25000000  1.0
  In  In2  1  0.14494399  0.85505601  0.94947551  1.0
  In  In3  1  0.14494399  0.85505601  0.55052449  1.0
  In  In4  1  -0.14494399  0.14494399  0.44947551  1.0
  In  In5  1  -0.14494399  0.14494399  0.05052449  1.0
  Rh  Rh6  1  -0.28306367  0.28306367  0.75000000  1.0
  Rh  Rh7  1  0.28306367  0.71693633  0.25000000  1.0
