# generated using pymatgen
data_Ba(LuSe2)2
_symmetry_space_group_name_H-M   'P 1'
_cell_length_a   12.73688481
_cell_length_b   4.14398855
_cell_length_c   15.00187801
_cell_angle_alpha   90.00000000
_cell_angle_beta   90.00000000
_cell_angle_gamma   90.00000000
_symmetry_Int_Tables_number   1
_chemical_formula_structural   Ba(LuSe2)2
_chemical_formula_sum   'Ba4 Lu8 Se16'
_cell_volume   791.82169704
_cell_formula_units_Z   4
loop_
 _symmetry_equiv_pos_site_id
 _symmetry_equiv_pos_as_xyz
  1  'x, y, z'
loop_
 _atom_site_type_symbol
 _atom_site_label
 _atom_site_symmetry_multiplicity
 _atom_site_fract_x
 _atom_site_fract_y
 _atom_site_fract_z
 _atom_site_occupancy
  Ba  Ba0  1  0.76050796  0.75000000  0.66604894  1.0
  Ba  Ba1  1  0.26050796  0.75000000  0.83395106  1.0
  Ba  Ba2  1  0.23949204  0.25000000  0.33395106  1.0
  Ba  Ba3  1  0.73949204  0.25000000  0.16604894  1.0
  Lu  Lu4  1  0.92045339  0.75000000  0.40103430  1.0
  Lu  Lu5  1  0.42045339  0.75000000  0.09896570  1.0
  Lu  Lu6  1  0.07954661  0.25000000  0.59896570  1.0
  Lu  Lu7  1  0.57954661  0.25000000  0.90103430  1.0
  Lu  Lu8  1  0.43836975  0.75000000  0.60879938  1.0
  Lu  Lu9  1  0.93836975  0.75000000  0.89120062  1.0
  Lu  Lu10  1  0.56163025  0.25000000  0.39120062  1.0
  Lu  Lu11  1  0.06163025  0.25000000  0.10879938  1.0
  Se  Se12  1  0.91447492  0.75000000  0.07581819  1.0
  Se  Se13  1  0.41447492  0.75000000  0.42418181  1.0
  Se  Se14  1  0.08552508  0.25000000  0.92418181  1.0
  Se  Se15  1  0.58552508  0.25000000  0.57581819  1.0
  Se  Se16  1  0.70510513  0.75000000  0.34200847  1.0
  Se  Se17  1  0.20510513  0.75000000  0.15799153  1.0
  Se  Se18  1  0.29489487  0.25000000  0.65799153  1.0
  Se  Se19  1  0.79489487  0.25000000  0.84200847  1.0
  Se  Se20  1  0.62373629  0.75000000  0.02524747  1.0
  Se  Se21  1  0.12373629  0.75000000  0.47475253  1.0
  Se  Se22  1  0.37626371  0.25000000  0.97475253  1.0
  Se  Se23  1  0.87626371  0.25000000  0.52524747  1.0
  Se  Se24  1  0.52598307  0.75000000  0.78360600  1.0
  Se  Se25  1  0.02598307  0.75000000  0.71639400  1.0
  Se  Se26  1  0.47401693  0.25000000  0.21639400  1.0
  Se  Se27  1  0.97401693  0.25000000  0.28360600  1.0
