# generated using pymatgen
data_KC4N3
_symmetry_space_group_name_H-M   'P 1'
_cell_length_a   8.75619003
_cell_length_b   3.98785479
_cell_length_c   9.43496075
_cell_angle_alpha   98.85638221
_cell_angle_beta   104.45769678
_cell_angle_gamma   89.04821106
_symmetry_Int_Tables_number   1
_chemical_formula_structural   KC4N3
_chemical_formula_sum   'K2 C8 N6'
_cell_volume   315.13519847
_cell_formula_units_Z   2
loop_
 _symmetry_equiv_pos_site_id
 _symmetry_equiv_pos_as_xyz
  1  'x, y, z'
loop_
 _atom_site_type_symbol
 _atom_site_label
 _atom_site_symmetry_multiplicity
 _atom_site_fract_x
 _atom_site_fract_y
 _atom_site_fract_z
 _atom_site_occupancy
  K  K0  1  -0.16586823  -0.31813480  -0.19599141  1.0
  K  K1  1  -0.83413177  -0.68186520  -0.80400859  1.0
  C  C2  1  -0.74908049  -0.00946594  -0.43584478  1.0
  C  C3  1  -0.25091951  -0.99053406  -0.56415522  1.0
  C  C4  1  -0.30238841  -0.10406859  -0.71719818  1.0
  C  C5  1  -0.69761159  -0.89593141  -0.28280182  1.0
  C  C6  1  -0.46440137  -0.16110568  -0.78172897  1.0
  C  C7  1  -0.53559863  -0.83889432  -0.21827103  1.0
  C  C8  1  -0.19176487  -0.15868498  -0.80254851  1.0
  C  C9  1  -0.80823513  -0.84131502  -0.19745149  1.0
  N  N10  1  -0.79066839  -0.10443035  -0.56364483  1.0
  N  N11  1  -0.20933161  -0.89556965  -0.43635517  1.0
  N  N12  1  -0.60053902  -0.20586099  -0.83122028  1.0
  N  N13  1  -0.39946098  -0.79413901  -0.16877972  1.0
  N  N14  1  -0.09658212  -0.20280211  -0.87137194  1.0
  N  N15  1  -0.90341788  -0.79719789  -0.12862806  1.0
