# generated using pymatgen
data_CsTc
_symmetry_space_group_name_H-M   'P 1'
_cell_length_a   3.66750017
_cell_length_b   6.39593653
_cell_length_c   12.37771348
_cell_angle_alpha   90.00000000
_cell_angle_beta   90.00000000
_cell_angle_gamma   90.00000000
_symmetry_Int_Tables_number   1
_chemical_formula_structural   CsTc
_chemical_formula_sum   'Cs4 Tc4'
_cell_volume   290.34524235
_cell_formula_units_Z   4
loop_
 _symmetry_equiv_pos_site_id
 _symmetry_equiv_pos_as_xyz
  1  'x, y, z'
loop_
 _atom_site_type_symbol
 _atom_site_label
 _atom_site_symmetry_multiplicity
 _atom_site_fract_x
 _atom_site_fract_y
 _atom_site_fract_z
 _atom_site_occupancy
  Cs  Cs0  1  0.50234435  0.25000000  0.39720865  1.0
  Cs  Cs1  1  0.00234435  0.25000000  0.10279135  1.0
  Cs  Cs2  1  0.49765565  0.75000000  0.60279135  1.0
  Cs  Cs3  1  0.99765565  0.75000000  0.89720865  1.0
  Tc  Tc4  1  0.49766003  0.25000000  0.80245447  1.0
  Tc  Tc5  1  0.99766003  0.25000000  0.69754553  1.0
  Tc  Tc6  1  0.50233997  0.75000000  0.19754553  1.0
  Tc  Tc7  1  0.00233997  0.75000000  0.30245447  1.0
