# generated using pymatgen
data_LaSnPt
_symmetry_space_group_name_H-M   'P 1'
_cell_length_a   7.72492239
_cell_length_b   7.72492239
_cell_length_c   4.21987840
_cell_angle_alpha   90.00000000
_cell_angle_beta   90.00000000
_cell_angle_gamma   120.00000000
_symmetry_Int_Tables_number   1
_chemical_formula_structural   LaSnPt
_chemical_formula_sum   'La3 Sn3 Pt3'
_cell_volume   218.08149589
_cell_formula_units_Z   3
loop_
 _symmetry_equiv_pos_site_id
 _symmetry_equiv_pos_as_xyz
  1  'x, y, z'
loop_
 _atom_site_type_symbol
 _atom_site_label
 _atom_site_symmetry_multiplicity
 _atom_site_fract_x
 _atom_site_fract_y
 _atom_site_fract_z
 _atom_site_occupancy
  La  La0  1  0.41370274  0.41370274  0.00000000  1.0
  La  La1  1  -0.00000000  0.58629726  -0.00000000  1.0
  La  La2  1  0.58629726  0.00000000  0.00000000  1.0
  Sn  Sn3  1  0.75099802  0.75099802  0.50000000  1.0
  Sn  Sn4  1  -0.00000000  0.24900198  0.50000000  1.0
  Sn  Sn5  1  0.24900198  0.00000000  0.50000000  1.0
  Pt  Pt6  1  0.33333333  0.66666667  0.50000000  1.0
  Pt  Pt7  1  0.66666667  0.33333333  0.50000000  1.0
  Pt  Pt8  1  -0.00000000  -0.00000000  -0.00000000  1.0
