# generated using pymatgen
data_Na4WO5
_symmetry_space_group_name_H-M   'P 1'
_cell_length_a   5.77363532
_cell_length_b   5.73384516
_cell_length_c   8.61132881
_cell_angle_alpha   70.20987468
_cell_angle_beta   70.16876163
_cell_angle_gamma   77.62738011
_symmetry_Int_Tables_number   1
_chemical_formula_structural   Na4WO5
_chemical_formula_sum   'Na8 W2 O10'
_cell_volume   250.73794229
_cell_formula_units_Z   2
loop_
 _symmetry_equiv_pos_site_id
 _symmetry_equiv_pos_as_xyz
  1  'x, y, z'
loop_
 _atom_site_type_symbol
 _atom_site_label
 _atom_site_symmetry_multiplicity
 _atom_site_fract_x
 _atom_site_fract_y
 _atom_site_fract_z
 _atom_site_occupancy
  Na  Na0  1  0.51051671  -0.40975078  0.28952943  1.0
  Na  Na1  1  -0.51051671  -0.59024922  0.71047057  1.0
  Na  Na2  1  0.00264726  -0.30104033  0.60247365  1.0
  Na  Na3  1  -0.00264726  -0.69895967  0.39752635  1.0
  Na  Na4  1  -0.48913744  -0.20803982  0.90324032  1.0
  Na  Na5  1  0.48913744  -0.79196018  0.09675968  1.0
  Na  Na6  1  0.00000000  -0.50000000  0.00000000  1.0
  Na  Na7  1  -0.50000000  0.00000000  0.50000000  1.0
  W  W8  1  0.00210028  -0.89705759  0.79455234  1.0
  W  W9  1  -0.00210028  -0.10294241  0.20544766  1.0
  O  O10  1  -0.20797841  -0.94540633  0.68640560  1.0
  O  O11  1  0.20797841  -0.05459367  0.31359440  1.0
  O  O12  1  -0.81120634  -0.88721411  0.96445854  1.0
  O  O13  1  0.81120634  -0.11278589  0.03554146  1.0
  O  O14  1  0.21942680  -0.69452508  0.60337786  1.0
  O  O15  1  -0.21942680  -0.30547492  0.39662214  1.0
  O  O16  1  -0.21329713  -0.60642895  0.84364676  1.0
  O  O17  1  0.21329713  -0.39357105  0.15635324  1.0
  O  O18  1  0.22023390  -0.19293519  0.75855323  1.0
  O  O19  1  -0.22023390  -0.80706481  0.24144677  1.0
