# generated using pymatgen
data_C
_symmetry_space_group_name_H-M   'P 1'
_cell_length_a   4.64175082
_cell_length_b   4.30152267
_cell_length_c   2.46689301
_cell_angle_alpha   81.75683737
_cell_angle_beta   66.50981949
_cell_angle_gamma   31.73334313
_symmetry_Int_Tables_number   1
_chemical_formula_structural   C
_chemical_formula_sum   C2
_cell_volume   21.71816103
_cell_formula_units_Z   2
loop_
 _symmetry_equiv_pos_site_id
 _symmetry_equiv_pos_as_xyz
  1  'x, y, z'
loop_
 _atom_site_type_symbol
 _atom_site_label
 _atom_site_symmetry_multiplicity
 _atom_site_fract_x
 _atom_site_fract_y
 _atom_site_fract_z
 _atom_site_occupancy
  C  C0  1  0.16667381  -0.16667381  1.16667381  1.0
  C  C1  1  0.83332619  -0.83332619  0.83332619  1.0
