# generated using pymatgen
data_ZnS
_symmetry_space_group_name_H-M   'P 1'
_cell_length_a   31.55745421
_cell_length_b   31.55745421
_cell_length_c   31.55745421
_cell_angle_alpha   6.99319458
_cell_angle_beta   6.99319458
_cell_angle_gamma   6.99319457
_symmetry_Int_Tables_number   1
_chemical_formula_structural   ZnS
_chemical_formula_sum   'Zn10 S10'
_cell_volume   403.94628338
_cell_formula_units_Z   10
loop_
 _symmetry_equiv_pos_site_id
 _symmetry_equiv_pos_as_xyz
  1  'x, y, z'
loop_
 _atom_site_type_symbol
 _atom_site_label
 _atom_site_symmetry_multiplicity
 _atom_site_fract_x
 _atom_site_fract_y
 _atom_site_fract_z
 _atom_site_occupancy
  Zn  Zn0  1  0.00001403  0.00001403  0.00001403  1.0
  Zn  Zn1  1  0.93332044  -0.06667956  -0.06667956  1.0
  Zn  Zn2  1  0.86665339  -0.13334661  -0.13334661  1.0
  Zn  Zn3  1  0.79998485  -0.20001515  -0.20001515  1.0
  Zn  Zn4  1  0.73329175  -0.26670825  -0.26670825  1.0
  Zn  Zn5  1  0.63333267  0.63333267  -0.36666733  1.0
  Zn  Zn6  1  0.49999122  0.49999122  -0.50000878  1.0
  Zn  Zn7  1  0.36665869  0.36665869  -0.63334131  1.0
  Zn  Zn8  1  0.23332001  0.23332001  0.23332001  1.0
  Zn  Zn9  1  0.09998381  0.09998381  0.09998381  1.0
  S  S10  1  0.97503649  -0.02496351  -0.02496351  1.0
  S  S11  1  0.90835337  -0.09164663  -0.09164663  1.0
  S  S12  1  0.84168931  -0.15831069  -0.15831069  1.0
  S  S13  1  0.77501900  -0.22498100  -0.22498100  1.0
  S  S14  1  0.70831880  -0.29168120  -0.29168120  1.0
  S  S15  1  0.60831350  0.60831350  -0.39168650  1.0
  S  S16  1  0.47497488  0.47497488  -0.52502512  1.0
  S  S17  1  0.34167685  0.34167685  -0.65832315  1.0
  S  S18  1  0.20830540  0.20830540  0.20830540  1.0
  S  S19  1  0.07496152  0.07496152  0.07496152  1.0
