# generated using pymatgen
data_Tl9Pd13
_symmetry_space_group_name_H-M   'P 1'
_cell_length_a   9.15683661
_cell_length_b   9.15683661
_cell_length_c   5.75721355
_cell_angle_alpha   90.00000000
_cell_angle_beta   90.00000000
_cell_angle_gamma   120.00000000
_symmetry_Int_Tables_number   1
_chemical_formula_structural   Tl9Pd13
_chemical_formula_sum   'Tl9 Pd13'
_cell_volume   418.05546010
_cell_formula_units_Z   1
loop_
 _symmetry_equiv_pos_site_id
 _symmetry_equiv_pos_as_xyz
  1  'x, y, z'
loop_
 _atom_site_type_symbol
 _atom_site_label
 _atom_site_symmetry_multiplicity
 _atom_site_fract_x
 _atom_site_fract_y
 _atom_site_fract_z
 _atom_site_occupancy
  Tl  Tl0  1  0.38531964  0.19265982  0.24684017  1.0
  Tl  Tl1  1  0.19265982  0.38531964  0.75315983  1.0
  Tl  Tl2  1  0.19265982  0.80734018  0.75315983  1.0
  Tl  Tl3  1  0.80734018  0.19265982  0.24684017  1.0
  Tl  Tl4  1  0.80734018  0.61468036  0.24684017  1.0
  Tl  Tl5  1  0.61468036  0.80734018  0.75315983  1.0
  Tl  Tl6  1  0.33333333  0.66666667  0.25132696  1.0
  Tl  Tl7  1  0.66666667  0.33333333  0.74867304  1.0
  Tl  Tl8  1  0.00000000  0.00000000  0.50000000  1.0
  Pd  Pd9  1  0.68067765  0.84033883  0.24659591  1.0
  Pd  Pd10  1  0.84033883  0.68067765  0.75340409  1.0
  Pd  Pd11  1  0.84033883  0.15966117  0.75340409  1.0
  Pd  Pd12  1  0.15966117  0.84033883  0.24659591  1.0
  Pd  Pd13  1  0.15966117  0.31932235  0.24659591  1.0
  Pd  Pd14  1  0.31932235  0.15966117  0.75340409  1.0
  Pd  Pd15  1  0.50000000  0.50000000  0.50000000  1.0
  Pd  Pd16  1  0.50000000  -0.00000000  0.50000000  1.0
  Pd  Pd17  1  0.00000000  0.50000000  0.50000000  1.0
  Pd  Pd18  1  0.50000000  0.50000000  -0.00000000  1.0
  Pd  Pd19  1  0.50000000  0.00000000  0.00000000  1.0
  Pd  Pd20  1  0.00000000  0.50000000  0.00000000  1.0
  Pd  Pd21  1  0.00000000  0.00000000  -0.00000000  1.0
