# generated using pymatgen
data_PrSi3Rh
_symmetry_space_group_name_H-M   'P 1'
_cell_length_a   5.76969633
_cell_length_b   5.76969633
_cell_length_c   5.76969633
_cell_angle_alpha   137.17982532
_cell_angle_beta   137.17982532
_cell_angle_gamma   62.16148543
_symmetry_Int_Tables_number   1
_chemical_formula_structural   PrSi3Rh
_chemical_formula_sum   'Pr1 Si3 Rh1'
_cell_volume   87.67962863
_cell_formula_units_Z   1
loop_
 _symmetry_equiv_pos_site_id
 _symmetry_equiv_pos_as_xyz
  1  'x, y, z'
loop_
 _atom_site_type_symbol
 _atom_site_label
 _atom_site_symmetry_multiplicity
 _atom_site_fract_x
 _atom_site_fract_y
 _atom_site_fract_z
 _atom_site_occupancy
  Pr  Pr0  1  0.58744236  0.58744236  1.00000000  1.0
  Si  Si1  1  0.85224280  0.35224280  0.50000000  1.0
  Si  Si2  1  0.35224280  0.85224280  0.50000000  1.0
  Si  Si3  1  0.00217884  0.00217884  0.00000000  1.0
  Rh  Rh4  1  0.24219321  0.24219321  -0.00000000  1.0
