# generated using pymatgen
data_CaSiBHO5
_symmetry_space_group_name_H-M   'P 1'
_cell_length_a   6.62656259
_cell_length_b   7.37465286
_cell_length_c   8.75938293
_cell_angle_alpha   90.00000000
_cell_angle_beta   77.33084891
_cell_angle_gamma   90.00000000
_symmetry_Int_Tables_number   1
_chemical_formula_structural   CaSiBHO5
_chemical_formula_sum   'Ca4 Si4 B4 H4 O20'
_cell_volume   417.63672461
_cell_formula_units_Z   4
loop_
 _symmetry_equiv_pos_site_id
 _symmetry_equiv_pos_as_xyz
  1  'x, y, z'
loop_
 _atom_site_type_symbol
 _atom_site_label
 _atom_site_symmetry_multiplicity
 _atom_site_fract_x
 _atom_site_fract_y
 _atom_site_fract_z
 _atom_site_occupancy
  Si  Si0  1  0.62114680  0.37594343  0.91999355  1.0
  Si  Si1  1  0.37885320  0.87594343  0.58000645  1.0
  Si  Si2  1  0.37885320  0.62405657  0.08000645  1.0
  Si  Si3  1  0.62114680  0.12405657  0.41999355  1.0
  B  B4  1  0.71477375  0.42414806  0.39678567  1.0
  B  B5  1  0.28522625  0.92414806  0.10321433  1.0
  B  B6  1  0.28522625  0.57585194  0.60321433  1.0
  B  B7  1  0.71477375  0.07585194  0.89678567  1.0
  Ca  Ca8  1  -0.18076207  0.73821147  0.63512890  1.0
  Ca  Ca9  1  1.18076207  0.23821147  0.86487110  1.0
  Ca  Ca10  1  1.18076207  0.26178853  0.36487110  1.0
  Ca  Ca11  1  -0.18076207  0.76178853  0.13512890  1.0
  O  O12  1  0.80588867  0.28028099  0.47454980  1.0
  O  O13  1  0.19411133  0.78028099  0.02545020  1.0
  O  O14  1  0.19411133  0.71971901  0.52545020  1.0
  O  O15  1  0.80588867  0.21971901  0.97454980  1.0
  O  O16  1  0.54852932  0.16839294  0.85376168  1.0
  O  O17  1  0.45147068  0.66839294  0.64623832  1.0
  O  O18  1  0.45147068  0.83160706  0.14623832  1.0
  O  O19  1  0.54852932  0.33160706  0.35376168  1.0
  O  O20  1  0.21721528  0.40741502  0.62644310  1.0
  O  O21  1  0.78278472  0.90741502  0.87355690  1.0
  O  O22  1  0.78278472  0.59258498  0.37355690  1.0
  O  O23  1  0.21721528  0.09258498  0.12644310  1.0
  O  O24  1  0.23090324  0.53968948  0.24538631  1.0
  O  O25  1  0.76909676  1.03968948  0.25461369  1.0
  O  O26  1  0.76909676  0.46031052  0.75461369  1.0
  O  O27  1  0.23090324  -0.03968948  0.74538631  1.0
  O  O28  1  0.36523064  0.04055799  0.44643992  1.0
  O  O29  1  0.63476936  0.54055799  1.05356008  1.0
  O  O30  1  0.63476936  0.95944201  0.55356008  1.0
  O  O31  1  0.36523064  0.45944201  -0.05356008  1.0
  H  H32  1  0.21448409  0.62497885  0.33538489  1.0
  H  H33  1  0.78551591  1.12497885  0.16461511  1.0
  H  H34  1  0.78551591  0.37502115  0.66461511  1.0
  H  H35  1  0.21448409  -0.12497885  0.83538489  1.0
