# generated using pymatgen
data_CsV2O5
_symmetry_space_group_name_H-M   'P 1'
_cell_length_a   8.17761752
_cell_length_b   8.17761752
_cell_length_c   8.17761752
_cell_angle_alpha   103.77604509
_cell_angle_beta   138.24215109
_cell_angle_gamma   90.91141017
_symmetry_Int_Tables_number   1
_chemical_formula_structural   CsV2O5
_chemical_formula_sum   'Cs2 V4 O10'
_cell_volume   337.52080257
_cell_formula_units_Z   2
loop_
 _symmetry_equiv_pos_site_id
 _symmetry_equiv_pos_as_xyz
  1  'x, y, z'
loop_
 _atom_site_type_symbol
 _atom_site_label
 _atom_site_symmetry_multiplicity
 _atom_site_fract_x
 _atom_site_fract_y
 _atom_site_fract_z
 _atom_site_occupancy
  Cs  Cs0  1  0.41781063  0.92048006  0.99733057  1.0
  Cs  Cs1  1  0.92314949  0.42048006  1.00266943  1.0
  V  V2  1  1.18370137  1.35027350  0.66678680  1.0
  V  V3  1  1.68348670  1.85027350  1.66657213  1.0
  V  V4  1  1.18370137  1.01691457  0.33342787  1.0
  V  V5  1  1.68348670  1.51691457  1.33321320  1.0
  O  O6  1  1.48962159  1.48962159  1.00000000  1.0
  O  O7  1  0.48962159  0.98962159  0.50000000  1.0
  O  O8  1  1.04243167  1.20861939  0.66720159  1.0
  O  O9  1  0.54141780  0.70861939  0.66618773  1.0
  O  O10  1  1.04243167  0.87523008  1.33381227  1.0
  O  O11  1  1.54141780  1.37523008  1.33279841  1.0
  O  O12  1  0.73953663  0.73952283  1.50001380  1.0
  O  O13  1  0.23950903  0.23952283  0.49998620  1.0
  O  O14  1  -0.01056200  -0.01056200  -0.00000000  1.0
  O  O15  1  -0.01056200  0.48943800  0.50000000  1.0
