# generated using pymatgen
data_SnSe
_symmetry_space_group_name_H-M   'P 1'
_cell_length_a   4.31709826
_cell_length_b   4.31709826
_cell_length_c   12.18432058
_cell_angle_alpha   90.00000000
_cell_angle_beta   90.00000000
_cell_angle_gamma   90.04302433
_symmetry_Int_Tables_number   1
_chemical_formula_structural   SnSe
_chemical_formula_sum   'Sn2 Se2'
_cell_volume   227.08322965
_cell_formula_units_Z   2
loop_
 _symmetry_equiv_pos_site_id
 _symmetry_equiv_pos_as_xyz
  1  'x, y, z'
loop_
 _atom_site_type_symbol
 _atom_site_label
 _atom_site_symmetry_multiplicity
 _atom_site_fract_x
 _atom_site_fract_y
 _atom_site_fract_z
 _atom_site_occupancy
  Sn  Sn0  1  -0.25000000  0.25000000  0.61196526  1.0
  Sn  Sn1  1  -0.75000000  0.75000000  0.38803474  1.0
  Se  Se2  1  -0.25000000  0.25000000  0.38891785  1.0
  Se  Se3  1  -0.75000000  0.75000000  0.61108215  1.0
