# generated using pymatgen
data_KVH6SO9
_symmetry_space_group_name_H-M   'P 1'
_cell_length_a   6.26233050
_cell_length_b   9.94763299
_cell_length_c   6.61295036
_cell_angle_alpha   90.00000000
_cell_angle_beta   106.78678408
_cell_angle_gamma   90.00000000
_symmetry_Int_Tables_number   1
_chemical_formula_structural   KVH6SO9
_chemical_formula_sum   'K2 V2 H12 S2 O18'
_cell_volume   394.40111808
_cell_formula_units_Z   2
loop_
 _symmetry_equiv_pos_site_id
 _symmetry_equiv_pos_as_xyz
  1  'x, y, z'
loop_
 _atom_site_type_symbol
 _atom_site_label
 _atom_site_symmetry_multiplicity
 _atom_site_fract_x
 _atom_site_fract_y
 _atom_site_fract_z
 _atom_site_occupancy
  K  K0  1  0.80480408  0.79412783  0.81615864  1.0
  K  K1  1  0.19519592  0.29412783  0.18384136  1.0
  V  V2  1  0.88315342  0.14173662  0.62014368  1.0
  V  V3  1  0.11684658  0.64173662  0.37985632  1.0
  H  H4  1  0.81079312  0.40763571  0.74023721  1.0
  H  H5  1  0.18920688  0.90763571  0.25976279  1.0
  H  H6  1  0.73394049  0.35621487  0.30318293  1.0
  H  H7  1  0.26605951  0.85621487  0.69681707  1.0
  H  H8  1  0.69227322  0.22413632  0.17445510  1.0
  H  H9  1  0.30772678  0.72413632  0.82554490  1.0
  H  H10  1  0.60975853  0.49011519  0.92675491  1.0
  H  H11  1  0.39024147  -0.00988481  0.07324509  1.0
  H  H12  1  0.47057338  0.49735324  0.69116365  1.0
  H  H13  1  0.52942662  -0.00264676  0.30883635  1.0
  H  H14  1  0.03232012  0.40646878  0.66052222  1.0
  H  H15  1  0.96767988  0.90646878  0.33947778  1.0
  S  S16  1  0.41863483  0.14544307  0.73351992  1.0
  S  S17  1  0.58136517  0.64544307  0.26648008  1.0
  O  O18  1  0.95543975  0.08260293  0.85810672  1.0
  O  O19  1  0.04456025  0.58260293  0.14189328  1.0
  O  O20  1  0.93926715  0.35017963  0.72616824  1.0
  O  O21  1  0.06073285  0.85017963  0.27383176  1.0
  O  O22  1  0.82021866  0.00683007  0.46698533  1.0
  O  O23  1  0.17978134  0.50683007  0.53301467  1.0
  O  O24  1  0.81355638  0.67245600  0.41527584  1.0
  O  O25  1  0.18644362  0.17245600  0.58472416  1.0
  O  O26  1  0.79505153  0.26490827  0.30144650  1.0
  O  O27  1  0.20494847  0.76490827  0.69855350  1.0
  O  O28  1  0.62418111  0.50663104  0.78528246  1.0
  O  O29  1  0.37581889  0.00663104  0.21471754  1.0
  O  O30  1  0.56739121  0.19063159  0.60044157  1.0
  O  O31  1  0.43260879  0.69063159  0.39955843  1.0
  O  O32  1  0.45969893  0.22842592  0.92439513  1.0
  O  O33  1  0.54030107  0.72842592  0.07560487  1.0
  O  O34  1  0.44681792  0.00020293  0.78231982  1.0
  O  O35  1  0.55318208  0.50020293  0.21768018  1.0
