# generated using pymatgen
data_RbVBr3
_symmetry_space_group_name_H-M   'P 1'
_cell_length_a   7.52626392
_cell_length_b   7.52626392
_cell_length_c   6.52175942
_cell_angle_alpha   90.00000000
_cell_angle_beta   90.00000000
_cell_angle_gamma   120.00000000
_symmetry_Int_Tables_number   1
_chemical_formula_structural   RbVBr3
_chemical_formula_sum   'Rb2 V2 Br6'
_cell_volume   319.92950398
_cell_formula_units_Z   2
loop_
 _symmetry_equiv_pos_site_id
 _symmetry_equiv_pos_as_xyz
  1  'x, y, z'
loop_
 _atom_site_type_symbol
 _atom_site_label
 _atom_site_symmetry_multiplicity
 _atom_site_fract_x
 _atom_site_fract_y
 _atom_site_fract_z
 _atom_site_occupancy
  Rb  Rb0  1  0.33333333  0.66666667  0.75000000  1.0
  Rb  Rb1  1  0.66666667  0.33333333  0.25000000  1.0
  V  V2  1  0.00000000  0.00000000  0.50000000  1.0
  V  V3  1  -0.00000000  -0.00000000  0.00000000  1.0
  Br  Br4  1  0.15964131  0.84035869  0.25000000  1.0
  Br  Br5  1  0.15964131  0.31928261  0.25000000  1.0
  Br  Br6  1  0.84035869  0.15964131  0.75000000  1.0
  Br  Br7  1  0.84035869  0.68071739  0.75000000  1.0
  Br  Br8  1  0.68071739  0.84035869  0.25000000  1.0
  Br  Br9  1  0.31928261  0.15964131  0.75000000  1.0
