# generated using pymatgen
data_AsS
_symmetry_space_group_name_H-M   'P 1'
_cell_length_a   10.40800320
_cell_length_b   10.19951967
_cell_length_c   9.22870062
_cell_angle_alpha   90.00000000
_cell_angle_beta   98.35837817
_cell_angle_gamma   90.00000000
_symmetry_Int_Tables_number   1
_chemical_formula_structural   AsS
_chemical_formula_sum   'As16 S16'
_cell_volume   969.28173227
_cell_formula_units_Z   16
loop_
 _symmetry_equiv_pos_site_id
 _symmetry_equiv_pos_as_xyz
  1  'x, y, z'
loop_
 _atom_site_type_symbol
 _atom_site_label
 _atom_site_symmetry_multiplicity
 _atom_site_fract_x
 _atom_site_fract_y
 _atom_site_fract_z
 _atom_site_occupancy
  As  As0  1  0.91148926  0.45234891  0.19392450  1.0
  As  As1  1  0.91148926  0.04765109  0.69392450  1.0
  As  As2  1  0.08851074  0.95234891  0.30607550  1.0
  As  As3  1  0.08851074  0.54765109  0.80607550  1.0
  As  As4  1  0.85067438  0.64904246  0.33897545  1.0
  As  As5  1  0.85067438  0.85095754  0.83897545  1.0
  As  As6  1  0.14932562  0.14904246  0.16102455  1.0
  As  As7  1  0.14932562  0.35095754  0.66102455  1.0
  As  As8  1  0.67966900  0.37361388  0.45461130  1.0
  As  As9  1  0.67966900  0.12638612  0.95461130  1.0
  As  As10  1  0.32033100  0.87361388  0.04538870  1.0
  As  As11  1  0.32033100  0.62638612  0.54538870  1.0
  As  As12  1  0.36541253  0.13509282  0.33067784  1.0
  As  As13  1  0.36541253  0.36490718  0.83067784  1.0
  As  As14  1  0.63458747  0.63509282  0.16932216  1.0
  As  As15  1  0.63458747  0.86490718  0.66932216  1.0
  S  S16  1  0.82439863  0.28834209  0.31535440  1.0
  S  S17  1  0.82439863  0.21165791  0.81535440  1.0
  S  S18  1  0.17560137  0.78834209  0.18464560  1.0
  S  S19  1  0.17560137  0.71165791  0.68464560  1.0
  S  S20  1  0.80083018  0.94609454  0.04003871  1.0
  S  S21  1  0.80083018  0.55390546  0.54003871  1.0
  S  S22  1  0.19916982  0.44609454  0.45996129  1.0
  S  S23  1  0.19916982  0.05390546  0.95996129  1.0
  S  S24  1  0.74914973  0.97666760  0.51375291  1.0
  S  S25  1  0.74914973  0.52333240  1.01375291  1.0
  S  S26  1  0.25085027  0.47666760  -0.01375291  1.0
  S  S27  1  0.25085027  0.02333240  0.48624709  1.0
  S  S28  1  0.53240231  0.48075607  0.28860804  1.0
  S  S29  1  0.53240231  0.01924393  0.78860804  1.0
  S  S30  1  0.46759769  0.98075607  0.21139196  1.0
  S  S31  1  0.46759769  0.51924393  0.71139196  1.0
