# generated using pymatgen
data_Rb4H6C2O9
_symmetry_space_group_name_H-M   'P 1'
_cell_length_a   9.37961464
_cell_length_b   9.37961464
_cell_length_c   7.63175029
_cell_angle_alpha   70.23074038
_cell_angle_beta   109.76925962
_cell_angle_gamma   84.88766999
_symmetry_Int_Tables_number   1
_chemical_formula_structural   Rb4H6C2O9
_chemical_formula_sum   'Rb8 H12 C4 O18'
_cell_volume   578.69535275
_cell_formula_units_Z   2
loop_
 _symmetry_equiv_pos_site_id
 _symmetry_equiv_pos_as_xyz
  1  'x, y, z'
loop_
 _atom_site_type_symbol
 _atom_site_label
 _atom_site_symmetry_multiplicity
 _atom_site_fract_x
 _atom_site_fract_y
 _atom_site_fract_z
 _atom_site_occupancy
  Rb  Rb0  1  1.50929041  0.22319166  0.53696682  1.0
  Rb  Rb1  1  0.77680834  -0.50929041  0.03696682  1.0
  Rb  Rb2  1  1.22319166  0.50929041  0.96303318  1.0
  Rb  Rb3  1  0.49070959  -0.22319166  0.46303318  1.0
  Rb  Rb4  1  0.88013792  -0.11986208  0.75000000  1.0
  Rb  Rb5  1  1.11986208  0.11986208  0.25000000  1.0
  Rb  Rb6  1  1.18971130  0.18971130  0.75000000  1.0
  Rb  Rb7  1  0.81028870  -0.18971130  0.25000000  1.0
  H  H8  1  1.79659915  0.14686341  0.37901986  1.0
  H  H9  1  0.85313659  -0.79659915  0.87901986  1.0
  H  H10  1  1.14686341  0.79659915  0.12098014  1.0
  H  H11  1  0.20340085  -0.14686341  0.62098014  1.0
  H  H12  1  1.72466297  0.13946688  0.96350507  1.0
  H  H13  1  0.86053312  -0.72466297  0.46350507  1.0
  H  H14  1  1.13946688  0.72466297  0.53649493  1.0
  H  H15  1  0.27533703  -0.13946688  0.03649493  1.0
  H  H16  1  1.50043447  0.36597063  0.84451081  1.0
  H  H17  1  0.63402937  -0.50043447  0.34451081  1.0
  H  H18  1  1.36597063  0.50043447  0.65548919  1.0
  H  H19  1  0.49956553  -0.36597063  0.15548919  1.0
  C  C20  1  0.47011280  -0.13796164  0.84177666  1.0
  C  C21  1  1.13796164  0.52988720  0.34177666  1.0
  C  C22  1  0.86203836  -0.52988720  0.65822334  1.0
  C  C23  1  1.52988720  0.13796164  0.15822334  1.0
  O  O24  1  0.60819370  -0.17879180  0.85104537  1.0
  O  O25  1  1.17879180  0.39180630  0.35104537  1.0
  O  O26  1  0.82120820  -0.39180630  0.64895463  1.0
  O  O27  1  1.39180630  0.17879180  0.14895463  1.0
  O  O28  1  1.81244134  0.10889863  0.92645650  1.0
  O  O29  1  0.89110137  -0.81244134  0.42645650  1.0
  O  O30  1  1.10889863  0.81244134  0.57354350  1.0
  O  O31  1  0.18755866  -0.10889863  0.07354350  1.0
  O  O32  1  0.35555918  -0.05501374  0.66746168  1.0
  O  O33  1  1.05501374  0.64444082  0.16746168  1.0
  O  O34  1  0.94498626  -0.64444082  0.83253832  1.0
  O  O35  1  1.64444082  0.05501374  0.33253832  1.0
  O  O36  1  1.55711084  0.17929412  0.99246095  1.0
  O  O37  1  0.82070588  -0.55711084  0.49246095  1.0
  O  O38  1  1.17929412  0.55711084  0.50753905  1.0
  O  O39  1  0.44288916  -0.17929412  0.00753905  1.0
  O  O40  1  1.47757204  0.47757204  0.75000000  1.0
  O  O41  1  0.52242796  -0.47757204  0.25000000  1.0
