# generated using pymatgen
data_BaVAsO6
_symmetry_space_group_name_H-M   'P 1'
_cell_length_a   5.88451057
_cell_length_b   10.36769579
_cell_length_c   9.01625394
_cell_angle_alpha   90.00000000
_cell_angle_beta   90.65227095
_cell_angle_gamma   90.00000000
_symmetry_Int_Tables_number   1
_chemical_formula_structural   BaVAsO6
_chemical_formula_sum   'Ba4 V4 As4 O24'
_cell_volume   550.03532789
_cell_formula_units_Z   4
loop_
 _symmetry_equiv_pos_site_id
 _symmetry_equiv_pos_as_xyz
  1  'x, y, z'
loop_
 _atom_site_type_symbol
 _atom_site_label
 _atom_site_symmetry_multiplicity
 _atom_site_fract_x
 _atom_site_fract_y
 _atom_site_fract_z
 _atom_site_occupancy
  Ba  Ba0  1  0.86011842  0.80549998  0.41339589  1.0
  Ba  Ba1  1  0.86011842  0.69450002  0.91339589  1.0
  Ba  Ba2  1  0.13988158  0.30549998  0.08660411  1.0
  Ba  Ba3  1  0.13988158  0.19450002  0.58660411  1.0
  V  V4  1  0.65196795  0.40964644  0.41365394  1.0
  V  V5  1  0.65196795  0.09035356  0.91365394  1.0
  V  V6  1  0.34803205  0.90964644  0.08634606  1.0
  V  V7  1  0.34803205  0.59035356  0.58634606  1.0
  As  As8  1  0.65362058  0.11325328  0.28084485  1.0
  As  As9  1  0.65362058  0.38674672  0.78084485  1.0
  As  As10  1  0.34637942  0.61325328  0.21915515  1.0
  As  As11  1  0.34637942  0.88674672  0.71915515  1.0
  O  O12  1  0.88876604  0.36261947  0.33684759  1.0
  O  O13  1  0.88876604  0.13738053  0.83684759  1.0
  O  O14  1  0.11123396  0.86261947  0.16315241  1.0
  O  O15  1  0.11123396  0.63738053  0.66315241  1.0
  O  O16  1  0.89284800  0.07710201  0.38088133  1.0
  O  O17  1  0.89284800  0.42289799  0.88088133  1.0
  O  O18  1  0.10715200  0.57710201  0.11911867  1.0
  O  O19  1  0.10715200  0.92289799  0.61911867  1.0
  O  O20  1  0.71965834  0.17456148  0.10364067  1.0
  O  O21  1  0.71965834  0.32543852  0.60364067  1.0
  O  O22  1  0.28034166  0.67456148  0.39635933  1.0
  O  O23  1  0.28034166  0.82543852  0.89635933  1.0
  O  O24  1  0.68729778  0.93717293  0.97203564  1.0
  O  O25  1  0.68729778  0.56282707  0.47203564  1.0
  O  O26  1  0.31270222  0.43717293  0.52796436  1.0
  O  O27  1  0.31270222  0.06282707  0.02796436  1.0
  O  O28  1  0.47169388  0.22595636  0.35967733  1.0
  O  O29  1  0.47169388  0.27404364  0.85967733  1.0
  O  O30  1  0.52830612  0.72595636  0.14032267  1.0
  O  O31  1  0.52830612  0.77404364  0.64032267  1.0
  O  O32  1  0.48052322  0.46164944  0.23601021  1.0
  O  O33  1  0.48052322  0.03835056  0.73601021  1.0
  O  O34  1  0.51947678  0.96164944  0.26398979  1.0
  O  O35  1  0.51947678  0.53835056  0.76398979  1.0
