# generated using pymatgen
data_LuSF
_symmetry_space_group_name_H-M   'P 1'
_cell_length_a   8.62625294
_cell_length_b   8.62625294
_cell_length_c   8.62625294
_cell_angle_alpha   26.48398699
_cell_angle_beta   26.48398699
_cell_angle_gamma   26.48398699
_symmetry_Int_Tables_number   1
_chemical_formula_structural   LuSF
_chemical_formula_sum   'Lu2 S2 F2'
_cell_volume   112.51823995
_cell_formula_units_Z   2
loop_
 _symmetry_equiv_pos_site_id
 _symmetry_equiv_pos_as_xyz
  1  'x, y, z'
loop_
 _atom_site_type_symbol
 _atom_site_label
 _atom_site_symmetry_multiplicity
 _atom_site_fract_x
 _atom_site_fract_y
 _atom_site_fract_z
 _atom_site_occupancy
  Lu  Lu0  1  1.50000000  0.50000000  0.50000000  1.0
  Lu  Lu1  1  0.00000000  0.00000000  0.00000000  1.0
  S  S2  1  0.89089318  0.89089318  0.89089318  1.0
  S  S3  1  1.10910682  1.10910682  0.10910682  1.0
  F  F4  1  0.68153833  0.68153833  0.68153833  1.0
  F  F5  1  1.31846167  1.31846167  0.31846167  1.0
