# generated using pymatgen
data_BHO2
_symmetry_space_group_name_H-M   'P 1'
_cell_length_a   6.85755305
_cell_length_b   8.94296367
_cell_length_c   7.54164967
_cell_angle_alpha   90.00000000
_cell_angle_beta   90.21783166
_cell_angle_gamma   90.00000000
_symmetry_Int_Tables_number   1
_chemical_formula_structural   BHO2
_chemical_formula_sum   'B12 H12 O24'
_cell_volume   462.50225878
_cell_formula_units_Z   12
loop_
 _symmetry_equiv_pos_site_id
 _symmetry_equiv_pos_as_xyz
  1  'x, y, z'
loop_
 _atom_site_type_symbol
 _atom_site_label
 _atom_site_symmetry_multiplicity
 _atom_site_fract_x
 _atom_site_fract_y
 _atom_site_fract_z
 _atom_site_occupancy
  B  B0  1  0.83277189  0.95896266  0.73074579  1.0
  B  B1  1  0.83277189  0.54103734  0.23074579  1.0
  B  B2  1  0.16722811  0.45896266  0.76925421  1.0
  B  B3  1  0.16722811  0.04103734  0.26925421  1.0
  B  B4  1  0.65901973  0.33856202  0.38978708  1.0
  B  B5  1  0.65901973  0.16143797  0.88978708  1.0
  B  B6  1  0.34098027  0.83856202  0.11021292  1.0
  B  B7  1  0.34098027  0.66143797  0.61021292  1.0
  B  B8  1  0.96497100  0.28289948  0.25183877  1.0
  B  B9  1  0.96497100  0.21710052  0.75183877  1.0
  B  B10  1  0.03502900  0.78289948  0.24816123  1.0
  B  B11  1  0.03502900  0.71710052  0.74816123  1.0
  H  H12  1  0.82835432  0.94431008  0.44246036  1.0
  H  H13  1  0.82835432  0.55568992  0.94246036  1.0
  H  H14  1  0.17164568  0.44431008  0.05753964  1.0
  H  H15  1  0.17164568  0.05568992  0.55753964  1.0
  H  H16  1  0.36036719  0.14422771  0.46836588  1.0
  H  H17  1  0.36036719  0.35577229  0.96836588  1.0
  H  H18  1  0.63963281  0.64422771  0.03163412  1.0
  H  H19  1  0.63963281  0.85577229  0.53163412  1.0
  H  H20  1  0.42529162  0.12703719  0.03928278  1.0
  H  H21  1  0.42529162  0.37296281  0.53928278  1.0
  H  H22  1  0.57470838  0.62703719  0.46071722  1.0
  H  H23  1  0.57470838  0.87296281  0.96071722  1.0
  O  O24  1  0.79794098  0.23568551  0.33900856  1.0
  O  O25  1  0.79794098  0.26431449  0.83900856  1.0
  O  O26  1  0.20205902  0.73568551  0.16099144  1.0
  O  O27  1  0.20205902  0.76431449  0.66099144  1.0
  O  O28  1  0.68030548  0.48736466  0.35028801  1.0
  O  O29  1  0.68030548  0.01263534  0.85028801  1.0
  O  O30  1  0.31969452  0.98736466  0.14971199  1.0
  O  O31  1  0.31969452  0.51263534  0.64971199  1.0
  O  O32  1  0.50168073  0.28899818  0.48563402  1.0
  O  O33  1  0.50168073  0.21100182  0.98563402  1.0
  O  O34  1  0.49831927  0.78899818  0.01436598  1.0
  O  O35  1  0.49831927  0.71100182  0.51436598  1.0
  O  O36  1  0.26747813  0.05651283  0.45613248  1.0
  O  O37  1  0.26747813  0.44348717  0.95613248  1.0
  O  O38  1  0.73252187  0.55651283  0.04386752  1.0
  O  O39  1  0.73252187  0.94348717  0.54386752  1.0
  O  O40  1  0.98804000  0.43142565  0.20409718  1.0
  O  O41  1  0.98804000  0.06857435  0.70409718  1.0
  O  O42  1  0.01196000  0.93142565  0.29590282  1.0
  O  O43  1  0.01196000  0.56857435  0.79590282  1.0
  O  O44  1  0.89054947  0.68661333  0.29051489  1.0
  O  O45  1  0.89054947  0.81338667  0.79051489  1.0
  O  O46  1  0.10945053  0.18661333  0.20948511  1.0
  O  O47  1  0.10945053  0.31338667  0.70948511  1.0
