# generated using pymatgen
data_Na2Te2H4O7
_symmetry_space_group_name_H-M   'P 1'
_cell_length_a   5.74521733
_cell_length_b   11.81396271
_cell_length_c   6.37528176
_cell_angle_alpha   92.91991933
_cell_angle_beta   102.82576246
_cell_angle_gamma   92.24806196
_symmetry_Int_Tables_number   1
_chemical_formula_structural   Na2Te2H4O7
_chemical_formula_sum   'Na4 Te4 H8 O14'
_cell_volume   420.80257043
_cell_formula_units_Z   2
loop_
 _symmetry_equiv_pos_site_id
 _symmetry_equiv_pos_as_xyz
  1  'x, y, z'
loop_
 _atom_site_type_symbol
 _atom_site_label
 _atom_site_symmetry_multiplicity
 _atom_site_fract_x
 _atom_site_fract_y
 _atom_site_fract_z
 _atom_site_occupancy
  Na  Na0  1  -0.89530755  -0.45107148  -0.71709447  1.0
  Na  Na1  1  -0.10469245  -0.54892852  -0.28290553  1.0
  Na  Na2  1  -0.39634891  -0.93400001  -0.71866842  1.0
  Na  Na3  1  -0.60365109  -0.06599999  -0.28133158  1.0
  Te  Te4  1  -0.95542764  -0.86184743  -0.00419869  1.0
  Te  Te5  1  -0.04457236  -0.13815257  -0.99580131  1.0
  Te  Te6  1  -0.45198950  -0.63614615  -0.94946340  1.0
  Te  Te7  1  -0.54801050  -0.36385385  -0.05053660  1.0
  H  H8  1  -0.91786039  -0.69183668  -0.60470860  1.0
  H  H9  1  -0.08213961  -0.30816332  -0.39529140  1.0
  H  H10  1  -0.77934843  -0.86178857  -0.53440283  1.0
  H  H11  1  -0.22065157  -0.13821143  -0.46559717  1.0
  H  H12  1  -0.70479895  -0.63747641  -0.42089217  1.0
  H  H13  1  -0.29520105  -0.36252359  -0.57910783  1.0
  H  H14  1  -0.55874496  -0.81372901  -0.35155276  1.0
  H  H15  1  -0.44125504  -0.18627099  -0.64844724  1.0
  O  O16  1  -0.85969702  -0.61957404  -0.51565374  1.0
  O  O17  1  -0.14030298  -0.38042596  -0.48434626  1.0
  O  O18  1  -0.76777996  -0.99978889  -0.95205339  1.0
  O  O19  1  -0.23222004  -0.00021111  -0.04794661  1.0
  O  O20  1  -0.63699281  -0.88539219  -0.42920199  1.0
  O  O21  1  -0.36300719  -0.11460781  -0.57079801  1.0
  O  O22  1  -0.61894417  -0.78069980  -0.89397648  1.0
  O  O23  1  -0.38105583  -0.21930020  -0.10602352  1.0
  O  O24  1  -0.57218354  -0.32264768  -0.75938023  1.0
  O  O25  1  -0.42781646  -0.67735232  -0.24061977  1.0
  O  O26  1  -0.26650005  -0.45672752  -0.99727927  1.0
  O  O27  1  -0.73349995  -0.54327248  -0.00272073  1.0
  O  O28  1  -0.03305957  -0.82157384  -0.73171696  1.0
  O  O29  1  -0.96694043  -0.17842616  -0.26828304  1.0
