# generated using pymatgen
data_HCNO
_symmetry_space_group_name_H-M   'P 1'
_cell_length_a   5.37689321
_cell_length_b   5.37689321
_cell_length_c   9.41335870
_cell_angle_alpha   94.13706497
_cell_angle_beta   85.86293503
_cell_angle_gamma   101.31386494
_symmetry_Int_Tables_number   1
_chemical_formula_structural   HCNO
_chemical_formula_sum   'H6 C6 N6 O6'
_cell_volume   265.69716654
_cell_formula_units_Z   6
loop_
 _symmetry_equiv_pos_site_id
 _symmetry_equiv_pos_as_xyz
  1  'x, y, z'
loop_
 _atom_site_type_symbol
 _atom_site_label
 _atom_site_symmetry_multiplicity
 _atom_site_fract_x
 _atom_site_fract_y
 _atom_site_fract_z
 _atom_site_occupancy
  H  H0  1  0.44477393  -0.21233957  0.42483657  1.0
  H  H1  1  1.21233957  0.55522607  0.92483657  1.0
  H  H2  1  0.78766043  -0.55522607  0.07516343  1.0
  H  H3  1  1.55522607  0.21233957  0.57516343  1.0
  H  H4  1  1.13719978  0.13719978  0.25000000  1.0
  H  H5  1  0.86280022  -0.13719978  0.75000000  1.0
  C  C6  1  0.79196096  -0.00765780  0.35349684  1.0
  C  C7  1  1.00765780  0.20803904  0.85349684  1.0
  C  C8  1  0.99234220  -0.20803904  0.14650316  1.0
  C  C9  1  1.20803904  0.00765780  0.64650316  1.0
  C  C10  1  0.58118571  -0.41881429  0.25000000  1.0
  C  C11  1  1.41881429  0.41881429  0.75000000  1.0
  N  N12  1  0.59463989  -0.21400287  0.34836468  1.0
  N  N13  1  1.21400287  0.40536011  0.84836468  1.0
  N  N14  1  0.78599713  -0.40536011  0.15163532  1.0
  N  N15  1  1.40536011  0.21400287  0.65163532  1.0
  N  N16  1  0.98589974  -0.01410026  0.25000000  1.0
  N  N17  1  1.01410026  0.01410026  0.75000000  1.0
  O  O18  1  1.79666926  0.17164934  0.44342012  1.0
  O  O19  1  0.82835066  -0.79666926  0.94342012  1.0
  O  O20  1  1.17164934  0.79666926  0.05657988  1.0
  O  O21  1  0.20333074  -0.17164934  0.55657988  1.0
  O  O22  1  1.40114861  0.40114861  0.25000000  1.0
  O  O23  1  0.59885139  -0.40114861  0.75000000  1.0
