# generated using pymatgen
data_Cd(In2I3)2
_symmetry_space_group_name_H-M   'P 1'
_cell_length_a   9.18635782
_cell_length_b   9.18635782
_cell_length_c   9.96810467
_cell_angle_alpha   90.00000000
_cell_angle_beta   90.00000000
_cell_angle_gamma   90.00000000
_symmetry_Int_Tables_number   1
_chemical_formula_structural   Cd(In2I3)2
_chemical_formula_sum   'Cd2 In8 I12'
_cell_volume   841.20008062
_cell_formula_units_Z   2
loop_
 _symmetry_equiv_pos_site_id
 _symmetry_equiv_pos_as_xyz
  1  'x, y, z'
loop_
 _atom_site_type_symbol
 _atom_site_label
 _atom_site_symmetry_multiplicity
 _atom_site_fract_x
 _atom_site_fract_y
 _atom_site_fract_z
 _atom_site_occupancy
  Cd  Cd0  1  0.50000000  0.50000000  0.50000000  1.0
  Cd  Cd1  1  0.00000000  0.00000000  0.00000000  1.0
  In  In2  1  0.35030552  0.14969448  0.25000000  1.0
  In  In3  1  0.35030552  0.14969448  0.75000000  1.0
  In  In4  1  0.85030552  0.35030552  0.75000000  1.0
  In  In5  1  0.85030552  0.35030552  0.25000000  1.0
  In  In6  1  0.64969448  0.85030552  0.25000000  1.0
  In  In7  1  0.64969448  0.85030552  0.75000000  1.0
  In  In8  1  0.14969448  0.64969448  0.75000000  1.0
  In  In9  1  0.14969448  0.64969448  0.25000000  1.0
  I  I10  1  0.35460971  0.80555720  0.50000000  1.0
  I  I11  1  0.85460971  0.69444280  0.00000000  1.0
  I  I12  1  0.19444280  0.35460971  0.50000000  1.0
  I  I13  1  0.69444280  0.14539029  0.00000000  1.0
  I  I14  1  0.64539029  0.19444280  0.50000000  1.0
  I  I15  1  0.14539029  0.30555720  0.00000000  1.0
  I  I16  1  0.80555720  0.64539029  0.50000000  1.0
  I  I17  1  0.30555720  0.85460971  0.00000000  1.0
  I  I18  1  0.50000000  0.50000000  0.20875569  1.0
  I  I19  1  0.50000000  0.50000000  0.79124431  1.0
  I  I20  1  0.00000000  0.00000000  0.70875569  1.0
  I  I21  1  0.00000000  0.00000000  0.29124431  1.0
