# generated using pymatgen
data_Cs2NaCeBr6
_symmetry_space_group_name_H-M   'P 1'
_cell_length_a   8.27398950
_cell_length_b   8.27398950
_cell_length_c   8.27398950
_cell_angle_alpha   60.00000000
_cell_angle_beta   60.00000000
_cell_angle_gamma   60.00000000
_symmetry_Int_Tables_number   1
_chemical_formula_structural   Cs2NaCeBr6
_chemical_formula_sum   'Cs2 Na1 Ce1 Br6'
_cell_volume   400.52524772
_cell_formula_units_Z   1
loop_
 _symmetry_equiv_pos_site_id
 _symmetry_equiv_pos_as_xyz
  1  'x, y, z'
loop_
 _atom_site_type_symbol
 _atom_site_label
 _atom_site_symmetry_multiplicity
 _atom_site_fract_x
 _atom_site_fract_y
 _atom_site_fract_z
 _atom_site_occupancy
  Cs  Cs0  1  0.75000000  0.75000000  -0.25000000  1.0
  Cs  Cs1  1  1.25000000  0.25000000  0.25000000  1.0
  Na  Na2  1  -0.50000000  0.50000000  0.50000000  1.0
  Ce  Ce3  1  0.00000000  -0.00000000  0.00000000  1.0
  Br  Br4  1  -0.75191914  0.75191914  0.75191914  1.0
  Br  Br5  1  -0.24808086  0.24808086  0.75191914  1.0
  Br  Br6  1  0.75191914  0.75191914  -0.75191914  1.0
  Br  Br7  1  0.24808086  1.24808086  -0.24808086  1.0
  Br  Br8  1  0.24808086  -0.24808086  1.24808086  1.0
  Br  Br9  1  -0.24808086  0.24808086  0.24808086  1.0
