# generated using pymatgen
data_V2O3
_symmetry_space_group_name_H-M   'P 1'
_cell_length_a   8.13711098
_cell_length_b   8.13711098
_cell_length_c   8.13711098
_cell_angle_alpha   109.47122063
_cell_angle_beta   109.47122063
_cell_angle_gamma   109.47122063
_symmetry_Int_Tables_number   1
_chemical_formula_structural   V2O3
_chemical_formula_sum   'V16 O24'
_cell_volume   414.75232304
_cell_formula_units_Z   8
loop_
 _symmetry_equiv_pos_site_id
 _symmetry_equiv_pos_as_xyz
  1  'x, y, z'
loop_
 _atom_site_type_symbol
 _atom_site_label
 _atom_site_symmetry_multiplicity
 _atom_site_fract_x
 _atom_site_fract_y
 _atom_site_fract_z
 _atom_site_occupancy
  V  V0  1  1.71669864  1.46669864  1.25000000  1.0
  V  V1  1  1.21669864  0.96669864  1.25000000  1.0
  V  V2  1  0.75000000  0.78330136  0.03330136  1.0
  V  V3  1  0.25000000  1.21669864  0.96669864  1.0
  V  V4  1  0.25000000  0.71669864  0.46669864  1.0
  V  V5  1  0.75000000  1.28330136  0.53330136  1.0
  V  V6  1  1.46669864  1.25000000  1.71669864  1.0
  V  V7  1  0.96669864  0.25000000  1.21669864  1.0
  V  V8  1  0.03330136  0.75000000  0.78330136  1.0
  V  V9  1  0.53330136  0.75000000  0.28330136  1.0
  V  V10  1  0.28330136  0.53330136  0.75000000  1.0
  V  V11  1  0.78330136  1.03330136  0.75000000  1.0
  V  V12  1  1.00000000  0.50000000  1.00000000  1.0
  V  V13  1  0.50000000  0.50000000  0.50000000  1.0
  V  V14  1  1.00000000  1.00000000  1.50000000  1.0
  V  V15  1  1.50000000  1.00000000  1.00000000  1.0
  O  O16  1  0.54735306  0.53676372  0.77327733  1.0
  O  O17  1  1.04735306  1.27407573  1.01058934  1.0
  O  O18  1  0.26348639  0.77407573  0.72672267  1.0
  O  O19  1  0.76348639  1.03676372  0.48941066  1.0
  O  O20  1  0.51058934  1.23651361  0.96323628  1.0
  O  O21  1  1.01058934  1.04735306  1.27407573  1.0
  O  O22  1  0.77327733  0.54735306  0.53676372  1.0
  O  O23  1  1.27327733  0.73651361  1.22592427  1.0
  O  O24  1  0.77407573  0.72672267  0.26348639  1.0
  O  O25  1  1.27407573  1.01058934  1.04735306  1.0
  O  O26  1  0.96323628  1.51058934  1.23651361  1.0
  O  O27  1  1.46323628  1.22672267  1.45264694  1.0
  O  O28  1  1.73651361  1.22592427  1.27327733  1.0
  O  O29  1  1.23651361  0.96323628  1.51058934  1.0
  O  O30  1  1.45264694  1.46323628  1.22672267  1.0
  O  O31  1  0.95264694  0.72592427  0.98941066  1.0
  O  O32  1  1.22672267  1.45264694  1.46323628  1.0
  O  O33  1  0.72672267  1.26348639  0.77407573  1.0
  O  O34  1  1.48941066  0.76348639  1.03676372  1.0
  O  O35  1  0.98941066  0.95264694  0.72592427  1.0
  O  O36  1  1.03676372  0.48941066  0.76348639  1.0
  O  O37  1  0.53676372  0.77327733  0.54735306  1.0
  O  O38  1  1.22592427  1.27327733  1.73651361  1.0
  O  O39  1  0.72592427  0.98941066  0.95264694  1.0
