# generated using pymatgen
data_Rb2Sb4S7
_symmetry_space_group_name_H-M   'P 1'
_cell_length_a   7.86288990
_cell_length_b   11.74962355
_cell_length_c   9.76633977
_cell_angle_alpha   99.22276054
_cell_angle_beta   104.09800327
_cell_angle_gamma   86.72504449
_symmetry_Int_Tables_number   1
_chemical_formula_structural   Rb2Sb4S7
_chemical_formula_sum   'Rb4 Sb8 S14'
_cell_volume   863.63016576
_cell_formula_units_Z   2
loop_
 _symmetry_equiv_pos_site_id
 _symmetry_equiv_pos_as_xyz
  1  'x, y, z'
loop_
 _atom_site_type_symbol
 _atom_site_label
 _atom_site_symmetry_multiplicity
 _atom_site_fract_x
 _atom_site_fract_y
 _atom_site_fract_z
 _atom_site_occupancy
  Rb  Rb0  1  0.90847857  0.55767782  -0.26736578  1.0
  Rb  Rb1  1  0.09152143  0.44232218  -0.73263422  1.0
  Rb  Rb2  1  0.76761918  0.11365512  -0.67277700  1.0
  Rb  Rb3  1  0.23238082  0.88634488  -0.32722300  1.0
  Sb  Sb4  1  0.99768555  0.77262374  -0.80838302  1.0
  Sb  Sb5  1  0.00231445  0.22737626  -0.19161698  1.0
  Sb  Sb6  1  0.77654205  0.94840277  -0.14111266  1.0
  Sb  Sb7  1  0.22345795  0.05159723  -0.85888734  1.0
  Sb  Sb8  1  0.66409158  0.81300940  -0.56844030  1.0
  Sb  Sb9  1  0.33590842  0.18699060  -0.43155970  1.0
  Sb  Sb10  1  0.47512116  0.65672032  -0.95033063  1.0
  Sb  Sb11  1  0.52487884  0.34327968  -0.04966937  1.0
  S  S12  1  0.94684707  0.15622995  -0.93733452  1.0
  S  S13  1  0.05315293  0.84377005  -0.06266548  1.0
  S  S14  1  0.94816759  0.71143776  -0.56678057  1.0
  S  S15  1  0.05183241  0.28856224  -0.43321943  1.0
  S  S16  1  0.72702892  0.53123246  -0.98045747  1.0
  S  S17  1  0.27297108  0.46876754  -0.01954253  1.0
  S  S18  1  0.69589389  0.84728738  -0.87406764  1.0
  S  S19  1  0.30410611  0.15271262  -0.12593236  1.0
  S  S20  1  0.63118332  0.77572451  -0.33032402  1.0
  S  S21  1  0.36881668  0.22427549  -0.66967598  1.0
  S  S22  1  0.46750613  0.65030198  -0.69696850  1.0
  S  S23  1  0.53249387  0.34969802  -0.30303150  1.0
  S  S24  1  0.14241552  0.95506186  -0.66781125  1.0
  S  S25  1  0.85758448  0.04493814  -0.33218875  1.0
