# generated using pymatgen
data_ScPIr
_symmetry_space_group_name_H-M   'P 1'
_cell_length_a   6.36523604
_cell_length_b   6.36523604
_cell_length_c   3.92458066
_cell_angle_alpha   90.00000000
_cell_angle_beta   90.00000000
_cell_angle_gamma   120.00000000
_symmetry_Int_Tables_number   1
_chemical_formula_structural   ScPIr
_chemical_formula_sum   'Sc3 P3 Ir3'
_cell_volume   137.70601693
_cell_formula_units_Z   3
loop_
 _symmetry_equiv_pos_site_id
 _symmetry_equiv_pos_as_xyz
  1  'x, y, z'
loop_
 _atom_site_type_symbol
 _atom_site_label
 _atom_site_symmetry_multiplicity
 _atom_site_fract_x
 _atom_site_fract_y
 _atom_site_fract_z
 _atom_site_occupancy
  Sc  Sc0  1  0.41854746  0.41854746  0.00000000  1.0
  Sc  Sc1  1  -0.00000000  0.58145254  0.00000000  1.0
  Sc  Sc2  1  0.58145254  0.00000000  0.00000000  1.0
  P  P3  1  0.33333333  0.66666667  0.50000000  1.0
  P  P4  1  0.66666667  0.33333333  0.50000000  1.0
  P  P5  1  0.00000000  0.00000000  0.00000000  1.0
  Ir  Ir6  1  0.75030659  0.75030659  0.50000000  1.0
  Ir  Ir7  1  -0.00000000  0.24969341  0.50000000  1.0
  Ir  Ir8  1  0.24969341  0.00000000  0.50000000  1.0
