# generated using pymatgen
data_MoCl5
_symmetry_space_group_name_H-M   'P 1'
_cell_length_a   13.23315999
_cell_length_b   13.23315999
_cell_length_c   6.69726223
_cell_angle_alpha   85.55130792
_cell_angle_beta   94.44869208
_cell_angle_gamma   90.75801278
_symmetry_Int_Tables_number   1
_chemical_formula_structural   MoCl5
_chemical_formula_sum   'Mo6 Cl30'
_cell_volume   1165.71438264
_cell_formula_units_Z   6
loop_
 _symmetry_equiv_pos_site_id
 _symmetry_equiv_pos_as_xyz
  1  'x, y, z'
loop_
 _atom_site_type_symbol
 _atom_site_label
 _atom_site_symmetry_multiplicity
 _atom_site_fract_x
 _atom_site_fract_y
 _atom_site_fract_z
 _atom_site_occupancy
  Mo  Mo0  1  0.43784768  -0.22813593  0.93244901  1.0
  Mo  Mo1  1  1.22813593  0.56215232  0.93244901  1.0
  Mo  Mo2  1  0.77186407  -0.56215232  0.06755099  1.0
  Mo  Mo3  1  1.56215232  0.22813593  0.06755099  1.0
  Mo  Mo4  1  0.89486136  -0.10513864  0.50000000  1.0
  Mo  Mo5  1  1.10513864  0.10513864  0.50000000  1.0
  Cl  Cl6  1  0.73916364  -0.11032268  0.62019357  1.0
  Cl  Cl7  1  1.11032268  0.26083636  0.62019357  1.0
  Cl  Cl8  1  0.88967732  -0.26083636  0.37980643  1.0
  Cl  Cl9  1  1.26083636  0.11032268  0.37980643  1.0
  Cl  Cl10  1  0.49827895  -0.31354298  0.68419442  1.0
  Cl  Cl11  1  1.31354298  0.50172105  0.68419442  1.0
  Cl  Cl12  1  0.68645702  -0.50172105  0.31580558  1.0
  Cl  Cl13  1  1.50172105  0.31354298  0.31580558  1.0
  Cl  Cl14  1  0.44610562  -0.07486675  0.75730681  1.0
  Cl  Cl15  1  1.07486675  0.55389438  0.75730681  1.0
  Cl  Cl16  1  0.92513325  -0.55389438  0.24269319  1.0
  Cl  Cl17  1  1.55389438  0.07486675  0.24269319  1.0
  Cl  Cl18  1  1.64795970  0.16783192  0.81955218  1.0
  Cl  Cl19  1  0.83216808  -0.64795970  0.81955218  1.0
  Cl  Cl20  1  1.16783192  0.64795970  0.18044782  1.0
  Cl  Cl21  1  0.35204030  -0.16783192  0.18044782  1.0
  Cl  Cl22  1  1.40916429  0.21979727  0.89154818  1.0
  Cl  Cl23  1  0.78020273  -0.40916429  0.89154818  1.0
  Cl  Cl24  1  1.21979727  0.40916429  0.10845182  1.0
  Cl  Cl25  1  0.59083571  -0.21979727  0.10845182  1.0
  Cl  Cl26  1  1.16065311  0.02402579  0.80060345  1.0
  Cl  Cl27  1  0.97597421  -0.16065311  0.80060345  1.0
  Cl  Cl28  1  1.02402579  0.16065311  0.19939655  1.0
  Cl  Cl29  1  0.83934689  -0.02402579  0.19939655  1.0
  Cl  Cl30  1  0.92838800  -0.92838800  0.61473356  1.0
  Cl  Cl31  1  0.07161200  -0.07161200  0.38526644  1.0
  Cl  Cl32  1  0.59760040  -0.59760040  0.90034656  1.0
  Cl  Cl33  1  0.40239960  -0.40239960  0.09965344  1.0
  Cl  Cl34  1  0.26353180  -0.26353180  0.76519361  1.0
  Cl  Cl35  1  0.73646820  -0.73646820  0.23480639  1.0
