# generated using pymatgen
data_Tl3S2O9
_symmetry_space_group_name_H-M   'P 1'
_cell_length_a   9.72285302
_cell_length_b   9.72285302
_cell_length_c   7.81298722
_cell_angle_alpha   74.97370761
_cell_angle_beta   105.02629239
_cell_angle_gamma   50.71258975
_symmetry_Int_Tables_number   1
_chemical_formula_structural   Tl3S2O9
_chemical_formula_sum   'Tl6 S4 O18'
_cell_volume   454.99015485
_cell_formula_units_Z   2
loop_
 _symmetry_equiv_pos_site_id
 _symmetry_equiv_pos_as_xyz
  1  'x, y, z'
loop_
 _atom_site_type_symbol
 _atom_site_label
 _atom_site_symmetry_multiplicity
 _atom_site_fract_x
 _atom_site_fract_y
 _atom_site_fract_z
 _atom_site_occupancy
  O  O0  1  0.97713270  0.77678955  0.75193659  1.0
  O  O1  1  1.22321045  0.02286730  0.25193659  1.0
  O  O2  1  1.12861899  0.84481182  0.58717984  1.0
  O  O3  1  1.15518818  -0.12861899  0.08717984  1.0
  O  O4  1  0.88145404  0.55934563  0.02934219  1.0
  O  O5  1  1.44065437  0.11854596  0.52934219  1.0
  O  O6  1  1.77217908  0.14910679  0.50225153  1.0
  O  O7  1  0.85089321  0.22782092  0.00225153  1.0
  O  O8  1  1.17665573  0.35837331  0.58723998  1.0
  O  O9  1  1.64162669  -0.17665573  0.08723998  1.0
  O  O10  1  1.07353103  0.17576677  0.86860931  1.0
  O  O11  1  1.82423323  -0.07353103  0.36860931  1.0
  O  O12  1  1.52483730  0.22818582  0.74931792  1.0
  O  O13  1  0.77181418  0.47516270  0.24931792  1.0
  O  O14  1  0.70948938  0.67830259  0.54588246  1.0
  O  O15  1  1.32169741  0.29051062  0.04588246  1.0
  O  O16  1  1.26036976  0.49114238  0.37130716  1.0
  O  O17  1  1.50885762  -0.26036976  0.87130716  1.0
  S  S18  1  0.92269419  0.93015312  0.55031491  1.0
  S  S19  1  1.06984688  0.07730581  0.05031491  1.0
  S  S20  1  1.35061535  0.29743590  0.55804585  1.0
  S  S21  1  0.70256410  0.64938465  0.05804585  1.0
  Tl  Tl22  1  0.55047940  0.52734485  0.53915337  1.0
  Tl  Tl23  1  1.47265515  0.44952060  0.03915337  1.0
  Tl  Tl24  1  1.01764209  0.48059648  0.79380368  1.0
  Tl  Tl25  1  1.51940352  -0.01764209  0.29380368  1.0
  Tl  Tl26  1  1.15255280  0.10489682  0.54281520  1.0
  Tl  Tl27  1  1.89510318  -0.15255280  0.04281520  1.0
