# generated using pymatgen
data_Ba3W2O9
_symmetry_space_group_name_H-M   'P 1'
_cell_length_a   7.58486965
_cell_length_b   7.58486965
_cell_length_c   7.58486965
_cell_angle_alpha   85.04064927
_cell_angle_beta   85.04064927
_cell_angle_gamma   85.04064927
_symmetry_Int_Tables_number   1
_chemical_formula_structural   Ba3W2O9
_chemical_formula_sum   'Ba6 W4 O18'
_cell_volume   431.72509159
_cell_formula_units_Z   2
loop_
 _symmetry_equiv_pos_site_id
 _symmetry_equiv_pos_as_xyz
  1  'x, y, z'
loop_
 _atom_site_type_symbol
 _atom_site_label
 _atom_site_symmetry_multiplicity
 _atom_site_fract_x
 _atom_site_fract_y
 _atom_site_fract_z
 _atom_site_occupancy
  Ba  Ba0  1  0.57772850  0.25000000  -0.07772850  1.0
  Ba  Ba1  1  1.07772850  -0.57772850  -0.25000000  1.0
  Ba  Ba2  1  0.75000000  0.07772850  -0.57772850  1.0
  Ba  Ba3  1  0.25000000  0.92227150  -0.42227150  1.0
  Ba  Ba4  1  0.42227150  -0.25000000  0.07772850  1.0
  Ba  Ba5  1  0.92227150  -0.42227150  0.25000000  1.0
  W  W6  1  0.35402454  0.35402454  -0.64597546  1.0
  W  W7  1  0.85402454  0.85402454  -0.14597546  1.0
  W  W8  1  1.14597546  1.14597546  0.14597546  1.0
  W  W9  1  0.64597546  0.64597546  -0.35402454  1.0
  O  O10  1  0.24702373  0.56960149  -0.58890700  1.0
  O  O11  1  0.74702373  -0.08890700  0.06960149  1.0
  O  O12  1  1.08890700  -0.06960149  -0.74702373  1.0
  O  O13  1  0.58890700  0.75297627  -0.56960149  1.0
  O  O14  1  0.43039851  0.58890700  -0.24702373  1.0
  O  O15  1  0.93039851  -0.74702373  0.08890700  1.0
  O  O16  1  0.75297627  0.43039851  -0.41109300  1.0
  O  O17  1  0.25297627  0.08890700  -0.06960149  1.0
  O  O18  1  0.41109300  0.24702373  -0.43039851  1.0
  O  O19  1  0.91109300  0.06960149  -0.25297627  1.0
  O  O20  1  1.06960149  -0.25297627  -0.08890700  1.0
  O  O21  1  0.56960149  0.41109300  -0.75297627  1.0
  O  O22  1  1.10484813  1.25000000  0.39515187  1.0
  O  O23  1  0.60484813  0.89515187  -0.25000000  1.0
  O  O24  1  0.75000000  0.60484813  -0.10484813  1.0
  O  O25  1  1.25000000  1.39515187  0.10484813  1.0
  O  O26  1  0.89515187  0.75000000  -0.39515187  1.0
  O  O27  1  1.39515187  1.10484813  0.25000000  1.0
