# generated using pymatgen
data_Li4H4Rh
_symmetry_space_group_name_H-M   'P 1'
_cell_length_a   4.88222960
_cell_length_b   4.88222960
_cell_length_c   4.88222960
_cell_angle_alpha   99.97194078
_cell_angle_beta   99.97194078
_cell_angle_gamma   130.81874718
_symmetry_Int_Tables_number   1
_chemical_formula_structural   Li4H4Rh
_chemical_formula_sum   'Li4 H4 Rh1'
_cell_volume   80.08185763
_cell_formula_units_Z   1
loop_
 _symmetry_equiv_pos_site_id
 _symmetry_equiv_pos_as_xyz
  1  'x, y, z'
loop_
 _atom_site_type_symbol
 _atom_site_label
 _atom_site_symmetry_multiplicity
 _atom_site_fract_x
 _atom_site_fract_y
 _atom_site_fract_z
 _atom_site_occupancy
  Li  Li0  1  0.61415370  0.78121839  1.39537208  1.0
  Li  Li1  1  0.78121839  1.38584630  1.16706469  1.0
  Li  Li2  1  0.38584630  0.21878161  0.60462792  1.0
  Li  Li3  1  1.21878161  0.61415370  0.83293531  1.0
  H  H4  1  0.93364687  0.73503794  0.66868481  1.0
  H  H5  1  0.73503794  0.06635313  0.80139107  1.0
  H  H6  1  1.06635313  1.26496206  1.33131519  1.0
  H  H7  1  0.26496206  0.93364687  1.19860893  1.0
  Rh  Rh8  1  0.00000000  0.00000000  0.00000000  1.0
