# generated using pymatgen
data_Cs3Sb2Cl9
_symmetry_space_group_name_H-M   'P 1'
_cell_length_a   7.84312503
_cell_length_b   7.84312503
_cell_length_c   9.48512569
_cell_angle_alpha   90.00000000
_cell_angle_beta   90.00000000
_cell_angle_gamma   120.00000000
_symmetry_Int_Tables_number   1
_chemical_formula_structural   Cs3Sb2Cl9
_chemical_formula_sum   'Cs3 Sb2 Cl9'
_cell_volume   505.30314187
_cell_formula_units_Z   1
loop_
 _symmetry_equiv_pos_site_id
 _symmetry_equiv_pos_as_xyz
  1  'x, y, z'
loop_
 _atom_site_type_symbol
 _atom_site_label
 _atom_site_symmetry_multiplicity
 _atom_site_fract_x
 _atom_site_fract_y
 _atom_site_fract_z
 _atom_site_occupancy
  Cs  Cs0  1  0.33333333  0.66666667  0.66642653  1.0
  Cs  Cs1  1  0.66666667  0.33333333  0.33357347  1.0
  Cs  Cs2  1  0.00000000  0.00000000  0.00000000  1.0
  Sb  Sb3  1  0.33333333  0.66666667  0.18069643  1.0
  Sb  Sb4  1  0.66666667  0.33333333  0.81930357  1.0
  Cl  Cl5  1  0.16508847  0.80698417  0.32977050  1.0
  Cl  Cl6  1  0.80698417  0.16508847  0.67022950  1.0
  Cl  Cl7  1  0.64189570  0.83491153  0.32977050  1.0
  Cl  Cl8  1  0.19301583  0.35810430  0.32977050  1.0
  Cl  Cl9  1  0.83491153  0.64189570  0.67022950  1.0
  Cl  Cl10  1  0.35810430  0.19301583  0.67022950  1.0
  Cl  Cl11  1  0.52379214  0.52379214  0.00000000  1.0
  Cl  Cl12  1  0.00000000  0.47620786  -0.00000000  1.0
  Cl  Cl13  1  0.47620786  -0.00000000  0.00000000  1.0
