# generated using pymatgen
data_Y(BO2)6
_symmetry_space_group_name_H-M   'P 1'
_cell_length_a   8.51705372
_cell_length_b   8.51705372
_cell_length_c   8.51705372
_cell_angle_alpha   60.27146345
_cell_angle_beta   60.27146345
_cell_angle_gamma   60.27146345
_symmetry_Int_Tables_number   1
_chemical_formula_structural   Y(BO2)6
_chemical_formula_sum   'Y2 B12 O24'
_cell_volume   439.55513882
_cell_formula_units_Z   2
loop_
 _symmetry_equiv_pos_site_id
 _symmetry_equiv_pos_as_xyz
  1  'x, y, z'
loop_
 _atom_site_type_symbol
 _atom_site_label
 _atom_site_symmetry_multiplicity
 _atom_site_fract_x
 _atom_site_fract_y
 _atom_site_fract_z
 _atom_site_occupancy
  O  O0  1  0.83181838  -0.22203581  0.13748638  1.0
  O  O1  1  0.33181838  0.63748638  -0.72203581  1.0
  O  O2  1  0.63748638  0.27796419  -0.66818162  1.0
  O  O3  1  1.13748638  -0.16818162  -0.22203581  1.0
  O  O4  1  0.27796419  0.33181838  -0.36251362  1.0
  O  O5  1  0.77796419  0.13748638  -0.16818162  1.0
  O  O6  1  1.24839008  -0.32413656  0.03196437  1.0
  O  O7  1  0.74839008  0.53196437  -0.82413656  1.0
  O  O8  1  0.53196437  0.17586344  -0.25160992  1.0
  O  O9  1  1.03196437  0.24839008  -0.32413656  1.0
  O  O10  1  0.17586344  0.74839008  -0.46803563  1.0
  O  O11  1  0.67586344  0.03196437  0.24839008  1.0
  O  O12  1  1.07609883  -0.46738409  0.00813068  1.0
  O  O13  1  0.57609883  -0.49186932  0.03261591  1.0
  O  O14  1  0.50813068  0.03261591  -0.42390117  1.0
  O  O15  1  1.00813068  0.07609883  -0.46738409  1.0
  O  O16  1  1.03261591  -0.42390117  -0.49186932  1.0
  O  O17  1  0.53261591  0.00813068  0.07609883  1.0
  O  O18  1  0.39044480  0.51634242  -0.20004895  1.0
  O  O19  1  0.89044480  -0.70004895  0.01634242  1.0
  O  O20  1  0.29995105  0.01634242  -0.10955520  1.0
  O  O21  1  0.79995105  0.39044480  -0.48365758  1.0
  O  O22  1  1.01634242  -0.10955520  -0.70004895  1.0
  O  O23  1  0.51634242  0.79995105  -0.60955520  1.0
  Y  Y24  1  -0.00168997  -0.00168997  -0.00168997  1.0
  Y  Y25  1  0.49831003  0.49831003  -0.50168997  1.0
  B  B26  1  0.88876120  -0.38997767  0.10540286  1.0
  B  B27  1  0.38876120  0.60540286  -0.88997767  1.0
  B  B28  1  0.60540286  0.11002233  -0.61123880  1.0
  B  B29  1  1.10540286  -0.11123880  -0.38997767  1.0
  B  B30  1  0.11002233  0.38876120  -0.39459714  1.0
  B  B31  1  0.61002233  0.10540286  -0.11123880  1.0
  B  B32  1  1.21479757  -0.36864238  -0.09592216  1.0
  B  B33  1  0.71479757  0.40407784  -0.86864238  1.0
  B  B34  1  0.40407784  0.13135762  -0.28520243  1.0
  B  B35  1  0.90407784  0.21479757  -0.36864238  1.0
  B  B36  1  0.13135762  0.71479757  -0.59592216  1.0
  B  B37  1  0.63135762  -0.09592216  0.21479757  1.0
