# generated using pymatgen
data_SrSn3Au
_symmetry_space_group_name_H-M   'P 1'
_cell_length_a   6.69342506
_cell_length_b   6.69342506
_cell_length_c   6.69342506
_cell_angle_alpha   135.87400991
_cell_angle_beta   135.87400991
_cell_angle_gamma   64.17517810
_symmetry_Int_Tables_number   1
_chemical_formula_structural   SrSn3Au
_chemical_formula_sum   'Sr1 Sn3 Au1'
_cell_volume   143.39067374
_cell_formula_units_Z   1
loop_
 _symmetry_equiv_pos_site_id
 _symmetry_equiv_pos_as_xyz
  1  'x, y, z'
loop_
 _atom_site_type_symbol
 _atom_site_label
 _atom_site_symmetry_multiplicity
 _atom_site_fract_x
 _atom_site_fract_y
 _atom_site_fract_z
 _atom_site_occupancy
  Sr  Sr0  1  -0.00078725  -0.00078725  0.00000000  1.0
  Sn  Sn1  1  0.59971185  0.59971185  1.00000000  1.0
  Sn  Sn2  1  0.74992871  0.24992871  0.50000000  1.0
  Sn  Sn3  1  0.24992871  0.74992871  0.50000000  1.0
  Au  Au4  1  0.36191798  0.36191798  0.00000000  1.0
