# generated using pymatgen
data_GdPRu2C
_symmetry_space_group_name_H-M   'P 1'
_cell_length_a   5.81817715
_cell_length_b   5.81817715
_cell_length_c   7.09120728
_cell_angle_alpha   90.00000000
_cell_angle_beta   90.00000000
_cell_angle_gamma   141.63515330
_symmetry_Int_Tables_number   1
_chemical_formula_structural   GdPRu2C
_chemical_formula_sum   'Gd2 P2 Ru4 C2'
_cell_volume   148.98844980
_cell_formula_units_Z   2
loop_
 _symmetry_equiv_pos_site_id
 _symmetry_equiv_pos_as_xyz
  1  'x, y, z'
loop_
 _atom_site_type_symbol
 _atom_site_label
 _atom_site_symmetry_multiplicity
 _atom_site_fract_x
 _atom_site_fract_y
 _atom_site_fract_z
 _atom_site_occupancy
  Gd  Gd0  1  0.45459186  0.54540814  0.75000000  1.0
  Gd  Gd1  1  -0.45459186  0.45459186  0.25000000  1.0
  P  P2  1  -0.26966750  0.26966750  0.75000000  1.0
  P  P3  1  0.26966750  0.73033250  0.25000000  1.0
  Ru  Ru4  1  0.16590764  0.83409236  0.94580621  1.0
  Ru  Ru5  1  0.16590764  0.83409236  0.55419379  1.0
  Ru  Ru6  1  -0.16590764  0.16590764  0.44580621  1.0
  Ru  Ru7  1  -0.16590764  0.16590764  0.05419379  1.0
  C  C8  1  0.00000000  0.00000000  0.00000000  1.0
  C  C9  1  0.00000000  0.00000000  0.50000000  1.0
