# generated using pymatgen
data_Na3MoO4F
_symmetry_space_group_name_H-M   'P 1'
_cell_length_a   5.73557991
_cell_length_b   7.60862916
_cell_length_c   13.00464247
_cell_angle_alpha   90.00000000
_cell_angle_beta   90.00000000
_cell_angle_gamma   90.00000000
_symmetry_Int_Tables_number   1
_chemical_formula_structural   Na3MoO4F
_chemical_formula_sum   'Na12 Mo4 O16 F4'
_cell_volume   567.52130342
_cell_formula_units_Z   4
loop_
 _symmetry_equiv_pos_site_id
 _symmetry_equiv_pos_as_xyz
  1  'x, y, z'
loop_
 _atom_site_type_symbol
 _atom_site_label
 _atom_site_symmetry_multiplicity
 _atom_site_fract_x
 _atom_site_fract_y
 _atom_site_fract_z
 _atom_site_occupancy
  Na  Na0  1  0.22267212  0.95966241  0.68002496  1.0
  Na  Na1  1  0.22267212  0.54033759  0.68002496  1.0
  Na  Na2  1  0.72267212  0.95966241  0.81997504  1.0
  Na  Na3  1  0.72267212  0.54033759  0.81997504  1.0
  Na  Na4  1  0.77732788  0.45966241  0.31997504  1.0
  Na  Na5  1  0.77732788  0.04033759  0.31997504  1.0
  Na  Na6  1  0.27732788  0.45966241  0.18002496  1.0
  Na  Na7  1  0.27732788  0.04033759  0.18002496  1.0
  Na  Na8  1  0.27216282  0.75000000  0.89475850  1.0
  Na  Na9  1  0.77216282  0.75000000  0.60524150  1.0
  Na  Na10  1  0.72783718  0.25000000  0.10524150  1.0
  Na  Na11  1  0.22783718  0.25000000  0.39475850  1.0
  Mo  Mo12  1  0.78494552  0.75000000  0.08408874  1.0
  Mo  Mo13  1  0.28494552  0.75000000  0.41591126  1.0
  Mo  Mo14  1  0.21505448  0.25000000  0.91591126  1.0
  Mo  Mo15  1  0.71505448  0.25000000  0.58408874  1.0
  O  O16  1  0.31442804  0.44059948  0.84971157  1.0
  O  O17  1  0.31442804  0.05940052  0.84971157  1.0
  O  O18  1  0.81442804  0.44059948  0.65028843  1.0
  O  O19  1  0.81442804  0.05940052  0.65028843  1.0
  O  O20  1  0.68557196  0.94059948  0.15028843  1.0
  O  O21  1  0.68557196  0.55940052  0.15028843  1.0
  O  O22  1  0.18557196  0.94059948  0.34971157  1.0
  O  O23  1  0.18557196  0.55940052  0.34971157  1.0
  O  O24  1  0.16986991  0.75000000  0.54293161  1.0
  O  O25  1  0.66986991  0.75000000  0.95706839  1.0
  O  O26  1  0.83013009  0.25000000  0.45706839  1.0
  O  O27  1  0.33013009  0.25000000  0.04293161  1.0
  O  O28  1  0.09634691  0.75000000  0.07844398  1.0
  O  O29  1  0.59634691  0.75000000  0.42155602  1.0
  O  O30  1  0.90365309  0.25000000  0.92155602  1.0
  O  O31  1  0.40365309  0.25000000  0.57844398  1.0
  F  F32  1  0.49493124  0.75000000  0.72955926  1.0
  F  F33  1  0.99493124  0.75000000  0.77044074  1.0
  F  F34  1  0.50506876  0.25000000  0.27044074  1.0
  F  F35  1  0.00506876  0.25000000  0.22955926  1.0
