# generated using pymatgen
data_TbPOs2C
_symmetry_space_group_name_H-M   'P 1'
_cell_length_a   5.87514480
_cell_length_b   5.87514480
_cell_length_c   7.04278545
_cell_angle_alpha   90.00000000
_cell_angle_beta   90.00000000
_cell_angle_gamma   141.92605766
_symmetry_Int_Tables_number   1
_chemical_formula_structural   TbPOs2C
_chemical_formula_sum   'Tb2 P2 Os4 C2'
_cell_volume   149.91324574
_cell_formula_units_Z   2
loop_
 _symmetry_equiv_pos_site_id
 _symmetry_equiv_pos_as_xyz
  1  'x, y, z'
loop_
 _atom_site_type_symbol
 _atom_site_label
 _atom_site_symmetry_multiplicity
 _atom_site_fract_x
 _atom_site_fract_y
 _atom_site_fract_z
 _atom_site_occupancy
  Tb  Tb0  1  0.45508212  0.54491788  0.75000000  1.0
  Tb  Tb1  1  -0.45508212  0.45508212  0.25000000  1.0
  P  P2  1  -0.27005929  0.27005929  0.75000000  1.0
  P  P3  1  0.27005929  0.72994071  0.25000000  1.0
  Os  Os4  1  0.16629693  0.83370307  0.94711273  1.0
  Os  Os5  1  0.16629693  0.83370307  0.55288727  1.0
  Os  Os6  1  -0.16629693  0.16629693  0.44711273  1.0
  Os  Os7  1  -0.16629693  0.16629693  0.05288727  1.0
  C  C8  1  0.00000000  0.00000000  0.00000000  1.0
  C  C9  1  0.00000000  0.00000000  0.50000000  1.0
