# generated using pymatgen
data_BaCa(CO3)2
_symmetry_space_group_name_H-M   'P 1'
_cell_length_a   8.76135018
_cell_length_b   8.76135018
_cell_length_c   6.24918187
_cell_angle_alpha   90.00000000
_cell_angle_beta   90.00000000
_cell_angle_gamma   120.00000000
_symmetry_Int_Tables_number   1
_chemical_formula_structural   BaCa(CO3)2
_chemical_formula_sum   'Ba3 Ca3 C6 O18'
_cell_volume   415.42810352
_cell_formula_units_Z   3
loop_
 _symmetry_equiv_pos_site_id
 _symmetry_equiv_pos_as_xyz
  1  'x, y, z'
loop_
 _atom_site_type_symbol
 _atom_site_label
 _atom_site_symmetry_multiplicity
 _atom_site_fract_x
 _atom_site_fract_y
 _atom_site_fract_z
 _atom_site_occupancy
  Ba  Ba0  1  0.31285200  0.31285200  0.50000000  1.0
  Ba  Ba1  1  0.00000000  0.68714800  0.50000000  1.0
  Ba  Ba2  1  0.68714800  0.00000000  0.50000000  1.0
  Ca  Ca3  1  0.63997424  0.63997424  0.00000000  1.0
  Ca  Ca4  1  -0.00000000  0.36002576  0.00000000  1.0
  Ca  Ca5  1  0.36002576  0.00000000  0.00000000  1.0
  C  C6  1  0.33333333  0.66666667  0.14684198  1.0
  C  C7  1  0.66666667  0.33333333  0.85315802  1.0
  C  C8  1  0.33333333  0.66666667  0.68680939  1.0
  C  C9  1  0.66666667  0.33333333  0.31319061  1.0
  C  C10  1  -0.00000000  -0.00000000  0.23462844  1.0
  C  C11  1  0.00000000  0.00000000  0.76537156  1.0
  O  O12  1  0.85439908  0.84973383  0.24118041  1.0
  O  O13  1  0.84973383  0.85439908  0.75881959  1.0
  O  O14  1  0.99533475  0.14560092  0.24118041  1.0
  O  O15  1  0.15026617  0.00466525  0.24118041  1.0
  O  O16  1  0.14560092  0.99533475  0.75881959  1.0
  O  O17  1  0.00466525  0.15026617  0.75881959  1.0
  O  O18  1  0.18936668  0.67480350  0.14305793  1.0
  O  O19  1  0.67480350  0.18936668  0.85694207  1.0
  O  O20  1  0.48543683  0.81063332  0.14305793  1.0
  O  O21  1  0.32519650  0.51456317  0.14305793  1.0
  O  O22  1  0.81063332  0.48543683  0.85694207  1.0
  O  O23  1  0.51456317  0.32519650  0.85694207  1.0
  O  O24  1  0.65358362  0.47468512  0.31619846  1.0
  O  O25  1  0.47468512  0.65358362  0.68380154  1.0
  O  O26  1  0.82110150  0.34641638  0.31619846  1.0
  O  O27  1  0.52531488  0.17889850  0.31619846  1.0
  O  O28  1  0.34641638  0.82110150  0.68380154  1.0
  O  O29  1  0.17889850  0.52531488  0.68380154  1.0
