# generated using pymatgen
data_Y2ZrS5
_symmetry_space_group_name_H-M   'P 1'
_cell_length_a   11.60588408
_cell_length_b   7.75118528
_cell_length_c   7.26541672
_cell_angle_alpha   90.00000000
_cell_angle_beta   90.00000000
_cell_angle_gamma   90.00000000
_symmetry_Int_Tables_number   1
_chemical_formula_structural   Y2ZrS5
_chemical_formula_sum   'Y8 Zr4 S20'
_cell_volume   653.59222294
_cell_formula_units_Z   4
loop_
 _symmetry_equiv_pos_site_id
 _symmetry_equiv_pos_as_xyz
  1  'x, y, z'
loop_
 _atom_site_type_symbol
 _atom_site_label
 _atom_site_symmetry_multiplicity
 _atom_site_fract_x
 _atom_site_fract_y
 _atom_site_fract_z
 _atom_site_occupancy
  Y  Y0  1  0.67933552  0.49716917  0.01988992  1.0
  Y  Y1  1  0.67933552  0.00283083  0.01988992  1.0
  Y  Y2  1  0.17933552  0.49716917  0.48011008  1.0
  Y  Y3  1  0.17933552  0.00283083  0.48011008  1.0
  Y  Y4  1  0.32066448  0.99716917  0.98011008  1.0
  Y  Y5  1  0.32066448  0.50283083  0.98011008  1.0
  Y  Y6  1  0.82066448  0.99716917  0.51988992  1.0
  Y  Y7  1  0.82066448  0.50283083  0.51988992  1.0
  Zr  Zr8  1  0.99364504  0.25000000  0.07842839  1.0
  Zr  Zr9  1  0.49364504  0.25000000  0.42157161  1.0
  Zr  Zr10  1  0.00635496  0.75000000  0.92157161  1.0
  Zr  Zr11  1  0.50635496  0.75000000  0.57842839  1.0
  S  S12  1  0.90481202  0.96282650  0.15947724  1.0
  S  S13  1  0.90481202  0.53717350  0.15947724  1.0
  S  S14  1  0.40481202  0.96282650  0.34052276  1.0
  S  S15  1  0.40481202  0.53717350  0.34052276  1.0
  S  S16  1  0.09518798  0.46282650  0.84052276  1.0
  S  S17  1  0.09518798  0.03717350  0.84052276  1.0
  S  S18  1  0.59518798  0.46282650  0.65947724  1.0
  S  S19  1  0.59518798  0.03717350  0.65947724  1.0
  S  S20  1  0.99701146  0.25000000  0.44888259  1.0
  S  S21  1  0.49701146  0.25000000  0.05111741  1.0
  S  S22  1  0.00298854  0.75000000  0.55111741  1.0
  S  S23  1  0.50298854  0.75000000  0.94888259  1.0
  S  S24  1  0.70784840  0.25000000  0.30786799  1.0
  S  S25  1  0.20784840  0.25000000  0.19213201  1.0
  S  S26  1  0.29215160  0.75000000  0.69213201  1.0
  S  S27  1  0.79215160  0.75000000  0.80786799  1.0
  S  S28  1  0.81871854  0.25000000  0.82992417  1.0
  S  S29  1  0.31871854  0.25000000  0.67007583  1.0
  S  S30  1  0.18128146  0.75000000  0.17007583  1.0
  S  S31  1  0.68128146  0.75000000  0.32992417  1.0
