# generated using pymatgen
data_SrGe3Pd
_symmetry_space_group_name_H-M   'P 1'
_cell_length_a   6.08664056
_cell_length_b   6.08664056
_cell_length_c   6.08664056
_cell_angle_alpha   136.42141112
_cell_angle_beta   136.42141112
_cell_angle_gamma   63.32949558
_symmetry_Int_Tables_number   1
_chemical_formula_structural   SrGe3Pd
_chemical_formula_sum   'Sr1 Ge3 Pd1'
_cell_volume   105.77760468
_cell_formula_units_Z   1
loop_
 _symmetry_equiv_pos_site_id
 _symmetry_equiv_pos_as_xyz
  1  'x, y, z'
loop_
 _atom_site_type_symbol
 _atom_site_label
 _atom_site_symmetry_multiplicity
 _atom_site_fract_x
 _atom_site_fract_y
 _atom_site_fract_z
 _atom_site_occupancy
  Sr  Sr0  1  0.59993229  0.59993229  1.00000000  1.0
  Ge  Ge1  1  0.85402131  0.35402131  0.50000000  1.0
  Ge  Ge2  1  0.35402131  0.85402131  0.50000000  1.0
  Ge  Ge3  1  0.00006071  0.00006071  -0.00000000  1.0
  Pd  Pd4  1  0.24266437  0.24266437  -0.00000000  1.0
