# generated using pymatgen
data_Sn(BiTe2)2
_symmetry_space_group_name_H-M   'P 1'
_cell_length_a   13.91283205
_cell_length_b   13.91283205
_cell_length_c   13.91283205
_cell_angle_alpha   18.44554273
_cell_angle_beta   18.44554273
_cell_angle_gamma   18.44554273
_symmetry_Int_Tables_number   1
_chemical_formula_structural   Sn(BiTe2)2
_chemical_formula_sum   'Sn1 Bi2 Te4'
_cell_volume   235.50113868
_cell_formula_units_Z   1
loop_
 _symmetry_equiv_pos_site_id
 _symmetry_equiv_pos_as_xyz
  1  'x, y, z'
loop_
 _atom_site_type_symbol
 _atom_site_label
 _atom_site_symmetry_multiplicity
 _atom_site_fract_x
 _atom_site_fract_y
 _atom_site_fract_z
 _atom_site_occupancy
  Sn  Sn0  1  -0.00000000  0.00000000  -0.00000000  1.0
  Bi  Bi1  1  0.86235370  0.86235370  0.86235370  1.0
  Bi  Bi2  1  1.13764630  1.13764630  0.13764630  1.0
  Te  Te3  1  1.57113389  0.57113389  0.57113389  1.0
  Te  Te4  1  1.42886611  0.42886611  0.42886611  1.0
  Te  Te5  1  0.71011512  0.71011512  0.71011512  1.0
  Te  Te6  1  1.28988488  1.28988488  0.28988488  1.0
