# generated using pymatgen
data_Ca10P6SeO24
_symmetry_space_group_name_H-M   'P 1'
_cell_length_a   9.61258221
_cell_length_b   9.61258221
_cell_length_c   6.88831025
_cell_angle_alpha   90.00000000
_cell_angle_beta   90.00000000
_cell_angle_gamma   120.00000000
_symmetry_Int_Tables_number   1
_chemical_formula_structural   Ca10P6SeO24
_chemical_formula_sum   'Ca10 P6 Se1 O24'
_cell_volume   551.21809358
_cell_formula_units_Z   1
loop_
 _symmetry_equiv_pos_site_id
 _symmetry_equiv_pos_as_xyz
  1  'x, y, z'
loop_
 _atom_site_type_symbol
 _atom_site_label
 _atom_site_symmetry_multiplicity
 _atom_site_fract_x
 _atom_site_fract_y
 _atom_site_fract_z
 _atom_site_occupancy
  Ca  Ca0  1  0.99029395  0.73847569  0.24947008  1.0
  Ca  Ca1  1  0.73847569  0.74818174  0.75052992  1.0
  Ca  Ca2  1  0.74818174  0.00970605  0.24947008  1.0
  Ca  Ca3  1  0.26152431  0.25181826  0.24947008  1.0
  Ca  Ca4  1  0.00970605  0.26152431  0.75052992  1.0
  Ca  Ca5  1  0.25181826  0.99029395  0.75052992  1.0
  Ca  Ca6  1  0.33333333  0.66666667  0.01115432  1.0
  Ca  Ca7  1  0.66666667  0.33333333  0.98884568  1.0
  Ca  Ca8  1  0.33333333  0.66666667  0.51986046  1.0
  Ca  Ca9  1  0.66666667  0.33333333  0.48013954  1.0
  P  P10  1  0.37114319  0.97160103  0.25115210  1.0
  P  P11  1  0.97160103  0.60045785  0.74884790  1.0
  P  P12  1  0.60045785  0.62885681  0.25115210  1.0
  P  P13  1  0.02839897  0.39954215  0.25115210  1.0
  P  P14  1  0.62885681  0.02839897  0.74884790  1.0
  P  P15  1  0.39954215  0.37114319  0.74884790  1.0
  Se  Se16  1  0.00000000  0.00000000  0.00000000  1.0
  O  O17  1  0.23613287  0.93018354  0.40431866  1.0
  O  O18  1  0.93018354  0.69405068  0.59568134  1.0
  O  O19  1  0.69405068  0.76386713  0.40431866  1.0
  O  O20  1  0.06981646  0.30594932  0.40431866  1.0
  O  O21  1  0.76386713  0.06981646  0.59568134  1.0
  O  O22  1  0.30594932  0.23613287  0.59568134  1.0
  O  O23  1  0.29076370  0.90110158  0.05187945  1.0
  O  O24  1  0.90110158  0.61033788  0.94812055  1.0
  O  O25  1  0.61033788  0.70923630  0.05187945  1.0
  O  O26  1  0.09889842  0.38966212  0.05187945  1.0
  O  O27  1  0.70923630  0.09889842  0.94812055  1.0
  O  O28  1  0.38966212  0.29076370  0.94812055  1.0
  O  O29  1  0.46729060  0.88399607  0.30217560  1.0
  O  O30  1  0.88399607  0.41670547  0.69782440  1.0
  O  O31  1  0.41670547  0.53270940  0.30217560  1.0
  O  O32  1  0.11600393  0.58329453  0.30217560  1.0
  O  O33  1  0.53270940  0.11600393  0.69782440  1.0
  O  O34  1  0.58329453  0.46729060  0.69782440  1.0
  O  O35  1  0.67348195  0.51603235  0.24528545  1.0
  O  O36  1  0.51603235  0.84255040  0.75471455  1.0
  O  O37  1  0.84255040  0.32651805  0.24528545  1.0
  O  O38  1  0.48396765  0.15744960  0.24528545  1.0
  O  O39  1  0.32651805  0.48396765  0.75471455  1.0
  O  O40  1  0.15744960  0.67348195  0.75471455  1.0
