# generated using pymatgen
data_NiPNO5
_symmetry_space_group_name_H-M   'P 1'
_cell_length_a   5.32300850
_cell_length_b   9.07969824
_cell_length_c   4.66139688
_cell_angle_alpha   90.00000000
_cell_angle_beta   90.00000000
_cell_angle_gamma   90.00000000
_symmetry_Int_Tables_number   1
_chemical_formula_structural   NiPNO5
_chemical_formula_sum   'Ni2 P2 N2 O10'
_cell_volume   225.29142188
_cell_formula_units_Z   2
loop_
 _symmetry_equiv_pos_site_id
 _symmetry_equiv_pos_as_xyz
  1  'x, y, z'
loop_
 _atom_site_type_symbol
 _atom_site_label
 _atom_site_symmetry_multiplicity
 _atom_site_fract_x
 _atom_site_fract_y
 _atom_site_fract_z
 _atom_site_occupancy
  Ni  Ni0  1  0.50000000  0.48725504  0.90297659  1.0
  Ni  Ni1  1  0.00000000  0.51274496  0.40297659  1.0
  P  P2  1  0.50000000  0.69061621  0.47009575  1.0
  P  P3  1  0.00000000  0.30938379  -0.02990425  1.0
  N  N4  1  0.50000000  0.07679937  0.05567411  1.0
  N  N5  1  0.00000000  0.92320063  0.55567411  1.0
  O  O6  1  0.50000000  0.65555098  0.14464325  1.0
  O  O7  1  0.00000000  0.34444902  0.64464325  1.0
  O  O8  1  0.50000000  0.33914064  0.68132031  1.0
  O  O9  1  0.00000000  0.66085936  0.18132031  1.0
  O  O10  1  0.27398369  0.60374310  0.63152626  1.0
  O  O11  1  0.77398369  0.39625690  0.13152626  1.0
  O  O12  1  0.72601631  0.60374310  0.63152626  1.0
  O  O13  1  0.22601631  0.39625690  0.13152626  1.0
  O  O14  1  0.50000000  0.85296243  0.53223748  1.0
  O  O15  1  0.00000000  0.14703757  0.03223748  1.0
