# generated using pymatgen
data_Na2ZnBr4
_symmetry_space_group_name_H-M   'P 1'
_cell_length_a   14.77676707
_cell_length_b   8.69516201
_cell_length_c   6.84599775
_cell_angle_alpha   90.00000000
_cell_angle_beta   90.00000000
_cell_angle_gamma   90.00000000
_symmetry_Int_Tables_number   1
_chemical_formula_structural   Na2ZnBr4
_chemical_formula_sum   'Na8 Zn4 Br16'
_cell_volume   879.61749413
_cell_formula_units_Z   4
loop_
 _symmetry_equiv_pos_site_id
 _symmetry_equiv_pos_as_xyz
  1  'x, y, z'
loop_
 _atom_site_type_symbol
 _atom_site_label
 _atom_site_symmetry_multiplicity
 _atom_site_fract_x
 _atom_site_fract_y
 _atom_site_fract_z
 _atom_site_occupancy
  Na  Na0  1  0.77000618  0.25000000  0.50858537  1.0
  Na  Na1  1  0.27000618  0.25000000  0.99141463  1.0
  Na  Na2  1  0.22999382  0.75000000  0.49141463  1.0
  Na  Na3  1  0.72999382  0.75000000  0.00858537  1.0
  Na  Na4  1  0.00000000  0.50000000  0.00000000  1.0
  Na  Na5  1  0.00000000  0.00000000  0.00000000  1.0
  Na  Na6  1  0.50000000  0.50000000  0.50000000  1.0
  Na  Na7  1  0.50000000  0.00000000  0.50000000  1.0
  Zn  Zn8  1  0.59089649  0.25000000  0.09458897  1.0
  Zn  Zn9  1  0.09089649  0.25000000  0.40541103  1.0
  Zn  Zn10  1  0.40910351  0.75000000  0.90541103  1.0
  Zn  Zn11  1  0.90910351  0.75000000  0.59458897  1.0
  Br  Br12  1  0.66586977  0.47308163  0.24417637  1.0
  Br  Br13  1  0.66586977  0.02691837  0.24417637  1.0
  Br  Br14  1  0.16586977  0.47308163  0.25582363  1.0
  Br  Br15  1  0.16586977  0.02691837  0.25582363  1.0
  Br  Br16  1  0.33413023  0.97308163  0.75582363  1.0
  Br  Br17  1  0.33413023  0.52691837  0.75582363  1.0
  Br  Br18  1  0.83413023  0.97308163  0.74417637  1.0
  Br  Br19  1  0.83413023  0.52691837  0.74417637  1.0
  Br  Br20  1  0.93752322  0.25000000  0.26346312  1.0
  Br  Br21  1  0.43752322  0.25000000  0.23653688  1.0
  Br  Br22  1  0.06247678  0.75000000  0.73653688  1.0
  Br  Br23  1  0.56247678  0.75000000  0.76346312  1.0
  Br  Br24  1  0.59227242  0.25000000  0.74202849  1.0
  Br  Br25  1  0.09227242  0.25000000  0.75797151  1.0
  Br  Br26  1  0.40772758  0.75000000  0.25797151  1.0
  Br  Br27  1  0.90772758  0.75000000  0.24202849  1.0
