# generated using pymatgen
data_LaOF
_symmetry_space_group_name_H-M   'P 1'
_cell_length_a   7.19448182
_cell_length_b   7.19448182
_cell_length_c   7.19448182
_cell_angle_alpha   32.87260117
_cell_angle_beta   32.87260117
_cell_angle_gamma   32.87260117
_symmetry_Int_Tables_number   1
_chemical_formula_structural   LaOF
_chemical_formula_sum   'La2 O2 F2'
_cell_volume   97.60977877
_cell_formula_units_Z   2
loop_
 _symmetry_equiv_pos_site_id
 _symmetry_equiv_pos_as_xyz
  1  'x, y, z'
loop_
 _atom_site_type_symbol
 _atom_site_label
 _atom_site_symmetry_multiplicity
 _atom_site_fract_x
 _atom_site_fract_y
 _atom_site_fract_z
 _atom_site_occupancy
  La  La0  1  0.75868410  0.75868410  0.75868410  1.0
  La  La1  1  1.24131590  1.24131590  0.24131590  1.0
  O  O2  1  0.87674460  0.87674460  0.87674460  1.0
  O  O3  1  1.12325540  1.12325540  0.12325540  1.0
  F  F4  1  1.62883646  0.62883646  0.62883646  1.0
  F  F5  1  1.37116354  0.37116354  0.37116354  1.0
