# generated using pymatgen
data_MnB
_symmetry_space_group_name_H-M   'P 1'
_cell_length_a   6.75620159
_cell_length_b   6.75620159
_cell_length_c   3.95530878
_cell_angle_alpha   90.00000000
_cell_angle_beta   90.00000000
_cell_angle_gamma   90.00000000
_symmetry_Int_Tables_number   1
_chemical_formula_structural   MnB
_chemical_formula_sum   'Mn8 B8'
_cell_volume   180.54505256
_cell_formula_units_Z   8
loop_
 _symmetry_equiv_pos_site_id
 _symmetry_equiv_pos_as_xyz
  1  'x, y, z'
loop_
 _atom_site_type_symbol
 _atom_site_label
 _atom_site_symmetry_multiplicity
 _atom_site_fract_x
 _atom_site_fract_y
 _atom_site_fract_z
 _atom_site_occupancy
  Mn  Mn0  1  0.87346812  0.37346812  0.62169050  1.0
  Mn  Mn1  1  0.87346812  0.62653188  0.12169050  1.0
  Mn  Mn2  1  0.12653188  0.37346812  0.12169050  1.0
  Mn  Mn3  1  0.12653188  0.62653188  0.62169050  1.0
  Mn  Mn4  1  0.62653188  0.12653188  0.87830950  1.0
  Mn  Mn5  1  0.62653188  0.87346812  0.37830950  1.0
  Mn  Mn6  1  0.37346812  0.12653188  0.37830950  1.0
  Mn  Mn7  1  0.37346812  0.87346812  0.87830950  1.0
  B  B8  1  0.81990743  0.31990743  0.11823811  1.0
  B  B9  1  0.81990743  0.68009257  0.61823811  1.0
  B  B10  1  0.18009257  0.31990743  0.61823811  1.0
  B  B11  1  0.18009257  0.68009257  0.11823811  1.0
  B  B12  1  0.68009257  0.18009257  0.38176189  1.0
  B  B13  1  0.68009257  0.81990743  0.88176189  1.0
  B  B14  1  0.31990743  0.18009257  0.88176189  1.0
  B  B15  1  0.31990743  0.81990743  0.38176189  1.0
