# generated using pymatgen
data_VPO5
_symmetry_space_group_name_H-M   'P 1'
_cell_length_a   5.17690792
_cell_length_b   5.17690792
_cell_length_c   7.28902417
_cell_angle_alpha   68.80788614
_cell_angle_beta   111.19211386
_cell_angle_gamma   87.14628032
_symmetry_Int_Tables_number   1
_chemical_formula_structural   VPO5
_chemical_formula_sum   'V2 P2 O10'
_cell_volume   166.12099435
_cell_formula_units_Z   2
loop_
 _symmetry_equiv_pos_site_id
 _symmetry_equiv_pos_as_xyz
  1  'x, y, z'
loop_
 _atom_site_type_symbol
 _atom_site_label
 _atom_site_symmetry_multiplicity
 _atom_site_fract_x
 _atom_site_fract_y
 _atom_site_fract_z
 _atom_site_occupancy
  P  P0  1  0.88631380  -0.11368620  0.25000000  1.0
  P  P1  1  1.11368620  0.11368620  0.75000000  1.0
  O  O2  1  0.67608586  -0.14730081  0.35794250  1.0
  O  O3  1  1.14730081  0.32391414  0.85794250  1.0
  O  O4  1  0.85269919  -0.32391414  0.14205750  1.0
  O  O5  1  1.32391414  0.14730081  0.64205750  1.0
  O  O6  1  0.19523777  -0.18215822  0.42268685  1.0
  O  O7  1  1.18215822  0.80476223  0.92268685  1.0
  O  O8  1  0.81784178  -0.80476223  0.07731315  1.0
  O  O9  1  1.80476223  0.18215822  0.57731315  1.0
  O  O10  1  1.30634641  0.30634641  0.25000000  1.0
  O  O11  1  0.69365359  -0.30634641  0.75000000  1.0
  V  V12  1  1.50000000  0.00000000  0.50000000  1.0
  V  V13  1  1.00000000  -0.50000000  0.00000000  1.0
