# generated using pymatgen
data_Gd2Al6Si4Au
_symmetry_space_group_name_H-M   'P 1'
_cell_length_a   17.09672918
_cell_length_b   17.09672918
_cell_length_c   17.09672918
_cell_angle_alpha   14.14690176
_cell_angle_beta   14.14690176
_cell_angle_gamma   14.14690176
_symmetry_Int_Tables_number   1
_chemical_formula_structural   Gd2Al6Si4Au
_chemical_formula_sum   'Gd2 Al6 Si4 Au1'
_cell_volume   259.83895241
_cell_formula_units_Z   1
loop_
 _symmetry_equiv_pos_site_id
 _symmetry_equiv_pos_as_xyz
  1  'x, y, z'
loop_
 _atom_site_type_symbol
 _atom_site_label
 _atom_site_symmetry_multiplicity
 _atom_site_fract_x
 _atom_site_fract_y
 _atom_site_fract_z
 _atom_site_occupancy
  Gd  Gd0  1  1.56564849  0.56564849  0.56564849  1.0
  Gd  Gd1  1  1.43435151  0.43435151  0.43435151  1.0
  Al  Al2  1  0.94821868  0.94821868  0.94821868  1.0
  Al  Al3  1  1.05178132  1.05178132  0.05178132  1.0
  Al  Al4  1  0.81469282  0.81469282  0.81469282  1.0
  Al  Al5  1  1.18530718  1.18530718  0.18530718  1.0
  Al  Al6  1  0.68311066  0.68311066  0.68311066  1.0
  Al  Al7  1  1.31688934  1.31688934  0.31688934  1.0
  Si  Si8  1  0.86465879  0.86465879  0.86465879  1.0
  Si  Si9  1  1.13534121  1.13534121  0.13534121  1.0
  Si  Si10  1  0.73383641  0.73383641  0.73383641  1.0
  Si  Si11  1  1.26616359  1.26616359  0.26616359  1.0
  Au  Au12  1  0.00000000  0.00000000  0.00000000  1.0
