# generated using pymatgen
data_Cs5SiP3
_symmetry_space_group_name_H-M   'P 1'
_cell_length_a   14.32717945
_cell_length_b   6.01559912
_cell_length_c   16.12323521
_cell_angle_alpha   90.00000000
_cell_angle_beta   90.00000000
_cell_angle_gamma   90.00000000
_symmetry_Int_Tables_number   1
_chemical_formula_structural   Cs5SiP3
_chemical_formula_sum   'Cs20 Si4 P12'
_cell_volume   1389.60630893
_cell_formula_units_Z   4
loop_
 _symmetry_equiv_pos_site_id
 _symmetry_equiv_pos_as_xyz
  1  'x, y, z'
loop_
 _atom_site_type_symbol
 _atom_site_label
 _atom_site_symmetry_multiplicity
 _atom_site_fract_x
 _atom_site_fract_y
 _atom_site_fract_z
 _atom_site_occupancy
  Cs  Cs0  1  0.96579311  0.75000000  0.86680411  1.0
  Cs  Cs1  1  0.46579311  0.75000000  0.63319589  1.0
  Cs  Cs2  1  0.03420689  0.25000000  0.13319589  1.0
  Cs  Cs3  1  0.53420689  0.25000000  0.36680411  1.0
  Cs  Cs4  1  0.94143251  0.75000000  0.54541438  1.0
  Cs  Cs5  1  0.44143251  0.75000000  0.95458562  1.0
  Cs  Cs6  1  0.05856749  0.25000000  0.45458562  1.0
  Cs  Cs7  1  0.55856749  0.25000000  0.04541438  1.0
  Cs  Cs8  1  0.89011524  0.75000000  0.30816458  1.0
  Cs  Cs9  1  0.39011524  0.75000000  0.19183542  1.0
  Cs  Cs10  1  0.10988476  0.25000000  0.69183542  1.0
  Cs  Cs11  1  0.60988476  0.25000000  0.80816458  1.0
  Cs  Cs12  1  0.73769189  0.75000000  0.70740536  1.0
  Cs  Cs13  1  0.23769189  0.75000000  0.79259464  1.0
  Cs  Cs14  1  0.26230811  0.25000000  0.29259464  1.0
  Cs  Cs15  1  0.76230811  0.25000000  0.20740536  1.0
  Cs  Cs16  1  0.65543975  0.75000000  0.44914178  1.0
  Cs  Cs17  1  0.15543975  0.75000000  0.05085822  1.0
  Cs  Cs18  1  0.34456025  0.25000000  0.55085822  1.0
  Cs  Cs19  1  0.84456025  0.25000000  0.94914178  1.0
  Si  Si20  1  0.73926294  0.75000000  0.05801221  1.0
  Si  Si21  1  0.23926294  0.75000000  0.44198779  1.0
  Si  Si22  1  0.26073706  0.25000000  0.94198779  1.0
  Si  Si23  1  0.76073706  0.25000000  0.55801221  1.0
  P  P24  1  0.89064905  0.75000000  0.08599187  1.0
  P  P25  1  0.39064905  0.75000000  0.41400813  1.0
  P  P26  1  0.10935095  0.25000000  0.91400813  1.0
  P  P27  1  0.60935095  0.25000000  0.58599187  1.0
  P  P28  1  0.69823038  0.75000000  0.92568641  1.0
  P  P29  1  0.19823038  0.75000000  0.57431359  1.0
  P  P30  1  0.30176962  0.25000000  0.07431359  1.0
  P  P31  1  0.80176962  0.25000000  0.42568641  1.0
  P  P32  1  0.63354973  0.75000000  0.15715510  1.0
  P  P33  1  0.13354973  0.75000000  0.34284490  1.0
  P  P34  1  0.36645027  0.25000000  0.84284490  1.0
  P  P35  1  0.86645027  0.25000000  0.65715510  1.0
