# generated using pymatgen
data_Y11In9Ni4
_symmetry_space_group_name_H-M   'P 1'
_cell_length_a   13.05491029
_cell_length_b   13.05491029
_cell_length_c   3.65209702
_cell_angle_alpha   90.00000000
_cell_angle_beta   90.00000000
_cell_angle_gamma   112.71947344
_symmetry_Int_Tables_number   1
_chemical_formula_structural   Y11In9Ni4
_chemical_formula_sum   'Y11 In9 Ni4'
_cell_volume   574.13314755
_cell_formula_units_Z   1
loop_
 _symmetry_equiv_pos_site_id
 _symmetry_equiv_pos_as_xyz
  1  'x, y, z'
loop_
 _atom_site_type_symbol
 _atom_site_label
 _atom_site_symmetry_multiplicity
 _atom_site_fract_x
 _atom_site_fract_y
 _atom_site_fract_z
 _atom_site_occupancy
  Y  Y0  1  -0.07992205  1.58334482  0.00000000  1.0
  Y  Y1  1  0.58334482  0.92007795  0.00000000  1.0
  Y  Y2  1  -0.58334482  1.07992205  0.00000000  1.0
  Y  Y3  1  0.07992205  0.41665518  0.00000000  1.0
  Y  Y4  1  0.16075525  0.83924475  0.00000000  1.0
  Y  Y5  1  -0.16075525  1.16075525  0.00000000  1.0
  Y  Y6  1  0.37445076  0.62554924  0.00000000  1.0
  Y  Y7  1  -0.37445076  1.37445076  0.00000000  1.0
  Y  Y8  1  0.68805104  0.68805104  0.00000000  1.0
  Y  Y9  1  0.31194896  0.31194896  0.00000000  1.0
  Y  Y10  1  0.00000000  0.00000000  0.00000000  1.0
  In  In11  1  0.15793068  0.63180905  0.50000000  1.0
  In  In12  1  -0.36819095  1.15793068  0.50000000  1.0
  In  In13  1  0.36819095  0.84206932  0.50000000  1.0
  In  In14  1  -0.15793068  1.36819095  0.50000000  1.0
  In  In15  1  -0.07668396  1.78080459  0.50000000  1.0
  In  In16  1  0.78080459  0.92331604  0.50000000  1.0
  In  In17  1  -0.78080459  1.07668396  0.50000000  1.0
  In  In18  1  0.07668396  0.21919541  0.50000000  1.0
  In  In19  1  0.50000000  0.50000000  0.50000000  1.0
  Ni  Ni20  1  -0.24788829  1.55051224  0.50000000  1.0
  Ni  Ni21  1  0.55051224  0.75211171  0.50000000  1.0
  Ni  Ni22  1  -0.55051224  1.24788829  0.50000000  1.0
  Ni  Ni23  1  0.24788829  0.44948776  0.50000000  1.0
