# generated using pymatgen
data_ZrSO
_symmetry_space_group_name_H-M   'P 1'
_cell_length_a   5.74097574
_cell_length_b   5.74097574
_cell_length_c   5.74097574
_cell_angle_alpha   90.00000000
_cell_angle_beta   90.00000000
_cell_angle_gamma   90.00000000
_symmetry_Int_Tables_number   1
_chemical_formula_structural   ZrSO
_chemical_formula_sum   'Zr4 S4 O4'
_cell_volume   189.21568550
_cell_formula_units_Z   4
loop_
 _symmetry_equiv_pos_site_id
 _symmetry_equiv_pos_as_xyz
  1  'x, y, z'
loop_
 _atom_site_type_symbol
 _atom_site_label
 _atom_site_symmetry_multiplicity
 _atom_site_fract_x
 _atom_site_fract_y
 _atom_site_fract_z
 _atom_site_occupancy
  Zr  Zr0  1  0.42859485  0.92859485  0.57140515  1.0
  Zr  Zr1  1  0.92859485  0.57140515  0.42859485  1.0
  Zr  Zr2  1  0.57140515  0.42859485  0.92859485  1.0
  Zr  Zr3  1  0.07140515  0.07140515  0.07140515  1.0
  S  S4  1  0.16841953  0.66841953  0.83158047  1.0
  S  S5  1  0.66841953  0.83158047  0.16841953  1.0
  S  S6  1  0.83158047  0.16841953  0.66841953  1.0
  S  S7  1  0.33158047  0.33158047  0.33158047  1.0
  O  O8  1  0.84465455  0.34465455  0.15534545  1.0
  O  O9  1  0.34465455  0.15534545  0.84465455  1.0
  O  O10  1  0.15534545  0.84465455  0.34465455  1.0
  O  O11  1  0.65534545  0.65534545  0.65534545  1.0
