# generated using pymatgen
data_Li2SO4
_symmetry_space_group_name_H-M   'P 1'
_cell_length_a   8.55522225
_cell_length_b   5.01760204
_cell_length_c   8.37129540
_cell_angle_alpha   90.00000000
_cell_angle_beta   107.59287456
_cell_angle_gamma   90.00000000
_symmetry_Int_Tables_number   1
_chemical_formula_structural   Li2SO4
_chemical_formula_sum   'Li8 S4 O16'
_cell_volume   342.54456989
_cell_formula_units_Z   4
loop_
 _symmetry_equiv_pos_site_id
 _symmetry_equiv_pos_as_xyz
  1  'x, y, z'
loop_
 _atom_site_type_symbol
 _atom_site_label
 _atom_site_symmetry_multiplicity
 _atom_site_fract_x
 _atom_site_fract_y
 _atom_site_fract_z
 _atom_site_occupancy
  Li  Li0  1  0.62877248  0.92761833  0.93454095  1.0
  Li  Li1  1  0.62877248  0.57238167  0.43454095  1.0
  Li  Li2  1  0.37122752  0.42761833  0.56545905  1.0
  Li  Li3  1  0.37122752  0.07238167  0.06545905  1.0
  Li  Li4  1  0.87850462  0.93213163  0.69424678  1.0
  Li  Li5  1  0.87850462  0.56786837  0.19424678  1.0
  Li  Li6  1  0.12149538  0.43213163  0.80575322  1.0
  Li  Li7  1  0.12149538  0.06786837  0.30575322  1.0
  S  S8  1  0.75143340  0.43948835  0.80818941  1.0
  S  S9  1  0.75143340  0.06051165  0.30818941  1.0
  S  S10  1  0.24856660  0.93948835  0.69181059  1.0
  S  S11  1  0.24856660  0.56051165  0.19181059  1.0
  O  O12  1  0.89906666  0.55460483  0.77223957  1.0
  O  O13  1  0.89906666  0.94539517  0.27223957  1.0
  O  O14  1  0.10093334  0.05460483  0.72776043  1.0
  O  O15  1  0.10093334  0.44539517  0.22776043  1.0
  O  O16  1  0.77313333  0.14568031  0.83575079  1.0
  O  O17  1  0.77313333  0.35431969  0.33575079  1.0
  O  O18  1  0.22686667  0.64568031  0.66424921  1.0
  O  O19  1  0.22686667  0.85431969  0.16424921  1.0
  O  O20  1  0.72859387  0.56846975  0.96054427  1.0
  O  O21  1  0.72859387  0.93153025  0.46054427  1.0
  O  O22  1  0.27140613  0.06846975  0.53945573  1.0
  O  O23  1  0.27140613  0.43153025  0.03945573  1.0
  O  O24  1  0.39448810  0.99767997  0.83916093  1.0
  O  O25  1  0.39448810  0.50232003  0.33916093  1.0
  O  O26  1  0.60551190  0.49767997  0.66083907  1.0
  O  O27  1  0.60551190  0.00232003  0.16083907  1.0
