# generated using pymatgen
data_Li6PS5I
_symmetry_space_group_name_H-M   'P 1'
_cell_length_a   7.25186014
_cell_length_b   7.25186014
_cell_length_c   12.35880014
_cell_angle_alpha   73.27871798
_cell_angle_beta   106.72128202
_cell_angle_gamma   119.89669928
_symmetry_Int_Tables_number   1
_chemical_formula_structural   Li6PS5I
_chemical_formula_sum   'Li12 P2 S10 I2'
_cell_volume   531.41340052
_cell_formula_units_Z   2
loop_
 _symmetry_equiv_pos_site_id
 _symmetry_equiv_pos_as_xyz
  1  'x, y, z'
loop_
 _atom_site_type_symbol
 _atom_site_label
 _atom_site_symmetry_multiplicity
 _atom_site_fract_x
 _atom_site_fract_y
 _atom_site_fract_z
 _atom_site_occupancy
  Li  Li0  1  0.93509476  0.94148303  0.48182390  1.0
  Li  Li1  1  0.05851697  0.06490524  -0.01817610  1.0
  Li  Li2  1  0.69943672  -0.68126084  0.24805548  1.0
  Li  Li3  1  0.68126084  0.30056328  0.74805548  1.0
  Li  Li4  1  1.30104676  0.32990821  0.23681464  1.0
  Li  Li5  1  1.67009179  -0.30104676  0.73681464  1.0
  Li  Li6  1  1.45245449  -0.54513105  0.98392572  1.0
  Li  Li7  1  1.54513105  -0.45245449  0.48392572  1.0
  Li  Li8  1  1.16021281  -0.17858419  0.24721728  1.0
  Li  Li9  1  1.17858419  -0.16021281  0.74721728  1.0
  Li  Li10  1  1.52001981  -0.02031717  0.07451461  1.0
  Li  Li11  1  1.02031717  -0.52001981  0.57451461  1.0
  P  P12  1  1.47833871  0.01201834  0.50815224  1.0
  P  P13  1  0.98798166  0.52166129  1.00815224  1.0
  S  S14  1  1.77412769  0.18722078  0.45472512  1.0
  S  S15  1  0.81277922  0.22587231  0.95472512  1.0
  S  S16  1  1.30540678  -0.27997974  0.45098010  1.0
  S  S17  1  1.27997974  -0.30540678  0.95098010  1.0
  S  S18  1  1.04452892  0.47421834  0.18529076  1.0
  S  S19  1  1.52578166  -0.04452892  0.68529076  1.0
  S  S20  1  1.30130513  0.18457102  0.44456440  1.0
  S  S21  1  0.81542898  0.69869487  0.94456440  1.0
  S  S22  1  1.36215419  0.14908387  0.13125346  1.0
  S  S23  1  0.85091613  0.63784581  0.63125346  1.0
  I  I24  1  1.72234356  -0.25676023  0.26568229  1.0
  I  I25  1  1.25676023  -0.72234356  0.76568229  1.0
