# generated using pymatgen
data_K3VO4
_symmetry_space_group_name_H-M   'P 1'
_cell_length_a   8.39347739
_cell_length_b   8.39347739
_cell_length_c   8.39347739
_cell_angle_alpha   90.00000000
_cell_angle_beta   90.00000000
_cell_angle_gamma   90.00000000
_symmetry_Int_Tables_number   1
_chemical_formula_structural   K3VO4
_chemical_formula_sum   'K12 V4 O16'
_cell_volume   591.32436675
_cell_formula_units_Z   4
loop_
 _symmetry_equiv_pos_site_id
 _symmetry_equiv_pos_as_xyz
  1  'x, y, z'
loop_
 _atom_site_type_symbol
 _atom_site_label
 _atom_site_symmetry_multiplicity
 _atom_site_fract_x
 _atom_site_fract_y
 _atom_site_fract_z
 _atom_site_occupancy
  K  K0  1  0.52865119  0.02865119  0.47134881  1.0
  K  K1  1  0.02865119  0.47134881  0.52865119  1.0
  K  K2  1  0.47134881  0.52865119  0.02865119  1.0
  K  K3  1  -0.02865119  -0.02865119  -0.02865119  1.0
  K  K4  1  0.28354243  0.78354243  0.71645757  1.0
  K  K5  1  0.78354243  0.71645757  0.28354243  1.0
  K  K6  1  0.71645757  0.28354243  0.78354243  1.0
  K  K7  1  0.21645757  0.21645757  0.21645757  1.0
  K  K8  1  0.76031925  0.26031925  0.23968075  1.0
  K  K9  1  0.26031925  0.23968075  0.76031925  1.0
  K  K10  1  0.23968075  0.76031925  0.26031925  1.0
  K  K11  1  0.73968075  0.73968075  0.73968075  1.0
  V  V12  1  0.98636539  0.48636539  0.01363461  1.0
  V  V13  1  0.48636539  0.01363461  0.98636539  1.0
  V  V14  1  0.01363461  0.98636539  0.48636539  1.0
  V  V15  1  0.51363461  0.51363461  0.51363461  1.0
  O  O16  1  0.53927729  0.99381909  0.78757800  1.0
  O  O17  1  1.03927729  0.50618091  0.21242200  1.0
  O  O18  1  0.49381909  0.71242200  0.46072271  1.0
  O  O19  1  0.99381909  0.78757800  0.53927729  1.0
  O  O20  1  0.21242200  1.03927729  0.50618091  1.0
  O  O21  1  0.71242200  0.46072271  0.49381909  1.0
  O  O22  1  0.46072271  0.49381909  0.71242200  1.0
  O  O23  1  -0.03927729  0.00618091  0.28757800  1.0
  O  O24  1  0.50618091  0.21242200  1.03927729  1.0
  O  O25  1  0.00618091  0.28757800  -0.03927729  1.0
  O  O26  1  0.78757800  0.53927729  0.99381909  1.0
  O  O27  1  0.28757800  -0.03927729  0.00618091  1.0
  O  O28  1  0.10393816  0.60393816  0.89606184  1.0
  O  O29  1  0.60393816  0.89606184  0.10393816  1.0
  O  O30  1  0.89606184  0.10393816  0.60393816  1.0
  O  O31  1  0.39606184  0.39606184  0.39606184  1.0
