# generated using pymatgen
data_Co(CO3)2
_symmetry_space_group_name_H-M   'P 1'
_cell_length_a   5.15920518
_cell_length_b   5.15920518
_cell_length_c   20.44236478
_cell_angle_alpha   90.00000000
_cell_angle_beta   90.00000000
_cell_angle_gamma   119.77877387
_symmetry_Int_Tables_number   1
_chemical_formula_structural   Co(CO3)2
_chemical_formula_sum   'Co4 C8 O24'
_cell_volume   472.27090869
_cell_formula_units_Z   4
loop_
 _symmetry_equiv_pos_site_id
 _symmetry_equiv_pos_as_xyz
  1  'x, y, z'
loop_
 _atom_site_type_symbol
 _atom_site_label
 _atom_site_symmetry_multiplicity
 _atom_site_fract_x
 _atom_site_fract_y
 _atom_site_fract_z
 _atom_site_occupancy
  C  C0  1  0.00000000  0.50000000  0.53721027  1.0
  C  C1  1  0.00000000  0.50000000  0.46278973  1.0
  C  C2  1  0.50000000  1.00000000  0.03721027  1.0
  C  C3  1  0.50000000  1.00000000  0.96278973  1.0
  C  C4  1  0.00000000  0.00000000  0.78720834  1.0
  C  C5  1  0.00000000  0.00000000  0.21279166  1.0
  C  C6  1  0.00000000  0.00000000  0.28720834  1.0
  C  C7  1  0.00000000  0.00000000  0.71279166  1.0
  O  O8  1  0.21606378  0.71574155  0.56616685  1.0
  O  O9  1  0.21606378  0.71574155  0.43383315  1.0
  O  O10  1  0.71574155  1.21606378  0.06616685  1.0
  O  O11  1  0.71574155  1.21606378  0.93383315  1.0
  O  O12  1  0.28425845  0.78393622  0.06616685  1.0
  O  O13  1  0.28425845  0.78393622  0.93383315  1.0
  O  O14  1  -0.21606378  0.28425845  0.56616685  1.0
  O  O15  1  -0.21606378  0.28425845  0.43383315  1.0
  O  O16  1  0.78412698  0.78407625  0.81616579  1.0
  O  O17  1  0.78412698  0.78407625  0.18383421  1.0
  O  O18  1  0.78407625  0.78412698  0.31616579  1.0
  O  O19  1  0.78407625  0.78412698  0.68383421  1.0
  O  O20  1  0.21592375  0.21587302  0.31616579  1.0
  O  O21  1  0.21592375  0.21587302  0.68383421  1.0
  O  O22  1  0.21587302  0.21592375  0.81616579  1.0
  O  O23  1  0.21587302  0.21592375  0.18383421  1.0
  O  O24  1  -0.18367498  0.68444741  0.00000000  1.0
  O  O25  1  0.68444741  0.81632502  0.50000000  1.0
  O  O26  1  0.31555259  1.18367498  0.50000000  1.0
  O  O27  1  0.18367498  0.31555259  0.00000000  1.0
  O  O28  1  0.31593837  0.68406163  0.75000000  1.0
  O  O29  1  0.31593837  0.68406163  0.25000000  1.0
  O  O30  1  -0.31593837  0.31593837  0.25000000  1.0
  O  O31  1  -0.31593837  0.31593837  0.75000000  1.0
  Co  Co32  1  0.00000000  0.50000000  0.00000000  1.0
  Co  Co33  1  0.50000000  1.00000000  0.50000000  1.0
  Co  Co34  1  0.50000000  0.50000000  0.75000000  1.0
  Co  Co35  1  0.50000000  0.50000000  0.25000000  1.0
