# generated using pymatgen
data_In2Si2O7
_symmetry_space_group_name_H-M   'P 1'
_cell_length_a   5.51844625
_cell_length_b   5.51844625
_cell_length_c   4.76616318
_cell_angle_alpha   82.16282185
_cell_angle_beta   97.83717815
_cell_angle_gamma   75.04854126
_symmetry_Int_Tables_number   1
_chemical_formula_structural   In2Si2O7
_chemical_formula_sum   'In2 Si2 O7'
_cell_volume   136.67203393
_cell_formula_units_Z   1
loop_
 _symmetry_equiv_pos_site_id
 _symmetry_equiv_pos_as_xyz
  1  'x, y, z'
loop_
 _atom_site_type_symbol
 _atom_site_label
 _atom_site_symmetry_multiplicity
 _atom_site_fract_x
 _atom_site_fract_y
 _atom_site_fract_z
 _atom_site_occupancy
  In  In0  1  0.69174929  -0.30825071  0.00000000  1.0
  In  In1  1  1.30825071  0.30825071  0.00000000  1.0
  Si  Si2  1  0.78078994  -0.78078994  0.59088245  1.0
  Si  Si3  1  0.21921006  -0.21921006  0.40911755  1.0
  O  O4  1  1.61060532  0.07846069  0.78176457  1.0
  O  O5  1  0.92153931  -0.61060532  0.78176457  1.0
  O  O6  1  1.07846069  0.61060532  0.21823543  1.0
  O  O7  1  0.38939468  -0.07846069  0.21823543  1.0
  O  O8  1  0.38983222  -0.38983222  0.71591369  1.0
  O  O9  1  0.61016778  -0.61016778  0.28408631  1.0
  O  O10  1  0.00000000  -0.00000000  0.50000000  1.0
