# generated using pymatgen
data_Zr13Pd4O
_symmetry_space_group_name_H-M   'P 1'
_cell_length_a   11.19110402
_cell_length_b   11.19110402
_cell_length_c   11.19110402
_cell_angle_alpha   60.00000000
_cell_angle_beta   60.00000000
_cell_angle_gamma   60.00000000
_symmetry_Int_Tables_number   1
_chemical_formula_structural   Zr13Pd4O
_chemical_formula_sum   'Zr26 Pd8 O2'
_cell_volume   991.06879045
_cell_formula_units_Z   2
loop_
 _symmetry_equiv_pos_site_id
 _symmetry_equiv_pos_as_xyz
  1  'x, y, z'
loop_
 _atom_site_type_symbol
 _atom_site_label
 _atom_site_symmetry_multiplicity
 _atom_site_fract_x
 _atom_site_fract_y
 _atom_site_fract_z
 _atom_site_occupancy
  Zr  Zr0  1  0.94947240  -0.58989439  0.69094958  1.0
  Zr  Zr1  1  -0.05052760  0.69094958  0.41010561  1.0
  Zr  Zr2  1  -0.16010561  0.30052760  0.30052760  1.0
  Zr  Zr3  1  0.55905042  0.30052760  0.30052760  1.0
  Zr  Zr4  1  -0.58989439  0.94947240  0.69094958  1.0
  Zr  Zr5  1  0.94947240  -0.05052760  0.69094958  1.0
  Zr  Zr6  1  0.94947240  -0.30905042  0.94947240  1.0
  Zr  Zr7  1  -0.58989439  0.69094958  0.94947240  1.0
  Zr  Zr8  1  0.30052760  -0.16010561  0.30052760  1.0
  Zr  Zr9  1  0.30052760  0.30052760  -0.16010561  1.0
  Zr  Zr10  1  0.55905042  0.30052760  -0.16010561  1.0
  Zr  Zr11  1  0.55905042  -0.16010561  0.30052760  1.0
  Zr  Zr12  1  0.69094958  -0.05052760  0.94947240  1.0
  Zr  Zr13  1  -0.58989439  0.94947240  0.94947240  1.0
  Zr  Zr14  1  0.30052760  0.55905042  -0.16010561  1.0
  Zr  Zr15  1  0.30052760  -0.16010561  0.55905042  1.0
  Zr  Zr16  1  -0.30905042  0.94947240  0.41010561  1.0
  Zr  Zr17  1  0.69094958  -0.58989439  0.94947240  1.0
  Zr  Zr18  1  0.94947240  -0.58989439  0.94947240  1.0
  Zr  Zr19  1  -0.05052760  0.94947240  0.41010561  1.0
  Zr  Zr20  1  0.30052760  0.55905042  0.30052760  1.0
  Zr  Zr21  1  -0.16010561  0.55905042  0.30052760  1.0
  Zr  Zr22  1  -0.16010561  0.30052760  0.55905042  1.0
  Zr  Zr23  1  0.30052760  0.30052760  0.55905042  1.0
  Zr  Zr24  1  0.50000000  0.50000000  -0.50000000  1.0
  Zr  Zr25  1  0.75000000  -0.25000000  0.75000000  1.0
  Pd  Pd26  1  0.66619974  -0.33380026  1.00140078  1.0
  Pd  Pd27  1  0.66619974  0.00140078  0.66619974  1.0
  Pd  Pd28  1  0.58380026  -0.41619974  0.58380026  1.0
  Pd  Pd29  1  1.24859922  -0.41619974  0.58380026  1.0
  Pd  Pd30  1  1.00140078  -0.33380026  0.66619974  1.0
  Pd  Pd31  1  0.66619974  -0.33380026  0.66619974  1.0
  Pd  Pd32  1  0.58380026  0.24859922  0.58380026  1.0
  Pd  Pd33  1  0.58380026  -0.41619974  1.24859922  1.0
  O  O34  1  0.00000000  1.00000000  -0.00000000  1.0
  O  O35  1  0.25000000  0.25000000  0.25000000  1.0
