# generated using pymatgen
data_Sc3Pd5
_symmetry_space_group_name_H-M   'P 1'
_cell_length_a   5.60702927
_cell_length_b   5.60702927
_cell_length_c   9.03231514
_cell_angle_alpha   90.00000000
_cell_angle_beta   90.00000000
_cell_angle_gamma   75.93572571
_symmetry_Int_Tables_number   1
_chemical_formula_structural   Sc3Pd5
_chemical_formula_sum   'Sc6 Pd10'
_cell_volume   275.45273332
_cell_formula_units_Z   2
loop_
 _symmetry_equiv_pos_site_id
 _symmetry_equiv_pos_as_xyz
  1  'x, y, z'
loop_
 _atom_site_type_symbol
 _atom_site_label
 _atom_site_symmetry_multiplicity
 _atom_site_fract_x
 _atom_site_fract_y
 _atom_site_fract_z
 _atom_site_occupancy
  Sc  Sc0  1  0.41963892  0.58036108  0.75000000  1.0
  Sc  Sc1  1  -0.41963892  1.41963892  0.25000000  1.0
  Sc  Sc2  1  0.79048270  0.79048270  0.00000000  1.0
  Sc  Sc3  1  0.79048270  0.79048270  0.50000000  1.0
  Sc  Sc4  1  0.20951730  0.20951730  0.00000000  1.0
  Sc  Sc5  1  0.20951730  0.20951730  0.50000000  1.0
  Pd  Pd6  1  0.01564349  0.98435651  0.75000000  1.0
  Pd  Pd7  1  -0.01564349  1.01564349  0.25000000  1.0
  Pd  Pd8  1  -0.29480923  1.29480923  0.96980572  1.0
  Pd  Pd9  1  0.29480923  0.70519077  0.03019428  1.0
  Pd  Pd10  1  -0.29480923  1.29480923  0.53019428  1.0
  Pd  Pd11  1  0.29480923  0.70519077  0.46980572  1.0
  Pd  Pd12  1  -0.49054373  1.03221297  0.75000000  1.0
  Pd  Pd13  1  0.03221297  0.50945627  0.25000000  1.0
  Pd  Pd14  1  0.49054373  0.96778703  0.25000000  1.0
  Pd  Pd15  1  -0.03221297  1.49054373  0.75000000  1.0
