# generated using pymatgen
data_LiH2ClO
_symmetry_space_group_name_H-M   'P 1'
_cell_length_a   5.47443807
_cell_length_b   5.47443807
_cell_length_c   7.63787008
_cell_angle_alpha   90.00000000
_cell_angle_beta   90.00000000
_cell_angle_gamma   90.68313248
_symmetry_Int_Tables_number   1
_chemical_formula_structural   LiH2ClO
_chemical_formula_sum   'Li4 H8 Cl4 O4'
_cell_volume   228.88666483
_cell_formula_units_Z   4
loop_
 _symmetry_equiv_pos_site_id
 _symmetry_equiv_pos_as_xyz
  1  'x, y, z'
loop_
 _atom_site_type_symbol
 _atom_site_label
 _atom_site_symmetry_multiplicity
 _atom_site_fract_x
 _atom_site_fract_y
 _atom_site_fract_z
 _atom_site_occupancy
  Li  Li0  1  0.32321111  0.67678889  0.25000000  1.0
  Li  Li1  1  -0.32321111  1.32321111  0.75000000  1.0
  Li  Li2  1  0.00000000  0.00000000  0.50000000  1.0
  Li  Li3  1  0.00000000  0.00000000  0.00000000  1.0
  H  H4  1  -0.21418862  1.41411572  0.42867011  1.0
  H  H5  1  -0.21418862  1.41411572  0.07132989  1.0
  H  H6  1  0.41411572  0.78581138  0.92867011  1.0
  H  H7  1  0.41411572  0.78581138  0.57132989  1.0
  H  H8  1  -0.41411572  1.21418862  0.42867011  1.0
  H  H9  1  -0.41411572  1.21418862  0.07132989  1.0
  H  H10  1  0.21418862  0.58588428  0.92867011  1.0
  H  H11  1  0.21418862  0.58588428  0.57132989  1.0
  Cl  Cl12  1  -0.21060454  1.72814017  0.25000000  1.0
  Cl  Cl13  1  0.72814017  0.78939546  0.75000000  1.0
  Cl  Cl14  1  -0.72814017  1.21060454  0.25000000  1.0
  Cl  Cl15  1  0.21060454  0.27185983  0.75000000  1.0
  O  O16  1  0.26440022  0.73559978  0.99265664  1.0
  O  O17  1  0.26440022  0.73559978  0.50734336  1.0
  O  O18  1  -0.26440022  1.26440022  0.49265664  1.0
  O  O19  1  -0.26440022  1.26440022  0.00734336  1.0
