# generated using pymatgen
data_La3(ZnPd)4
_symmetry_space_group_name_H-M   'P 1'
_cell_length_a   8.43281843
_cell_length_b   8.43281843
_cell_length_c   8.43281843
_cell_angle_alpha   150.99074723
_cell_angle_beta   127.27195468
_cell_angle_gamma   61.30543046
_symmetry_Int_Tables_number   1
_chemical_formula_structural   La3(ZnPd)4
_chemical_formula_sum   'La3 Zn4 Pd4'
_cell_volume   229.51122826
_cell_formula_units_Z   1
loop_
 _symmetry_equiv_pos_site_id
 _symmetry_equiv_pos_as_xyz
  1  'x, y, z'
loop_
 _atom_site_type_symbol
 _atom_site_label
 _atom_site_symmetry_multiplicity
 _atom_site_fract_x
 _atom_site_fract_y
 _atom_site_fract_z
 _atom_site_occupancy
  La  La0  1  0.62996560  0.12996560  0.50000000  1.0
  La  La1  1  0.37003440  0.87003440  0.50000000  1.0
  La  La2  1  0.00000000  0.00000000  0.00000000  1.0
  Zn  Zn3  1  0.36339659  0.67248030  0.69091629  1.0
  Zn  Zn4  1  1.01843599  0.32751970  0.69091629  1.0
  Zn  Zn5  1  0.98156401  0.67248030  1.30908371  1.0
  Zn  Zn6  1  0.63660341  0.32751970  0.30908371  1.0
  Pd  Pd7  1  0.78359277  0.78359277  1.00000000  1.0
  Pd  Pd8  1  0.21640723  0.21640723  -0.00000000  1.0
  Pd  Pd9  1  0.30393933  0.50000000  0.80393933  1.0
  Pd  Pd10  1  0.69606067  0.50000000  1.19606067  1.0
