# generated using pymatgen
data_BaNaP3H3(NO2)3
_symmetry_space_group_name_H-M   'P 1'
_cell_length_a   7.59172569
_cell_length_b   7.59172569
_cell_length_c   8.05902965
_cell_angle_alpha   71.54660305
_cell_angle_beta   108.45339695
_cell_angle_gamma   92.87430828
_symmetry_Int_Tables_number   1
_chemical_formula_structural   BaNaP3H3(NO2)3
_chemical_formula_sum   'Ba2 Na2 P6 H6 N6 O12'
_cell_volume   417.29211280
_cell_formula_units_Z   2
loop_
 _symmetry_equiv_pos_site_id
 _symmetry_equiv_pos_as_xyz
  1  'x, y, z'
loop_
 _atom_site_type_symbol
 _atom_site_label
 _atom_site_symmetry_multiplicity
 _atom_site_fract_x
 _atom_site_fract_y
 _atom_site_fract_z
 _atom_site_occupancy
  Ba  Ba0  1  0.93293638  0.06706362  0.19623893  1.0
  Ba  Ba1  1  1.06706362  -0.06706362  0.80376106  1.0
  Na  Na2  1  0.67880093  0.67880093  -0.00000000  1.0
  Na  Na3  1  0.32119907  0.32119907  0.00000000  1.0
  P  P4  1  1.43545126  -0.15193987  0.25773250  1.0
  P  P5  1  1.15193987  -0.43545126  0.25773250  1.0
  P  P6  1  0.84806013  0.43545126  0.74226750  1.0
  P  P7  1  0.56454874  0.15193987  0.74226750  1.0
  P  P8  1  0.69920449  0.30079551  0.41765195  1.0
  P  P9  1  1.30079551  -0.30079551  0.58234805  1.0
  H  H10  1  0.39855078  0.24050023  0.42842085  1.0
  H  H11  1  0.75949977  0.60144922  0.42842085  1.0
  H  H12  1  1.24050023  -0.60144922  0.57157915  1.0
  H  H13  1  1.60144922  -0.24050023  0.57157915  1.0
  H  H14  1  1.43317486  -0.43317486  0.20606168  1.0
  H  H15  1  0.56682514  0.43317486  0.79393832  1.0
  N  N16  1  1.46670735  -0.21064804  0.48586975  1.0
  N  N17  1  1.21064804  -0.46670735  0.48586975  1.0
  N  N18  1  0.78935196  0.46670735  0.51413025  1.0
  N  N19  1  0.53329265  0.21064804  0.51413025  1.0
  N  N20  1  1.33413524  -0.33413524  0.18843985  1.0
  N  N21  1  0.66586476  0.33413524  0.81156015  1.0
  O  O22  1  1.62572304  -0.13950431  0.23188763  1.0
  O  O23  1  1.13950431  -0.62572304  0.23188763  1.0
  O  O24  1  0.86049569  0.62572304  0.76811237  1.0
  O  O25  1  0.37427696  0.13950431  0.76811237  1.0
  O  O26  1  0.28947881  0.00918775  0.15481069  1.0
  O  O27  1  0.99081225  0.71052119  0.15481069  1.0
  O  O28  1  1.00918775  -0.71052119  0.84518931  1.0
  O  O29  1  1.71052119  -0.00918775  0.84518931  1.0
  O  O30  1  0.85024275  0.14975725  0.47229592  1.0
  O  O31  1  1.14975725  -0.14975725  0.52770408  1.0
  O  O32  1  0.60497527  0.39502473  0.21154829  1.0
  O  O33  1  1.39502473  -0.39502473  0.78845171  1.0
