# generated using pymatgen
data_Rb2Bi(IO3)5
_symmetry_space_group_name_H-M   'P 1'
_cell_length_a   12.63219313
_cell_length_b   12.63219313
_cell_length_c   8.31396760
_cell_angle_alpha   90.00000000
_cell_angle_beta   90.00000000
_cell_angle_gamma   38.83970032
_symmetry_Int_Tables_number   1
_chemical_formula_structural   Rb2Bi(IO3)5
_chemical_formula_sum   'Rb4 Bi2 I10 O30'
_cell_volume   832.01830469
_cell_formula_units_Z   2
loop_
 _symmetry_equiv_pos_site_id
 _symmetry_equiv_pos_as_xyz
  1  'x, y, z'
loop_
 _atom_site_type_symbol
 _atom_site_label
 _atom_site_symmetry_multiplicity
 _atom_site_fract_x
 _atom_site_fract_y
 _atom_site_fract_z
 _atom_site_occupancy
  Rb  Rb0  1  0.24394059  0.25605941  0.48035593  1.0
  Rb  Rb1  1  -0.25605941  0.75605941  0.51964407  1.0
  Rb  Rb2  1  -0.00090691  0.00090691  0.00000000  1.0
  Rb  Rb3  1  -0.50090691  0.50090691  0.00000000  1.0
  Bi  Bi4  1  -0.90507534  0.90507534  0.50000000  1.0
  Bi  Bi5  1  -0.40507534  0.40507534  0.50000000  1.0
  I  I6  1  -0.39933415  1.12997381  0.24098752  1.0
  I  I7  1  -0.62997381  0.89933415  0.24098752  1.0
  I  I8  1  0.10066585  0.62997381  0.75901248  1.0
  I  I9  1  -0.12997381  0.39933415  0.75901248  1.0
  I  I10  1  0.12980161  0.65315943  0.26697393  1.0
  I  I11  1  -0.15315943  0.37019839  0.26697393  1.0
  I  I12  1  -0.37019839  1.15315943  0.73302607  1.0
  I  I13  1  -0.65315943  0.87019839  0.73302607  1.0
  I  I14  1  -0.19207359  0.69207359  0.04725239  1.0
  I  I15  1  -0.69207359  1.19207359  0.95274761  1.0
  O  O16  1  0.17431404  0.65759815  0.05373735  1.0
  O  O17  1  -0.15759815  0.32568596  0.05373735  1.0
  O  O18  1  -0.32568596  1.15759815  0.94626265  1.0
  O  O19  1  -0.65759815  0.82568596  0.94626265  1.0
  O  O20  1  -0.09271611  0.70861470  0.20013908  1.0
  O  O21  1  -0.20861470  0.59271611  0.20013908  1.0
  O  O22  1  -0.59271611  1.20861470  0.79986092  1.0
  O  O23  1  -0.70861470  1.09271611  0.79986092  1.0
  O  O24  1  -0.62909775  1.28864155  0.18198413  1.0
  O  O25  1  -0.78864155  1.12909775  0.18198413  1.0
  O  O26  1  -0.12909775  0.78864155  0.81801587  1.0
  O  O27  1  -0.28864155  0.62909775  0.81801587  1.0
  O  O28  1  -0.40606247  1.28287099  0.27944811  1.0
  O  O29  1  -0.78287099  0.90606247  0.27944811  1.0
  O  O30  1  0.09393753  0.78287099  0.72055189  1.0
  O  O31  1  -0.28287099  0.40606247  0.72055189  1.0
  O  O32  1  -0.05378683  0.88957917  0.31262928  1.0
  O  O33  1  -0.38957917  0.55378683  0.31262928  1.0
  O  O34  1  -0.55378683  1.38957917  0.68737072  1.0
  O  O35  1  -0.88957917  1.05378683  0.68737072  1.0
  O  O36  1  0.27749577  0.63955312  0.37668475  1.0
  O  O37  1  -0.13955312  0.22250423  0.37668475  1.0
  O  O38  1  -0.22250423  1.13955312  0.62331525  1.0
  O  O39  1  -0.63955312  0.72250423  0.62331525  1.0
  O  O40  1  0.08835643  0.58362413  0.54935763  1.0
  O  O41  1  -0.08362413  0.41164357  0.54935763  1.0
  O  O42  1  -0.41164357  1.08362413  0.45064237  1.0
  O  O43  1  -0.58362413  0.91164357  0.45064237  1.0
  O  O44  1  -0.41704024  0.91704024  0.07930324  1.0
  O  O45  1  0.08295976  0.41704024  0.92069676  1.0
