# generated using pymatgen
data_Ti4GaS8
_symmetry_space_group_name_H-M   'P 1'
_cell_length_a   7.07466912
_cell_length_b   7.07466912
_cell_length_c   7.07466912
_cell_angle_alpha   60.00000000
_cell_angle_beta   60.00000000
_cell_angle_gamma   60.00000000
_symmetry_Int_Tables_number   1
_chemical_formula_structural   Ti4GaS8
_chemical_formula_sum   'Ti4 Ga1 S8'
_cell_volume   250.38217110
_cell_formula_units_Z   1
loop_
 _symmetry_equiv_pos_site_id
 _symmetry_equiv_pos_as_xyz
  1  'x, y, z'
loop_
 _atom_site_type_symbol
 _atom_site_label
 _atom_site_symmetry_multiplicity
 _atom_site_fract_x
 _atom_site_fract_y
 _atom_site_fract_z
 _atom_site_occupancy
  Ti  Ti0  1  0.38733491  1.38733491  0.38733491  1.0
  Ti  Ti1  1  -0.16200474  0.38733491  0.38733491  1.0
  Ti  Ti2  1  0.38733491  1.38733491  -0.16200474  1.0
  Ti  Ti3  1  0.38733491  -0.16200474  0.38733491  1.0
  Ga  Ga4  1  0.00000000  0.00000000  0.00000000  1.0
  S  S5  1  -0.37518791  0.62481209  0.62481209  1.0
  S  S6  1  1.12556372  0.62481209  -0.37518791  1.0
  S  S7  1  -0.37518791  0.62481209  1.12556372  1.0
  S  S8  1  0.62481209  1.12556372  -0.37518791  1.0
  S  S9  1  0.13329816  0.13329816  0.13329816  1.0
  S  S10  1  0.60010553  0.13329816  0.13329816  1.0
  S  S11  1  0.13329816  0.13329816  0.60010553  1.0
  S  S12  1  0.13329816  0.60010553  0.13329816  1.0
