# generated using pymatgen
data_CuH12(N5O4)2
_symmetry_space_group_name_H-M   'P 1'
_cell_length_a   7.03034161
_cell_length_b   7.69110152
_cell_length_c   7.49738271
_cell_angle_alpha   63.99300581
_cell_angle_beta   63.16053899
_cell_angle_gamma   67.91141100
_symmetry_Int_Tables_number   1
_chemical_formula_structural   CuH12(N5O4)2
_chemical_formula_sum   'Cu1 H12 N10 O8'
_cell_volume   316.97706038
_cell_formula_units_Z   1
loop_
 _symmetry_equiv_pos_site_id
 _symmetry_equiv_pos_as_xyz
  1  'x, y, z'
loop_
 _atom_site_type_symbol
 _atom_site_label
 _atom_site_symmetry_multiplicity
 _atom_site_fract_x
 _atom_site_fract_y
 _atom_site_fract_z
 _atom_site_occupancy
  N  N0  1  0.27482677  -0.91297235  0.30542845  1.0
  N  N1  1  -0.27482677  -0.08702765  0.69457155  1.0
  N  N2  1  -0.25784390  -0.82577552  0.76363607  1.0
  N  N3  1  0.25784390  -0.17422448  0.23636393  1.0
  N  N4  1  -0.28797991  -0.88481891  0.63388203  1.0
  N  N5  1  0.28797991  -0.11518109  0.36611797  1.0
  N  N6  1  0.75687572  -0.65438933  0.16081106  1.0
  N  N7  1  -0.75687572  -0.34561067  0.83918894  1.0
  N  N8  1  0.10261891  -0.60464536  0.75919376  1.0
  N  N9  1  -0.10261891  -0.39535464  0.24080624  1.0
  O  O10  1  -0.18908850  -0.93646244  0.91149556  1.0
  O  O11  1  0.18908850  -0.06353756  0.08850444  1.0
  O  O12  1  0.23822056  -0.86100985  0.45491580  1.0
  O  O13  1  -0.23822056  -0.13899015  0.54508420  1.0
  O  O14  1  -0.30940070  -0.19883504  0.88004921  1.0
  O  O15  1  0.30940070  -0.80116496  0.11995079  1.0
  O  O16  1  -0.29435890  -0.63871106  0.70915747  1.0
  O  O17  1  0.29435890  -0.36128894  0.29084253  1.0
  H  H18  1  0.18595816  -0.74887806  0.80372939  1.0
  H  H19  1  -0.18595816  -0.25112194  0.19627061  1.0
  H  H20  1  0.25223268  -0.26218393  0.68534040  1.0
  H  H21  1  -0.25223268  -0.73781607  0.31465960  1.0
  H  H22  1  0.20128541  -0.52960542  0.61580819  1.0
  H  H23  1  -0.20128541  -0.47039458  0.38419181  1.0
  H  H24  1  0.77093275  -0.74808635  0.08943397  1.0
  H  H25  1  -0.77093275  -0.25191365  0.91056603  1.0
  H  H26  1  0.60992043  -0.55418109  0.16724355  1.0
  H  H27  1  -0.60992043  -0.44581891  0.83275645  1.0
  H  H28  1  -0.02987171  -0.60529476  0.73505017  1.0
  H  H29  1  0.02987171  -0.39470524  0.26494983  1.0
  Cu  Cu30  1  -0.00000000  -0.50000000  0.00000000  1.0
