# generated using pymatgen
data_La2Pt2Pb
_symmetry_space_group_name_H-M   'P 1'
_cell_length_a   8.11176350
_cell_length_b   8.11176350
_cell_length_c   3.88293554
_cell_angle_alpha   90.00000000
_cell_angle_beta   90.00000000
_cell_angle_gamma   90.00000000
_symmetry_Int_Tables_number   1
_chemical_formula_structural   La2Pt2Pb
_chemical_formula_sum   'La4 Pt4 Pb2'
_cell_volume   255.49990398
_cell_formula_units_Z   2
loop_
 _symmetry_equiv_pos_site_id
 _symmetry_equiv_pos_as_xyz
  1  'x, y, z'
loop_
 _atom_site_type_symbol
 _atom_site_label
 _atom_site_symmetry_multiplicity
 _atom_site_fract_x
 _atom_site_fract_y
 _atom_site_fract_z
 _atom_site_occupancy
  La  La0  1  0.32641863  0.17358137  0.50000000  1.0
  La  La1  1  0.82641863  0.32641863  0.50000000  1.0
  La  La2  1  0.67358137  0.82641863  0.50000000  1.0
  La  La3  1  0.17358137  0.67358137  0.50000000  1.0
  Pt  Pt4  1  0.87362145  0.62637855  0.00000000  1.0
  Pt  Pt5  1  0.37362145  0.87362145  0.00000000  1.0
  Pt  Pt6  1  0.12637855  0.37362145  0.00000000  1.0
  Pt  Pt7  1  0.62637855  0.12637855  0.00000000  1.0
  Pb  Pb8  1  0.50000000  0.50000000  0.00000000  1.0
  Pb  Pb9  1  0.00000000  0.00000000  0.00000000  1.0
