# generated using pymatgen
data_Nb7Si6
_symmetry_space_group_name_H-M   'P 1'
_cell_length_a   9.36459212
_cell_length_b   9.36459212
_cell_length_c   9.36459212
_cell_angle_alpha   31.61111171
_cell_angle_beta   31.61111171
_cell_angle_gamma   31.61111171
_symmetry_Int_Tables_number   1
_chemical_formula_structural   Nb7Si6
_chemical_formula_sum   'Nb7 Si6'
_cell_volume   200.34089537
_cell_formula_units_Z   1
loop_
 _symmetry_equiv_pos_site_id
 _symmetry_equiv_pos_as_xyz
  1  'x, y, z'
loop_
 _atom_site_type_symbol
 _atom_site_label
 _atom_site_symmetry_multiplicity
 _atom_site_fract_x
 _atom_site_fract_y
 _atom_site_fract_z
 _atom_site_occupancy
  Nb  Nb0  1  0.00000000  0.00000000  0.00000000  1.0
  Nb  Nb1  1  0.64611927  0.64611927  -0.35388073  1.0
  Nb  Nb2  1  0.35388073  0.35388073  -0.64611927  1.0
  Nb  Nb3  1  0.83112850  -0.16887150  -0.16887150  1.0
  Nb  Nb4  1  0.16887150  0.16887150  0.16887150  1.0
  Nb  Nb5  1  0.54674353  0.54674353  -0.45325647  1.0
  Nb  Nb6  1  0.45325647  0.45325647  -0.54674353  1.0
  Si  Si7  1  0.41619650  -0.08954812  -0.08954812  1.0
  Si  Si8  1  0.91045188  -0.08954812  -0.58380350  1.0
  Si  Si9  1  0.91045188  -0.58380350  -0.08954812  1.0
  Si  Si10  1  0.58380350  0.08954812  0.08954812  1.0
  Si  Si11  1  1.08954812  0.08954812  -0.41619650  1.0
  Si  Si12  1  1.08954812  -0.41619650  0.08954812  1.0
