# generated using pymatgen
data_Ba5V5O14
_symmetry_space_group_name_H-M   'P 1'
_cell_length_a   5.83287560
_cell_length_b   5.83287560
_cell_length_c   11.97150594
_cell_angle_alpha   90.00000000
_cell_angle_beta   90.00000000
_cell_angle_gamma   120.00000000
_symmetry_Int_Tables_number   1
_chemical_formula_structural   Ba5V5O14
_chemical_formula_sum   'Ba5 V5 O14'
_cell_volume   352.73198704
_cell_formula_units_Z   1
loop_
 _symmetry_equiv_pos_site_id
 _symmetry_equiv_pos_as_xyz
  1  'x, y, z'
loop_
 _atom_site_type_symbol
 _atom_site_label
 _atom_site_symmetry_multiplicity
 _atom_site_fract_x
 _atom_site_fract_y
 _atom_site_fract_z
 _atom_site_occupancy
  O  O0  1  0.66292075  0.83146037  0.30941485  1.0
  O  O1  1  0.83146037  0.66292075  0.69058515  1.0
  O  O2  1  0.83146037  0.16853963  0.69058515  1.0
  O  O3  1  0.16853963  0.83146037  0.30941485  1.0
  O  O4  1  0.16853963  0.33707925  0.30941485  1.0
  O  O5  1  0.33707925  0.16853963  0.69058515  1.0
  O  O6  1  0.30522690  0.15261345  0.10054044  1.0
  O  O7  1  0.15261345  0.30522690  0.89945956  1.0
  O  O8  1  0.15261345  0.84738655  0.89945956  1.0
  O  O9  1  0.84738655  0.15261345  0.10054044  1.0
  O  O10  1  0.84738655  0.69477310  0.10054044  1.0
  O  O11  1  0.69477310  0.84738655  0.89945956  1.0
  O  O12  1  0.33333333  0.66666667  0.50778614  1.0
  O  O13  1  0.66666667  0.33333333  0.49221386  1.0
  Ba  Ba14  1  0.33333333  0.66666667  0.07301725  1.0
  Ba  Ba15  1  0.66666667  0.33333333  0.92698275  1.0
  Ba  Ba16  1  0.33333333  0.66666667  0.73479784  1.0
  Ba  Ba17  1  0.66666667  0.33333333  0.26520216  1.0
  Ba  Ba18  1  0.00000000  0.00000000  0.50000000  1.0
  V  V19  1  0.00000000  0.00000000  0.00000000  1.0
  V  V20  1  0.00000000  0.00000000  0.20776149  1.0
  V  V21  1  0.00000000  0.00000000  0.79223851  1.0
  V  V22  1  0.33333333  0.66666667  0.36493281  1.0
  V  V23  1  0.66666667  0.33333333  0.63506719  1.0
