# generated using pymatgen
data_Rb2CO3
_symmetry_space_group_name_H-M   'P 1'
_cell_length_a   5.97085290
_cell_length_b   10.16636873
_cell_length_c   7.68520247
_cell_angle_alpha   90.00000000
_cell_angle_beta   95.53649736
_cell_angle_gamma   90.00000000
_symmetry_Int_Tables_number   1
_chemical_formula_structural   Rb2CO3
_chemical_formula_sum   'Rb8 C4 O12'
_cell_volume   464.33005302
_cell_formula_units_Z   4
loop_
 _symmetry_equiv_pos_site_id
 _symmetry_equiv_pos_as_xyz
  1  'x, y, z'
loop_
 _atom_site_type_symbol
 _atom_site_label
 _atom_site_symmetry_multiplicity
 _atom_site_fract_x
 _atom_site_fract_y
 _atom_site_fract_z
 _atom_site_occupancy
  Rb  Rb0  1  0.75794942  0.41802731  0.32045364  1.0
  Rb  Rb1  1  0.75794942  0.08197269  0.82045364  1.0
  Rb  Rb2  1  0.24205058  0.91802731  0.17954636  1.0
  Rb  Rb3  1  0.24205058  0.58197269  0.67954636  1.0
  Rb  Rb4  1  0.74287261  0.77647044  0.47818012  1.0
  Rb  Rb5  1  0.74287261  0.72352956  0.97818012  1.0
  Rb  Rb6  1  0.25712739  0.27647044  0.02181988  1.0
  Rb  Rb7  1  0.25712739  0.22352956  0.52181988  1.0
  C  C8  1  0.74864820  0.08397674  0.23778913  1.0
  C  C9  1  0.74864820  0.41602326  0.73778913  1.0
  C  C10  1  0.25135180  0.58397674  0.26221087  1.0
  C  C11  1  0.25135180  0.91602326  0.76221087  1.0
  O  O12  1  0.93224859  0.15190834  0.22620595  1.0
  O  O13  1  0.93224859  0.34809166  0.72620595  1.0
  O  O14  1  0.06775141  0.65190834  0.27379405  1.0
  O  O15  1  0.06775141  0.84809166  0.77379405  1.0
  O  O16  1  0.74166961  0.96064938  0.18935738  1.0
  O  O17  1  0.74166961  0.53935062  0.68935738  1.0
  O  O18  1  0.25833039  0.46064938  0.31064262  1.0
  O  O19  1  0.25833039  0.03935062  0.81064262  1.0
  O  O20  1  0.57242847  0.13900463  0.29394890  1.0
  O  O21  1  0.57242847  0.36099537  0.79394890  1.0
  O  O22  1  0.42757153  0.63900463  0.20605110  1.0
  O  O23  1  0.42757153  0.86099537  0.70605110  1.0
