# generated using pymatgen
data_Mo3Cl6O
_symmetry_space_group_name_H-M   'P 1'
_cell_length_a   9.33711848
_cell_length_b   9.33711848
_cell_length_c   9.33711848
_cell_angle_alpha   109.41534105
_cell_angle_beta   109.41534105
_cell_angle_gamma   109.58303771
_symmetry_Int_Tables_number   1
_chemical_formula_structural   Mo3Cl6O
_chemical_formula_sum   'Mo6 Cl12 O2'
_cell_volume   626.63619732
_cell_formula_units_Z   2
loop_
 _symmetry_equiv_pos_site_id
 _symmetry_equiv_pos_as_xyz
  1  'x, y, z'
loop_
 _atom_site_type_symbol
 _atom_site_label
 _atom_site_symmetry_multiplicity
 _atom_site_fract_x
 _atom_site_fract_y
 _atom_site_fract_z
 _atom_site_occupancy
  Mo  Mo0  1  0.84414859  1.07806947  0.92221806  1.0
  Mo  Mo1  1  0.07806947  0.15585141  0.23392087  1.0
  Mo  Mo2  1  0.15585141  0.92193053  1.07778194  1.0
  Mo  Mo3  1  0.92193053  0.84414859  0.76607913  1.0
  Mo  Mo4  1  0.19179359  0.19179359  -0.00000000  1.0
  Mo  Mo5  1  0.80820641  0.80820641  -0.00000000  1.0
  Cl  Cl6  1  1.08968305  0.38092493  1.14609975  1.0
  Cl  Cl7  1  0.76517481  1.05641670  1.14609975  1.0
  Cl  Cl8  1  0.38092493  0.23482519  0.29124188  1.0
  Cl  Cl9  1  1.05641670  0.91031695  1.29124188  1.0
  Cl  Cl10  1  0.23482519  0.94358330  0.85390025  1.0
  Cl  Cl11  1  0.91031695  0.61907507  0.85390025  1.0
  Cl  Cl12  1  0.94358330  1.08968305  1.70875812  1.0
  Cl  Cl13  1  0.61907507  0.76517481  0.70875812  1.0
  Cl  Cl14  1  0.64795607  1.17626619  0.82422226  1.0
  Cl  Cl15  1  0.17626619  0.35204393  0.52831012  1.0
  Cl  Cl16  1  0.35204393  0.82373381  1.17577774  1.0
  Cl  Cl17  1  0.82373381  0.64795607  0.47168988  1.0
  O  O18  1  0.35280883  0.35280883  -0.00000000  1.0
  O  O19  1  0.64719117  0.64719117  0.00000000  1.0
