# generated using pymatgen
data_ErOF
_symmetry_space_group_name_H-M   'P 1'
_cell_length_a   6.73596651
_cell_length_b   6.73596651
_cell_length_c   6.73596651
_cell_angle_alpha   32.94016860
_cell_angle_beta   32.94016860
_cell_angle_gamma   32.94016860
_symmetry_Int_Tables_number   1
_chemical_formula_structural   ErOF
_chemical_formula_sum   'Er2 O2 F2'
_cell_volume   80.41274245
_cell_formula_units_Z   2
loop_
 _symmetry_equiv_pos_site_id
 _symmetry_equiv_pos_as_xyz
  1  'x, y, z'
loop_
 _atom_site_type_symbol
 _atom_site_label
 _atom_site_symmetry_multiplicity
 _atom_site_fract_x
 _atom_site_fract_y
 _atom_site_fract_z
 _atom_site_occupancy
  Er  Er0  1  0.75929541  0.75929541  0.75929541  1.0
  Er  Er1  1  1.24070459  1.24070459  0.24070459  1.0
  O  O2  1  0.87806424  0.87806424  0.87806424  1.0
  O  O3  1  1.12193576  1.12193576  0.12193576  1.0
  F  F4  1  1.62887274  0.62887274  0.62887274  1.0
  F  F5  1  1.37112726  0.37112726  0.37112726  1.0
