# generated using pymatgen
data_Gd5Sb3
_symmetry_space_group_name_H-M   'P 1'
_cell_length_a   9.12061687
_cell_length_b   9.12061687
_cell_length_c   6.39664887
_cell_angle_alpha   90.00000000
_cell_angle_beta   90.00000000
_cell_angle_gamma   120.00000000
_symmetry_Int_Tables_number   1
_chemical_formula_structural   Gd5Sb3
_chemical_formula_sum   'Gd10 Sb6'
_cell_volume   460.82026469
_cell_formula_units_Z   2
loop_
 _symmetry_equiv_pos_site_id
 _symmetry_equiv_pos_as_xyz
  1  'x, y, z'
loop_
 _atom_site_type_symbol
 _atom_site_label
 _atom_site_symmetry_multiplicity
 _atom_site_fract_x
 _atom_site_fract_y
 _atom_site_fract_z
 _atom_site_occupancy
  Gd  Gd0  1  0.75069191  0.75069191  0.25000000  1.0
  Gd  Gd1  1  0.75069191  -0.00000000  0.75000000  1.0
  Gd  Gd2  1  -0.00000000  0.75069191  0.75000000  1.0
  Gd  Gd3  1  -0.00000000  0.24930809  0.25000000  1.0
  Gd  Gd4  1  0.24930809  0.24930809  0.75000000  1.0
  Gd  Gd5  1  0.24930809  0.00000000  0.25000000  1.0
  Gd  Gd6  1  0.33333333  0.66666667  0.50000000  1.0
  Gd  Gd7  1  0.33333333  0.66666667  0.00000000  1.0
  Gd  Gd8  1  0.66666667  0.33333333  0.50000000  1.0
  Gd  Gd9  1  0.66666667  0.33333333  -0.00000000  1.0
  Sb  Sb10  1  0.38828046  0.38828046  0.25000000  1.0
  Sb  Sb11  1  0.38828046  0.00000000  0.75000000  1.0
  Sb  Sb12  1  -0.00000000  0.38828046  0.75000000  1.0
  Sb  Sb13  1  0.00000000  0.61171954  0.25000000  1.0
  Sb  Sb14  1  0.61171954  0.61171954  0.75000000  1.0
  Sb  Sb15  1  0.61171954  -0.00000000  0.25000000  1.0
