# generated using pymatgen
data_KHgC3(SN)3
_symmetry_space_group_name_H-M   'P 1'
_cell_length_a   11.72411064
_cell_length_b   4.15817729
_cell_length_c   11.70960906
_cell_angle_alpha   90.00000000
_cell_angle_beta   115.87653774
_cell_angle_gamma   90.00000000
_symmetry_Int_Tables_number   1
_chemical_formula_structural   KHgC3(SN)3
_chemical_formula_sum   'K2 Hg2 C6 S6 N6'
_cell_volume   513.61852603
_cell_formula_units_Z   2
loop_
 _symmetry_equiv_pos_site_id
 _symmetry_equiv_pos_as_xyz
  1  'x, y, z'
loop_
 _atom_site_type_symbol
 _atom_site_label
 _atom_site_symmetry_multiplicity
 _atom_site_fract_x
 _atom_site_fract_y
 _atom_site_fract_z
 _atom_site_occupancy
  K  K0  1  0.19665557  0.25000000  0.60938412  1.0
  K  K1  1  0.80334443  0.75000000  0.39061588  1.0
  Hg  Hg2  1  0.74570593  0.25000000  0.83383789  1.0
  Hg  Hg3  1  0.25429407  0.75000000  0.16616211  1.0
  C  C4  1  0.93736747  0.25000000  0.70228677  1.0
  C  C5  1  0.06263253  0.75000000  0.29771323  1.0
  C  C6  1  0.71883984  0.25000000  0.09732345  1.0
  C  C7  1  0.28116016  0.75000000  0.90267655  1.0
  C  C8  1  0.50597965  0.25000000  0.34977462  1.0
  C  C9  1  0.49402035  0.75000000  0.65022538  1.0
  S  S10  1  0.61049902  0.25000000  0.94674448  1.0
  S  S11  1  0.38950098  0.75000000  0.05325552  1.0
  S  S12  1  0.36033568  0.25000000  0.34062311  1.0
  S  S13  1  0.63966432  0.75000000  0.65937689  1.0
  S  S14  1  0.96614150  0.25000000  0.85460076  1.0
  S  S15  1  0.03385850  0.75000000  0.14539924  1.0
  N  N16  1  0.92303690  0.25000000  0.59627615  1.0
  N  N17  1  0.07696310  0.75000000  0.40372385  1.0
  N  N18  1  0.78832079  0.25000000  0.20632254  1.0
  N  N19  1  0.21167921  0.75000000  0.79367746  1.0
  N  N20  1  0.61000949  0.25000000  0.35904537  1.0
  N  N21  1  0.38999051  0.75000000  0.64095463  1.0
