# generated using pymatgen
data_LaAlPd
_symmetry_space_group_name_H-M   'P 1'
_cell_length_a   7.35173128
_cell_length_b   4.35754513
_cell_length_c   16.55593570
_cell_angle_alpha   90.00000000
_cell_angle_beta   90.00000000
_cell_angle_gamma   90.00000000
_symmetry_Int_Tables_number   1
_chemical_formula_structural   LaAlPd
_chemical_formula_sum   'La8 Al8 Pd8'
_cell_volume   530.37769263
_cell_formula_units_Z   8
loop_
 _symmetry_equiv_pos_site_id
 _symmetry_equiv_pos_as_xyz
  1  'x, y, z'
loop_
 _atom_site_type_symbol
 _atom_site_label
 _atom_site_symmetry_multiplicity
 _atom_site_fract_x
 _atom_site_fract_y
 _atom_site_fract_z
 _atom_site_occupancy
  La  La0  1  0.98912407  0.75000000  0.27603609  1.0
  La  La1  1  0.48912407  0.75000000  0.22396391  1.0
  La  La2  1  0.01087593  0.25000000  0.72396391  1.0
  La  La3  1  0.51087593  0.25000000  0.77603609  1.0
  La  La4  1  0.85208833  0.75000000  0.05866960  1.0
  La  La5  1  0.35208833  0.75000000  0.44133040  1.0
  La  La6  1  0.14791167  0.25000000  0.94133040  1.0
  La  La7  1  0.64791167  0.25000000  0.55866960  1.0
  Al  Al8  1  0.99097267  0.75000000  0.56158379  1.0
  Al  Al9  1  0.49097267  0.75000000  0.93841621  1.0
  Al  Al10  1  0.00902733  0.25000000  0.43841621  1.0
  Al  Al11  1  0.50902733  0.25000000  0.06158379  1.0
  Al  Al12  1  0.83452371  0.75000000  0.85374737  1.0
  Al  Al13  1  0.33452371  0.75000000  0.64625263  1.0
  Al  Al14  1  0.16547629  0.25000000  0.14625263  1.0
  Al  Al15  1  0.66547629  0.25000000  0.35374737  1.0
  Pd  Pd16  1  0.79479051  0.75000000  0.42852255  1.0
  Pd  Pd17  1  0.29479051  0.75000000  0.07147745  1.0
  Pd  Pd18  1  0.20520949  0.25000000  0.57147745  1.0
  Pd  Pd19  1  0.70520949  0.25000000  0.92852255  1.0
  Pd  Pd20  1  0.72748200  0.75000000  0.68137051  1.0
  Pd  Pd21  1  0.22748200  0.75000000  0.81862949  1.0
  Pd  Pd22  1  0.27251800  0.25000000  0.31862949  1.0
  Pd  Pd23  1  0.77251800  0.25000000  0.18137051  1.0
