# generated using pymatgen
data_FeSbPt
_symmetry_space_group_name_H-M   'P 1'
_cell_length_a   6.19190809
_cell_length_b   6.19190809
_cell_length_c   6.19190809
_cell_angle_alpha   90.00000000
_cell_angle_beta   90.00000000
_cell_angle_gamma   90.00000000
_symmetry_Int_Tables_number   1
_chemical_formula_structural   FeSbPt
_chemical_formula_sum   'Fe4 Sb4 Pt4'
_cell_volume   237.39605874
_cell_formula_units_Z   4
loop_
 _symmetry_equiv_pos_site_id
 _symmetry_equiv_pos_as_xyz
  1  'x, y, z'
loop_
 _atom_site_type_symbol
 _atom_site_label
 _atom_site_symmetry_multiplicity
 _atom_site_fract_x
 _atom_site_fract_y
 _atom_site_fract_z
 _atom_site_occupancy
  Fe  Fe0  1  0.93354584  0.43354584  0.06645416  1.0
  Fe  Fe1  1  0.43354584  0.06645416  0.93354584  1.0
  Fe  Fe2  1  0.06645416  0.93354584  0.43354584  1.0
  Fe  Fe3  1  0.56645416  0.56645416  0.56645416  1.0
  Sb  Sb4  1  0.18822929  0.68822929  0.81177071  1.0
  Sb  Sb5  1  0.68822929  0.81177071  0.18822929  1.0
  Sb  Sb6  1  0.81177071  0.18822929  0.68822929  1.0
  Sb  Sb7  1  0.31177071  0.31177071  0.31177071  1.0
  Pt  Pt8  1  0.45991775  -0.04008225  0.54008225  1.0
  Pt  Pt9  1  -0.04008225  0.54008225  0.45991775  1.0
  Pt  Pt10  1  0.54008225  0.45991775  -0.04008225  1.0
  Pt  Pt11  1  0.04008225  0.04008225  0.04008225  1.0
