# generated using pymatgen
data_Na2Te4O9
_symmetry_space_group_name_H-M   'P 1'
_cell_length_a   7.05975888
_cell_length_b   10.99696478
_cell_length_c   7.53679592
_cell_angle_alpha   69.34038149
_cell_angle_beta   69.74908577
_cell_angle_gamma   75.37785061
_symmetry_Int_Tables_number   1
_chemical_formula_structural   Na2Te4O9
_chemical_formula_sum   'Na4 Te8 O18'
_cell_volume   507.96336190
_cell_formula_units_Z   2
loop_
 _symmetry_equiv_pos_site_id
 _symmetry_equiv_pos_as_xyz
  1  'x, y, z'
loop_
 _atom_site_type_symbol
 _atom_site_label
 _atom_site_symmetry_multiplicity
 _atom_site_fract_x
 _atom_site_fract_y
 _atom_site_fract_z
 _atom_site_occupancy
  Na  Na0  1  0.98426982  -0.13508618  0.95521703  1.0
  Na  Na1  1  0.01573018  -0.86491382  1.04478297  1.0
  Na  Na2  1  0.47863922  -0.98476566  1.76859912  1.0
  Na  Na3  1  0.52136078  -0.01523434  0.23140088  1.0
  Te  Te4  1  0.99507383  -0.50603128  0.78983845  1.0
  Te  Te5  1  0.00492617  -0.49396872  1.21016155  1.0
  Te  Te6  1  0.53736219  -0.71601219  1.35116061  1.0
  Te  Te7  1  0.46263781  -0.28398781  0.64883939  1.0
  Te  Te8  1  0.52220900  -0.29830399  1.08727553  1.0
  Te  Te9  1  0.47779100  -0.70169601  0.91272447  1.0
  Te  Te10  1  0.02145206  -0.82731680  1.50817704  1.0
  Te  Te11  1  0.97854794  -0.17268320  0.49182296  1.0
  O  O12  1  0.94943129  -0.63665067  1.49174413  1.0
  O  O13  1  0.05056871  -0.36334933  0.50825587  1.0
  O  O14  1  0.95753247  -0.90652618  1.78509310  1.0
  O  O15  1  0.04246753  -0.09347382  0.21490690  1.0
  O  O16  1  0.93768063  -0.61746261  1.10831926  1.0
  O  O17  1  0.06231937  -0.38253739  0.89168074  1.0
  O  O18  1  0.70830159  -0.40750235  1.26933555  1.0
  O  O19  1  0.29169841  -0.59249765  0.73066445  1.0
  O  O20  1  0.71468892  -0.83692514  1.52221587  1.0
  O  O21  1  0.28531108  -0.16307486  0.47778413  1.0
  O  O22  1  0.66807244  -0.38491283  0.87149079  1.0
  O  O23  1  0.33192756  -0.61508717  1.12850921  1.0
  O  O24  1  0.65760802  -0.80325479  1.14099360  1.0
  O  O25  1  0.34239198  -0.19674521  0.85900640  1.0
  O  O26  1  0.64357297  -0.14289575  0.99725138  1.0
  O  O27  1  0.35642703  -0.85710425  1.00274862  1.0
  O  O28  1  0.33178147  -0.83320947  1.51559802  1.0
  O  O29  1  0.66821853  -0.16679053  0.48440198  1.0
