# generated using pymatgen
data_Rb3NdF6
_symmetry_space_group_name_H-M   'P 1'
_cell_length_a   7.14154609
_cell_length_b   7.14154609
_cell_length_c   7.14154609
_cell_angle_alpha   117.80484559
_cell_angle_beta   117.80484559
_cell_angle_gamma   93.84612269
_symmetry_Int_Tables_number   1
_chemical_formula_structural   Rb3NdF6
_chemical_formula_sum   'Rb3 Nd1 F6'
_cell_volume   265.44858122
_cell_formula_units_Z   1
loop_
 _symmetry_equiv_pos_site_id
 _symmetry_equiv_pos_as_xyz
  1  'x, y, z'
loop_
 _atom_site_type_symbol
 _atom_site_label
 _atom_site_symmetry_multiplicity
 _atom_site_fract_x
 _atom_site_fract_y
 _atom_site_fract_z
 _atom_site_occupancy
  Rb  Rb0  1  1.25000000  0.75000000  0.50000000  1.0
  Rb  Rb1  1  0.75000000  1.25000000  0.50000000  1.0
  Rb  Rb2  1  0.50000000  0.50000000  -0.00000000  1.0
  Nd  Nd3  1  -0.00000000  -0.00000000  -0.00000000  1.0
  F  F4  1  0.00000000  0.69281575  0.69281575  1.0
  F  F5  1  0.69281575  0.00000000  0.69281575  1.0
  F  F6  1  0.30718425  0.00000000  0.30718425  1.0
  F  F7  1  0.00000000  0.30718425  0.30718425  1.0
  F  F8  1  0.76364312  0.76364312  0.00000000  1.0
  F  F9  1  0.23635688  0.23635688  0.00000000  1.0
