# generated using pymatgen
data_GdInO3
_symmetry_space_group_name_H-M   'P 1'
_cell_length_a   6.42459853
_cell_length_b   6.42459853
_cell_length_c   12.46430411
_cell_angle_alpha   90.00000000
_cell_angle_beta   90.00000000
_cell_angle_gamma   120.00000000
_symmetry_Int_Tables_number   1
_chemical_formula_structural   GdInO3
_chemical_formula_sum   'Gd6 In6 O18'
_cell_volume   445.54405787
_cell_formula_units_Z   6
loop_
 _symmetry_equiv_pos_site_id
 _symmetry_equiv_pos_as_xyz
  1  'x, y, z'
loop_
 _atom_site_type_symbol
 _atom_site_label
 _atom_site_symmetry_multiplicity
 _atom_site_fract_x
 _atom_site_fract_y
 _atom_site_fract_z
 _atom_site_occupancy
  Gd  Gd0  1  0.33333333  0.66666667  0.03880178  1.0
  Gd  Gd1  1  0.33333333  0.66666667  0.53880178  1.0
  Gd  Gd2  1  0.66666667  0.33333333  0.03880178  1.0
  Gd  Gd3  1  0.66666667  0.33333333  0.53880178  1.0
  Gd  Gd4  1  0.00000000  0.00000000  0.00318670  1.0
  Gd  Gd5  1  0.00000000  0.00000000  0.50318670  1.0
  In  In6  1  0.66640258  0.66640258  0.27349822  1.0
  In  In7  1  0.66640258  0.00000000  0.77349822  1.0
  In  In8  1  0.00000000  0.66640258  0.77349822  1.0
  In  In9  1  0.00000000  0.33359742  0.27349822  1.0
  In  In10  1  0.33359742  0.33359742  0.77349822  1.0
  In  In11  1  0.33359742  0.00000000  0.27349822  1.0
  O  O12  1  0.69317899  0.69317899  0.10293638  1.0
  O  O13  1  0.69317899  0.00000000  0.60293638  1.0
  O  O14  1  0.00000000  0.69317899  0.60293638  1.0
  O  O15  1  -0.00000000  0.30682101  0.10293638  1.0
  O  O16  1  0.30682101  0.30682101  0.60293638  1.0
  O  O17  1  0.30682101  0.00000000  0.10293638  1.0
  O  O18  1  0.63925258  0.63925258  0.44237127  1.0
  O  O19  1  0.63925258  0.00000000  0.94237127  1.0
  O  O20  1  0.00000000  0.63925258  0.94237127  1.0
  O  O21  1  -0.00000000  0.36074742  0.44237127  1.0
  O  O22  1  0.36074742  0.36074742  0.94237127  1.0
  O  O23  1  0.36074742  0.00000000  0.44237127  1.0
  O  O24  1  0.33333333  0.66666667  0.24637027  1.0
  O  O25  1  0.33333333  0.66666667  0.74637027  1.0
  O  O26  1  0.66666667  0.33333333  0.24637027  1.0
  O  O27  1  0.66666667  0.33333333  0.74637027  1.0
  O  O28  1  0.00000000  0.00000000  0.30385158  1.0
  O  O29  1  0.00000000  0.00000000  0.80385158  1.0
