# generated using pymatgen
data_KLi3SiO4
_symmetry_space_group_name_H-M   'P 1'
_cell_length_a   9.79278420
_cell_length_b   7.41796463
_cell_length_c   5.79958884
_cell_angle_alpha   80.25562377
_cell_angle_beta   76.36704529
_cell_angle_gamma   83.71212593
_symmetry_Int_Tables_number   1
_chemical_formula_structural   KLi3SiO4
_chemical_formula_sum   'K4 Li12 Si4 O16'
_cell_volume   402.45233881
_cell_formula_units_Z   4
loop_
 _symmetry_equiv_pos_site_id
 _symmetry_equiv_pos_as_xyz
  1  'x, y, z'
loop_
 _atom_site_type_symbol
 _atom_site_label
 _atom_site_symmetry_multiplicity
 _atom_site_fract_x
 _atom_site_fract_y
 _atom_site_fract_z
 _atom_site_occupancy
  K  K0  1  -0.11693425  -0.61778132  -0.98924016  1.0
  K  K1  1  -0.88306575  -0.38221868  -0.01075984  1.0
  K  K2  1  -0.36995644  -0.85923490  -0.95267867  1.0
  K  K3  1  -0.63004356  -0.14076510  -0.04732133  1.0
  Li  Li4  1  -0.62490129  -0.95332212  -0.57413613  1.0
  Li  Li5  1  -0.37509871  -0.04667788  -0.42586387  1.0
  Li  Li6  1  -0.39231258  -0.66774708  -0.51171918  1.0
  Li  Li7  1  -0.60768742  -0.33225292  -0.48828082  1.0
  Li  Li8  1  -0.87169123  -0.57298506  -0.46483389  1.0
  Li  Li9  1  -0.12830877  -0.42701494  -0.53516611  1.0
  Li  Li10  1  -0.89692664  -0.93484553  -0.21836725  1.0
  Li  Li11  1  -0.10307336  -0.06515447  -0.78163275  1.0
  Li  Li12  1  -0.60488757  -0.54911901  -0.81617317  1.0
  Li  Li13  1  -0.39511243  -0.45088099  -0.18382683  1.0
  Li  Li14  1  -0.85490240  -0.83244731  -0.80062801  1.0
  Li  Li15  1  -0.14509760  -0.16755269  -0.19937199  1.0
  Si  Si16  1  -0.86282448  -0.21449329  -0.56292242  1.0
  Si  Si17  1  -0.13717552  -0.78550671  -0.43707758  1.0
  Si  Si18  1  -0.64783383  -0.71045269  -0.16275605  1.0
  Si  Si19  1  -0.35216617  -0.28954731  -0.83724395  1.0
  O  O20  1  -0.21791216  -0.89164870  -0.59030479  1.0
  O  O21  1  -0.78208784  -0.10835130  -0.40969521  1.0
  O  O22  1  -0.54066787  -0.83484700  -0.35254288  1.0
  O  O23  1  -0.45933213  -0.16515300  -0.64745712  1.0
  O  O24  1  -0.81364852  -0.71235947  -0.18478773  1.0
  O  O25  1  -0.18635148  -0.28764053  -0.81521227  1.0
  O  O26  1  -0.99730411  -0.68284265  -0.60534189  1.0
  O  O27  1  -0.00269589  -0.31715735  -0.39465811  1.0
  O  O28  1  -0.64961599  -0.79426289  -0.87501039  1.0
  O  O29  1  -0.35038401  -0.20573711  -0.12498961  1.0
  O  O30  1  -0.90354830  -0.07815031  -0.79721835  1.0
  O  O31  1  -0.09645170  -0.92184969  -0.20278165  1.0
  O  O32  1  -0.41013676  -0.49767455  -0.80076503  1.0
  O  O33  1  -0.58986324  -0.50232545  -0.19923497  1.0
  O  O34  1  -0.74763700  -0.38572984  -0.65611749  1.0
  O  O35  1  -0.25236300  -0.61427016  -0.34388251  1.0
