# generated using pymatgen
data_HfSiNi
_symmetry_space_group_name_H-M   'P 1'
_cell_length_a   6.42830027
_cell_length_b   3.79303702
_cell_length_c   7.24067001
_cell_angle_alpha   90.00000000
_cell_angle_beta   90.00000000
_cell_angle_gamma   90.00000000
_symmetry_Int_Tables_number   1
_chemical_formula_structural   HfSiNi
_chemical_formula_sum   'Hf4 Si4 Ni4'
_cell_volume   176.54767019
_cell_formula_units_Z   4
loop_
 _symmetry_equiv_pos_site_id
 _symmetry_equiv_pos_as_xyz
  1  'x, y, z'
loop_
 _atom_site_type_symbol
 _atom_site_label
 _atom_site_symmetry_multiplicity
 _atom_site_fract_x
 _atom_site_fract_y
 _atom_site_fract_z
 _atom_site_occupancy
  Hf  Hf0  1  0.98216184  0.75000000  0.68462983  1.0
  Hf  Hf1  1  0.48216184  0.75000000  0.81537017  1.0
  Hf  Hf2  1  0.01783816  0.25000000  0.31537017  1.0
  Hf  Hf3  1  0.51783816  0.25000000  0.18462983  1.0
  Si  Si4  1  0.72822369  0.75000000  0.38457640  1.0
  Si  Si5  1  0.22822369  0.75000000  0.11542360  1.0
  Si  Si6  1  0.27177631  0.25000000  0.61542360  1.0
  Si  Si7  1  0.77177631  0.25000000  0.88457640  1.0
  Ni  Ni8  1  0.85936058  0.75000000  0.06164725  1.0
  Ni  Ni9  1  0.35936058  0.75000000  0.43835275  1.0
  Ni  Ni10  1  0.14063942  0.25000000  0.93835275  1.0
  Ni  Ni11  1  0.64063942  0.25000000  0.56164725  1.0
