# generated using pymatgen
data_CaH8C2N4O5
_symmetry_space_group_name_H-M   'P 1'
_cell_length_a   6.41773979
_cell_length_b   7.93952326
_cell_length_c   7.76124309
_cell_angle_alpha   79.19311544
_cell_angle_beta   74.21767782
_cell_angle_gamma   83.41067756
_symmetry_Int_Tables_number   1
_chemical_formula_structural   CaH8C2N4O5
_chemical_formula_sum   'Ca2 H16 C4 N8 O10'
_cell_volume   372.95599524
_cell_formula_units_Z   2
loop_
 _symmetry_equiv_pos_site_id
 _symmetry_equiv_pos_as_xyz
  1  'x, y, z'
loop_
 _atom_site_type_symbol
 _atom_site_label
 _atom_site_symmetry_multiplicity
 _atom_site_fract_x
 _atom_site_fract_y
 _atom_site_fract_z
 _atom_site_occupancy
  Ca  Ca0  1  -0.30402353  -0.44800762  -0.88075946  1.0
  Ca  Ca1  1  -0.69597647  -0.55199238  -0.11924054  1.0
  H  H2  1  -0.66297481  -0.83250705  -0.36390743  1.0
  H  H3  1  -0.33702519  -0.16749295  -0.63609257  1.0
  H  H4  1  -0.29717575  -0.78316921  -0.65332326  1.0
  H  H5  1  -0.70282425  -0.21683079  -0.34667674  1.0
  H  H6  1  -0.97832871  -0.85494203  -0.87526352  1.0
  H  H7  1  -0.02167129  -0.14505797  -0.12473648  1.0
  H  H8  1  -0.98660435  -0.74530227  -0.48615442  1.0
  H  H9  1  -0.01339565  -0.25469773  -0.51384558  1.0
  H  H10  1  -0.79529980  -0.93292269  -0.04526078  1.0
  H  H11  1  -0.20470020  -0.06707731  -0.95473922  1.0
  H  H12  1  -0.68078828  -0.06310697  -0.78541643  1.0
  H  H13  1  -0.31921172  -0.93689303  -0.21458357  1.0
  H  H14  1  -0.71329729  -0.32825788  -0.50049919  1.0
  H  H15  1  -0.28670271  -0.67174212  -0.49950081  1.0
  H  H16  1  -0.65802198  -0.64046267  -0.49687194  1.0
  H  H17  1  -0.34197802  -0.35953733  -0.50312806  1.0
  C  C18  1  -0.87954521  -0.35732037  -0.74684818  1.0
  C  C19  1  -0.12045479  -0.64267963  -0.25315182  1.0
  C  C20  1  -0.52204398  -0.84308705  -0.81715276  1.0
  C  C21  1  -0.47795602  -0.15691295  -0.18284724  1.0
  N  N22  1  -0.95337720  -0.71912489  -0.37293662  1.0
  N  N23  1  -0.04662280  -0.28087511  -0.62706338  1.0
  N  N24  1  -0.81805360  -0.85998233  -0.94463847  1.0
  N  N25  1  -0.18194640  -0.14001767  -0.05536153  1.0
  N  N26  1  -0.73510467  -0.70928859  -0.37516745  1.0
  N  N27  1  -0.26489533  -0.29071141  -0.62483255  1.0
  N  N28  1  -0.68928591  -0.93296513  -0.82579340  1.0
  N  N29  1  -0.31071409  -0.06703487  -0.17420660  1.0
  O  O30  1  -0.92223203  -0.41810245  -0.87285896  1.0
  O  O31  1  -0.07776797  -0.58189755  -0.12714104  1.0
  O  O32  1  -0.68925243  -0.35412578  -0.72180519  1.0
  O  O33  1  -0.31074757  -0.64587422  -0.27819481  1.0
  O  O34  1  -0.52004411  -0.68359188  -0.88305584  1.0
  O  O35  1  -0.47995589  -0.31640812  -0.11694416  1.0
  O  O36  1  -0.38157661  -0.92775448  -0.73832025  1.0
  O  O37  1  -0.61842339  -0.07224552  -0.26167975  1.0
  O  O38  1  -0.24650648  -0.67542666  -0.63210606  1.0
  O  O39  1  -0.75349352  -0.32457334  -0.36789394  1.0
