# generated using pymatgen
data_Lu4MgRh
_symmetry_space_group_name_H-M   'P 1'
_cell_length_a   9.50338887
_cell_length_b   9.50338887
_cell_length_c   9.50338887
_cell_angle_alpha   60.00000000
_cell_angle_beta   60.00000000
_cell_angle_gamma   60.00000000
_symmetry_Int_Tables_number   1
_chemical_formula_structural   Lu4MgRh
_chemical_formula_sum   'Lu16 Mg4 Rh4'
_cell_volume   606.90470500
_cell_formula_units_Z   4
loop_
 _symmetry_equiv_pos_site_id
 _symmetry_equiv_pos_as_xyz
  1  'x, y, z'
loop_
 _atom_site_type_symbol
 _atom_site_label
 _atom_site_symmetry_multiplicity
 _atom_site_fract_x
 _atom_site_fract_y
 _atom_site_fract_z
 _atom_site_occupancy
  Lu  Lu0  1  0.06510188  0.43489812  0.43489812  1.0
  Lu  Lu1  1  0.43489812  0.43489812  0.06510188  1.0
  Lu  Lu2  1  0.43489812  0.06510188  0.43489812  1.0
  Lu  Lu3  1  0.06510188  0.06510188  0.43489812  1.0
  Lu  Lu4  1  0.06510188  0.43489812  0.06510188  1.0
  Lu  Lu5  1  0.43489812  0.06510188  0.06510188  1.0
  Lu  Lu6  1  -0.81175645  0.81175645  0.81175645  1.0
  Lu  Lu7  1  -0.18824355  0.81175645  0.18824355  1.0
  Lu  Lu8  1  -0.18824355  0.18824355  0.81175645  1.0
  Lu  Lu9  1  0.18824355  1.18824355  -0.18824355  1.0
  Lu  Lu10  1  0.18824355  -0.18824355  0.18824355  1.0
  Lu  Lu11  1  -0.18824355  0.18824355  0.18824355  1.0
  Lu  Lu12  1  -0.34713399  0.65286601  0.65286601  1.0
  Lu  Lu13  1  1.04140197  0.65286601  -0.34713399  1.0
  Lu  Lu14  1  -0.34713399  0.65286601  1.04140197  1.0
  Lu  Lu15  1  0.65286601  1.04140197  -0.34713399  1.0
  Mg  Mg16  1  0.42009944  1.42009944  0.42009944  1.0
  Mg  Mg17  1  -0.26029832  0.42009944  0.42009944  1.0
  Mg  Mg18  1  0.42009944  1.42009944  -0.26029832  1.0
  Mg  Mg19  1  0.42009944  -0.26029832  0.42009944  1.0
  Rh  Rh20  1  0.85839560  0.85839560  -0.14160440  1.0
  Rh  Rh21  1  0.42481321  0.85839560  -0.14160440  1.0
  Rh  Rh22  1  0.85839560  0.85839560  -0.57518679  1.0
  Rh  Rh23  1  0.85839560  0.42481321  -0.14160440  1.0
