# generated using pymatgen
data_CuPbO2
_symmetry_space_group_name_H-M   'P 1'
_cell_length_a   5.73181414
_cell_length_b   5.73181414
_cell_length_c   5.73181414
_cell_angle_alpha   123.44178503
_cell_angle_beta   79.68205898
_cell_angle_gamma   128.90425516
_symmetry_Int_Tables_number   1
_chemical_formula_structural   CuPbO2
_chemical_formula_sum   'Cu2 Pb2 O4'
_cell_volume   118.17013191
_cell_formula_units_Z   2
loop_
 _symmetry_equiv_pos_site_id
 _symmetry_equiv_pos_as_xyz
  1  'x, y, z'
loop_
 _atom_site_type_symbol
 _atom_site_label
 _atom_site_symmetry_multiplicity
 _atom_site_fract_x
 _atom_site_fract_y
 _atom_site_fract_z
 _atom_site_occupancy
  Cu  Cu0  1  1.00000000  1.00000000  1.00000000  1.0
  Cu  Cu1  1  0.50000000  0.00000000  0.50000000  1.0
  Pb  Pb2  1  1.74212902  1.49212902  1.25000000  1.0
  Pb  Pb3  1  1.25787098  0.50787098  0.75000000  1.0
  O  O4  1  1.16706502  0.50000000  1.16706502  1.0
  O  O5  1  0.83293498  1.00000000  1.33293498  1.0
  O  O6  1  1.16706502  1.00000000  1.66706502  1.0
  O  O7  1  0.83293498  0.50000000  0.83293498  1.0
