# generated using pymatgen
data_TbMnO3
_symmetry_space_group_name_H-M   'P 1'
_cell_length_a   5.67038663
_cell_length_b   7.61355603
_cell_length_c   5.32231223
_cell_angle_alpha   90.00000000
_cell_angle_beta   90.00000000
_cell_angle_gamma   90.00000000
_symmetry_Int_Tables_number   1
_chemical_formula_structural   TbMnO3
_chemical_formula_sum   'Tb4 Mn4 O12'
_cell_volume   229.77383286
_cell_formula_units_Z   4
loop_
 _symmetry_equiv_pos_site_id
 _symmetry_equiv_pos_as_xyz
  1  'x, y, z'
loop_
 _atom_site_type_symbol
 _atom_site_label
 _atom_site_symmetry_multiplicity
 _atom_site_fract_x
 _atom_site_fract_y
 _atom_site_fract_z
 _atom_site_occupancy
  Tb  Tb0  1  0.07195323  0.75000000  0.51761777  1.0
  Tb  Tb1  1  0.57195323  0.75000000  0.98238223  1.0
  Tb  Tb2  1  0.92804677  0.25000000  0.48238223  1.0
  Tb  Tb3  1  0.42804677  0.25000000  0.01761777  1.0
  Mn  Mn4  1  0.50000000  0.00000000  0.50000000  1.0
  Mn  Mn5  1  0.50000000  0.50000000  0.50000000  1.0
  Mn  Mn6  1  0.00000000  0.00000000  0.00000000  1.0
  Mn  Mn7  1  0.00000000  0.50000000  0.00000000  1.0
  O  O8  1  0.30597147  0.94841812  0.80107632  1.0
  O  O9  1  0.30597147  0.55158188  0.80107632  1.0
  O  O10  1  0.80597147  0.94841812  0.69892368  1.0
  O  O11  1  0.80597147  0.55158188  0.69892368  1.0
  O  O12  1  0.69402853  0.44841812  0.19892368  1.0
  O  O13  1  0.69402853  0.05158188  0.19892368  1.0
  O  O14  1  0.19402853  0.44841812  0.30107632  1.0
  O  O15  1  0.19402853  0.05158188  0.30107632  1.0
  O  O16  1  0.96895018  0.75000000  0.10199465  1.0
  O  O17  1  0.46895018  0.75000000  0.39800535  1.0
  O  O18  1  0.03104982  0.25000000  0.89800535  1.0
  O  O19  1  0.53104982  0.25000000  0.60199465  1.0
