# generated using pymatgen
data_PbCO3
_symmetry_space_group_name_H-M   'P 1'
_cell_length_a   6.29658264
_cell_length_b   5.23537229
_cell_length_c   8.56891146
_cell_angle_alpha   90.00000000
_cell_angle_beta   90.00000000
_cell_angle_gamma   90.00000000
_symmetry_Int_Tables_number   1
_chemical_formula_structural   PbCO3
_chemical_formula_sum   'Pb4 C4 O12'
_cell_volume   282.47377448
_cell_formula_units_Z   4
loop_
 _symmetry_equiv_pos_site_id
 _symmetry_equiv_pos_as_xyz
  1  'x, y, z'
loop_
 _atom_site_type_symbol
 _atom_site_label
 _atom_site_symmetry_multiplicity
 _atom_site_fract_x
 _atom_site_fract_y
 _atom_site_fract_z
 _atom_site_occupancy
  Pb  Pb0  1  0.75206820  0.75000000  0.58269017  1.0
  Pb  Pb1  1  0.25206820  0.75000000  0.91730983  1.0
  Pb  Pb2  1  0.24793180  0.25000000  0.41730983  1.0
  Pb  Pb3  1  0.74793180  0.25000000  0.08269017  1.0
  C  C4  1  0.91483687  0.75000000  0.23786432  1.0
  C  C5  1  0.41483687  0.75000000  0.26213568  1.0
  C  C6  1  0.08516313  0.25000000  0.76213568  1.0
  C  C7  1  0.58516313  0.25000000  0.73786432  1.0
  O  O8  1  0.91238687  0.96487704  0.31373457  1.0
  O  O9  1  0.91238687  0.53512296  0.31373457  1.0
  O  O10  1  0.41238687  0.96487704  0.18626543  1.0
  O  O11  1  0.41238687  0.53512296  0.18626543  1.0
  O  O12  1  0.08761313  0.46487704  0.68626543  1.0
  O  O13  1  0.08761313  0.03512296  0.68626543  1.0
  O  O14  1  0.58761313  0.46487704  0.81373457  1.0
  O  O15  1  0.58761313  0.03512296  0.81373457  1.0
  O  O16  1  0.90688480  0.75000000  0.08621297  1.0
  O  O17  1  0.40688480  0.75000000  0.41378703  1.0
  O  O18  1  0.09311520  0.25000000  0.91378703  1.0
  O  O19  1  0.59311520  0.25000000  0.58621297  1.0
