# generated using pymatgen
data_AsNO4
_symmetry_space_group_name_H-M   'P 1'
_cell_length_a   7.72421194
_cell_length_b   7.72421194
_cell_length_c   7.72421194
_cell_angle_alpha   95.72212099
_cell_angle_beta   95.72212099
_cell_angle_gamma   143.18668722
_symmetry_Int_Tables_number   1
_chemical_formula_structural   AsNO4
_chemical_formula_sum   'As2 N2 O8'
_cell_volume   262.01974024
_cell_formula_units_Z   2
loop_
 _symmetry_equiv_pos_site_id
 _symmetry_equiv_pos_as_xyz
  1  'x, y, z'
loop_
 _atom_site_type_symbol
 _atom_site_label
 _atom_site_symmetry_multiplicity
 _atom_site_fract_x
 _atom_site_fract_y
 _atom_site_fract_z
 _atom_site_occupancy
  As  As0  1  0.75000000  1.25000000  0.50000000  1.0
  As  As1  1  0.00000000  0.00000000  0.00000000  1.0
  N  N2  1  1.25000000  0.75000000  0.50000000  1.0
  N  N3  1  0.50000000  0.50000000  -0.00000000  1.0
  O  O4  1  0.98358994  1.37157790  1.36397068  1.0
  O  O5  1  1.74239278  0.87842210  1.11201205  1.0
  O  O6  1  1.00760722  1.61961927  0.63602932  1.0
  O  O7  1  0.76641006  1.63038073  0.88798795  1.0
  O  O8  1  0.38038073  0.01641006  0.38798795  1.0
  O  O9  1  1.12157790  1.23358994  0.86397068  1.0
  O  O10  1  0.62842210  0.99239278  0.61201205  1.0
  O  O11  1  1.36961927  1.25760722  1.13602932  1.0
