# generated using pymatgen
data_AgSbTe2
_symmetry_space_group_name_H-M   'P 1'
_cell_length_a   7.39938292
_cell_length_b   7.39938292
_cell_length_c   7.39938292
_cell_angle_alpha   34.27620495
_cell_angle_beta   34.27620495
_cell_angle_gamma   34.27620495
_symmetry_Int_Tables_number   1
_chemical_formula_structural   AgSbTe2
_chemical_formula_sum   'Ag1 Sb1 Te2'
_cell_volume   114.59002973
_cell_formula_units_Z   1
loop_
 _symmetry_equiv_pos_site_id
 _symmetry_equiv_pos_as_xyz
  1  'x, y, z'
loop_
 _atom_site_type_symbol
 _atom_site_label
 _atom_site_symmetry_multiplicity
 _atom_site_fract_x
 _atom_site_fract_y
 _atom_site_fract_z
 _atom_site_occupancy
  Ag  Ag0  1  1.50000000  0.50000000  0.50000000  1.0
  Sb  Sb1  1  0.00000000  0.00000000  0.00000000  1.0
  Te  Te2  1  0.75406368  0.75406368  0.75406368  1.0
  Te  Te3  1  1.24593632  1.24593632  0.24593632  1.0
