# generated using pymatgen
data_CuH6Pb4(SO7)2
_symmetry_space_group_name_H-M   'P 1'
_cell_length_a   5.97443314
_cell_length_b   8.10741602
_cell_length_c   8.14709593
_cell_angle_alpha   112.20646593
_cell_angle_beta   100.24670512
_cell_angle_gamma   97.53639472
_symmetry_Int_Tables_number   1
_chemical_formula_structural   CuH6Pb4(SO7)2
_chemical_formula_sum   'Cu1 H6 Pb4 S2 O14'
_cell_volume   350.89832747
_cell_formula_units_Z   1
loop_
 _symmetry_equiv_pos_site_id
 _symmetry_equiv_pos_as_xyz
  1  'x, y, z'
loop_
 _atom_site_type_symbol
 _atom_site_label
 _atom_site_symmetry_multiplicity
 _atom_site_fract_x
 _atom_site_fract_y
 _atom_site_fract_z
 _atom_site_occupancy
  Cu  Cu0  1  0.00000000  0.00000000  0.00000000  1.0
  H  H1  1  -0.84452575  -0.81016844  -0.65783533  1.0
  H  H2  1  -0.15547425  -0.18983156  -0.34216467  1.0
  H  H3  1  -0.78201724  -0.24624112  -0.08587114  1.0
  H  H4  1  -0.21798276  -0.75375888  -0.91412886  1.0
  H  H5  1  -0.80238811  -0.43894350  -0.39658122  1.0
  H  H6  1  -0.19761189  -0.56105650  -0.60341878  1.0
  Pb  Pb7  1  -0.64216132  -0.50930764  -0.73903733  1.0
  Pb  Pb8  1  -0.35783868  -0.49069236  -0.26096267  1.0
  Pb  Pb9  1  -0.44986527  -0.95563405  -0.73289139  1.0
  Pb  Pb10  1  -0.55013473  -0.04436595  -0.26710861  1.0
  S  S11  1  -0.92687678  -0.71458140  -0.26586516  1.0
  S  S12  1  -0.07312322  -0.28541860  -0.73413484  1.0
  O  O13  1  -0.79324150  -0.81811203  -0.76910793  1.0
  O  O14  1  -0.20675850  -0.18188797  -0.23089207  1.0
  O  O15  1  -0.72790665  -0.11418908  -0.04603772  1.0
  O  O16  1  -0.27209335  -0.88581092  -0.95396228  1.0
  O  O17  1  -0.66590615  -0.38641655  -0.42592816  1.0
  O  O18  1  -0.33409385  -0.61358345  -0.57407184  1.0
  O  O19  1  -0.17866091  -0.80815629  -0.32284389  1.0
  O  O20  1  -0.82133909  -0.19184371  -0.67715611  1.0
  O  O21  1  -0.81311276  -0.77483422  -0.42168572  1.0
  O  O22  1  -0.18688724  -0.22516578  -0.57831428  1.0
  O  O23  1  -0.91366652  -0.51053688  -0.20055765  1.0
  O  O24  1  -0.08633348  -0.48946312  -0.79944235  1.0
  O  O25  1  -0.79700390  -0.75390843  -0.11410757  1.0
  O  O26  1  -0.20299610  -0.24609157  -0.88589243  1.0
