# generated using pymatgen
data_KB(CN)2
_symmetry_space_group_name_H-M   'P 1'
_cell_length_a   9.52174582
_cell_length_b   9.52174582
_cell_length_c   9.52174582
_cell_angle_alpha   131.10474892
_cell_angle_beta   131.10474892
_cell_angle_gamma   71.64670777
_symmetry_Int_Tables_number   1
_chemical_formula_structural   KB(CN)2
_chemical_formula_sum   'K4 B4 C8 N8'
_cell_volume   479.56404355
_cell_formula_units_Z   4
loop_
 _symmetry_equiv_pos_site_id
 _symmetry_equiv_pos_as_xyz
  1  'x, y, z'
loop_
 _atom_site_type_symbol
 _atom_site_label
 _atom_site_symmetry_multiplicity
 _atom_site_fract_x
 _atom_site_fract_y
 _atom_site_fract_z
 _atom_site_occupancy
  K  K0  1  0.37500000  0.62500000  0.75000000  1.0
  K  K1  1  0.87500000  0.62500000  1.25000000  1.0
  K  K2  1  0.37500000  1.12500000  0.75000000  1.0
  K  K3  1  0.37500000  0.62500000  0.25000000  1.0
  B  B4  1  0.87500000  0.12500000  0.75000000  1.0
  B  B5  1  0.37500000  0.12500000  0.25000000  1.0
  B  B6  1  0.87500000  0.62500000  0.75000000  1.0
  B  B7  1  0.87500000  1.12500000  1.25000000  1.0
  C  C8  1  0.79982859  0.93322748  1.61847381  1.0
  C  C9  1  0.43524633  1.06864522  1.11847381  1.0
  C  C10  1  1.06677252  0.68524633  0.86660111  1.0
  C  C11  1  0.93135478  1.04982859  1.36660111  1.0
  C  C12  1  0.31475367  0.18135478  0.38152619  1.0
  C  C13  1  0.95017141  0.31677252  0.88152619  1.0
  C  C14  1  0.81864522  1.20017141  1.13339889  1.0
  C  C15  1  0.68322748  0.56475367  0.63339889  1.0
  N  N16  1  0.73427526  0.77089400  1.49969368  1.0
  N  N17  1  0.47879968  1.01541842  0.99969368  1.0
  N  N18  1  1.22910600  0.72879968  0.96338126  1.0
  N  N19  1  0.98458158  0.98427526  1.46338126  1.0
  N  N20  1  0.27120032  0.23458158  0.50030632  1.0
  N  N21  1  1.01572474  0.47910600  1.00030632  1.0
  N  N22  1  0.76541842  1.26572474  1.03661874  1.0
  N  N23  1  0.52089400  0.52120032  0.53661874  1.0
