# generated using pymatgen
data_Pb2C(SO3)2
_symmetry_space_group_name_H-M   'P 1'
_cell_length_a   16.64082778
_cell_length_b   8.86401289
_cell_length_c   4.68231877
_cell_angle_alpha   90.00000000
_cell_angle_beta   90.00000000
_cell_angle_gamma   90.00000000
_symmetry_Int_Tables_number   1
_chemical_formula_structural   Pb2C(SO3)2
_chemical_formula_sum   'Pb8 C4 S8 O24'
_cell_volume   690.66314569
_cell_formula_units_Z   4
loop_
 _symmetry_equiv_pos_site_id
 _symmetry_equiv_pos_as_xyz
  1  'x, y, z'
loop_
 _atom_site_type_symbol
 _atom_site_label
 _atom_site_symmetry_multiplicity
 _atom_site_fract_x
 _atom_site_fract_y
 _atom_site_fract_z
 _atom_site_occupancy
  Pb  Pb0  1  0.86352103  0.48709853  0.59160135  1.0
  Pb  Pb1  1  0.86352103  0.01290147  0.59160135  1.0
  Pb  Pb2  1  0.36352103  0.48709853  0.90839865  1.0
  Pb  Pb3  1  0.36352103  0.01290147  0.90839865  1.0
  Pb  Pb4  1  0.13647897  0.98709853  0.40839865  1.0
  Pb  Pb5  1  0.13647897  0.51290147  0.40839865  1.0
  Pb  Pb6  1  0.63647897  0.98709853  0.09160135  1.0
  Pb  Pb7  1  0.63647897  0.51290147  0.09160135  1.0
  C  C8  1  0.78701872  0.25000000  0.12091930  1.0
  C  C9  1  0.28701872  0.25000000  0.37908070  1.0
  C  C10  1  0.21298128  0.75000000  0.87908070  1.0
  C  C11  1  0.71298128  0.75000000  0.62091930  1.0
  S  S12  1  0.99737309  0.25000000  0.08083033  1.0
  S  S13  1  0.49737309  0.25000000  0.41916967  1.0
  S  S14  1  0.00262691  0.75000000  0.91916967  1.0
  S  S15  1  0.50262691  0.75000000  0.58083033  1.0
  S  S16  1  0.61349948  0.25000000  0.56882048  1.0
  S  S17  1  0.11349948  0.25000000  0.93117952  1.0
  S  S18  1  0.38650052  0.75000000  0.43117952  1.0
  S  S19  1  0.88650052  0.75000000  0.06882048  1.0
  O  O20  1  0.98748710  0.38970607  0.25437760  1.0
  O  O21  1  0.98748710  0.11029393  0.25437760  1.0
  O  O22  1  0.48748710  0.38970607  0.24562239  1.0
  O  O23  1  0.48748710  0.11029393  0.24562239  1.0
  O  O24  1  0.01251290  0.88970607  0.74562240  1.0
  O  O25  1  0.01251290  0.61029393  0.74562240  1.0
  O  O26  1  0.51251290  0.88970607  0.75437761  1.0
  O  O27  1  0.51251290  0.61029393  0.75437761  1.0
  O  O28  1  0.77376338  0.37845679  -0.00266413  1.0
  O  O29  1  0.77376338  0.12154321  -0.00266413  1.0
  O  O30  1  0.27376338  0.37845679  0.50266413  1.0
  O  O31  1  0.27376338  0.12154321  0.50266413  1.0
  O  O32  1  0.22623662  0.87845679  1.00266413  1.0
  O  O33  1  0.22623662  0.62154321  1.00266413  1.0
  O  O34  1  0.72623662  0.87845679  0.49733587  1.0
  O  O35  1  0.72623662  0.62154321  0.49733587  1.0
  O  O36  1  0.93905313  0.25000000  0.83739936  1.0
  O  O37  1  0.43905313  0.25000000  0.66260064  1.0
  O  O38  1  0.06094687  0.75000000  0.16260064  1.0
  O  O39  1  0.56094687  0.75000000  0.33739936  1.0
  O  O40  1  0.81378238  0.25000000  0.38259520  1.0
  O  O41  1  0.31378238  0.25000000  0.11740480  1.0
  O  O42  1  0.18621762  0.75000000  0.61740480  1.0
  O  O43  1  0.68621762  0.75000000  0.88259520  1.0
