# generated using pymatgen
data_Na6TlSb4
_symmetry_space_group_name_H-M   'P 1'
_cell_length_a   9.22592275
_cell_length_b   9.22592275
_cell_length_c   18.05727358
_cell_angle_alpha   70.05936554
_cell_angle_beta   109.94063446
_cell_angle_gamma   107.11793304
_symmetry_Int_Tables_number   1
_chemical_formula_structural   Na6TlSb4
_chemical_formula_sum   'Na24 Tl4 Sb16'
_cell_volume   1330.37339090
_cell_formula_units_Z   4
loop_
 _symmetry_equiv_pos_site_id
 _symmetry_equiv_pos_as_xyz
  1  'x, y, z'
loop_
 _atom_site_type_symbol
 _atom_site_label
 _atom_site_symmetry_multiplicity
 _atom_site_fract_x
 _atom_site_fract_y
 _atom_site_fract_z
 _atom_site_occupancy
  Na  Na0  1  1.83197145  -0.10932536  0.91822657  1.0
  Na  Na1  1  1.10932536  0.16802855  0.41822657  1.0
  Na  Na2  1  0.89067464  0.83197145  0.58177343  1.0
  Na  Na3  1  1.16802855  0.10932536  0.08177343  1.0
  Na  Na4  1  0.60293772  -0.25095757  0.40609448  1.0
  Na  Na5  1  1.25095757  0.39706228  0.90609448  1.0
  Na  Na6  1  0.74904243  0.60293772  0.09390552  1.0
  Na  Na7  1  0.39706228  0.25095757  0.59390552  1.0
  Na  Na8  1  0.79504524  0.04952326  0.26510418  1.0
  Na  Na9  1  0.95047674  0.20495476  0.76510418  1.0
  Na  Na10  1  1.04952326  0.79504524  0.23489582  1.0
  Na  Na11  1  0.20495476  -0.04952326  0.73489582  1.0
  Na  Na12  1  0.34666903  -0.03649114  0.39232375  1.0
  Na  Na13  1  1.03649114  0.65333097  0.89232375  1.0
  Na  Na14  1  0.96350886  0.34666903  0.10767625  1.0
  Na  Na15  1  0.65333097  0.03649114  0.60767625  1.0
  Na  Na16  1  1.52972274  0.15150629  0.05226760  1.0
  Na  Na17  1  0.84849371  0.47027726  0.55226760  1.0
  Na  Na18  1  1.15150629  0.52972274  0.44773240  1.0
  Na  Na19  1  1.47027726  -0.15150629  0.94773240  1.0
  Na  Na20  1  1.52649358  0.29256692  0.23710791  1.0
  Na  Na21  1  0.70743308  0.47350642  0.73710791  1.0
  Na  Na22  1  1.29256692  0.52649358  0.26289209  1.0
  Na  Na23  1  1.47350642  -0.29256692  0.76289209  1.0
  Tl  Tl24  1  0.55774976  -0.24167441  0.16779811  1.0
  Tl  Tl25  1  1.24167441  -0.55774976  0.66779811  1.0
  Tl  Tl26  1  0.75832559  -0.44225024  0.33220189  1.0
  Tl  Tl27  1  0.44225024  0.24167441  0.83220189  1.0
  Sb  Sb28  1  1.80343979  -0.01224404  0.07387969  1.0
  Sb  Sb29  1  1.01224404  0.19656021  0.57387969  1.0
  Sb  Sb30  1  0.98775596  0.80343979  0.42612031  1.0
  Sb  Sb31  1  1.19656021  0.01224404  0.92612031  1.0
  Sb  Sb32  1  1.73382434  0.13863506  0.43249642  1.0
  Sb  Sb33  1  0.86136494  0.26617566  0.93249642  1.0
  Sb  Sb34  1  1.13863506  0.73382434  0.06750358  1.0
  Sb  Sb35  1  1.26617566  -0.13863506  0.56750358  1.0
  Sb  Sb36  1  0.41354277  -0.06286493  0.23531932  1.0
  Sb  Sb37  1  1.06286493  0.58645723  0.73531932  1.0
  Sb  Sb38  1  0.93713507  0.41354277  0.26468068  1.0
  Sb  Sb39  1  0.58645723  0.06286493  0.76468068  1.0
  Sb  Sb40  1  1.50871853  0.30143406  0.43216709  1.0
  Sb  Sb41  1  0.69856594  0.49128147  0.93216709  1.0
  Sb  Sb42  1  1.30143406  0.50871853  0.06783291  1.0
  Sb  Sb43  1  1.49128147  -0.30143406  0.56783291  1.0
