# generated using pymatgen
data_CsP2(HO2)3
_symmetry_space_group_name_H-M   'P 1'
_cell_length_a   8.01861771
_cell_length_b   7.82972707
_cell_length_c   7.57381817
_cell_angle_alpha   59.90385484
_cell_angle_beta   64.53012215
_cell_angle_gamma   67.01321237
_symmetry_Int_Tables_number   1
_chemical_formula_structural   CsP2(HO2)3
_chemical_formula_sum   'Cs2 P4 H6 O12'
_cell_volume   361.99331265
_cell_formula_units_Z   2
loop_
 _symmetry_equiv_pos_site_id
 _symmetry_equiv_pos_as_xyz
  1  'x, y, z'
loop_
 _atom_site_type_symbol
 _atom_site_label
 _atom_site_symmetry_multiplicity
 _atom_site_fract_x
 _atom_site_fract_y
 _atom_site_fract_z
 _atom_site_occupancy
  Cs  Cs0  1  0.23054339  -0.70162466  1.66116163  1.0
  Cs  Cs1  1  0.76945661  -0.29837534  0.33883837  1.0
  P  P2  1  0.86468615  -0.96682877  1.61793171  1.0
  P  P3  1  0.13531385  -0.03317123  0.38206829  1.0
  P  P4  1  0.64244410  -0.57005146  1.02394247  1.0
  P  P5  1  0.35755590  -0.42994854  0.97605753  1.0
  H  H6  1  0.67807593  -0.78259522  1.39849774  1.0
  H  H7  1  0.32192407  -0.21740478  0.60150226  1.0
  H  H8  1  0.81643549  -0.28806612  0.82838543  1.0
  H  H9  1  0.18356451  -0.71193388  1.17161457  1.0
  H  H10  1  0.75996726  -0.79110455  0.87788156  1.0
  H  H11  1  0.24003274  -0.20889545  1.12211844  1.0
  O  O12  1  0.86484391  -0.79227604  1.65303820  1.0
  O  O13  1  0.13515609  -0.20772396  0.34696180  1.0
  O  O14  1  0.62382215  -0.59088138  1.24337520  1.0
  O  O15  1  0.37617785  -0.40911862  0.75662480  1.0
  O  O16  1  0.84929918  -0.16456155  0.82769498  1.0
  O  O17  1  0.15070082  -0.83543845  1.17230502  1.0
  O  O18  1  0.70271266  -0.92630547  1.52725954  1.0
  O  O19  1  0.29728734  -0.07369453  0.47274046  1.0
  O  O20  1  0.78307088  -0.44646573  0.83061047  1.0
  O  O21  1  0.21692912  -0.55353427  1.16938953  1.0
  O  O22  1  0.69745897  -0.79106499  1.02829169  1.0
  O  O23  1  0.30254103  -0.20893501  0.97170831  1.0
