# generated using pymatgen
data_LiC6
_symmetry_space_group_name_H-M   'P 1'
_cell_length_a   6.97423858
_cell_length_b   6.97423858
_cell_length_c   4.29759594
_cell_angle_alpha   90.00000000
_cell_angle_beta   90.00000000
_cell_angle_gamma   120.00000000
_symmetry_Int_Tables_number   1
_chemical_formula_structural   LiC6
_chemical_formula_sum   'Li4 C24'
_cell_volume   181.02969222
_cell_formula_units_Z   4
loop_
 _symmetry_equiv_pos_site_id
 _symmetry_equiv_pos_as_xyz
  1  'x, y, z'
loop_
 _atom_site_type_symbol
 _atom_site_label
 _atom_site_symmetry_multiplicity
 _atom_site_fract_x
 _atom_site_fract_y
 _atom_site_fract_z
 _atom_site_occupancy
  Li  Li0  1  0.66666667  0.33333333  0.25000000  1.0
  Li  Li1  1  0.33333333  0.66666667  0.25000000  1.0
  Li  Li2  1  0.33333333  0.66666667  0.75000000  1.0
  Li  Li3  1  0.66666667  0.33333333  0.75000000  1.0
  C  C4  1  0.78744281  0.78744281  0.93666352  1.0
  C  C5  1  0.21255719  0.00000000  0.93666352  1.0
  C  C6  1  0.00000000  0.21255719  0.93666352  1.0
  C  C7  1  0.21255719  0.21255719  0.06333648  1.0
  C  C8  1  0.78744281  -0.00000000  0.06333648  1.0
  C  C9  1  -0.00000000  0.78744281  0.06333648  1.0
  C  C10  1  0.21255719  0.21255719  0.43666352  1.0
  C  C11  1  0.78744281  -0.00000000  0.43666352  1.0
  C  C12  1  -0.00000000  0.78744281  0.43666352  1.0
  C  C13  1  0.78744281  0.78744281  0.56333648  1.0
  C  C14  1  0.21255719  0.00000000  0.56333648  1.0
  C  C15  1  0.00000000  0.21255719  0.56333648  1.0
  C  C16  1  0.58862863  0.58862863  0.41641171  1.0
  C  C17  1  0.41137137  -0.00000000  0.41641171  1.0
  C  C18  1  -0.00000000  0.41137137  0.41641171  1.0
  C  C19  1  0.41137137  0.41137137  0.58358829  1.0
  C  C20  1  0.58862863  0.00000000  0.58358829  1.0
  C  C21  1  -0.00000000  0.58862863  0.58358829  1.0
  C  C22  1  0.41137137  0.41137137  0.91641171  1.0
  C  C23  1  0.58862863  0.00000000  0.91641171  1.0
  C  C24  1  -0.00000000  0.58862863  0.91641171  1.0
  C  C25  1  0.58862863  0.58862863  0.08358829  1.0
  C  C26  1  0.41137137  -0.00000000  0.08358829  1.0
  C  C27  1  -0.00000000  0.41137137  0.08358829  1.0
