# generated using pymatgen
data_CaBi2B2O7
_symmetry_space_group_name_H-M   'P 1'
_cell_length_a   9.01435254
_cell_length_b   5.59645957
_cell_length_c   12.79695302
_cell_angle_alpha   90.00000000
_cell_angle_beta   90.00000000
_cell_angle_gamma   90.00000000
_symmetry_Int_Tables_number   1
_chemical_formula_structural   CaBi2B2O7
_chemical_formula_sum   'Ca4 Bi8 B8 O28'
_cell_volume   645.58656663
_cell_formula_units_Z   4
loop_
 _symmetry_equiv_pos_site_id
 _symmetry_equiv_pos_as_xyz
  1  'x, y, z'
loop_
 _atom_site_type_symbol
 _atom_site_label
 _atom_site_symmetry_multiplicity
 _atom_site_fract_x
 _atom_site_fract_y
 _atom_site_fract_z
 _atom_site_occupancy
  Ca  Ca0  1  0.31874821  0.05591081  0.15423148  1.0
  Ca  Ca1  1  0.81874821  0.44408919  0.15423148  1.0
  Ca  Ca2  1  0.68125179  0.94408919  0.65423148  1.0
  Ca  Ca3  1  0.18125179  0.55591081  0.65423148  1.0
  Bi  Bi4  1  0.16198857  0.56949231  -0.00214781  1.0
  Bi  Bi5  1  0.66198857  0.93050769  -0.00214781  1.0
  Bi  Bi6  1  0.83801143  0.43050769  0.49785219  1.0
  Bi  Bi7  1  0.33801143  0.06949231  0.49785219  1.0
  Bi  Bi8  1  0.16200788  0.56949205  0.31058034  1.0
  Bi  Bi9  1  0.66200788  0.93050795  0.31058034  1.0
  Bi  Bi10  1  0.83799212  0.43050795  0.81058034  1.0
  Bi  Bi11  1  0.33799212  0.06949205  0.81058034  1.0
  B  B12  1  0.46741215  0.51849181  0.28219334  1.0
  B  B13  1  0.96741215  0.98150819  0.28219334  1.0
  B  B14  1  0.53258785  0.48150819  0.78219334  1.0
  B  B15  1  0.03258785  0.01849181  0.78219334  1.0
  B  B16  1  0.46741542  0.51847119  0.02626253  1.0
  B  B17  1  0.96741542  0.98152881  0.02626253  1.0
  B  B18  1  0.53258458  0.48152881  0.52626253  1.0
  B  B19  1  0.03258458  0.01847119  0.52626253  1.0
  O  O20  1  0.38903904  0.30965751  0.29096567  1.0
  O  O21  1  0.88903904  0.19034249  0.29096567  1.0
  O  O22  1  0.61096096  0.69034249  0.79096567  1.0
  O  O23  1  0.11096096  0.80965751  0.79096567  1.0
  O  O24  1  0.38414857  0.73219839  0.02675534  1.0
  O  O25  1  0.88414857  0.76780161  0.02675534  1.0
  O  O26  1  0.61585143  0.26780161  0.52675534  1.0
  O  O27  1  0.11585143  0.23219839  0.52675534  1.0
  O  O28  1  0.38411808  0.73219447  0.28168911  1.0
  O  O29  1  0.88411808  0.76780553  0.28168911  1.0
  O  O30  1  0.61588192  0.26780553  0.78168911  1.0
  O  O31  1  0.11588192  0.23219447  0.78168911  1.0
  O  O32  1  0.38170671  0.96838435  0.65421469  1.0
  O  O33  1  0.88170671  0.53161565  0.65421469  1.0
  O  O34  1  0.61829329  0.03161565  0.15421469  1.0
  O  O35  1  0.11829329  0.46838435  0.15421469  1.0
  O  O36  1  0.11924877  0.96075945  0.27740088  1.0
  O  O37  1  0.61924877  0.53924055  0.27740088  1.0
  O  O38  1  0.88075123  0.03924055  0.77740088  1.0
  O  O39  1  0.38075123  0.46075945  0.77740088  1.0
  O  O40  1  0.11925743  0.96080837  0.03104612  1.0
  O  O41  1  0.61925743  0.53919163  0.03104612  1.0
  O  O42  1  0.88074257  0.03919163  0.53104612  1.0
  O  O43  1  0.38074257  0.46080837  0.53104612  1.0
  O  O44  1  0.11097758  0.80964879  0.51750830  1.0
  O  O45  1  0.61097758  0.69035121  0.51750830  1.0
  O  O46  1  0.88902242  0.19035121  0.01750830  1.0
  O  O47  1  0.38902242  0.30964879  0.01750830  1.0
