# generated using pymatgen
data_TlPd3
_symmetry_space_group_name_H-M   'P 1'
_cell_length_a   8.32250367
_cell_length_b   8.32250367
_cell_length_c   8.32250367
_cell_angle_alpha   150.91253640
_cell_angle_beta   150.91253640
_cell_angle_gamma   41.60352642
_symmetry_Int_Tables_number   1
_chemical_formula_structural   TlPd3
_chemical_formula_sum   'Tl2 Pd6'
_cell_volume   135.92716984
_cell_formula_units_Z   2
loop_
 _symmetry_equiv_pos_site_id
 _symmetry_equiv_pos_as_xyz
  1  'x, y, z'
loop_
 _atom_site_type_symbol
 _atom_site_label
 _atom_site_symmetry_multiplicity
 _atom_site_fract_x
 _atom_site_fract_y
 _atom_site_fract_z
 _atom_site_occupancy
  Tl  Tl0  1  0.87456009  0.87456009  1.00000000  1.0
  Tl  Tl1  1  0.12543991  0.12543991  0.00000000  1.0
  Pd  Pd2  1  0.62560689  0.62560689  1.00000000  1.0
  Pd  Pd3  1  0.37439311  0.37439311  0.00000000  1.0
  Pd  Pd4  1  0.25000000  0.75000000  0.50000000  1.0
  Pd  Pd5  1  0.75000000  0.25000000  0.50000000  1.0
  Pd  Pd6  1  0.50000000  0.00000000  0.50000000  1.0
  Pd  Pd7  1  0.00000000  0.50000000  0.50000000  1.0
