# generated using pymatgen
data_Zr(MoO4)2
_symmetry_space_group_name_H-M   'P 1'
_cell_length_a   5.91539674
_cell_length_b   5.91539674
_cell_length_c   6.62098453
_cell_angle_alpha   89.96809457
_cell_angle_beta   90.03190543
_cell_angle_gamma   120.00331865
_symmetry_Int_Tables_number   1
_chemical_formula_structural   Zr(MoO4)2
_chemical_formula_sum   'Zr1 Mo2 O8'
_cell_volume   200.63483863
_cell_formula_units_Z   1
loop_
 _symmetry_equiv_pos_site_id
 _symmetry_equiv_pos_as_xyz
  1  'x, y, z'
loop_
 _atom_site_type_symbol
 _atom_site_label
 _atom_site_symmetry_multiplicity
 _atom_site_fract_x
 _atom_site_fract_y
 _atom_site_fract_z
 _atom_site_occupancy
  Zr  Zr0  1  0.00000000  0.00000000  0.00000000  1.0
  Mo  Mo1  1  0.66656581  -0.66656581  0.72841265  1.0
  Mo  Mo2  1  0.33343419  -0.33343419  0.27158735  1.0
  O  O3  1  1.33525265  0.16767994  0.82003450  1.0
  O  O4  1  0.83232006  -0.33525265  0.82003450  1.0
  O  O5  1  1.16767994  0.33525265  0.17996550  1.0
  O  O6  1  0.66474735  -0.16767994  0.17996550  1.0
  O  O7  1  0.83229647  -0.83229647  0.81986202  1.0
  O  O8  1  0.16770354  -0.16770354  0.18013798  1.0
  O  O9  1  0.66640963  -0.66640963  0.47046486  1.0
  O  O10  1  0.33359037  -0.33359037  0.52953514  1.0
