# generated using pymatgen
data_Sr2P2O7
_symmetry_space_group_name_H-M   'P 1'
_cell_length_a   9.02587974
_cell_length_b   5.46833426
_cell_length_c   13.32494557
_cell_angle_alpha   90.00000000
_cell_angle_beta   90.00000000
_cell_angle_gamma   90.00000000
_symmetry_Int_Tables_number   1
_chemical_formula_structural   Sr2P2O7
_chemical_formula_sum   'Sr8 P8 O28'
_cell_volume   657.67304069
_cell_formula_units_Z   4
loop_
 _symmetry_equiv_pos_site_id
 _symmetry_equiv_pos_as_xyz
  1  'x, y, z'
loop_
 _atom_site_type_symbol
 _atom_site_label
 _atom_site_symmetry_multiplicity
 _atom_site_fract_x
 _atom_site_fract_y
 _atom_site_fract_z
 _atom_site_occupancy
  Sr  Sr0  1  0.87425892  0.75000000  0.41323417  1.0
  Sr  Sr1  1  0.37425892  0.75000000  0.08676583  1.0
  Sr  Sr2  1  0.12574108  0.25000000  0.58676583  1.0
  Sr  Sr3  1  0.62574108  0.25000000  0.91323417  1.0
  Sr  Sr4  1  0.82600118  0.75000000  0.73908518  1.0
  Sr  Sr5  1  0.32600118  0.75000000  0.76091482  1.0
  Sr  Sr6  1  0.17399882  0.25000000  0.26091482  1.0
  Sr  Sr7  1  0.67399882  0.25000000  0.23908518  1.0
  P  P8  1  0.96821623  0.75000000  0.18279598  1.0
  P  P9  1  0.46821623  0.75000000  0.31720402  1.0
  P  P10  1  0.03178377  0.25000000  0.81720402  1.0
  P  P11  1  0.53178377  0.25000000  0.68279598  1.0
  P  P12  1  0.72380564  0.75000000  0.03517025  1.0
  P  P13  1  0.22380564  0.75000000  0.46482975  1.0
  P  P14  1  0.27619436  0.25000000  0.96482975  1.0
  P  P15  1  0.77619436  0.25000000  0.53517025  1.0
  O  O16  1  0.91739518  0.98275039  0.23843679  1.0
  O  O17  1  0.91739518  0.51724961  0.23843679  1.0
  O  O18  1  0.41739518  0.98275039  0.26156321  1.0
  O  O19  1  0.41739518  0.51724961  0.26156321  1.0
  O  O20  1  0.08260482  0.48275039  0.76156321  1.0
  O  O21  1  0.08260482  0.01724961  0.76156321  1.0
  O  O22  1  0.58260482  0.48275039  0.73843679  1.0
  O  O23  1  0.58260482  0.01724961  0.73843679  1.0
  O  O24  1  0.64608168  0.98171454  0.07607922  1.0
  O  O25  1  0.64608168  0.51828546  0.07607922  1.0
  O  O26  1  0.14608168  0.98171454  0.42392078  1.0
  O  O27  1  0.14608168  0.51828546  0.42392078  1.0
  O  O28  1  0.35391832  0.48171454  0.92392078  1.0
  O  O29  1  0.35391832  0.01828546  0.92392078  1.0
  O  O30  1  0.85391832  0.48171454  0.57607922  1.0
  O  O31  1  0.85391832  0.01828546  0.57607922  1.0
  O  O32  1  0.89571946  0.75000000  0.07027579  1.0
  O  O33  1  0.39571946  0.75000000  0.42972421  1.0
  O  O34  1  0.10428054  0.25000000  0.92972421  1.0
  O  O35  1  0.60428054  0.25000000  0.57027579  1.0
  O  O36  1  0.72682566  0.75000000  0.92018357  1.0
  O  O37  1  0.22682566  0.75000000  0.57981643  1.0
  O  O38  1  0.27317434  0.25000000  0.07981643  1.0
  O  O39  1  0.77317434  0.25000000  0.42018357  1.0
  O  O40  1  0.63540701  0.75000000  0.33392937  1.0
  O  O41  1  0.13540701  0.75000000  0.16607063  1.0
  O  O42  1  0.36459299  0.25000000  0.66607063  1.0
  O  O43  1  0.86459299  0.25000000  0.83392937  1.0
