# generated using pymatgen
data_Sm(P3Os)4
_symmetry_space_group_name_H-M   'P 1'
_cell_length_a   7.03692170
_cell_length_b   7.03692170
_cell_length_c   7.03692170
_cell_angle_alpha   109.47122063
_cell_angle_beta   109.47122063
_cell_angle_gamma   109.47122063
_symmetry_Int_Tables_number   1
_chemical_formula_structural   Sm(P3Os)4
_chemical_formula_sum   'Sm1 P12 Os4'
_cell_volume   268.24168308
_cell_formula_units_Z   1
loop_
 _symmetry_equiv_pos_site_id
 _symmetry_equiv_pos_as_xyz
  1  'x, y, z'
loop_
 _atom_site_type_symbol
 _atom_site_label
 _atom_site_symmetry_multiplicity
 _atom_site_fract_x
 _atom_site_fract_y
 _atom_site_fract_z
 _atom_site_occupancy
  Sm  Sm0  1  0.00000000  0.00000000  0.00000000  1.0
  P  P1  1  0.85674848  1.35648439  1.21323288  1.0
  P  P2  1  0.85674848  0.64351561  0.50026409  1.0
  P  P3  1  0.14325152  0.35648439  0.49973591  1.0
  P  P4  1  0.14325152  0.64351561  0.78676712  1.0
  P  P5  1  0.50026409  0.85674848  0.64351561  1.0
  P  P6  1  1.21323288  0.85674848  1.35648439  1.0
  P  P7  1  0.64351561  0.78676712  0.14325152  1.0
  P  P8  1  0.64351561  0.50026409  0.85674848  1.0
  P  P9  1  0.78676712  0.14325152  0.64351561  1.0
  P  P10  1  0.49973591  0.14325152  0.35648439  1.0
  P  P11  1  0.35648439  0.49973591  0.14325152  1.0
  P  P12  1  1.35648439  1.21323288  0.85674848  1.0
  Os  Os13  1  0.50000000  1.00000000  1.00000000  1.0
  Os  Os14  1  0.50000000  0.50000000  0.50000000  1.0
  Os  Os15  1  1.00000000  1.00000000  0.50000000  1.0
  Os  Os16  1  1.00000000  0.50000000  1.00000000  1.0
