# generated using pymatgen
data_HeSiO2
_symmetry_space_group_name_H-M   'P 1'
_cell_length_a   9.15865123
_cell_length_b   9.15865123
_cell_length_c   9.15865123
_cell_angle_alpha   33.29376439
_cell_angle_beta   33.29376439
_cell_angle_gamma   33.29376439
_symmetry_Int_Tables_number   1
_chemical_formula_structural   HeSiO2
_chemical_formula_sum   'He4 Si4 O8'
_cell_volume   206.10418577
_cell_formula_units_Z   4
loop_
 _symmetry_equiv_pos_site_id
 _symmetry_equiv_pos_as_xyz
  1  'x, y, z'
loop_
 _atom_site_type_symbol
 _atom_site_label
 _atom_site_symmetry_multiplicity
 _atom_site_fract_x
 _atom_site_fract_y
 _atom_site_fract_z
 _atom_site_occupancy
  He  He0  1  0.18498861  0.18498861  0.18498861  1.0
  He  He1  1  0.81501139  0.81501139  -0.18498861  1.0
  He  He2  1  0.68498861  0.68498861  -0.31501139  1.0
  He  He3  1  0.31501139  0.31501139  0.31501139  1.0
  Si  Si4  1  0.43753047  0.43753047  0.43753047  1.0
  Si  Si5  1  0.56246953  0.56246953  -0.43753047  1.0
  Si  Si6  1  0.93753047  -0.06246953  -0.06246953  1.0
  Si  Si7  1  1.06246953  0.06246953  0.06246953  1.0
  O  O8  1  0.50000000  0.50000000  0.50000000  1.0
  O  O9  1  1.00000000  -0.00000000  -0.00000000  1.0
  O  O10  1  1.21080149  -0.25000000  0.28919851  1.0
  O  O11  1  0.75000000  0.28919851  0.21080149  1.0
  O  O12  1  1.28919851  0.21080149  -0.25000000  1.0
  O  O13  1  0.78919851  0.25000000  -0.28919851  1.0
  O  O14  1  0.25000000  0.71080149  -0.21080149  1.0
  O  O15  1  0.71080149  -0.21080149  0.25000000  1.0
