# generated using pymatgen
data_Rb2Si3SnO9
_symmetry_space_group_name_H-M   'P 1'
_cell_length_a   7.09613456
_cell_length_b   7.09613456
_cell_length_c   10.19078180
_cell_angle_alpha   90.00000000
_cell_angle_beta   90.00000000
_cell_angle_gamma   120.00000000
_symmetry_Int_Tables_number   1
_chemical_formula_structural   Rb2Si3SnO9
_chemical_formula_sum   'Rb4 Si6 Sn2 O18'
_cell_volume   444.40794991
_cell_formula_units_Z   2
loop_
 _symmetry_equiv_pos_site_id
 _symmetry_equiv_pos_as_xyz
  1  'x, y, z'
loop_
 _atom_site_type_symbol
 _atom_site_label
 _atom_site_symmetry_multiplicity
 _atom_site_fract_x
 _atom_site_fract_y
 _atom_site_fract_z
 _atom_site_occupancy
  Rb  Rb0  1  0.33333333  0.66666667  0.43935078  1.0
  Rb  Rb1  1  0.33333333  0.66666667  0.06064922  1.0
  Rb  Rb2  1  0.66666667  0.33333333  0.93935078  1.0
  Rb  Rb3  1  0.66666667  0.33333333  0.56064922  1.0
  Si  Si4  1  0.75512129  0.61581360  0.25000000  1.0
  Si  Si5  1  0.61581360  0.86069231  0.75000000  1.0
  Si  Si6  1  0.86069231  0.24487871  0.25000000  1.0
  Si  Si7  1  0.38418640  0.13930769  0.25000000  1.0
  Si  Si8  1  0.24487871  0.38418640  0.75000000  1.0
  Si  Si9  1  0.13930769  0.75512129  0.75000000  1.0
  Sn  Sn10  1  0.00000000  0.00000000  0.50000000  1.0
  Sn  Sn11  1  0.00000000  0.00000000  0.00000000  1.0
  O  O12  1  0.77771372  0.74266778  0.38611878  1.0
  O  O13  1  0.77771372  0.74266778  0.11388122  1.0
  O  O14  1  0.74266778  0.96495407  0.88611878  1.0
  O  O15  1  0.74266778  0.96495407  0.61388122  1.0
  O  O16  1  0.96495407  0.22228628  0.38611878  1.0
  O  O17  1  0.96495407  0.22228628  0.11388122  1.0
  O  O18  1  0.25733222  0.03504593  0.38611878  1.0
  O  O19  1  0.25733222  0.03504593  0.11388122  1.0
  O  O20  1  0.22228628  0.25733222  0.88611878  1.0
  O  O21  1  0.22228628  0.25733222  0.61388122  1.0
  O  O22  1  0.03504593  0.77771372  0.88611878  1.0
  O  O23  1  0.03504593  0.77771372  0.61388122  1.0
  O  O24  1  0.49728777  0.40887185  0.25000000  1.0
  O  O25  1  0.40887185  0.91158408  0.75000000  1.0
  O  O26  1  0.91158408  0.50271223  0.25000000  1.0
  O  O27  1  0.59112815  0.08841592  0.25000000  1.0
  O  O28  1  0.50271223  0.59112815  0.75000000  1.0
  O  O29  1  0.08841592  0.49728777  0.75000000  1.0
