# generated using pymatgen
data_Yb5Ir3
_symmetry_space_group_name_H-M   'P 1'
_cell_length_a   8.25631047
_cell_length_b   8.25631047
_cell_length_c   6.06816138
_cell_angle_alpha   90.00000000
_cell_angle_beta   90.00000000
_cell_angle_gamma   120.00000000
_symmetry_Int_Tables_number   1
_chemical_formula_structural   Yb5Ir3
_chemical_formula_sum   'Yb10 Ir6'
_cell_volume   358.22821194
_cell_formula_units_Z   2
loop_
 _symmetry_equiv_pos_site_id
 _symmetry_equiv_pos_as_xyz
  1  'x, y, z'
loop_
 _atom_site_type_symbol
 _atom_site_label
 _atom_site_symmetry_multiplicity
 _atom_site_fract_x
 _atom_site_fract_y
 _atom_site_fract_z
 _atom_site_occupancy
  Yb  Yb0  1  0.73788737  0.73788737  0.25000000  1.0
  Yb  Yb1  1  0.73788737  0.00000000  0.75000000  1.0
  Yb  Yb2  1  -0.00000000  0.73788737  0.75000000  1.0
  Yb  Yb3  1  -0.00000000  0.26211263  0.25000000  1.0
  Yb  Yb4  1  0.26211263  0.26211263  0.75000000  1.0
  Yb  Yb5  1  0.26211263  0.00000000  0.25000000  1.0
  Yb  Yb6  1  0.33333333  0.66666667  0.50000000  1.0
  Yb  Yb7  1  0.33333333  0.66666667  0.00000000  1.0
  Yb  Yb8  1  0.66666667  0.33333333  0.50000000  1.0
  Yb  Yb9  1  0.66666667  0.33333333  0.00000000  1.0
  Ir  Ir10  1  0.38990576  0.38990576  0.25000000  1.0
  Ir  Ir11  1  0.38990576  0.00000000  0.75000000  1.0
  Ir  Ir12  1  -0.00000000  0.38990576  0.75000000  1.0
  Ir  Ir13  1  -0.00000000  0.61009424  0.25000000  1.0
  Ir  Ir14  1  0.61009424  0.61009424  0.75000000  1.0
  Ir  Ir15  1  0.61009424  0.00000000  0.25000000  1.0
