# generated using pymatgen
data_Na2La2Ti3O10
_symmetry_space_group_name_H-M   'P 1'
_cell_length_a   14.70307329
_cell_length_b   14.70307329
_cell_length_c   14.70307329
_cell_angle_alpha   164.88450080
_cell_angle_beta   164.88450080
_cell_angle_gamma   21.43946784
_symmetry_Int_Tables_number   1
_chemical_formula_structural   Na2La2Ti3O10
_chemical_formula_sum   'Na2 La2 Ti3 O10'
_cell_volume   216.10155948
_cell_formula_units_Z   1
loop_
 _symmetry_equiv_pos_site_id
 _symmetry_equiv_pos_as_xyz
  1  'x, y, z'
loop_
 _atom_site_type_symbol
 _atom_site_label
 _atom_site_symmetry_multiplicity
 _atom_site_fract_x
 _atom_site_fract_y
 _atom_site_fract_z
 _atom_site_occupancy
  Na  Na0  1  0.71162234  0.71162234  1.00000000  1.0
  Na  Na1  1  0.28837766  0.28837766  -0.00000000  1.0
  La  La2  1  0.57517946  0.57517946  1.00000000  1.0
  La  La3  1  0.42482054  0.42482054  -0.00000000  1.0
  Ti  Ti4  1  0.85210667  0.85210667  1.00000000  1.0
  Ti  Ti5  1  0.14789333  0.14789333  -0.00000000  1.0
  Ti  Ti6  1  0.00000000  0.00000000  0.00000000  1.0
  O  O7  1  0.36659632  0.86659632  0.50000000  1.0
  O  O8  1  0.63340368  0.13340368  0.50000000  1.0
  O  O9  1  0.86659632  0.36659632  0.50000000  1.0
  O  O10  1  0.13340368  0.63340368  0.50000000  1.0
  O  O11  1  0.93285059  0.93285059  1.00000000  1.0
  O  O12  1  0.06714941  0.06714941  -0.00000000  1.0
  O  O13  1  0.79163607  0.79163607  1.00000000  1.0
  O  O14  1  0.20836393  0.20836393  -0.00000000  1.0
  O  O15  1  0.50000000  0.00000000  0.50000000  1.0
  O  O16  1  -0.00000000  0.50000000  0.50000000  1.0
