# generated using pymatgen
data_H9C3SN4O3
_symmetry_space_group_name_H-M   'P 1'
_cell_length_a   7.93572510
_cell_length_b   7.34233259
_cell_length_c   7.53667212
_cell_angle_alpha   87.10584548
_cell_angle_beta   109.24891023
_cell_angle_gamma   91.58840211
_symmetry_Int_Tables_number   1
_chemical_formula_structural   H9C3SN4O3
_chemical_formula_sum   'H18 C6 S2 N8 O6'
_cell_volume   414.03006367
_cell_formula_units_Z   2
loop_
 _symmetry_equiv_pos_site_id
 _symmetry_equiv_pos_as_xyz
  1  'x, y, z'
loop_
 _atom_site_type_symbol
 _atom_site_label
 _atom_site_symmetry_multiplicity
 _atom_site_fract_x
 _atom_site_fract_y
 _atom_site_fract_z
 _atom_site_occupancy
  H  H0  1  0.87816740  0.86162652  0.53081711  1.0
  H  H1  1  0.12183260  0.13837348  0.46918289  1.0
  H  H2  1  0.61158275  0.87588289  0.67560682  1.0
  H  H3  1  0.38841725  0.12411711  0.32439318  1.0
  H  H4  1  0.43198414  0.82482421  0.77075554  1.0
  H  H5  1  0.56801586  0.17517579  0.22924446  1.0
  H  H6  1  0.89442450  0.84037708  0.85720393  1.0
  H  H7  1  0.10557550  0.15962292  0.14279607  1.0
  H  H8  1  0.94961155  0.76390788  0.09741288  1.0
  H  H9  1  0.05038845  0.23609212  0.90258712  1.0
  H  H10  1  0.74767365  0.71380497  0.22220112  1.0
  H  H11  1  0.25232635  0.28619503  0.77779888  1.0
  H  H12  1  0.59978882  0.60728745  0.39110951  1.0
  H  H13  1  0.40021118  0.39271255  0.60889049  1.0
  H  H14  1  0.63492494  0.37574243  0.67363102  1.0
  H  H15  1  0.36507506  0.62425757  0.32636898  1.0
  H  H16  1  0.88756628  0.06284191  0.60114639  1.0
  H  H17  1  0.11243372  0.93715809  0.39885361  1.0
  C  C18  1  0.68394599  0.78849994  0.94732179  1.0
  C  C19  1  0.31605401  0.21150006  0.05267821  1.0
  C  C20  1  0.94586256  0.43027535  0.54460652  1.0
  C  C21  1  0.05413744  0.56972465  0.45539348  1.0
  C  C22  1  0.52903356  0.28996236  0.87785124  1.0
  C  C23  1  0.47096643  0.71003764  0.12214876  1.0
  S  S24  1  0.27443242  0.74763440  0.94972801  1.0
  S  S25  1  0.72556758  0.25236560  0.05027199  1.0
  N  N26  1  0.56474839  0.83095646  0.78140273  1.0
  N  N27  1  0.43525161  0.16904354  0.21859727  1.0
  N  N28  1  0.85722976  0.79472194  0.96995614  1.0
  N  N29  1  0.14277024  0.20527806  0.03004386  1.0
  N  N30  1  0.51948454  0.34803495  0.70390270  1.0
  N  N31  1  0.48051546  0.65196505  0.29609730  1.0
  N  N32  1  0.36224458  0.26442604  0.89780845  1.0
  N  N33  1  0.63775542  0.73557396  0.10219155  1.0
  O  O34  1  0.83150637  0.94144620  0.60474438  1.0
  O  O35  1  0.16849363  0.05855380  0.39525562  1.0
  O  O36  1  0.97813741  0.72203960  0.38826316  1.0
  O  O37  1  0.02186259  0.27796040  0.61173684  1.0
  O  O38  1  0.79565202  0.47626272  0.54580253  1.0
  O  O39  1  0.20434798  0.52373728  0.45419747  1.0
