# generated using pymatgen
data_SiC
_symmetry_space_group_name_H-M   'P 1'
_cell_length_a   3.09509200
_cell_length_b   3.09509200
_cell_length_c   45.58977653
_cell_angle_alpha   90.00000000
_cell_angle_beta   90.00000000
_cell_angle_gamma   120.00000000
_symmetry_Int_Tables_number   1
_chemical_formula_structural   SiC
_chemical_formula_sum   'Si18 C18'
_cell_volume   378.22063692
_cell_formula_units_Z   18
loop_
 _symmetry_equiv_pos_site_id
 _symmetry_equiv_pos_as_xyz
  1  'x, y, z'
loop_
 _atom_site_type_symbol
 _atom_site_label
 _atom_site_symmetry_multiplicity
 _atom_site_fract_x
 _atom_site_fract_y
 _atom_site_fract_z
 _atom_site_occupancy
  Si  Si0  1  0.00000000  0.00000000  -0.00005098  1.0
  Si  Si1  1  0.33333333  0.66666667  0.05550502  1.0
  Si  Si2  1  0.66666667  0.33333333  0.11108321  1.0
  Si  Si3  1  0.33333333  0.66666667  0.16663354  1.0
  Si  Si4  1  0.00000000  0.00000000  0.22220126  1.0
  Si  Si5  1  0.33333333  0.66666667  0.27774646  1.0
  Si  Si6  1  0.66666667  0.33333333  0.33331242  1.0
  Si  Si7  1  0.33333333  0.66666667  0.38885680  1.0
  Si  Si8  1  0.00000000  0.00000000  0.44442268  1.0
  Si  Si9  1  0.33333333  0.66666667  0.49996984  1.0
  Si  Si10  1  0.66666667  0.33333333  0.55554438  1.0
  Si  Si11  1  0.33333333  0.66666667  0.61110879  1.0
  Si  Si12  1  0.00000000  0.00000000  0.66669130  1.0
  Si  Si13  1  0.33333333  0.66666667  0.72225927  1.0
  Si  Si14  1  0.66666667  0.33333333  0.77774638  1.0
  Si  Si15  1  0.00000000  0.00000000  0.83332716  1.0
  Si  Si16  1  0.66666667  0.33333333  0.88889319  1.0
  Si  Si17  1  0.33333333  0.66666667  0.94437511  1.0
  C  C18  1  0.00000000  0.00000000  0.04173179  1.0
  C  C19  1  0.33333333  0.66666667  0.09716116  1.0
  C  C20  1  0.66666667  0.33333333  0.15286724  1.0
  C  C21  1  0.33333333  0.66666667  0.20828485  1.0
  C  C22  1  0.00000000  0.00000000  0.26398257  1.0
  C  C23  1  0.33333333  0.66666667  0.31939691  1.0
  C  C24  1  0.66666667  0.33333333  0.37509289  1.0
  C  C25  1  0.33333333  0.66666667  0.43050608  1.0
  C  C26  1  0.00000000  0.00000000  0.48620186  1.0
  C  C27  1  0.33333333  0.66666667  0.54161823  1.0
  C  C28  1  0.66666667  0.33333333  0.59732449  1.0
  C  C29  1  0.33333333  0.66666667  0.65275487  1.0
  C  C30  1  0.00000000  0.00000000  0.70846087  1.0
  C  C31  1  0.33333333  0.66666667  0.76390979  1.0
  C  C32  1  0.66666667  0.33333333  0.81939744  1.0
  C  C33  1  0.00000000  0.00000000  0.87510001  1.0
  C  C34  1  0.66666667  0.33333333  0.93055110  1.0
  C  C35  1  0.33333333  0.66666667  0.98603201  1.0
