# generated using pymatgen
data_Ca4Mg4Fe3H22
_symmetry_space_group_name_H-M   'P 1'
_cell_length_a   6.66772223
_cell_length_b   6.66772223
_cell_length_c   6.66772223
_cell_angle_alpha   90.00000000
_cell_angle_beta   90.00000000
_cell_angle_gamma   90.00000000
_symmetry_Int_Tables_number   1
_chemical_formula_structural   Ca4Mg4Fe3H22
_chemical_formula_sum   'Ca4 Mg4 Fe3 H22'
_cell_volume   296.43706022
_cell_formula_units_Z   1
loop_
 _symmetry_equiv_pos_site_id
 _symmetry_equiv_pos_as_xyz
  1  'x, y, z'
loop_
 _atom_site_type_symbol
 _atom_site_label
 _atom_site_symmetry_multiplicity
 _atom_site_fract_x
 _atom_site_fract_y
 _atom_site_fract_z
 _atom_site_occupancy
  Ca  Ca0  1  0.29211589  0.29211589  0.70788411  1.0
  Ca  Ca1  1  0.29211589  0.70788411  0.29211589  1.0
  Ca  Ca2  1  0.70788411  0.29211589  0.29211589  1.0
  Ca  Ca3  1  0.70788411  0.70788411  0.70788411  1.0
  Mg  Mg4  1  0.78792106  0.78792106  0.21207894  1.0
  Mg  Mg5  1  0.78792106  0.21207894  0.78792106  1.0
  Mg  Mg6  1  0.21207894  0.78792106  0.78792106  1.0
  Mg  Mg7  1  0.21207894  0.21207894  0.21207894  1.0
  Fe  Fe8  1  0.50000000  0.00000000  0.00000000  1.0
  Fe  Fe9  1  0.00000000  0.50000000  0.00000000  1.0
  Fe  Fe10  1  0.00000000  0.00000000  0.50000000  1.0
  H  H11  1  0.76269659  0.50000000  0.00000000  1.0
  H  H12  1  0.76269659  0.00000000  0.50000000  1.0
  H  H13  1  0.50000000  0.76269659  0.00000000  1.0
  H  H14  1  0.50000000  0.00000000  0.23730341  1.0
  H  H15  1  0.50000000  0.23730341  0.00000000  1.0
  H  H16  1  0.50000000  0.00000000  0.76269659  1.0
  H  H17  1  0.00000000  0.76269659  0.50000000  1.0
  H  H18  1  0.00000000  0.50000000  0.23730341  1.0
  H  H19  1  0.00000000  0.23730341  0.50000000  1.0
  H  H20  1  0.00000000  0.50000000  0.76269659  1.0
  H  H21  1  0.23730341  0.50000000  0.00000000  1.0
  H  H22  1  0.23730341  0.00000000  0.50000000  1.0
  H  H23  1  0.73673231  0.00000000  0.00000000  1.0
  H  H24  1  0.00000000  0.73673231  0.00000000  1.0
  H  H25  1  0.00000000  0.00000000  0.26326769  1.0
  H  H26  1  0.00000000  0.26326769  0.00000000  1.0
  H  H27  1  0.00000000  0.00000000  0.73673231  1.0
  H  H28  1  0.26326769  0.00000000  0.00000000  1.0
  H  H29  1  0.62746770  0.62746770  0.37253230  1.0
  H  H30  1  0.62746770  0.37253230  0.62746770  1.0
  H  H31  1  0.37253230  0.62746770  0.62746770  1.0
  H  H32  1  0.37253230  0.37253230  0.37253230  1.0
