# generated using pymatgen
data_Mn(C2N3)2
_symmetry_space_group_name_H-M   'P 1'
_cell_length_a   7.12482451
_cell_length_b   7.04352087
_cell_length_c   7.52675621
_cell_angle_alpha   90.00000000
_cell_angle_beta   90.00000000
_cell_angle_gamma   90.00000000
_symmetry_Int_Tables_number   1
_chemical_formula_structural   Mn(C2N3)2
_chemical_formula_sum   'Mn2 C8 N12'
_cell_volume   377.72160556
_cell_formula_units_Z   2
loop_
 _symmetry_equiv_pos_site_id
 _symmetry_equiv_pos_as_xyz
  1  'x, y, z'
loop_
 _atom_site_type_symbol
 _atom_site_label
 _atom_site_symmetry_multiplicity
 _atom_site_fract_x
 _atom_site_fract_y
 _atom_site_fract_z
 _atom_site_occupancy
  Mn  Mn0  1  0.50000000  0.50000000  0.50000000  1.0
  Mn  Mn1  1  0.00000000  0.00000000  0.00000000  1.0
  C  C2  1  0.19441446  0.80049839  0.34895966  1.0
  C  C3  1  0.19441446  0.80049839  0.65104034  1.0
  C  C4  1  0.69441446  0.69950161  0.84895966  1.0
  C  C5  1  0.69441446  0.69950161  0.15104034  1.0
  C  C6  1  0.80558554  0.19950161  0.34895966  1.0
  C  C7  1  0.80558554  0.19950161  0.65104034  1.0
  C  C8  1  0.30558554  0.30049839  0.84895966  1.0
  C  C9  1  0.30558554  0.30049839  0.15104034  1.0
  N  N10  1  0.14524529  0.84893635  0.20721159  1.0
  N  N11  1  0.14524529  0.84893635  0.79278841  1.0
  N  N12  1  0.64524529  0.65106365  0.70721159  1.0
  N  N13  1  0.64524529  0.65106365  0.29278841  1.0
  N  N14  1  0.85475471  0.15106365  0.20721159  1.0
  N  N15  1  0.85475471  0.15106365  0.79278841  1.0
  N  N16  1  0.35475471  0.34893635  0.70721159  1.0
  N  N17  1  0.35475471  0.34893635  0.29278841  1.0
  N  N18  1  0.25893105  0.73679698  0.50000000  1.0
  N  N19  1  0.75893105  0.76320302  0.00000000  1.0
  N  N20  1  0.74106895  0.26320302  0.50000000  1.0
  N  N21  1  0.24106895  0.23679698  0.00000000  1.0
