# generated using pymatgen
data_BaH2Cl2O7
_symmetry_space_group_name_H-M   'P 1'
_cell_length_a   7.59053052
_cell_length_b   7.59053052
_cell_length_c   9.04509204
_cell_angle_alpha   55.43830632
_cell_angle_beta   124.56169368
_cell_angle_gamma   115.82040392
_symmetry_Int_Tables_number   1
_chemical_formula_structural   BaH2Cl2O7
_chemical_formula_sum   'Ba2 H4 Cl4 O14'
_cell_volume   348.42298471
_cell_formula_units_Z   2
loop_
 _symmetry_equiv_pos_site_id
 _symmetry_equiv_pos_as_xyz
  1  'x, y, z'
loop_
 _atom_site_type_symbol
 _atom_site_label
 _atom_site_symmetry_multiplicity
 _atom_site_fract_x
 _atom_site_fract_y
 _atom_site_fract_z
 _atom_site_occupancy
  Ba  Ba0  1  1.35798239  0.35798239  0.75000000  1.0
  Ba  Ba1  1  0.64201761  0.64201761  0.25000000  1.0
  H  H2  1  1.72119666  -0.19208532  0.63414866  1.0
  H  H3  1  1.19208532  -0.72119666  0.13414866  1.0
  H  H4  1  0.80791468  -0.27880334  0.86585134  1.0
  H  H5  1  1.27880334  0.19208532  0.36585134  1.0
  Cl  Cl6  1  1.78356899  0.17283698  0.81066347  1.0
  Cl  Cl7  1  0.82716302  0.21643101  0.31066347  1.0
  Cl  Cl8  1  1.17283698  0.78356899  0.68933653  1.0
  Cl  Cl9  1  1.21643101  -0.17283698  0.18933653  1.0
  O  O10  1  0.36549777  -0.32923889  0.86119686  1.0
  O  O11  1  1.32923889  0.63450223  0.36119686  1.0
  O  O12  1  0.67076111  0.36549777  0.63880314  1.0
  O  O13  1  0.63450223  0.32923889  0.13880314  1.0
  O  O14  1  1.71802149  0.09700749  0.97126580  1.0
  O  O15  1  0.90299251  0.28197851  0.47126580  1.0
  O  O16  1  1.09700749  0.71802149  0.52873420  1.0
  O  O17  1  1.28197851  -0.09700749  0.02873420  1.0
  O  O18  1  1.25661729  0.02470202  0.61168141  1.0
  O  O19  1  0.97529798  0.74338271  0.11168141  1.0
  O  O20  1  1.02470202  0.25661729  0.88831859  1.0
  O  O21  1  1.74338271  -0.02470202  0.38831859  1.0
  O  O22  1  0.69312705  -0.30687295  0.75000000  1.0
  O  O23  1  0.30687295  0.30687295  0.25000000  1.0
