# generated using pymatgen
data_AgBiO2
_symmetry_space_group_name_H-M   'P 1'
_cell_length_a   6.70245024
_cell_length_b   3.60379596
_cell_length_c   6.82218947
_cell_angle_alpha   90.00000000
_cell_angle_beta   113.84923326
_cell_angle_gamma   90.00000000
_symmetry_Int_Tables_number   1
_chemical_formula_structural   AgBiO2
_chemical_formula_sum   'Ag2 Bi2 O4'
_cell_volume   150.71439533
_cell_formula_units_Z   2
loop_
 _symmetry_equiv_pos_site_id
 _symmetry_equiv_pos_as_xyz
  1  'x, y, z'
loop_
 _atom_site_type_symbol
 _atom_site_label
 _atom_site_symmetry_multiplicity
 _atom_site_fract_x
 _atom_site_fract_y
 _atom_site_fract_z
 _atom_site_occupancy
  Ag  Ag0  1  0.01957334  0.75000000  0.68040418  1.0
  Ag  Ag1  1  0.98042666  0.25000000  0.31959582  1.0
  Bi  Bi2  1  0.45769571  0.75000000  0.24836573  1.0
  Bi  Bi3  1  0.54230429  0.25000000  0.75163427  1.0
  O  O4  1  0.35933413  0.75000000  0.80306228  1.0
  O  O5  1  0.64066587  0.25000000  0.19693772  1.0
  O  O6  1  0.68182672  0.75000000  0.58592095  1.0
  O  O7  1  0.31817328  0.25000000  0.41407905  1.0
