# generated using pymatgen
data_Cu2Te2Pb(ClO3)2
_symmetry_space_group_name_H-M   'P 1'
_cell_length_a   7.35749031
_cell_length_b   7.40687633
_cell_length_c   8.50389336
_cell_angle_alpha   90.00000000
_cell_angle_beta   96.03271710
_cell_angle_gamma   90.00000000
_symmetry_Int_Tables_number   1
_chemical_formula_structural   Cu2Te2Pb(ClO3)2
_chemical_formula_sum   'Cu4 Te4 Pb2 Cl4 O12'
_cell_volume   460.86190442
_cell_formula_units_Z   2
loop_
 _symmetry_equiv_pos_site_id
 _symmetry_equiv_pos_as_xyz
  1  'x, y, z'
loop_
 _atom_site_type_symbol
 _atom_site_label
 _atom_site_symmetry_multiplicity
 _atom_site_fract_x
 _atom_site_fract_y
 _atom_site_fract_z
 _atom_site_occupancy
  Cl  Cl0  1  0.90873333  0.74767360  0.23451153  1.0
  Cl  Cl1  1  0.09126667  0.24767360  0.76548847  1.0
  Cl  Cl2  1  0.46113556  0.72901057  0.39719473  1.0
  Cl  Cl3  1  0.53886444  0.22901057  0.60280527  1.0
  Pb  Pb4  1  0.87694808  0.50246023  0.94330867  1.0
  Pb  Pb5  1  0.12305192  0.00246023  0.05669133  1.0
  Cu  Cu6  1  0.64060468  0.98612569  0.91717684  1.0
  Cu  Cu7  1  0.35939532  0.48612569  0.08282316  1.0
  Cu  Cu8  1  0.67755751  0.50486076  0.41833724  1.0
  Cu  Cu9  1  0.32244249  0.00486076  0.58166276  1.0
  O  O10  1  0.85248939  0.87066415  0.84406286  1.0
  O  O11  1  0.14751061  0.37066415  0.15593714  1.0
  O  O12  1  0.81499767  0.59807090  0.61156811  1.0
  O  O13  1  0.18500233  0.09807090  0.38843189  1.0
  O  O14  1  0.53688171  0.55078317  0.94063004  1.0
  O  O15  1  0.46311829  0.05078317  0.05936996  1.0
  O  O16  1  0.14074389  0.81890679  0.62842580  1.0
  O  O17  1  0.85925611  0.31890679  0.37157420  1.0
  O  O18  1  0.46629253  0.88201740  0.75815509  1.0
  O  O19  1  0.53370747  0.38201740  0.24184491  1.0
  O  O20  1  0.20078895  0.65227547  0.94522083  1.0
  O  O21  1  0.79921105  0.15227547  0.05477917  1.0
  Te  Te22  1  0.87298196  0.85332360  0.61495711  1.0
  Te  Te23  1  0.12701804  0.35332360  0.38504289  1.0
  Te  Te24  1  0.35376774  0.63452767  0.76547331  1.0
  Te  Te25  1  0.64623226  0.13452767  0.23452669  1.0
