# generated using pymatgen
data_NaNbSe2O7
_symmetry_space_group_name_H-M   'P 1'
_cell_length_a   6.97550199
_cell_length_b   6.97550199
_cell_length_c   7.45078803
_cell_angle_alpha   90.00000000
_cell_angle_beta   90.00000000
_cell_angle_gamma   68.52073071
_symmetry_Int_Tables_number   1
_chemical_formula_structural   NaNbSe2O7
_chemical_formula_sum   'Na2 Nb2 Se4 O14'
_cell_volume   337.35947228
_cell_formula_units_Z   2
loop_
 _symmetry_equiv_pos_site_id
 _symmetry_equiv_pos_as_xyz
  1  'x, y, z'
loop_
 _atom_site_type_symbol
 _atom_site_label
 _atom_site_symmetry_multiplicity
 _atom_site_fract_x
 _atom_site_fract_y
 _atom_site_fract_z
 _atom_site_occupancy
  Na  Na0  1  -0.46723929  1.46723929  0.27020775  1.0
  Na  Na1  1  0.46723929  0.53276071  0.77020775  1.0
  Nb  Nb2  1  0.01309424  0.98690576  0.23171732  1.0
  Nb  Nb3  1  -0.01309424  1.01309424  0.73171732  1.0
  Se  Se4  1  -0.07060978  1.46098832  0.00494034  1.0
  Se  Se5  1  0.46098832  0.92939022  0.50494034  1.0
  Se  Se6  1  -0.46098832  1.07060978  0.00494034  1.0
  Se  Se7  1  0.07060978  0.53901168  0.50494034  1.0
  O  O8  1  0.04985355  0.70396740  0.31822213  1.0
  O  O9  1  -0.29603260  1.04985355  0.81822213  1.0
  O  O10  1  0.29603260  0.95014645  0.31822213  1.0
  O  O11  1  -0.04985355  1.29603260  0.81822213  1.0
  O  O12  1  -0.32343348  1.59499146  0.00917843  1.0
  O  O13  1  0.59499146  0.67656652  0.50917843  1.0
  O  O14  1  -0.59499146  1.32343348  0.00917843  1.0
  O  O15  1  0.32343348  0.40500854  0.50917843  1.0
  O  O16  1  -0.04680796  1.29088616  0.18809628  1.0
  O  O17  1  0.29088616  0.95319204  0.68809628  1.0
  O  O18  1  -0.29088616  1.04680796  0.18809628  1.0
  O  O19  1  0.04680796  0.70911384  0.68809628  1.0
  O  O20  1  0.08287601  0.91712399  -0.00139943  1.0
  O  O21  1  -0.08287601  1.08287601  0.49860057  1.0
