# generated using pymatgen
data_Yb2Nb3Ge4
_symmetry_space_group_name_H-M   'P 1'
_cell_length_a   6.99020009
_cell_length_b   13.53922884
_cell_length_c   7.15492615
_cell_angle_alpha   90.00000000
_cell_angle_beta   90.00000000
_cell_angle_gamma   90.00000000
_symmetry_Int_Tables_number   1
_chemical_formula_structural   Yb2Nb3Ge4
_chemical_formula_sum   'Yb8 Nb12 Ge16'
_cell_volume   677.15593956
_cell_formula_units_Z   4
loop_
 _symmetry_equiv_pos_site_id
 _symmetry_equiv_pos_as_xyz
  1  'x, y, z'
loop_
 _atom_site_type_symbol
 _atom_site_label
 _atom_site_symmetry_multiplicity
 _atom_site_fract_x
 _atom_site_fract_y
 _atom_site_fract_z
 _atom_site_occupancy
  Yb  Yb0  1  0.50254534  0.90646233  0.67339677  1.0
  Yb  Yb1  1  0.50254534  0.59353767  0.67339677  1.0
  Yb  Yb2  1  1.00254534  0.90646233  0.82660323  1.0
  Yb  Yb3  1  1.00254534  0.59353767  0.82660323  1.0
  Yb  Yb4  1  0.49745466  0.40646233  0.32660323  1.0
  Yb  Yb5  1  0.49745466  0.09353767  0.32660323  1.0
  Yb  Yb6  1  -0.00254534  0.40646233  0.17339677  1.0
  Yb  Yb7  1  -0.00254534  0.09353767  0.17339677  1.0
  Nb  Nb8  1  0.16028829  0.37238315  0.67192401  1.0
  Nb  Nb9  1  0.16028829  0.12761685  0.67192401  1.0
  Nb  Nb10  1  0.66028829  0.37238315  0.82807599  1.0
  Nb  Nb11  1  0.66028829  0.12761685  0.82807599  1.0
  Nb  Nb12  1  0.83971171  0.87238315  0.32807599  1.0
  Nb  Nb13  1  0.83971171  0.62761685  0.32807599  1.0
  Nb  Nb14  1  0.33971171  0.87238315  0.17192401  1.0
  Nb  Nb15  1  0.33971171  0.62761685  0.17192401  1.0
  Nb  Nb16  1  0.33744210  0.25000000  -0.01329291  1.0
  Nb  Nb17  1  0.83744210  0.25000000  0.51329291  1.0
  Nb  Nb18  1  0.66255790  0.75000000  1.01329291  1.0
  Nb  Nb19  1  0.16255790  0.75000000  0.48670709  1.0
  Ge  Ge20  1  0.32818018  0.45832242  0.96141789  1.0
  Ge  Ge21  1  0.32818018  0.04167758  0.96141789  1.0
  Ge  Ge22  1  0.82818018  0.45832242  0.53858211  1.0
  Ge  Ge23  1  0.82818018  0.04167758  0.53858211  1.0
  Ge  Ge24  1  0.67181982  0.95832242  0.03858211  1.0
  Ge  Ge25  1  0.67181982  0.54167758  0.03858211  1.0
  Ge  Ge26  1  0.17181982  0.95832242  0.46141789  1.0
  Ge  Ge27  1  0.17181982  0.54167758  0.46141789  1.0
  Ge  Ge28  1  0.46167168  0.25000000  0.61677676  1.0
  Ge  Ge29  1  0.96167168  0.25000000  0.88322324  1.0
  Ge  Ge30  1  0.53832832  0.75000000  0.38322324  1.0
  Ge  Ge31  1  0.03832832  0.75000000  0.11677676  1.0
  Ge  Ge32  1  0.19707719  0.25000000  0.35780365  1.0
  Ge  Ge33  1  0.69707719  0.25000000  0.14219635  1.0
  Ge  Ge34  1  0.80292281  0.75000000  0.64219635  1.0
  Ge  Ge35  1  0.30292281  0.75000000  0.85780365  1.0
