# generated using pymatgen
data_Y2B6Ru
_symmetry_space_group_name_H-M   'P 1'
_cell_length_a   9.14229248
_cell_length_b   11.51185186
_cell_length_c   3.65705090
_cell_angle_alpha   90.00000000
_cell_angle_beta   90.00000000
_cell_angle_gamma   90.00000000
_symmetry_Int_Tables_number   1
_chemical_formula_structural   Y2B6Ru
_chemical_formula_sum   'Y8 B24 Ru4'
_cell_volume   384.88528581
_cell_formula_units_Z   4
loop_
 _symmetry_equiv_pos_site_id
 _symmetry_equiv_pos_as_xyz
  1  'x, y, z'
loop_
 _atom_site_type_symbol
 _atom_site_label
 _atom_site_symmetry_multiplicity
 _atom_site_fract_x
 _atom_site_fract_y
 _atom_site_fract_z
 _atom_site_occupancy
  Y  Y0  1  0.17741436  0.91384607  0.50000000  1.0
  Y  Y1  1  0.67741436  0.58615393  0.50000000  1.0
  Y  Y2  1  0.82258564  0.08615393  0.50000000  1.0
  Y  Y3  1  0.32258564  0.41384607  0.50000000  1.0
  Y  Y4  1  0.05620846  0.62722844  0.50000000  1.0
  Y  Y5  1  0.55620846  0.87277156  0.50000000  1.0
  Y  Y6  1  0.94379154  0.37277156  0.50000000  1.0
  Y  Y7  1  0.44379154  0.12722844  0.50000000  1.0
  B  B8  1  0.44620952  0.56729520  0.00000000  1.0
  B  B9  1  0.94620952  0.93270480  0.00000000  1.0
  B  B10  1  0.55379048  0.43270480  0.00000000  1.0
  B  B11  1  0.05379048  0.06729520  0.00000000  1.0
  B  B12  1  0.38945633  0.96944906  0.00000000  1.0
  B  B13  1  0.88945633  0.53055094  0.00000000  1.0
  B  B14  1  0.61054367  0.03055094  0.00000000  1.0
  B  B15  1  0.11054367  0.46944906  0.00000000  1.0
  B  B16  1  0.36812494  0.81444365  0.00000000  1.0
  B  B17  1  0.86812494  0.68555635  0.00000000  1.0
  B  B18  1  0.63187506  0.18555635  0.00000000  1.0
  B  B19  1  0.13187506  0.31444365  0.00000000  1.0
  B  B20  1  0.25252924  0.58006202  0.00000000  1.0
  B  B21  1  0.75252924  0.91993798  0.00000000  1.0
  B  B22  1  0.74747076  0.41993798  0.00000000  1.0
  B  B23  1  0.24747076  0.08006202  0.00000000  1.0
  B  B24  1  0.20952352  0.73327643  0.00000000  1.0
  B  B25  1  0.70952352  0.76672357  0.00000000  1.0
  B  B26  1  0.79047648  0.26672357  0.00000000  1.0
  B  B27  1  0.29047648  0.23327643  0.00000000  1.0
  B  B28  1  0.01634686  0.78717889  0.00000000  1.0
  B  B29  1  0.51634686  0.71282111  0.00000000  1.0
  B  B30  1  0.98365314  0.21282111  0.00000000  1.0
  B  B31  1  0.48365314  0.28717889  0.00000000  1.0
  Ru  Ru32  1  0.36224111  0.67878937  0.50000000  1.0
  Ru  Ru33  1  0.86224111  0.82121063  0.50000000  1.0
  Ru  Ru34  1  0.63775889  0.32121063  0.50000000  1.0
  Ru  Ru35  1  0.13775889  0.17878937  0.50000000  1.0
