# generated using pymatgen
data_EuAs3
_symmetry_space_group_name_H-M   'P 1'
_cell_length_a   5.66742921
_cell_length_b   6.02155002
_cell_length_c   6.99195314
_cell_angle_alpha   86.72259812
_cell_angle_beta   55.62458351
_cell_angle_gamma   73.42309568
_symmetry_Int_Tables_number   1
_chemical_formula_structural   EuAs3
_chemical_formula_sum   'Eu2 As6'
_cell_volume   187.11911383
_cell_formula_units_Z   2
loop_
 _symmetry_equiv_pos_site_id
 _symmetry_equiv_pos_as_xyz
  1  'x, y, z'
loop_
 _atom_site_type_symbol
 _atom_site_label
 _atom_site_symmetry_multiplicity
 _atom_site_fract_x
 _atom_site_fract_y
 _atom_site_fract_z
 _atom_site_occupancy
  Eu  Eu0  1  0.65825259  0.33354757  0.66626028  1.0
  Eu  Eu1  1  0.34174741  0.66645243  0.33373972  1.0
  As  As2  1  0.21677738  -0.01178736  0.01192576  1.0
  As  As3  1  0.78322262  1.01178736  0.98807424  1.0
  As  As4  1  0.06126835  0.41799391  0.14347096  1.0
  As  As5  1  0.93873165  0.58200609  0.85652904  1.0
  As  As6  1  0.37754357  0.14355808  0.41782298  1.0
  As  As7  1  0.62245643  0.85644192  0.58217702  1.0
