# generated using pymatgen
data_SNClO
_symmetry_space_group_name_H-M   'P 1'
_cell_length_a   6.06305052
_cell_length_b   12.47676432
_cell_length_c   14.75879732
_cell_angle_alpha   90.00000000
_cell_angle_beta   104.30862420
_cell_angle_gamma   90.00000000
_symmetry_Int_Tables_number   1
_chemical_formula_structural   SNClO
_chemical_formula_sum   'S12 N12 Cl12 O12'
_cell_volume   1081.82817312
_cell_formula_units_Z   12
loop_
 _symmetry_equiv_pos_site_id
 _symmetry_equiv_pos_as_xyz
  1  'x, y, z'
loop_
 _atom_site_type_symbol
 _atom_site_label
 _atom_site_symmetry_multiplicity
 _atom_site_fract_x
 _atom_site_fract_y
 _atom_site_fract_z
 _atom_site_occupancy
  S  S0  1  0.74519755  0.20256156  0.35496623  1.0
  S  S1  1  0.74519755  0.29743844  0.85496623  1.0
  S  S2  1  0.25480245  0.70256156  0.14503377  1.0
  S  S3  1  0.25480245  0.79743844  0.64503377  1.0
  S  S4  1  0.71546291  0.98142493  0.35148951  1.0
  S  S5  1  0.71546291  0.51857507  0.85148951  1.0
  S  S6  1  0.28453709  0.48142493  0.14851049  1.0
  S  S7  1  0.28453709  0.01857507  0.64851049  1.0
  S  S8  1  0.56971939  0.09862354  0.18679603  1.0
  S  S9  1  0.56971939  0.40137646  0.68679603  1.0
  S  S10  1  0.43028061  0.59862354  0.31320397  1.0
  S  S11  1  0.43028061  0.90137646  0.81320397  1.0
  N  N12  1  0.82896128  0.08932852  0.39861509  1.0
  N  N13  1  0.82896128  0.41067148  0.89861509  1.0
  N  N14  1  0.17103872  0.58932852  0.10138491  1.0
  N  N15  1  0.17103872  0.91067148  0.60138491  1.0
  N  N16  1  0.66882070  0.20325270  0.24406994  1.0
  N  N17  1  0.66882070  0.29674730  0.74406994  1.0
  N  N18  1  0.33117930  0.70325270  0.25593006  1.0
  N  N19  1  0.33117930  0.79674730  0.75593006  1.0
  N  N20  1  0.45391028  0.49943600  0.24854135  1.0
  N  N21  1  0.45391028  0.00056400  0.74854135  1.0
  N  N22  1  0.54608972  0.99943600  0.25145865  1.0
  N  N23  1  0.54608972  0.50056400  0.75145865  1.0
  Cl  Cl24  1  0.99017367  0.89928398  0.33176046  1.0
  Cl  Cl25  1  0.99017367  0.60071602  0.83176046  1.0
  Cl  Cl26  1  0.00982633  0.39928398  0.16823954  1.0
  Cl  Cl27  1  0.00982633  0.10071602  0.66823954  1.0
  Cl  Cl28  1  0.81386255  0.06145741  0.11821452  1.0
  Cl  Cl29  1  0.81386255  0.43854259  0.61821452  1.0
  Cl  Cl30  1  0.18613745  0.56145741  0.38178548  1.0
  Cl  Cl31  1  0.18613745  0.93854259  0.88178548  1.0
  Cl  Cl32  1  0.45625388  0.23820619  0.39816768  1.0
  Cl  Cl33  1  0.45625388  0.26179381  0.89816768  1.0
  Cl  Cl34  1  0.54374612  0.73820619  0.10183232  1.0
  Cl  Cl35  1  0.54374612  0.76179381  0.60183232  1.0
  O  O36  1  0.90731300  0.28534618  0.39066956  1.0
  O  O37  1  0.90731300  0.21465382  0.89066956  1.0
  O  O38  1  0.09268700  0.78534618  0.10933044  1.0
  O  O39  1  0.09268700  0.71465382  0.60933044  1.0
  O  O40  1  0.61124818  0.91630329  0.40931123  1.0
  O  O41  1  0.61124818  0.58369671  0.90931123  1.0
  O  O42  1  0.38875182  0.41630329  0.09068877  1.0
  O  O43  1  0.38875182  0.08369671  0.59068877  1.0
  O  O44  1  0.36205647  0.11589865  0.11683528  1.0
  O  O45  1  0.36205647  0.38410135  0.61683528  1.0
  O  O46  1  0.63794353  0.61589865  0.38316472  1.0
  O  O47  1  0.63794353  0.88410135  0.88316472  1.0
