# generated using pymatgen
data_Zr9CoMo4
_symmetry_space_group_name_H-M   'P 1'
_cell_length_a   8.79416291
_cell_length_b   8.79416291
_cell_length_c   8.41623115
_cell_angle_alpha   90.00000000
_cell_angle_beta   90.00000000
_cell_angle_gamma   120.00000000
_symmetry_Int_Tables_number   1
_chemical_formula_structural   Zr9CoMo4
_chemical_formula_sum   'Zr18 Co2 Mo8'
_cell_volume   563.68606695
_cell_formula_units_Z   2
loop_
 _symmetry_equiv_pos_site_id
 _symmetry_equiv_pos_as_xyz
  1  'x, y, z'
loop_
 _atom_site_type_symbol
 _atom_site_label
 _atom_site_symmetry_multiplicity
 _atom_site_fract_x
 _atom_site_fract_y
 _atom_site_fract_z
 _atom_site_occupancy
  Zr  Zr0  1  0.20100844  0.79899156  0.44215115  1.0
  Zr  Zr1  1  0.20100844  0.79899156  0.05784885  1.0
  Zr  Zr2  1  0.20100844  0.40201687  0.44215115  1.0
  Zr  Zr3  1  0.20100844  0.40201687  0.05784885  1.0
  Zr  Zr4  1  0.79899156  0.20100844  0.94215115  1.0
  Zr  Zr5  1  0.79899156  0.20100844  0.55784885  1.0
  Zr  Zr6  1  0.79899156  0.59798313  0.94215115  1.0
  Zr  Zr7  1  0.79899156  0.59798313  0.55784885  1.0
  Zr  Zr8  1  0.59798313  0.79899156  0.44215115  1.0
  Zr  Zr9  1  0.59798313  0.79899156  0.05784885  1.0
  Zr  Zr10  1  0.40201687  0.20100844  0.94215115  1.0
  Zr  Zr11  1  0.40201687  0.20100844  0.55784885  1.0
  Zr  Zr12  1  0.54264495  0.45735505  0.25000000  1.0
  Zr  Zr13  1  0.54264495  0.08528991  0.25000000  1.0
  Zr  Zr14  1  0.45735505  0.54264495  0.75000000  1.0
  Zr  Zr15  1  0.45735505  0.91471009  0.75000000  1.0
  Zr  Zr16  1  0.91471009  0.45735505  0.25000000  1.0
  Zr  Zr17  1  0.08528991  0.54264495  0.75000000  1.0
  Co  Co18  1  0.33333333  0.66666667  0.25000000  1.0
  Co  Co19  1  0.66666667  0.33333333  0.75000000  1.0
  Mo  Mo20  1  0.88980920  0.11019080  0.25000000  1.0
  Mo  Mo21  1  0.88980920  0.77961840  0.25000000  1.0
  Mo  Mo22  1  0.11019080  0.88980920  0.75000000  1.0
  Mo  Mo23  1  0.11019080  0.22038160  0.75000000  1.0
  Mo  Mo24  1  0.22038160  0.11019080  0.25000000  1.0
  Mo  Mo25  1  0.77961840  0.88980920  0.75000000  1.0
  Mo  Mo26  1  0.00000000  0.00000000  0.50000000  1.0
  Mo  Mo27  1  0.00000000  0.00000000  0.00000000  1.0
