# generated using pymatgen
data_Tl2CS3
_symmetry_space_group_name_H-M   'P 1'
_cell_length_a   6.61548694
_cell_length_b   6.61548694
_cell_length_c   9.45819556
_cell_angle_alpha   71.57509046
_cell_angle_beta   108.42490954
_cell_angle_gamma   94.82517360
_symmetry_Int_Tables_number   1
_chemical_formula_structural   Tl2CS3
_chemical_formula_sum   'Tl4 C2 S6'
_cell_volume   372.52755739
_cell_formula_units_Z   2
loop_
 _symmetry_equiv_pos_site_id
 _symmetry_equiv_pos_as_xyz
  1  'x, y, z'
loop_
 _atom_site_type_symbol
 _atom_site_label
 _atom_site_symmetry_multiplicity
 _atom_site_fract_x
 _atom_site_fract_y
 _atom_site_fract_z
 _atom_site_occupancy
  Tl  Tl0  1  0.39790751  0.12195438  0.62434830  1.0
  Tl  Tl1  1  0.87804562  -0.39790751  0.12434830  1.0
  Tl  Tl2  1  1.12195438  0.39790751  0.87565170  1.0
  Tl  Tl3  1  1.60209249  -0.12195438  0.37565170  1.0
  C  C4  1  0.58608172  0.58608172  0.75000000  1.0
  C  C5  1  0.41391828  0.41391828  0.25000000  1.0
  S  S6  1  0.63250265  0.34922738  0.90022700  1.0
  S  S7  1  0.65077262  0.36749735  0.40022700  1.0
  S  S8  1  1.34922738  -0.36749735  0.59977300  1.0
  S  S9  1  1.36749735  -0.34922738  0.09977300  1.0
  S  S10  1  0.77916914  0.77916914  0.75000000  1.0
  S  S11  1  0.22083086  0.22083086  0.25000000  1.0
