# generated using pymatgen
data_SiH6(NF2)2
_symmetry_space_group_name_H-M   'P 1'
_cell_length_a   5.15120107
_cell_length_b   7.02447822
_cell_length_c   7.34851444
_cell_angle_alpha   90.00000000
_cell_angle_beta   92.35040155
_cell_angle_gamma   90.00000000
_symmetry_Int_Tables_number   1
_chemical_formula_structural   SiH6(NF2)2
_chemical_formula_sum   'Si2 H12 N4 F8'
_cell_volume   265.67861675
_cell_formula_units_Z   2
loop_
 _symmetry_equiv_pos_site_id
 _symmetry_equiv_pos_as_xyz
  1  'x, y, z'
loop_
 _atom_site_type_symbol
 _atom_site_label
 _atom_site_symmetry_multiplicity
 _atom_site_fract_x
 _atom_site_fract_y
 _atom_site_fract_z
 _atom_site_occupancy
  Si  Si0  1  -0.00000000  0.50000000  0.50000000  1.0
  Si  Si1  1  0.00000000  0.00000000  0.00000000  1.0
  H  H2  1  0.78634384  0.34240614  0.22799054  1.0
  H  H3  1  0.78634384  0.15759386  0.72799054  1.0
  H  H4  1  0.21365616  0.84240614  0.27200946  1.0
  H  H5  1  0.21365616  0.65759386  0.77200946  1.0
  H  H6  1  0.58569262  0.49976138  0.31676778  1.0
  H  H7  1  0.58569262  0.00023862  0.81676778  1.0
  H  H8  1  0.41430738  0.99976138  0.18323222  1.0
  H  H9  1  0.41430738  0.50023862  0.68323222  1.0
  H  H10  1  0.17614930  0.07421282  0.31055166  1.0
  H  H11  1  0.17614930  0.42578718  0.81055166  1.0
  H  H12  1  0.82385070  0.57421282  0.18944834  1.0
  H  H13  1  0.82385070  0.92578718  0.68944834  1.0
  N  N14  1  0.77628259  0.47538160  0.28625174  1.0
  N  N15  1  0.77628259  0.02461840  0.78625174  1.0
  N  N16  1  0.22371741  0.97538160  0.21374826  1.0
  N  N17  1  0.22371741  0.52461840  0.71374826  1.0
  F  F18  1  0.88879933  0.77346040  0.02516355  1.0
  F  F19  1  0.88879933  0.72653960  0.52516355  1.0
  F  F20  1  0.11120067  0.27346040  0.47483645  1.0
  F  F21  1  0.11120067  0.22653960  0.97483645  1.0
  F  F22  1  0.75605951  0.08483229  0.13139170  1.0
  F  F23  1  0.75605951  0.41516771  0.63139170  1.0
  F  F24  1  0.24394049  0.58483229  0.36860830  1.0
  F  F25  1  0.24394049  0.91516771  0.86860830  1.0
