# generated using pymatgen
data_Ti6Ga16Rh7
_symmetry_space_group_name_H-M   'P 1'
_cell_length_a   8.60980769
_cell_length_b   8.60980769
_cell_length_c   8.60980769
_cell_angle_alpha   60.00000000
_cell_angle_beta   60.00000000
_cell_angle_gamma   60.00000000
_symmetry_Int_Tables_number   1
_chemical_formula_structural   Ti6Ga16Rh7
_chemical_formula_sum   'Ti6 Ga16 Rh7'
_cell_volume   451.30002278
_cell_formula_units_Z   1
loop_
 _symmetry_equiv_pos_site_id
 _symmetry_equiv_pos_as_xyz
  1  'x, y, z'
loop_
 _atom_site_type_symbol
 _atom_site_label
 _atom_site_symmetry_multiplicity
 _atom_site_fract_x
 _atom_site_fract_y
 _atom_site_fract_z
 _atom_site_occupancy
  Ti  Ti0  1  -0.69067124  0.69067124  0.69067124  1.0
  Ti  Ti1  1  -0.30932876  0.30932876  0.69067124  1.0
  Ti  Ti2  1  0.69067124  0.69067124  -0.69067124  1.0
  Ti  Ti3  1  0.30932876  1.30932876  -0.30932876  1.0
  Ti  Ti4  1  0.30932876  -0.30932876  1.30932876  1.0
  Ti  Ti5  1  -0.30932876  0.30932876  0.30932876  1.0
  Ga  Ga6  1  0.87740997  0.87740997  -0.12259003  1.0
  Ga  Ga7  1  1.12259003  0.12259003  0.63222990  1.0
  Ga  Ga8  1  1.12259003  0.63222990  0.12259003  1.0
  Ga  Ga9  1  0.36777010  0.87740997  -0.12259003  1.0
  Ga  Ga10  1  1.63222990  0.12259003  0.12259003  1.0
  Ga  Ga11  1  0.87740997  0.36777010  -0.12259003  1.0
  Ga  Ga12  1  0.87740997  0.87740997  -0.63222990  1.0
  Ga  Ga13  1  1.12259003  0.12259003  0.12259003  1.0
  Ga  Ga14  1  0.64987461  0.64987461  -0.35012539  1.0
  Ga  Ga15  1  1.35012539  0.35012539  -0.05037618  1.0
  Ga  Ga16  1  1.35012539  -0.05037618  0.35012539  1.0
  Ga  Ga17  1  1.05037618  0.64987461  -0.35012539  1.0
  Ga  Ga18  1  0.94962382  0.35012539  0.35012539  1.0
  Ga  Ga19  1  0.64987461  1.05037618  -0.35012539  1.0
  Ga  Ga20  1  0.64987461  0.64987461  0.05037618  1.0
  Ga  Ga21  1  1.35012539  0.35012539  0.35012539  1.0
  Rh  Rh22  1  1.50000000  0.00000000  -0.00000000  1.0
  Rh  Rh23  1  1.00000000  0.50000000  -0.50000000  1.0
  Rh  Rh24  1  0.00000000  1.50000000  -0.00000000  1.0
  Rh  Rh25  1  0.50000000  1.00000000  -0.50000000  1.0
  Rh  Rh26  1  -0.00000000  -0.00000000  0.50000000  1.0
  Rh  Rh27  1  0.50000000  -0.50000000  1.00000000  1.0
  Rh  Rh28  1  0.00000000  0.00000000  0.00000000  1.0
