# generated using pymatgen
data_EuHBr
_symmetry_space_group_name_H-M   'P 1'
_cell_length_a   4.07697571
_cell_length_b   4.07697571
_cell_length_c   7.59736010
_cell_angle_alpha   90.00000000
_cell_angle_beta   90.00000000
_cell_angle_gamma   90.00000000
_symmetry_Int_Tables_number   1
_chemical_formula_structural   EuHBr
_chemical_formula_sum   'Eu2 H2 Br2'
_cell_volume   126.28127538
_cell_formula_units_Z   2
loop_
 _symmetry_equiv_pos_site_id
 _symmetry_equiv_pos_as_xyz
  1  'x, y, z'
loop_
 _atom_site_type_symbol
 _atom_site_label
 _atom_site_symmetry_multiplicity
 _atom_site_fract_x
 _atom_site_fract_y
 _atom_site_fract_z
 _atom_site_occupancy
  Eu  Eu0  1  0.50000000  0.00000000  0.17566327  1.0
  Eu  Eu1  1  0.00000000  0.50000000  0.82433673  1.0
  H  H2  1  0.00000000  0.00000000  0.00000000  1.0
  H  H3  1  0.50000000  0.50000000  0.00000000  1.0
  Br  Br4  1  0.50000000  0.00000000  0.65975627  1.0
  Br  Br5  1  0.00000000  0.50000000  0.34024373  1.0
