# generated using pymatgen
data_Ba3P2(SeO)4
_symmetry_space_group_name_H-M   'P 1'
_cell_length_a   12.96572813
_cell_length_b   7.26944262
_cell_length_c   6.89500059
_cell_angle_alpha   80.15636356
_cell_angle_beta   78.52422190
_cell_angle_gamma   80.69212636
_symmetry_Int_Tables_number   1
_chemical_formula_structural   Ba3P2(SeO)4
_chemical_formula_sum   'Ba6 P4 Se8 O8'
_cell_volume   621.99643618
_cell_formula_units_Z   2
loop_
 _symmetry_equiv_pos_site_id
 _symmetry_equiv_pos_as_xyz
  1  'x, y, z'
loop_
 _atom_site_type_symbol
 _atom_site_label
 _atom_site_symmetry_multiplicity
 _atom_site_fract_x
 _atom_site_fract_y
 _atom_site_fract_z
 _atom_site_occupancy
  Ba  Ba0  1  -0.61241198  -0.74335928  -0.80272501  1.0
  Ba  Ba1  1  -0.38758802  -0.25664072  -0.19727499  1.0
  Ba  Ba2  1  -0.85188708  -0.18839451  -0.54612802  1.0
  Ba  Ba3  1  -0.14811292  -0.81160548  -0.45387198  1.0
  Ba  Ba4  1  -0.87628680  -0.68606446  -0.15085129  1.0
  Ba  Ba5  1  -0.12371320  -0.31393554  -0.84914871  1.0
  P  P6  1  -0.30794591  -0.79619066  -0.89377986  1.0
  P  P7  1  -0.69205409  -0.20380934  -0.10622014  1.0
  P  P8  1  -0.88577617  -0.69737361  -0.64332690  1.0
  P  P9  1  -0.11422383  -0.30262639  -0.35667310  1.0
  Se  Se10  1  -0.13109368  -0.84444821  -0.95955951  1.0
  Se  Se11  1  -0.86890632  -0.15555179  -0.04044049  1.0
  Se  Se12  1  -0.61341127  -0.26102866  -0.83754828  1.0
  Se  Se13  1  -0.38658873  -0.73897134  -0.16245172  1.0
  Se  Se14  1  -0.35361967  -0.54539984  -0.73735913  1.0
  Se  Se15  1  -0.64638033  -0.45460016  -0.26264087  1.0
  Se  Se16  1  -0.62667672  -0.94999471  -0.28653271  1.0
  Se  Se17  1  -0.37332328  -0.05000529  -0.71346729  1.0
  O  O18  1  -0.80318565  -0.82560352  -0.78013927  1.0
  O  O19  1  -0.19681435  -0.17439648  -0.21986073  1.0
  O  O20  1  -0.97276452  -0.59521556  -0.76482587  1.0
  O  O21  1  -0.02723548  -0.40478444  -0.23517413  1.0
  O  O22  1  -0.82397761  -0.56255489  -0.57111559  1.0
  O  O23  1  -0.17602239  -0.43744511  -0.42888441  1.0
  O  O24  1  -0.93825470  -0.82798081  -0.45596736  1.0
  O  O25  1  -0.06174530  -0.17201919  -0.54403264  1.0
