# generated using pymatgen
data_GdSiPd2
_symmetry_space_group_name_H-M   'P 1'
_cell_length_a   7.42753306
_cell_length_b   6.98207507
_cell_length_c   5.57511153
_cell_angle_alpha   90.00000000
_cell_angle_beta   90.00000000
_cell_angle_gamma   90.00000000
_symmetry_Int_Tables_number   1
_chemical_formula_structural   GdSiPd2
_chemical_formula_sum   'Gd4 Si4 Pd8'
_cell_volume   289.12301715
_cell_formula_units_Z   4
loop_
 _symmetry_equiv_pos_site_id
 _symmetry_equiv_pos_as_xyz
  1  'x, y, z'
loop_
 _atom_site_type_symbol
 _atom_site_label
 _atom_site_symmetry_multiplicity
 _atom_site_fract_x
 _atom_site_fract_y
 _atom_site_fract_z
 _atom_site_occupancy
  Gd  Gd0  1  0.97127860  0.25000000  0.64084626  1.0
  Gd  Gd1  1  0.47127860  0.25000000  0.85915374  1.0
  Gd  Gd2  1  0.02872140  0.75000000  0.35915374  1.0
  Gd  Gd3  1  0.52872140  0.75000000  0.14084626  1.0
  Si  Si4  1  0.62290167  0.25000000  0.35699686  1.0
  Si  Si5  1  0.12290167  0.25000000  0.14300314  1.0
  Si  Si6  1  0.37709833  0.75000000  0.64300314  1.0
  Si  Si7  1  0.87709833  0.75000000  0.85699686  1.0
  Pd  Pd8  1  0.82383469  0.44780835  0.09419903  1.0
  Pd  Pd9  1  0.82383469  0.05219165  0.09419903  1.0
  Pd  Pd10  1  0.32383469  0.44780835  0.40580097  1.0
  Pd  Pd11  1  0.32383469  0.05219165  0.40580097  1.0
  Pd  Pd12  1  0.17616531  0.94780835  0.90580097  1.0
  Pd  Pd13  1  0.17616531  0.55219165  0.90580097  1.0
  Pd  Pd14  1  0.67616531  0.94780835  0.59419903  1.0
  Pd  Pd15  1  0.67616531  0.55219165  0.59419903  1.0
