# generated using pymatgen
data_Cs3ZnCl5
_symmetry_space_group_name_H-M   'P 1'
_cell_length_a   9.94824217
_cell_length_b   9.94824217
_cell_length_c   9.94824217
_cell_angle_alpha   123.24992204
_cell_angle_beta   123.24992204
_cell_angle_gamma   84.45749384
_symmetry_Int_Tables_number   1
_chemical_formula_structural   Cs3ZnCl5
_chemical_formula_sum   'Cs6 Zn2 Cl10'
_cell_volume   658.61668288
_cell_formula_units_Z   2
loop_
 _symmetry_equiv_pos_site_id
 _symmetry_equiv_pos_as_xyz
  1  'x, y, z'
loop_
 _atom_site_type_symbol
 _atom_site_label
 _atom_site_symmetry_multiplicity
 _atom_site_fract_x
 _atom_site_fract_y
 _atom_site_fract_z
 _atom_site_occupancy
  Cs  Cs0  1  0.83220812  0.33220812  1.16441623  1.0
  Cs  Cs1  1  0.66779188  0.83220812  1.50000000  1.0
  Cs  Cs2  1  0.33220812  0.16779188  0.50000000  1.0
  Cs  Cs3  1  0.16779188  0.66779188  0.83558377  1.0
  Cs  Cs4  1  0.75000000  0.75000000  1.00000000  1.0
  Cs  Cs5  1  0.25000000  0.25000000  0.00000000  1.0
  Zn  Zn6  1  0.25000000  0.75000000  0.50000000  1.0
  Zn  Zn7  1  0.75000000  0.25000000  0.50000000  1.0
  Cl  Cl8  1  1.20571083  0.70571083  1.22568884  1.0
  Cl  Cl9  1  0.51997801  1.01997801  1.22568884  1.0
  Cl  Cl10  1  0.98002199  1.20571083  1.50000000  1.0
  Cl  Cl11  1  0.29428917  0.51997801  0.50000000  1.0
  Cl  Cl12  1  0.70571083  0.48002199  0.50000000  1.0
  Cl  Cl13  1  1.01997801  0.79428917  1.50000000  1.0
  Cl  Cl14  1  0.48002199  0.98002199  0.77431116  1.0
  Cl  Cl15  1  0.79428917  0.29428917  0.77431116  1.0
  Cl  Cl16  1  0.00000000  0.00000000  0.00000000  1.0
  Cl  Cl17  1  0.50000000  0.50000000  1.00000000  1.0
