# generated using pymatgen
data_ZrCrGe2
_symmetry_space_group_name_H-M   'P 1'
_cell_length_a   9.31793626
_cell_length_b   10.07209830
_cell_length_c   8.20537617
_cell_angle_alpha   90.00000000
_cell_angle_beta   90.00000000
_cell_angle_gamma   90.00000000
_symmetry_Int_Tables_number   1
_chemical_formula_structural   ZrCrGe2
_chemical_formula_sum   'Zr12 Cr12 Ge24'
_cell_volume   770.08415380
_cell_formula_units_Z   12
loop_
 _symmetry_equiv_pos_site_id
 _symmetry_equiv_pos_as_xyz
  1  'x, y, z'
loop_
 _atom_site_type_symbol
 _atom_site_label
 _atom_site_symmetry_multiplicity
 _atom_site_fract_x
 _atom_site_fract_y
 _atom_site_fract_z
 _atom_site_occupancy
  Zr  Zr0  1  0.17147291  0.54831985  0.75497439  1.0
  Zr  Zr1  1  0.17147291  0.54831985  0.24502561  1.0
  Zr  Zr2  1  0.67147291  0.95168015  0.75497439  1.0
  Zr  Zr3  1  0.67147291  0.95168015  0.24502561  1.0
  Zr  Zr4  1  0.82852709  0.45168015  0.75497439  1.0
  Zr  Zr5  1  0.82852709  0.45168015  0.24502561  1.0
  Zr  Zr6  1  0.32852709  0.04831985  0.75497439  1.0
  Zr  Zr7  1  0.32852709  0.04831985  0.24502561  1.0
  Zr  Zr8  1  0.16672185  0.81968636  0.00000000  1.0
  Zr  Zr9  1  0.66672185  0.68031364  0.00000000  1.0
  Zr  Zr10  1  0.83327815  0.18031364  0.00000000  1.0
  Zr  Zr11  1  0.33327815  0.31968636  0.00000000  1.0
  Cr  Cr12  1  0.42039268  0.74285483  0.75025200  1.0
  Cr  Cr13  1  0.42039268  0.74285483  0.24974800  1.0
  Cr  Cr14  1  0.92039268  0.75714517  0.75025200  1.0
  Cr  Cr15  1  0.92039268  0.75714517  0.24974800  1.0
  Cr  Cr16  1  0.57960732  0.25714517  0.75025200  1.0
  Cr  Cr17  1  0.57960732  0.25714517  0.24974800  1.0
  Cr  Cr18  1  0.07960732  0.24285483  0.75025200  1.0
  Cr  Cr19  1  0.07960732  0.24285483  0.24974800  1.0
  Cr  Cr20  1  0.50000000  0.50000000  0.75457500  1.0
  Cr  Cr21  1  0.50000000  0.50000000  0.24542500  1.0
  Cr  Cr22  1  0.00000000  0.00000000  0.75457500  1.0
  Cr  Cr23  1  0.00000000  0.00000000  0.24542500  1.0
  Ge  Ge24  1  0.17205553  0.81899831  0.65710775  1.0
  Ge  Ge25  1  0.17205553  0.81899831  0.34289225  1.0
  Ge  Ge26  1  0.67205553  0.68100169  0.65710775  1.0
  Ge  Ge27  1  0.67205553  0.68100169  0.34289225  1.0
  Ge  Ge28  1  0.82794447  0.18100169  0.65710775  1.0
  Ge  Ge29  1  0.82794447  0.18100169  0.34289225  1.0
  Ge  Ge30  1  0.32794447  0.31899831  0.65710775  1.0
  Ge  Ge31  1  0.32794447  0.31899831  0.34289225  1.0
  Ge  Ge32  1  0.46178246  0.87432512  0.50000000  1.0
  Ge  Ge33  1  0.96178246  0.62567488  0.50000000  1.0
  Ge  Ge34  1  0.53821754  0.12567488  0.50000000  1.0
  Ge  Ge35  1  0.03821754  0.37432512  0.50000000  1.0
  Ge  Ge36  1  0.37609605  0.59294095  0.50000000  1.0
  Ge  Ge37  1  0.87609605  0.90705905  0.50000000  1.0
  Ge  Ge38  1  0.62390395  0.40705905  0.50000000  1.0
  Ge  Ge39  1  0.12390395  0.09294095  0.50000000  1.0
  Ge  Ge40  1  0.45838991  0.87796974  0.00000000  1.0
  Ge  Ge41  1  0.95838991  0.62203026  0.00000000  1.0
  Ge  Ge42  1  0.54161009  0.12203026  0.00000000  1.0
  Ge  Ge43  1  0.04161009  0.37796974  0.00000000  1.0
  Ge  Ge44  1  0.36982726  0.59983764  0.00000000  1.0
  Ge  Ge45  1  0.86982726  0.90016236  0.00000000  1.0
  Ge  Ge46  1  0.63017274  0.40016236  0.00000000  1.0
  Ge  Ge47  1  0.13017274  0.09983764  0.00000000  1.0
