# generated using pymatgen
data_LaCu
_symmetry_space_group_name_H-M   'P 1'
_cell_length_a   7.55904096
_cell_length_b   4.61603386
_cell_length_c   5.73486661
_cell_angle_alpha   90.00000000
_cell_angle_beta   90.00000000
_cell_angle_gamma   90.00000000
_symmetry_Int_Tables_number   1
_chemical_formula_structural   LaCu
_chemical_formula_sum   'La4 Cu4'
_cell_volume   200.10549073
_cell_formula_units_Z   4
loop_
 _symmetry_equiv_pos_site_id
 _symmetry_equiv_pos_as_xyz
  1  'x, y, z'
loop_
 _atom_site_type_symbol
 _atom_site_label
 _atom_site_symmetry_multiplicity
 _atom_site_fract_x
 _atom_site_fract_y
 _atom_site_fract_z
 _atom_site_occupancy
  La  La0  1  0.31988632  0.75000000  0.11601182  1.0
  La  La1  1  0.81988632  0.75000000  0.38398818  1.0
  La  La2  1  0.68011368  0.25000000  0.88398818  1.0
  La  La3  1  0.18011368  0.25000000  0.61601182  1.0
  Cu  Cu4  1  0.46552625  0.75000000  0.61100383  1.0
  Cu  Cu5  1  0.96552625  0.75000000  0.88899617  1.0
  Cu  Cu6  1  0.53447375  0.25000000  0.38899617  1.0
  Cu  Cu7  1  0.03447375  0.25000000  0.11100383  1.0
