# generated using pymatgen
data_Na5AsO5
_symmetry_space_group_name_H-M   'P 1'
_cell_length_a   6.05626943
_cell_length_b   16.65163624
_cell_length_c   6.52852724
_cell_angle_alpha   90.00000000
_cell_angle_beta   90.00000000
_cell_angle_gamma   90.00000000
_symmetry_Int_Tables_number   1
_chemical_formula_structural   Na5AsO5
_chemical_formula_sum   'Na20 As4 O20'
_cell_volume   658.38105080
_cell_formula_units_Z   4
loop_
 _symmetry_equiv_pos_site_id
 _symmetry_equiv_pos_as_xyz
  1  'x, y, z'
loop_
 _atom_site_type_symbol
 _atom_site_label
 _atom_site_symmetry_multiplicity
 _atom_site_fract_x
 _atom_site_fract_y
 _atom_site_fract_z
 _atom_site_occupancy
  As  As0  1  0.69808248  0.40437546  0.25000000  1.0
  As  As1  1  0.69808248  0.09562454  0.75000000  1.0
  As  As2  1  0.30191752  0.90437546  0.25000000  1.0
  As  As3  1  0.30191752  0.59562454  0.75000000  1.0
  O  O4  1  0.75022892  0.34496078  0.46556014  1.0
  O  O5  1  0.75022892  0.34496078  0.03443986  1.0
  O  O6  1  0.75022892  0.15503922  0.96556014  1.0
  O  O7  1  0.75022892  0.15503922  0.53443986  1.0
  O  O8  1  0.24977108  0.84496078  0.46556014  1.0
  O  O9  1  0.24977108  0.84496078  0.03443986  1.0
  O  O10  1  0.24977108  0.65503922  0.96556014  1.0
  O  O11  1  0.24977108  0.65503922  0.53443986  1.0
  O  O12  1  0.89482138  0.48076013  0.25000000  1.0
  O  O13  1  0.89482138  0.01923987  0.75000000  1.0
  O  O14  1  0.10517862  0.98076013  0.25000000  1.0
  O  O15  1  0.10517862  0.51923987  0.75000000  1.0
  O  O16  1  0.42983901  0.44186352  0.25000000  1.0
  O  O17  1  0.42983901  0.05813648  0.75000000  1.0
  O  O18  1  0.57016099  0.94186352  0.25000000  1.0
  O  O19  1  0.57016099  0.55813648  0.75000000  1.0
  O  O20  1  0.26175066  0.17661015  0.25000000  1.0
  O  O21  1  0.26175066  0.32338985  0.75000000  1.0
  O  O22  1  0.73824934  0.67661015  0.25000000  1.0
  O  O23  1  0.73824934  0.82338985  0.75000000  1.0
  Na  Na24  1  0.86316296  0.91414759  0.99316930  1.0
  Na  Na25  1  0.86316296  0.91414759  0.50683070  1.0
  Na  Na26  1  0.86316296  0.58585241  0.49316930  1.0
  Na  Na27  1  0.86316296  0.58585241  0.00683070  1.0
  Na  Na28  1  0.13683704  0.41414759  0.99316930  1.0
  Na  Na29  1  0.13683704  0.41414759  0.50683070  1.0
  Na  Na30  1  0.13683704  0.08585241  0.49316930  1.0
  Na  Na31  1  0.13683704  0.08585241  0.00683070  1.0
  Na  Na32  1  0.91939746  0.23085166  0.25000000  1.0
  Na  Na33  1  0.91939746  0.26914834  0.75000000  1.0
  Na  Na34  1  0.08060254  0.73085166  0.25000000  1.0
  Na  Na35  1  0.08060254  0.76914834  0.75000000  1.0
  Na  Na36  1  0.56376033  0.08977637  0.25000000  1.0
  Na  Na37  1  0.56376033  0.41022363  0.75000000  1.0
  Na  Na38  1  0.43623967  0.58977637  0.25000000  1.0
  Na  Na39  1  0.43623967  0.91022363  0.75000000  1.0
  Na  Na40  1  0.43104416  0.25000000  0.50000000  1.0
  Na  Na41  1  0.43104416  0.25000000  0.00000000  1.0
  Na  Na42  1  0.56895584  0.75000000  0.50000000  1.0
  Na  Na43  1  0.56895584  0.75000000  0.00000000  1.0
