# generated using pymatgen
data_BeCl2
_symmetry_space_group_name_H-M   'P 1'
_cell_length_a   11.51945717
_cell_length_b   11.51945717
_cell_length_c   8.42028494
_cell_angle_alpha   90.00000000
_cell_angle_beta   90.00000000
_cell_angle_gamma   120.00000000
_symmetry_Int_Tables_number   1
_chemical_formula_structural   BeCl2
_chemical_formula_sum   'Be9 Cl18'
_cell_volume   967.65701370
_cell_formula_units_Z   9
loop_
 _symmetry_equiv_pos_site_id
 _symmetry_equiv_pos_as_xyz
  1  'x, y, z'
loop_
 _atom_site_type_symbol
 _atom_site_label
 _atom_site_symmetry_multiplicity
 _atom_site_fract_x
 _atom_site_fract_y
 _atom_site_fract_z
 _atom_site_occupancy
  Be  Be0  1  0.73699277  0.44228942  0.69187885  1.0
  Be  Be1  1  0.70529665  0.26300723  0.02521218  1.0
  Be  Be2  1  0.55771058  0.29470335  0.35854551  1.0
  Be  Be3  1  0.26300723  0.70529665  0.97478782  1.0
  Be  Be4  1  0.44228942  0.73699277  0.30812115  1.0
  Be  Be5  1  0.29470335  0.55771058  0.64145449  1.0
  Be  Be6  1  0.41149927  0.00000000  0.16666667  1.0
  Be  Be7  1  0.58850073  0.58850073  0.50000000  1.0
  Be  Be8  1  0.00000000  0.41149927  0.83333333  1.0
  Cl  Cl9  1  0.57646504  0.27543971  0.59577005  1.0
  Cl  Cl10  1  0.69897467  0.42353496  0.92910338  1.0
  Cl  Cl11  1  0.72456029  0.30102533  0.26243672  1.0
  Cl  Cl12  1  0.30102533  0.72456029  0.73756328  1.0
  Cl  Cl13  1  0.42353496  0.69897467  0.07089662  1.0
  Cl  Cl14  1  0.27543971  0.57646504  0.40422995  1.0
  Cl  Cl15  1  0.76102131  0.61899540  0.60377435  1.0
  Cl  Cl16  1  0.85797409  0.23897869  0.93710768  1.0
  Cl  Cl17  1  0.38100460  0.14202591  0.27044101  1.0
  Cl  Cl18  1  0.07997792  0.54244010  0.01858126  1.0
  Cl  Cl19  1  0.46246218  0.92002208  0.35191459  1.0
  Cl  Cl20  1  0.45755990  0.53753782  0.68524792  1.0
  Cl  Cl21  1  0.23897869  0.85797409  0.06289232  1.0
  Cl  Cl22  1  0.61899540  0.76102131  0.39622565  1.0
  Cl  Cl23  1  0.14202591  0.38100460  0.72955899  1.0
  Cl  Cl24  1  0.92002208  0.46246218  0.64808541  1.0
  Cl  Cl25  1  0.54244010  0.07997792  0.98141874  1.0
  Cl  Cl26  1  0.53753782  0.45755990  0.31475208  1.0
