# generated using pymatgen
data_K2Ti(Si2O5)3
_symmetry_space_group_name_H-M   'P 1'
_cell_length_a   7.35760312
_cell_length_b   7.35760312
_cell_length_c   15.35638084
_cell_angle_alpha   75.92862613
_cell_angle_beta   104.07137387
_cell_angle_gamma   119.82545931
_symmetry_Int_Tables_number   1
_chemical_formula_structural   K2Ti(Si2O5)3
_chemical_formula_sum   'K4 Ti2 Si12 O30'
_cell_volume   692.13955944
_cell_formula_units_Z   2
loop_
 _symmetry_equiv_pos_site_id
 _symmetry_equiv_pos_as_xyz
  1  'x, y, z'
loop_
 _atom_site_type_symbol
 _atom_site_label
 _atom_site_symmetry_multiplicity
 _atom_site_fract_x
 _atom_site_fract_y
 _atom_site_fract_z
 _atom_site_occupancy
  K  K0  1  1.15132900  -0.29999021  0.43663833  1.0
  K  K1  1  0.29999021  -0.15132900  0.93663833  1.0
  K  K2  1  0.86135041  -0.52132368  0.11871131  1.0
  K  K3  1  0.52132368  0.13864959  0.61871131  1.0
  Ti  Ti4  1  1.18853473  -0.68126710  0.04497291  1.0
  Ti  Ti5  1  1.68126710  -0.18853473  0.54497291  1.0
  Si  Si6  1  0.47636917  0.47643636  0.38558352  1.0
  Si  Si7  1  0.52356364  0.52363083  0.88558352  1.0
  Si  Si8  1  1.95280028  -0.04495655  0.20970084  1.0
  Si  Si9  1  1.04495655  -0.95280028  0.70970084  1.0
  Si  Si10  1  1.89162799  -0.01727997  0.89849502  1.0
  Si  Si11  1  1.01727997  -0.89162799  0.39849502  1.0
  Si  Si12  1  1.48192844  -0.30689499  0.18153552  1.0
  Si  Si13  1  1.30689499  -0.48192844  0.68153552  1.0
  Si  Si14  1  1.67117328  0.20832260  0.38802439  1.0
  Si  Si15  1  0.79167740  0.32882672  0.88802439  1.0
  Si  Si16  1  1.38244588  0.04715382  0.19957231  1.0
  Si  Si17  1  0.95284618  0.61755412  0.69957231  1.0
  O  O18  1  0.93865663  0.94251140  0.48809909  1.0
  O  O19  1  0.05748860  0.06134337  -0.01190091  1.0
  O  O20  1  1.95082687  -0.02332125  0.31369227  1.0
  O  O21  1  1.02332125  -0.95082687  0.81369227  1.0
  O  O22  1  1.72812930  -0.25124635  0.17886043  1.0
  O  O23  1  1.25124635  -0.72812930  0.67886043  1.0
  O  O24  1  1.51948295  -0.35637876  0.44750997  1.0
  O  O25  1  1.35637876  0.48051705  0.94750997  1.0
  O  O26  1  1.41042728  -0.45070563  0.27850159  1.0
  O  O27  1  1.45070563  -0.41042728  0.77850159  1.0
  O  O28  1  1.31508744  -0.41679137  0.09759253  1.0
  O  O29  1  1.41679137  -0.31508744  0.59759253  1.0
  O  O30  1  0.72584339  0.08636097  0.87258402  1.0
  O  O31  1  0.91363903  -0.72584339  0.37258402  1.0
  O  O32  1  1.59816555  0.03176261  0.47519397  1.0
  O  O33  1  0.96823739  0.40183445  0.97519397  1.0
  O  O34  1  1.49108061  -0.07615754  0.17469298  1.0
  O  O35  1  1.07615754  0.50891939  0.67469298  1.0
  O  O36  1  1.50804187  0.13170733  0.29613426  1.0
  O  O37  1  0.86829267  0.49195813  0.79613426  1.0
  O  O38  1  1.13417627  -0.12228807  0.21568908  1.0
  O  O39  1  1.12228807  0.86582373  0.71568908  1.0
  O  O40  1  0.56884679  0.31790543  0.89988659  1.0
  O  O41  1  0.68209457  0.43115321  0.39988659  1.0
  O  O42  1  1.40122211  0.24213057  0.12004957  1.0
  O  O43  1  0.75786943  0.59877789  0.62004957  1.0
  O  O44  1  0.27609469  0.24610828  0.41624546  1.0
  O  O45  1  0.75389172  0.72390531  0.91624546  1.0
  O  O46  1  1.00347614  -0.82848085  0.14113402  1.0
  O  O47  1  1.82848085  -0.00347614  0.64113402  1.0
