# generated using pymatgen
data_K2VAgSe2
_symmetry_space_group_name_H-M   'P 1'
_cell_length_a   18.70055109
_cell_length_b   17.79406082
_cell_length_c   7.14282351
_cell_angle_alpha   85.95348878
_cell_angle_beta   71.65051740
_cell_angle_gamma   22.39599382
_symmetry_Int_Tables_number   1
_chemical_formula_structural   K2VAgSe2
_chemical_formula_sum   'K8 V4 Ag4 Se8'
_cell_volume   681.27785375
_cell_formula_units_Z   4
loop_
 _symmetry_equiv_pos_site_id
 _symmetry_equiv_pos_as_xyz
  1  'x, y, z'
loop_
 _atom_site_type_symbol
 _atom_site_label
 _atom_site_symmetry_multiplicity
 _atom_site_fract_x
 _atom_site_fract_y
 _atom_site_fract_z
 _atom_site_occupancy
  K  K0  1  1.13448084  0.43836566  0.60101605  1.0
  K  K1  1  0.82613745  0.60101605  0.43836566  1.0
  K  K2  1  0.81163434  1.11551916  0.42386255  1.0
  K  K3  1  0.64898395  0.42386255  1.11551916  1.0
  K  K4  1  1.60101605  -0.17386255  0.13448084  1.0
  K  K5  1  1.43836566  0.13448084  -0.17386255  1.0
  K  K6  1  0.42386255  0.64898395  0.81163434  1.0
  K  K7  1  1.11551916  0.81163434  0.64898395  1.0
  V  V8  1  1.12500000  0.12500000  0.62500000  1.0
  V  V9  1  1.12500000  0.62500000  0.12500000  1.0
  V  V10  1  1.12500000  0.12500000  0.12500000  1.0
  V  V11  1  1.62500000  0.12500000  0.12500000  1.0
  Ag  Ag12  1  0.62500000  0.62500000  1.12500000  1.0
  Ag  Ag13  1  0.62500000  1.12500000  0.62500000  1.0
  Ag  Ag14  1  0.62500000  0.62500000  0.62500000  1.0
  Ag  Ag15  1  1.12500000  0.62500000  0.62500000  1.0
  Se  Se16  1  1.16909683  -0.04758108  0.59856594  1.0
  Se  Se17  1  1.27991831  0.59856594  -0.04758108  1.0
  Se  Se18  1  0.29758108  1.08090317  0.97008169  1.0
  Se  Se19  1  0.65143406  0.97008169  1.08090317  1.0
  Se  Se20  1  1.59856594  0.27991831  0.16909683  1.0
  Se  Se21  1  0.95241892  0.16909683  0.27991831  1.0
  Se  Se22  1  0.97008169  0.65143406  0.29758108  1.0
  Se  Se23  1  1.08090317  0.29758108  0.65143406  1.0
