# generated using pymatgen
data_Gd(NiSn)2
_symmetry_space_group_name_H-M   'P 1'
_cell_length_a   4.47591033
_cell_length_b   4.38555239
_cell_length_c   10.10373175
_cell_angle_alpha   90.00000000
_cell_angle_beta   92.66624256
_cell_angle_gamma   90.00000000
_symmetry_Int_Tables_number   1
_chemical_formula_structural   Gd(NiSn)2
_chemical_formula_sum   'Gd2 Ni4 Sn4'
_cell_volume   198.11487735
_cell_formula_units_Z   2
loop_
 _symmetry_equiv_pos_site_id
 _symmetry_equiv_pos_as_xyz
  1  'x, y, z'
loop_
 _atom_site_type_symbol
 _atom_site_label
 _atom_site_symmetry_multiplicity
 _atom_site_fract_x
 _atom_site_fract_y
 _atom_site_fract_z
 _atom_site_occupancy
  Gd  Gd0  1  0.72888422  0.01929958  0.23850947  1.0
  Gd  Gd1  1  0.27111578  0.51929958  0.76149053  1.0
  Ni  Ni2  1  0.76477434  0.01962203  0.63080220  1.0
  Ni  Ni3  1  0.23522566  0.51962203  0.36919780  1.0
  Ni  Ni4  1  0.68276246  0.51929662  0.99991142  1.0
  Ni  Ni5  1  0.31723754  1.01929662  0.00008858  1.0
  Sn  Sn6  1  0.79753890  0.01928359  0.87874700  1.0
  Sn  Sn7  1  0.20246110  0.51928359  0.12125300  1.0
  Sn  Sn8  1  0.74875932  0.51959817  0.49850597  1.0
  Sn  Sn9  1  0.25124068  0.01959817  0.50149403  1.0
