# generated using pymatgen
data_LiH4SeNO4
_symmetry_space_group_name_H-M   'P 1'
_cell_length_a   17.45390657
_cell_length_b   5.29545266
_cell_length_c   5.31883364
_cell_angle_alpha   90.00000000
_cell_angle_beta   90.00000000
_cell_angle_gamma   90.00000000
_symmetry_Int_Tables_number   1
_chemical_formula_structural   LiH4SeNO4
_chemical_formula_sum   'Li4 H16 Se4 N4 O16'
_cell_volume   491.60030498
_cell_formula_units_Z   4
loop_
 _symmetry_equiv_pos_site_id
 _symmetry_equiv_pos_as_xyz
  1  'x, y, z'
loop_
 _atom_site_type_symbol
 _atom_site_label
 _atom_site_symmetry_multiplicity
 _atom_site_fract_x
 _atom_site_fract_y
 _atom_site_fract_z
 _atom_site_occupancy
  Li  Li0  1  0.50193594  0.68512262  0.38460384  1.0
  Li  Li1  1  1.00193594  0.81487738  0.38460384  1.0
  Li  Li2  1  0.49806406  0.31487738  0.88460384  1.0
  Li  Li3  1  -0.00193594  0.18512262  0.88460384  1.0
  H  H4  1  0.36267484  0.85771694  -0.00132300  1.0
  H  H5  1  0.86267484  0.64228306  -0.00132300  1.0
  H  H6  1  0.63732516  0.14228306  0.49867700  1.0
  H  H7  1  0.13732516  0.35771694  0.49867700  1.0
  H  H8  1  0.22250383  0.23564479  0.40739150  1.0
  H  H9  1  0.72250383  0.26435521  0.40739150  1.0
  H  H10  1  0.77749617  0.76435521  0.90739150  1.0
  H  H11  1  0.27749617  0.73564479  0.90739150  1.0
  H  H12  1  0.14465674  0.04368141  0.44873004  1.0
  H  H13  1  0.64465674  0.45631859  0.44873004  1.0
  H  H14  1  0.85534326  0.95631859  0.94873004  1.0
  H  H15  1  0.35534326  0.54368141  0.94873004  1.0
  H  H16  1  0.14551516  0.25267770  0.20493910  1.0
  H  H17  1  0.64551516  0.24732230  0.20493910  1.0
  H  H18  1  0.85448484  0.74732230  0.70493910  1.0
  H  H19  1  0.35448484  0.75267770  0.70493910  1.0
  Se  Se20  1  0.39863003  0.19666608  0.38459600  1.0
  Se  Se21  1  0.89863003  0.30333392  0.38459600  1.0
  Se  Se22  1  0.60136997  0.80333392  0.88459600  1.0
  Se  Se23  1  0.10136997  0.69666608  0.88459600  1.0
  N  N24  1  0.16282655  0.22079289  0.38936801  1.0
  N  N25  1  0.66282655  0.27920711  0.38936801  1.0
  N  N26  1  0.83717345  0.77920711  0.88936801  1.0
  N  N27  1  0.33717345  0.72079289  0.88936801  1.0
  O  O28  1  0.47107211  0.35243160  0.52263232  1.0
  O  O29  1  0.97107211  0.14756840  0.52263232  1.0
  O  O30  1  0.52892789  0.64756840  0.02263232  1.0
  O  O31  1  0.02892789  0.85243160  0.02263232  1.0
  O  O32  1  0.40292779  0.24335375  0.07249517  1.0
  O  O33  1  0.90292779  0.25664625  0.07249517  1.0
  O  O34  1  0.59707221  0.75664625  0.57249517  1.0
  O  O35  1  0.09707221  0.74335375  0.57249517  1.0
  O  O36  1  0.40924585  0.88656919  0.43411863  1.0
  O  O37  1  0.90924585  0.61343081  0.43411863  1.0
  O  O38  1  0.59075415  0.11343081  0.93411863  1.0
  O  O39  1  0.09075415  0.38656919  0.93411863  1.0
  O  O40  1  0.31587618  0.29590270  0.49774839  1.0
  O  O41  1  0.81587618  0.20409730  0.49774839  1.0
  O  O42  1  0.68412382  0.70409730  0.99774839  1.0
  O  O43  1  0.18412382  0.79590270  0.99774839  1.0
