# generated using pymatgen
data_Mn5V2(HO3)4
_symmetry_space_group_name_H-M   'P 1'
_cell_length_a   6.78201228
_cell_length_b   6.78201228
_cell_length_c   5.38738421
_cell_angle_alpha   85.06417906
_cell_angle_beta   94.93582094
_cell_angle_gamma   90.17156531
_symmetry_Int_Tables_number   1
_chemical_formula_structural   Mn5V2(HO3)4
_chemical_formula_sum   'Mn5 V2 H4 O12'
_cell_volume   245.95963155
_cell_formula_units_Z   1
loop_
 _symmetry_equiv_pos_site_id
 _symmetry_equiv_pos_as_xyz
  1  'x, y, z'
loop_
 _atom_site_type_symbol
 _atom_site_label
 _atom_site_symmetry_multiplicity
 _atom_site_fract_x
 _atom_site_fract_y
 _atom_site_fract_z
 _atom_site_occupancy
  H  H0  1  1.37799672  -0.03334015  0.83559472  1.0
  H  H1  1  1.03334015  -0.37799672  0.83559472  1.0
  H  H2  1  0.96665985  0.37799672  0.16440528  1.0
  H  H3  1  0.62200328  0.03334015  0.16440528  1.0
  O  O4  1  1.51442142  -0.21992219  0.62796373  1.0
  O  O5  1  1.21992219  -0.51442142  0.62796373  1.0
  O  O6  1  0.78007781  0.51442142  0.37203627  1.0
  O  O7  1  0.48557858  0.21992219  0.37203627  1.0
  O  O8  1  0.87363177  0.12636823  0.61931428  1.0
  O  O9  1  1.12636823  -0.12636823  0.38068572  1.0
  O  O10  1  0.61858686  0.38141314  0.83529116  1.0
  O  O11  1  1.38141314  -0.38141314  0.16470884  1.0
  O  O12  1  0.28075469  0.06874781  0.85937798  1.0
  O  O13  1  0.93125219  0.71924531  0.85937798  1.0
  O  O14  1  1.06874781  -0.71924531  0.14062202  1.0
  O  O15  1  1.71924531  -0.06874781  0.14062202  1.0
  Mn  Mn16  1  0.00000000  0.00000000  0.00000000  1.0
  Mn  Mn17  1  0.81569570  0.81569570  0.50000000  1.0
  Mn  Mn18  1  0.18430430  0.18430430  0.50000000  1.0
  Mn  Mn19  1  0.65183239  0.65183239  -0.00000000  1.0
  Mn  Mn20  1  0.34816761  0.34816761  -0.00000000  1.0
  V  V21  1  0.68894026  0.31105974  0.54964835  1.0
  V  V22  1  1.31105974  -0.31105974  0.45035165  1.0
