# generated using pymatgen
data_LiCa2SiN3
_symmetry_space_group_name_H-M   'P 1'
_cell_length_a   6.30916723
_cell_length_b   5.96550626
_cell_length_c   9.63411640
_cell_angle_alpha   90.00000000
_cell_angle_beta   94.86883607
_cell_angle_gamma   90.00000000
_symmetry_Int_Tables_number   1
_chemical_formula_structural   LiCa2SiN3
_chemical_formula_sum   'Li4 Ca8 Si4 N12'
_cell_volume   361.29445375
_cell_formula_units_Z   4
loop_
 _symmetry_equiv_pos_site_id
 _symmetry_equiv_pos_as_xyz
  1  'x, y, z'
loop_
 _atom_site_type_symbol
 _atom_site_label
 _atom_site_symmetry_multiplicity
 _atom_site_fract_x
 _atom_site_fract_y
 _atom_site_fract_z
 _atom_site_occupancy
  Li  Li0  1  0.17774379  0.63679339  0.58657502  1.0
  Li  Li1  1  0.82225621  0.36320661  0.41342498  1.0
  Li  Li2  1  0.82225621  0.13679339  0.91342498  1.0
  Li  Li3  1  0.17774379  0.86320661  0.08657502  1.0
  Ca  Ca4  1  0.08888039  0.19197884  0.67100315  1.0
  Ca  Ca5  1  0.91111961  0.80802116  0.32899685  1.0
  Ca  Ca6  1  0.91111961  0.69197884  0.82899685  1.0
  Ca  Ca7  1  0.08888039  0.30802116  0.17100315  1.0
  Ca  Ca8  1  0.44471495  0.63213128  0.34057011  1.0
  Ca  Ca9  1  0.55528505  0.36786872  0.65942989  1.0
  Ca  Ca10  1  0.55528505  0.13213128  0.15942989  1.0
  Ca  Ca11  1  0.44471495  0.86786872  0.84057011  1.0
  Si  Si12  1  0.34662113  0.09869322  0.42552429  1.0
  Si  Si13  1  0.65337887  0.90130678  0.57447571  1.0
  Si  Si14  1  0.65337887  0.59869322  0.07447571  1.0
  Si  Si15  1  0.34662113  0.40130678  0.92552429  1.0
  N  N16  1  0.23314351  0.52708217  0.77666879  1.0
  N  N17  1  0.76685649  0.47291783  0.22333121  1.0
  N  N18  1  0.76685649  0.02708217  0.72333121  1.0
  N  N19  1  0.23314351  0.97291783  0.27666879  1.0
  N  N20  1  0.24186769  0.13573410  0.95255793  1.0
  N  N21  1  0.75813231  0.86426590  0.04744207  1.0
  N  N22  1  0.75813231  0.63573410  0.54744207  1.0
  N  N23  1  0.24186769  0.36426590  0.45255793  1.0
  N  N24  1  0.35903325  0.56650788  0.08279219  1.0
  N  N25  1  0.64096675  0.43349212  0.91720781  1.0
  N  N26  1  0.64096675  0.06650788  0.41720781  1.0
  N  N27  1  0.35903325  0.93349212  0.58279219  1.0
