# generated using pymatgen
data_Sb
_symmetry_space_group_name_H-M   'P 1'
_cell_length_a   4.60018030
_cell_length_b   4.60018030
_cell_length_c   4.60018030
_cell_angle_alpha   56.79582604
_cell_angle_beta   56.79582604
_cell_angle_gamma   56.79582604
_symmetry_Int_Tables_number   1
_chemical_formula_structural   Sb
_chemical_formula_sum   Sb2
_cell_volume   63.74435033
_cell_formula_units_Z   2
loop_
 _symmetry_equiv_pos_site_id
 _symmetry_equiv_pos_as_xyz
  1  'x, y, z'
loop_
 _atom_site_type_symbol
 _atom_site_label
 _atom_site_symmetry_multiplicity
 _atom_site_fract_x
 _atom_site_fract_y
 _atom_site_fract_z
 _atom_site_occupancy
  Sb  Sb0  1  0.26722615  0.26722615  0.26722615  1.0
  Sb  Sb1  1  0.73277385  -0.26722615  -0.26722615  1.0
