# generated using pymatgen
data_Na3AgS2
_symmetry_space_group_name_H-M   'P 1'
_cell_length_a   7.90414700
_cell_length_b   7.90414700
_cell_length_c   7.90414700
_cell_angle_alpha   131.94141360
_cell_angle_beta   74.12573190
_cell_angle_gamma   127.24013275
_symmetry_Int_Tables_number   1
_chemical_formula_structural   Na3AgS2
_chemical_formula_sum   'Na6 Ag2 S4'
_cell_volume   285.18264218
_cell_formula_units_Z   2
loop_
 _symmetry_equiv_pos_site_id
 _symmetry_equiv_pos_as_xyz
  1  'x, y, z'
loop_
 _atom_site_type_symbol
 _atom_site_label
 _atom_site_symmetry_multiplicity
 _atom_site_fract_x
 _atom_site_fract_y
 _atom_site_fract_z
 _atom_site_occupancy
  Na  Na0  1  1.01797498  0.25000000  0.76797498  1.0
  Na  Na1  1  1.51797498  0.75000000  0.76797498  1.0
  Na  Na2  1  0.98202502  0.75000000  1.23202502  1.0
  Na  Na3  1  1.48202502  1.25000000  1.23202502  1.0
  Na  Na4  1  0.25000000  0.75000000  0.50000000  1.0
  Na  Na5  1  0.75000000  1.25000000  0.50000000  1.0
  Ag  Ag6  1  0.50000000  0.50000000  0.00000000  1.0
  Ag  Ag7  1  0.00000000  0.00000000  0.00000000  1.0
  S  S8  1  1.36873327  1.23005751  1.59879079  1.0
  S  S9  1  1.13126673  0.73005751  0.86132424  1.0
  S  S10  1  0.86873327  0.26994249  1.13867576  1.0
  S  S11  1  0.63126673  0.76994249  1.40120921  1.0
