# generated using pymatgen
data_Ba(ScTe2)2
_symmetry_space_group_name_H-M   'P 1'
_cell_length_a   13.44180574
_cell_length_b   4.31843186
_cell_length_c   15.69995285
_cell_angle_alpha   90.00000000
_cell_angle_beta   90.00000000
_cell_angle_gamma   90.00000000
_symmetry_Int_Tables_number   1
_chemical_formula_structural   Ba(ScTe2)2
_chemical_formula_sum   'Ba4 Sc8 Te16'
_cell_volume   911.34336045
_cell_formula_units_Z   4
loop_
 _symmetry_equiv_pos_site_id
 _symmetry_equiv_pos_as_xyz
  1  'x, y, z'
loop_
 _atom_site_type_symbol
 _atom_site_label
 _atom_site_symmetry_multiplicity
 _atom_site_fract_x
 _atom_site_fract_y
 _atom_site_fract_z
 _atom_site_occupancy
  Ba  Ba0  1  0.76263943  0.75000000  0.67226028  1.0
  Ba  Ba1  1  0.26263943  0.75000000  0.82773972  1.0
  Ba  Ba2  1  0.23736057  0.25000000  0.32773972  1.0
  Ba  Ba3  1  0.73736057  0.25000000  0.17226028  1.0
  Sc  Sc4  1  0.92011203  0.75000000  0.40366850  1.0
  Sc  Sc5  1  0.42011203  0.75000000  0.09633150  1.0
  Sc  Sc6  1  0.07988797  0.25000000  0.59633150  1.0
  Sc  Sc7  1  0.57988797  0.25000000  0.90366850  1.0
  Sc  Sc8  1  0.44382686  0.75000000  0.60976442  1.0
  Sc  Sc9  1  0.94382686  0.75000000  0.89023558  1.0
  Sc  Sc10  1  0.55617314  0.25000000  0.39023558  1.0
  Sc  Sc11  1  0.05617314  0.25000000  0.10976442  1.0
  Te  Te12  1  0.91253735  0.75000000  0.07375399  1.0
  Te  Te13  1  0.41253735  0.75000000  0.42624601  1.0
  Te  Te14  1  0.08746265  0.25000000  0.92624601  1.0
  Te  Te15  1  0.58746265  0.25000000  0.57375399  1.0
  Te  Te16  1  0.70298937  0.75000000  0.35046119  1.0
  Te  Te17  1  0.20298937  0.75000000  0.14953881  1.0
  Te  Te18  1  0.29701063  0.25000000  0.64953881  1.0
  Te  Te19  1  0.79701063  0.25000000  0.85046119  1.0
  Te  Te20  1  0.62186134  0.75000000  0.02610134  1.0
  Te  Te21  1  0.12186134  0.75000000  0.47389866  1.0
  Te  Te22  1  0.37813866  0.25000000  0.97389866  1.0
  Te  Te23  1  0.87813866  0.25000000  0.52610134  1.0
  Te  Te24  1  0.52868111  0.75000000  0.78475900  1.0
  Te  Te25  1  0.02868111  0.75000000  0.71524100  1.0
  Te  Te26  1  0.47131889  0.25000000  0.21524100  1.0
  Te  Te27  1  0.97131889  0.25000000  0.28475900  1.0
