# generated using pymatgen
data_Na3GaSe3
_symmetry_space_group_name_H-M   'P 1'
_cell_length_a   7.56612135
_cell_length_b   7.34431835
_cell_length_c   15.27473769
_cell_angle_alpha   90.00000000
_cell_angle_beta   119.28093138
_cell_angle_gamma   90.00000000
_symmetry_Int_Tables_number   1
_chemical_formula_structural   Na3GaSe3
_chemical_formula_sum   'Na12 Ga4 Se12'
_cell_volume   740.33898712
_cell_formula_units_Z   4
loop_
 _symmetry_equiv_pos_site_id
 _symmetry_equiv_pos_as_xyz
  1  'x, y, z'
loop_
 _atom_site_type_symbol
 _atom_site_label
 _atom_site_symmetry_multiplicity
 _atom_site_fract_x
 _atom_site_fract_y
 _atom_site_fract_z
 _atom_site_occupancy
  Na  Na0  1  0.44094496  0.02954138  0.71263272  1.0
  Na  Na1  1  0.44094496  0.47045862  0.21263272  1.0
  Na  Na2  1  0.55905504  0.52954138  0.78736728  1.0
  Na  Na3  1  0.55905504  0.97045862  0.28736728  1.0
  Na  Na4  1  0.18487700  0.50415152  0.89515136  1.0
  Na  Na5  1  0.18487700  -0.00415152  0.39515136  1.0
  Na  Na6  1  0.81512300  1.00415152  0.60484864  1.0
  Na  Na7  1  0.81512300  0.49584848  0.10484864  1.0
  Na  Na8  1  0.77257855  0.50367992  0.60670237  1.0
  Na  Na9  1  0.77257855  -0.00367992  0.10670237  1.0
  Na  Na10  1  0.22742145  1.00367992  0.89329763  1.0
  Na  Na11  1  0.22742145  0.49632008  0.39329763  1.0
  Ga  Ga12  1  0.16686138  0.64437587  0.58199685  1.0
  Ga  Ga13  1  0.16686138  0.85562413  0.08199685  1.0
  Ga  Ga14  1  0.83313862  0.14437587  0.91800315  1.0
  Ga  Ga15  1  0.83313862  0.35562413  0.41800315  1.0
  Se  Se16  1  0.15369799  0.30456520  0.57354239  1.0
  Se  Se17  1  0.15369799  0.19543480  0.07354239  1.0
  Se  Se18  1  0.84630201  0.80456520  0.92645761  1.0
  Se  Se19  1  0.84630201  0.69543480  0.42645761  1.0
  Se  Se20  1  0.84418200  0.24874254  0.77175329  1.0
  Se  Se21  1  0.84418200  0.25125746  0.27175329  1.0
  Se  Se22  1  0.15581800  0.74874254  0.72824671  1.0
  Se  Se23  1  0.15581800  0.75125746  0.22824671  1.0
  Se  Se24  1  0.54925773  0.26076482  0.92925367  1.0
  Se  Se25  1  0.54925773  0.23923518  0.42925367  1.0
  Se  Se26  1  0.45074227  0.76076482  0.57074633  1.0
  Se  Se27  1  0.45074227  0.73923518  0.07074633  1.0
