# generated using pymatgen
data_H7C3N9O2
_symmetry_space_group_name_H-M   'P 1'
_cell_length_a   8.62267246
_cell_length_b   7.58234496
_cell_length_c   8.23477263
_cell_angle_alpha   66.03171180
_cell_angle_beta   62.79023916
_cell_angle_gamma   74.33257400
_symmetry_Int_Tables_number   1
_chemical_formula_structural   H7C3N9O2
_chemical_formula_sum   'H14 C6 N18 O4'
_cell_volume   435.16267945
_cell_formula_units_Z   2
loop_
 _symmetry_equiv_pos_site_id
 _symmetry_equiv_pos_as_xyz
  1  'x, y, z'
loop_
 _atom_site_type_symbol
 _atom_site_label
 _atom_site_symmetry_multiplicity
 _atom_site_fract_x
 _atom_site_fract_y
 _atom_site_fract_z
 _atom_site_occupancy
  H  H0  1  -0.69822717  -0.78229220  0.81495452  1.0
  H  H1  1  0.69822717  -0.21770780  0.18504548  1.0
  H  H2  1  0.31145644  -0.68266504  0.40279357  1.0
  H  H3  1  -0.31145644  -0.31733496  0.59720643  1.0
  H  H4  1  -0.57317423  -0.65336754  0.82896954  1.0
  H  H5  1  0.57317423  -0.34663246  0.17103046  1.0
  H  H6  1  -0.78888052  -0.58125767  0.87677958  1.0
  H  H7  1  0.78888052  -0.41874233  0.12322042  1.0
  H  H8  1  0.23341006  -0.32102062  0.49763734  1.0
  H  H9  1  -0.23341006  -0.67897938  0.50236266  1.0
  H  H10  1  0.03567510  -0.28113061  0.66378421  1.0
  H  H11  1  -0.03567510  -0.71886939  0.33621579  1.0
  H  H12  1  -0.27276875  -0.21788440  0.96405539  1.0
  H  H13  1  0.27276875  -0.78211560  0.03594461  1.0
  C  C14  1  0.23259738  -0.94941387  0.43916896  1.0
  C  C15  1  -0.23259738  -0.05058613  0.56083104  1.0
  C  C16  1  0.76215232  -0.78222845  0.08093126  1.0
  C  C17  1  -0.76215232  -0.21777155  0.91906874  1.0
  C  C18  1  0.25042264  -0.08241027  0.72971949  1.0
  C  C19  1  -0.25042264  -0.91758973  0.27028051  1.0
  N  N20  1  0.29568423  -0.90560927  0.65962562  1.0
  N  N21  1  -0.29568423  -0.09439073  0.34037438  1.0
  N  N22  1  0.28725339  -0.82666815  0.48196194  1.0
  N  N23  1  -0.28725339  -0.17333185  0.51803806  1.0
  N  N24  1  -0.35187639  -0.76697188  1.00462617  1.0
  N  N25  1  0.35187639  -0.23302812  -0.00462617  1.0
  N  N26  1  -0.69743091  -0.70050064  0.89064627  1.0
  N  N27  1  0.69743091  -0.29949936  0.10935373  1.0
  N  N28  1  -0.11106158  -0.66217487  0.96127101  1.0
  N  N29  1  0.11106158  -0.33782513  0.03872899  1.0
  N  N30  1  -0.28717180  -0.63150110  0.83353120  1.0
  N  N31  1  0.28717180  -0.36849890  0.16646880  1.0
  N  N32  1  -0.14321761  -0.56569807  0.80222541  1.0
  N  N33  1  0.14321761  -0.43430193  0.19777459  1.0
  N  N34  1  0.16810043  -0.29332096  0.62704323  1.0
  N  N35  1  -0.16810043  -0.70667904  0.37295677  1.0
  N  N36  1  0.21195047  -0.11765504  0.60196304  1.0
  N  N37  1  -0.21195047  -0.88234496  0.39803696  1.0
  O  O38  1  0.20551608  -0.92640829  0.29581511  1.0
  O  O39  1  -0.20551608  -0.07359171  0.70418489  1.0
  O  O40  1  -0.35999837  -0.56296656  0.70912348  1.0
  O  O41  1  0.35999837  -0.43703344  0.29087652  1.0
