# generated using pymatgen
data_Ba(Ni2B)6
_symmetry_space_group_name_H-M   'P 1'
_cell_length_a   6.12634649
_cell_length_b   6.12634649
_cell_length_c   6.12634649
_cell_angle_alpha   104.65427475
_cell_angle_beta   104.65427475
_cell_angle_gamma   104.65427475
_symmetry_Int_Tables_number   1
_chemical_formula_structural   Ba(Ni2B)6
_chemical_formula_sum   'Ba1 Ni12 B6'
_cell_volume   202.50078247
_cell_formula_units_Z   1
loop_
 _symmetry_equiv_pos_site_id
 _symmetry_equiv_pos_as_xyz
  1  'x, y, z'
loop_
 _atom_site_type_symbol
 _atom_site_label
 _atom_site_symmetry_multiplicity
 _atom_site_fract_x
 _atom_site_fract_y
 _atom_site_fract_z
 _atom_site_occupancy
  Ba  Ba0  1  0.00000000  0.00000000  0.00000000  1.0
  Ni  Ni1  1  1.53469585  0.53469585  -0.18786214  1.0
  Ni  Ni2  1  1.53469585  -0.18786214  0.53469585  1.0
  Ni  Ni3  1  1.18786214  0.46530415  -0.53469585  1.0
  Ni  Ni4  1  0.46530415  1.18786214  -0.53469585  1.0
  Ni  Ni5  1  0.46530415  0.46530415  0.18786214  1.0
  Ni  Ni6  1  0.81213786  0.53469585  0.53469585  1.0
  Ni  Ni7  1  1.13258673  0.50000000  -0.13258673  1.0
  Ni  Ni8  1  1.13258673  -0.13258673  0.50000000  1.0
  Ni  Ni9  1  0.50000000  1.13258673  -0.13258673  1.0
  Ni  Ni10  1  0.50000000  0.86741327  0.13258673  1.0
  Ni  Ni11  1  0.86741327  0.50000000  0.13258673  1.0
  Ni  Ni12  1  0.86741327  0.13258673  0.50000000  1.0
  B  B13  1  1.23148816  0.23148816  -0.35138065  1.0
  B  B14  1  1.23148816  -0.35138065  0.23148816  1.0
  B  B15  1  1.35138065  0.76851184  -0.23148816  1.0
  B  B16  1  0.76851184  1.35138065  -0.23148816  1.0
  B  B17  1  0.76851184  0.76851184  0.35138065  1.0
  B  B18  1  0.64861935  0.23148816  0.23148816  1.0
