# generated using pymatgen
data_KYb3F10
_symmetry_space_group_name_H-M   'P 1'
_cell_length_a   8.20254623
_cell_length_b   8.20254623
_cell_length_c   8.20254623
_cell_angle_alpha   60.00000000
_cell_angle_beta   60.00000000
_cell_angle_gamma   60.00000000
_symmetry_Int_Tables_number   1
_chemical_formula_structural   KYb3F10
_chemical_formula_sum   'K2 Yb6 F20'
_cell_volume   390.23935325
_cell_formula_units_Z   2
loop_
 _symmetry_equiv_pos_site_id
 _symmetry_equiv_pos_as_xyz
  1  'x, y, z'
loop_
 _atom_site_type_symbol
 _atom_site_label
 _atom_site_symmetry_multiplicity
 _atom_site_fract_x
 _atom_site_fract_y
 _atom_site_fract_z
 _atom_site_occupancy
  K  K0  1  0.75000000  0.75000000  -0.25000000  1.0
  K  K1  1  1.25000000  0.25000000  0.25000000  1.0
  Yb  Yb2  1  -0.75960229  0.75960229  0.75960229  1.0
  Yb  Yb3  1  -0.24039771  0.24039771  0.75960229  1.0
  Yb  Yb4  1  0.75960229  0.75960229  -0.75960229  1.0
  Yb  Yb5  1  0.24039771  1.24039771  -0.24039771  1.0
  Yb  Yb6  1  0.24039771  -0.24039771  1.24039771  1.0
  Yb  Yb7  1  -0.24039771  0.24039771  0.24039771  1.0
  F  F8  1  1.17063644  0.50000000  0.50000000  1.0
  F  F9  1  1.50000000  -0.17063644  0.17063644  1.0
  F  F10  1  0.50000000  1.17063644  -0.17063644  1.0
  F  F11  1  0.82936356  0.50000000  -0.50000000  1.0
  F  F12  1  0.50000000  1.17063644  -0.50000000  1.0
  F  F13  1  -0.17063644  1.50000000  0.17063644  1.0
  F  F14  1  0.50000000  -0.50000000  1.17063644  1.0
  F  F15  1  -0.17063644  0.17063644  0.50000000  1.0
  F  F16  1  0.17063644  1.50000000  -0.17063644  1.0
  F  F17  1  0.50000000  0.82936356  -0.50000000  1.0
  F  F18  1  0.17063644  -0.17063644  1.50000000  1.0
  F  F19  1  -0.50000000  0.50000000  0.82936356  1.0
  F  F20  1  0.88779204  0.88779204  -0.11220796  1.0
  F  F21  1  1.11220796  0.11220796  0.66337612  1.0
  F  F22  1  1.11220796  0.66337612  0.11220796  1.0
  F  F23  1  0.33662388  0.88779204  -0.11220796  1.0
  F  F24  1  1.66337612  0.11220796  0.11220796  1.0
  F  F25  1  0.88779204  0.33662388  -0.11220796  1.0
  F  F26  1  0.88779204  0.88779204  -0.66337612  1.0
  F  F27  1  1.11220796  0.11220796  0.11220796  1.0
