# generated using pymatgen
data_Cs4Hf3Se14
_symmetry_space_group_name_H-M   'P 1'
_cell_length_a   12.34442411
_cell_length_b   12.34442411
_cell_length_c   15.16793701
_cell_angle_alpha   68.88781226
_cell_angle_beta   111.11218774
_cell_angle_gamma   137.06770429
_symmetry_Int_Tables_number   1
_chemical_formula_structural   Cs4Hf3Se14
_chemical_formula_sum   'Cs8 Hf6 Se28'
_cell_volume   1451.64533469
_cell_formula_units_Z   2
loop_
 _symmetry_equiv_pos_site_id
 _symmetry_equiv_pos_as_xyz
  1  'x, y, z'
loop_
 _atom_site_type_symbol
 _atom_site_label
 _atom_site_symmetry_multiplicity
 _atom_site_fract_x
 _atom_site_fract_y
 _atom_site_fract_z
 _atom_site_occupancy
  Cs  Cs0  1  0.62212202  0.01497051  0.39891552  1.0
  Cs  Cs1  1  0.98502949  0.37787798  0.89891552  1.0
  Cs  Cs2  1  1.01497051  0.62212202  0.10108448  1.0
  Cs  Cs3  1  0.37787798  -0.01497051  0.60108448  1.0
  Cs  Cs4  1  0.31738546  0.18500110  0.14861128  1.0
  Cs  Cs5  1  0.81499890  0.68261454  0.64861128  1.0
  Cs  Cs6  1  1.18500110  0.31738546  0.35138872  1.0
  Cs  Cs7  1  0.68261454  -0.18500110  0.85138872  1.0
  Hf  Hf8  1  0.58801019  -0.07512916  0.08767756  1.0
  Hf  Hf9  1  1.07512916  0.41198981  0.58767756  1.0
  Hf  Hf10  1  0.92487084  0.58801019  0.41232244  1.0
  Hf  Hf11  1  0.41198981  0.07512916  0.91232244  1.0
  Hf  Hf12  1  0.75975651  0.75975651  0.25000000  1.0
  Hf  Hf13  1  0.24024349  0.24024349  0.75000000  1.0
  Se  Se14  1  0.79684424  -0.13183905  0.39506254  1.0
  Se  Se15  1  1.13183905  0.20315576  0.89506254  1.0
  Se  Se16  1  0.86816095  0.79684424  0.10493746  1.0
  Se  Se17  1  0.20315576  0.13183905  0.60493746  1.0
  Se  Se18  1  0.53998276  -0.33240805  0.08326583  1.0
  Se  Se19  1  1.33240805  0.46001724  0.58326583  1.0
  Se  Se20  1  0.66759195  0.53998276  0.41673417  1.0
  Se  Se21  1  0.46001724  0.33240805  0.91673417  1.0
  Se  Se22  1  0.90057846  0.06263501  0.13680143  1.0
  Se  Se23  1  0.93736499  0.09942154  0.63680143  1.0
  Se  Se24  1  1.06263501  0.90057846  0.36319857  1.0
  Se  Se25  1  0.09942154  -0.06263501  0.86319857  1.0
  Se  Se26  1  0.54396875  -0.25448516  0.27598236  1.0
  Se  Se27  1  1.25448516  0.45603125  0.77598236  1.0
  Se  Se28  1  0.74551484  0.54396875  0.22401764  1.0
  Se  Se29  1  0.45603125  0.25448516  0.72401764  1.0
  Se  Se30  1  0.43121475  -0.00357369  0.09540356  1.0
  Se  Se31  1  1.00357369  0.56878525  0.59540356  1.0
  Se  Se32  1  0.99642631  0.43121475  0.40459644  1.0
  Se  Se33  1  0.56878525  0.00357369  0.90459644  1.0
  Se  Se34  1  0.18904425  -0.16332061  0.33290329  1.0
  Se  Se35  1  1.16332061  0.81095575  0.83290329  1.0
  Se  Se36  1  0.83667939  0.18904425  0.16709671  1.0
  Se  Se37  1  0.81095575  0.16332061  0.66709671  1.0
  Se  Se38  1  0.60714239  0.31338415  0.38995553  1.0
  Se  Se39  1  0.68661585  0.39285761  0.88995553  1.0
  Se  Se40  1  1.31338415  0.60714239  0.11004447  1.0
  Se  Se41  1  0.39285761  -0.31338415  0.61004447  1.0
