# generated using pymatgen
data_MgCu2O3
_symmetry_space_group_name_H-M   'P 1'
_cell_length_a   4.06487978
_cell_length_b   9.49827529
_cell_length_c   3.24267940
_cell_angle_alpha   90.00000000
_cell_angle_beta   90.00000000
_cell_angle_gamma   90.00000000
_symmetry_Int_Tables_number   1
_chemical_formula_structural   MgCu2O3
_chemical_formula_sum   'Mg2 Cu4 O6'
_cell_volume   125.19773471
_cell_formula_units_Z   2
loop_
 _symmetry_equiv_pos_site_id
 _symmetry_equiv_pos_as_xyz
  1  'x, y, z'
loop_
 _atom_site_type_symbol
 _atom_site_label
 _atom_site_symmetry_multiplicity
 _atom_site_fract_x
 _atom_site_fract_y
 _atom_site_fract_z
 _atom_site_occupancy
  Mg  Mg0  1  0.00000000  0.50000000  0.10719580  1.0
  Mg  Mg1  1  0.50000000  0.00000000  0.89280420  1.0
  Cu  Cu2  1  0.00000000  0.16313943  0.34684397  1.0
  Cu  Cu3  1  0.00000000  0.83686057  0.34684397  1.0
  Cu  Cu4  1  0.50000000  0.66313943  0.65315603  1.0
  Cu  Cu5  1  0.50000000  0.33686057  0.65315603  1.0
  O  O6  1  0.00000000  0.00000000  0.00386819  1.0
  O  O7  1  0.50000000  0.50000000  0.99613181  1.0
  O  O8  1  0.00000000  0.65199030  0.60054551  1.0
  O  O9  1  0.00000000  0.34800970  0.60054551  1.0
  O  O10  1  0.50000000  0.15199030  0.39945449  1.0
  O  O11  1  0.50000000  0.84800970  0.39945449  1.0
