# generated using pymatgen
data_CrP3NO10
_symmetry_space_group_name_H-M   'P 1'
_cell_length_a   7.32015451
_cell_length_b   7.32015451
_cell_length_c   9.25518054
_cell_angle_alpha   73.03965225
_cell_angle_beta   106.96034775
_cell_angle_gamma   115.55729651
_symmetry_Int_Tables_number   1
_chemical_formula_structural   CrP3NO10
_chemical_formula_sum   'Cr2 P6 N2 O20'
_cell_volume   419.97150775
_cell_formula_units_Z   2
loop_
 _symmetry_equiv_pos_site_id
 _symmetry_equiv_pos_as_xyz
  1  'x, y, z'
loop_
 _atom_site_type_symbol
 _atom_site_label
 _atom_site_symmetry_multiplicity
 _atom_site_fract_x
 _atom_site_fract_y
 _atom_site_fract_z
 _atom_site_occupancy
  P  P0  1  1.41434214  -0.25944414  0.71841665  1.0
  P  P1  1  1.25944414  -0.41434214  0.21841665  1.0
  P  P2  1  0.74055586  0.41434214  0.78158335  1.0
  P  P3  1  0.58565786  0.25944414  0.28158335  1.0
  P  P4  1  0.30985418  0.30985418  0.75000000  1.0
  P  P5  1  0.69014582  0.69014582  0.25000000  1.0
  N  N6  1  0.81474125  0.81474125  0.75000000  1.0
  N  N7  1  0.18525875  0.18525875  0.25000000  1.0
  O  O8  1  1.45783024  -0.11290988  0.81887646  1.0
  O  O9  1  1.11290988  -0.45783024  0.31887646  1.0
  O  O10  1  0.88709012  0.45783024  0.68112354  1.0
  O  O11  1  0.54216976  0.11290988  0.18112354  1.0
  O  O12  1  0.73219722  0.24836386  0.92496144  1.0
  O  O13  1  0.75163614  0.26780278  0.42496144  1.0
  O  O14  1  1.24836386  -0.26780278  0.57503856  1.0
  O  O15  1  1.26780278  -0.24836386  0.07503856  1.0
  O  O16  1  0.29557263  0.12897309  0.88200810  1.0
  O  O17  1  0.87102691  0.70442737  0.38200810  1.0
  O  O18  1  1.12897309  -0.70442737  0.61799190  1.0
  O  O19  1  1.70442737  -0.12897309  0.11799190  1.0
  O  O20  1  0.51074779  0.37015306  0.67682299  1.0
  O  O21  1  0.62984694  0.48925221  0.17682299  1.0
  O  O22  1  1.37015306  -0.48925221  0.82317701  1.0
  O  O23  1  1.48925221  -0.37015306  0.32317701  1.0
  O  O24  1  1.62301111  -0.20207782  0.65311406  1.0
  O  O25  1  1.20207782  -0.62301111  0.15311406  1.0
  O  O26  1  0.79792218  0.62301111  0.84688594  1.0
  O  O27  1  0.37698889  0.20207782  0.34688594  1.0
  Cr  Cr28  1  1.50000000  0.00000000  -0.00000000  1.0
  Cr  Cr29  1  1.00000000  0.50000000  0.50000000  1.0
