# generated using pymatgen
data_VCoO3
_symmetry_space_group_name_H-M   'P 1'
_cell_length_a   5.34381706
_cell_length_b   4.81249287
_cell_length_c   4.81250878
_cell_angle_alpha   59.99598777
_cell_angle_beta   63.23705172
_cell_angle_gamma   63.23249336
_symmetry_Int_Tables_number   1
_chemical_formula_structural   VCoO3
_chemical_formula_sum   'V2 Co2 O6'
_cell_volume   91.54846016
_cell_formula_units_Z   2
loop_
 _symmetry_equiv_pos_site_id
 _symmetry_equiv_pos_as_xyz
  1  'x, y, z'
loop_
 _atom_site_type_symbol
 _atom_site_label
 _atom_site_symmetry_multiplicity
 _atom_site_fract_x
 _atom_site_fract_y
 _atom_site_fract_z
 _atom_site_occupancy
  V  V0  1  0.95451014  -0.65153565  -1.65149179  1.0
  V  V1  1  0.04548986  -0.34846435  -0.34850821  1.0
  Co  Co2  1  0.52468932  -0.84154429  -0.84157110  1.0
  Co  Co3  1  0.47531068  -0.15845571  -1.15842890  1.0
  O  O4  1  0.74852960  -0.93151102  -1.57044469  1.0
  O  O5  1  0.25147040  -0.06848898  -0.42955531  1.0
  O  O6  1  0.25144233  -0.75346495  -1.06839683  1.0
  O  O7  1  0.74855767  -0.24653505  -0.93160317  1.0
  O  O8  1  0.74855039  -0.57042326  -1.24658925  1.0
  O  O9  1  0.25144961  -0.42957674  -0.75341075  1.0
