# generated using pymatgen
data_KGaSe2
_symmetry_space_group_name_H-M   'P 1'
_cell_length_a   7.83681626
_cell_length_b   7.83681626
_cell_length_c   15.73545431
_cell_angle_alpha   82.83210569
_cell_angle_beta   97.16789431
_cell_angle_gamma   89.99925944
_symmetry_Int_Tables_number   1
_chemical_formula_structural   KGaSe2
_chemical_formula_sum   'K8 Ga8 Se16'
_cell_volume   951.23828275
_cell_formula_units_Z   8
loop_
 _symmetry_equiv_pos_site_id
 _symmetry_equiv_pos_as_xyz
  1  'x, y, z'
loop_
 _atom_site_type_symbol
 _atom_site_label
 _atom_site_symmetry_multiplicity
 _atom_site_fract_x
 _atom_site_fract_y
 _atom_site_fract_z
 _atom_site_occupancy
  K  K0  1  0.65377487  0.22185902  0.61424693  1.0
  K  K1  1  0.77814098  0.34622513  0.11424693  1.0
  K  K2  1  1.22185902  -0.34622513  0.88575307  1.0
  K  K3  1  1.34622513  -0.22185902  0.38575307  1.0
  K  K4  1  0.22280633  0.15112933  0.89255866  1.0
  K  K5  1  0.84887067  0.77719367  0.39255866  1.0
  K  K6  1  1.15112933  -0.77719367  0.60744134  1.0
  K  K7  1  1.77719367  -0.15112933  0.10744134  1.0
  Ga  Ga8  1  1.70905998  -0.08719786  0.83643158  1.0
  Ga  Ga9  1  1.08719786  -0.70905998  0.33643158  1.0
  Ga  Ga10  1  0.91280214  0.70905998  0.66356842  1.0
  Ga  Ga11  1  0.29094002  0.08719786  0.16356842  1.0
  Ga  Ga12  1  1.41883590  -0.29095455  0.66367350  1.0
  Ga  Ga13  1  1.29095455  -0.41883590  0.16367350  1.0
  Ga  Ga14  1  0.70904545  0.41883590  0.83632650  1.0
  Ga  Ga15  1  0.58116410  0.29095455  0.33632650  1.0
  Se  Se16  1  1.64134221  -0.26700276  0.56677983  1.0
  Se  Se17  1  1.26700276  -0.64134221  0.06677983  1.0
  Se  Se18  1  0.73299724  0.64134221  0.93322017  1.0
  Se  Se19  1  0.35865779  0.26700276  0.43322017  1.0
  Se  Se20  1  0.73271640  0.14243866  0.93050949  1.0
  Se  Se21  1  0.85756134  0.26728360  0.43050949  1.0
  Se  Se22  1  1.14243866  -0.26728360  0.56949051  1.0
  Se  Se23  1  1.26728360  -0.14243866  0.06949051  1.0
  Se  Se24  1  1.42859543  -0.05349726  0.74990599  1.0
  Se  Se25  1  1.05349726  -0.42859543  0.24990599  1.0
  Se  Se26  1  0.94650274  0.42859543  0.75009401  1.0
  Se  Se27  1  0.57140457  0.05349726  0.25009401  1.0
  Se  Se28  1  0.94630218  0.94630218  0.75000000  1.0
  Se  Se29  1  0.05369782  0.05369782  0.25000000  1.0
  Se  Se30  1  0.42846215  0.42846215  0.75000000  1.0
  Se  Se31  1  0.57153785  0.57153785  0.25000000  1.0
