# generated using pymatgen
data_V4O9
_symmetry_space_group_name_H-M   'P 1'
_cell_length_a   17.84881033
_cell_length_b   3.64883624
_cell_length_c   9.49702023
_cell_angle_alpha   90.00000000
_cell_angle_beta   90.00000000
_cell_angle_gamma   90.00000000
_symmetry_Int_Tables_number   1
_chemical_formula_structural   V4O9
_chemical_formula_sum   'V16 O36'
_cell_volume   618.51610190
_cell_formula_units_Z   4
loop_
 _symmetry_equiv_pos_site_id
 _symmetry_equiv_pos_as_xyz
  1  'x, y, z'
loop_
 _atom_site_type_symbol
 _atom_site_label
 _atom_site_symmetry_multiplicity
 _atom_site_fract_x
 _atom_site_fract_y
 _atom_site_fract_z
 _atom_site_occupancy
  V  V0  1  0.42047169  0.75000000  0.03999895  1.0
  V  V1  1  0.92047169  0.75000000  0.46000105  1.0
  V  V2  1  0.57952831  0.25000000  0.96000105  1.0
  V  V3  1  0.07952831  0.25000000  0.53999895  1.0
  V  V4  1  0.33379082  0.75000000  0.70724994  1.0
  V  V5  1  0.83379082  0.75000000  0.79275006  1.0
  V  V6  1  0.66620918  0.25000000  0.29275006  1.0
  V  V7  1  0.16620918  0.25000000  0.20724994  1.0
  V  V8  1  0.18552270  0.75000000  0.95492082  1.0
  V  V9  1  0.68552270  0.75000000  0.54507918  1.0
  V  V10  1  0.81447730  0.25000000  0.04507918  1.0
  V  V11  1  0.31447730  0.25000000  0.45492082  1.0
  V  V12  1  0.00768736  0.75000000  0.77099897  1.0
  V  V13  1  0.50768736  0.75000000  0.72900103  1.0
  V  V14  1  0.99231264  0.25000000  0.22900103  1.0
  V  V15  1  0.49231264  0.25000000  0.27099897  1.0
  O  O16  1  0.47504862  0.75000000  0.22505987  1.0
  O  O17  1  0.97504862  0.75000000  0.27494013  1.0
  O  O18  1  0.52495138  0.25000000  0.77494013  1.0
  O  O19  1  0.02495138  0.25000000  0.72505987  1.0
  O  O20  1  0.45643794  0.75000000  0.59010119  1.0
  O  O21  1  0.95643794  0.75000000  0.90989881  1.0
  O  O22  1  0.54356206  0.25000000  0.40989881  1.0
  O  O23  1  0.04356206  0.25000000  0.09010119  1.0
  O  O24  1  0.41166350  0.75000000  0.83940719  1.0
  O  O25  1  0.91166350  0.75000000  0.66059281  1.0
  O  O26  1  0.58833650  0.25000000  0.16059281  1.0
  O  O27  1  0.08833650  0.25000000  0.33940719  1.0
  O  O28  1  0.33412108  0.75000000  0.08156889  1.0
  O  O29  1  0.83412108  0.75000000  0.41843111  1.0
  O  O30  1  0.66587892  0.25000000  0.91843111  1.0
  O  O31  1  0.16587892  0.25000000  0.58156889  1.0
  O  O32  1  0.30019157  0.75000000  0.51084619  1.0
  O  O33  1  0.80019157  0.75000000  0.98915381  1.0
  O  O34  1  0.69980843  0.25000000  0.48915381  1.0
  O  O35  1  0.19980843  0.25000000  0.01084619  1.0
  O  O36  1  0.25974834  0.75000000  0.81783668  1.0
  O  O37  1  0.75974834  0.75000000  0.68216332  1.0
  O  O38  1  0.74025166  0.25000000  0.18216332  1.0
  O  O39  1  0.24025166  0.25000000  0.31783668  1.0
  O  O40  1  0.15887907  0.75000000  0.15618841  1.0
  O  O41  1  0.65887907  0.75000000  0.34381159  1.0
  O  O42  1  0.84112093  0.25000000  0.84381159  1.0
  O  O43  1  0.34112093  0.25000000  0.65618841  1.0
  O  O44  1  0.10844624  0.75000000  0.85949994  1.0
  O  O45  1  0.60844624  0.75000000  0.64050006  1.0
  O  O46  1  0.89155376  0.25000000  0.14050006  1.0
  O  O47  1  0.39155376  0.25000000  0.35949994  1.0
  O  O48  1  0.05067961  0.75000000  0.54760769  1.0
  O  O49  1  0.55067961  0.75000000  0.95239231  1.0
  O  O50  1  0.94932039  0.25000000  0.45239231  1.0
  O  O51  1  0.44932039  0.25000000  0.04760769  1.0
