# generated using pymatgen
data_KSbC6Br5
_symmetry_space_group_name_H-M   'P 1'
_cell_length_a   7.59142438
_cell_length_b   7.59054819
_cell_length_c   13.77739141
_cell_angle_alpha   90.00000000
_cell_angle_beta   90.00000000
_cell_angle_gamma   90.00000000
_symmetry_Int_Tables_number   1
_chemical_formula_structural   KSbC6Br5
_chemical_formula_sum   'K2 Sb2 C12 Br10'
_cell_volume   793.89562594
_cell_formula_units_Z   2
loop_
 _symmetry_equiv_pos_site_id
 _symmetry_equiv_pos_as_xyz
  1  'x, y, z'
loop_
 _atom_site_type_symbol
 _atom_site_label
 _atom_site_symmetry_multiplicity
 _atom_site_fract_x
 _atom_site_fract_y
 _atom_site_fract_z
 _atom_site_occupancy
  C  C0  1  0.50000000  0.50000000  0.35756625  1.0
  C  C1  1  0.00000000  0.00000000  0.64243375  1.0
  C  C2  1  0.50000000  0.50000000  0.53838547  1.0
  C  C3  1  0.00000000  0.00000000  0.46161453  1.0
  C  C4  1  0.58201216  0.61029975  0.42205483  1.0
  C  C5  1  0.41798784  0.38970025  0.42205483  1.0
  C  C6  1  0.08201216  0.88970025  0.57794517  1.0
  C  C7  1  0.91798784  0.11029975  0.57794517  1.0
  C  C8  1  0.60268751  0.63779582  0.51672605  1.0
  C  C9  1  0.39731249  0.36220418  0.51672605  1.0
  C  C10  1  0.10268751  0.86220418  0.48327395  1.0
  C  C11  1  0.89731249  0.13779582  0.48327395  1.0
  Sb  Sb12  1  0.50000000  0.50000000  0.19979036  1.0
  Sb  Sb13  1  0.00000000  0.00000000  0.80020964  1.0
  Br  Br14  1  0.50000000  0.50000000  0.00489928  1.0
  Br  Br15  1  0.00000000  0.00000000  0.99510072  1.0
  Br  Br16  1  0.21563207  0.69754168  0.19121323  1.0
  Br  Br17  1  0.78436793  0.30245832  0.19121323  1.0
  Br  Br18  1  0.71563207  0.80245832  0.80878677  1.0
  Br  Br19  1  0.28436793  0.19754168  0.80878677  1.0
  Br  Br20  1  0.30277939  0.21551897  0.19986824  1.0
  Br  Br21  1  0.69722061  0.78448103  0.19986824  1.0
  Br  Br22  1  0.80277939  0.28448103  0.80013176  1.0
  Br  Br23  1  0.19722061  0.71551897  0.80013176  1.0
  K  K24  1  0.50000000  0.00000000  1.00417847  1.0
  K  K25  1  0.00000000  0.50000000  -0.00417847  1.0
