# generated using pymatgen
data_Na6PbO4
_symmetry_space_group_name_H-M   'P 1'
_cell_length_a   9.79657950
_cell_length_b   9.79657950
_cell_length_c   9.79657950
_cell_angle_alpha   109.47122063
_cell_angle_beta   109.47122063
_cell_angle_gamma   109.47122063
_symmetry_Int_Tables_number   1
_chemical_formula_structural   Na6PbO4
_chemical_formula_sum   'Na24 Pb4 O16'
_cell_volume   723.77155426
_cell_formula_units_Z   4
loop_
 _symmetry_equiv_pos_site_id
 _symmetry_equiv_pos_as_xyz
  1  'x, y, z'
loop_
 _atom_site_type_symbol
 _atom_site_label
 _atom_site_symmetry_multiplicity
 _atom_site_fract_x
 _atom_site_fract_y
 _atom_site_fract_z
 _atom_site_occupancy
  Na  Na0  1  0.74549811  0.47010274  0.47010274  1.0
  Na  Na1  1  0.47010274  0.74549811  0.47010274  1.0
  Na  Na2  1  1.00000000  1.27539537  0.52989726  1.0
  Na  Na3  1  1.27539537  1.00000000  0.52989726  1.0
  Na  Na4  1  0.47010274  0.47010274  0.74549811  1.0
  Na  Na5  1  0.72460463  0.72460463  0.25450189  1.0
  Na  Na6  1  1.00000000  0.52989726  1.27539537  1.0
  Na  Na7  1  0.72460463  0.25450189  0.72460463  1.0
  Na  Na8  1  0.25450189  0.72460463  0.72460463  1.0
  Na  Na9  1  0.52989726  1.00000000  1.27539537  1.0
  Na  Na10  1  1.27539537  0.52989726  1.00000000  1.0
  Na  Na11  1  0.52989726  1.27539537  1.00000000  1.0
  Na  Na12  1  0.23813682  0.45683422  0.45683422  1.0
  Na  Na13  1  0.45683422  0.23813682  0.45683422  1.0
  Na  Na14  1  1.00000000  0.78130260  1.54316578  1.0
  Na  Na15  1  0.78130260  1.00000000  1.54316578  1.0
  Na  Na16  1  0.45683422  0.45683422  0.23813682  1.0
  Na  Na17  1  1.21869740  1.21869740  0.76186318  1.0
  Na  Na18  1  1.00000000  1.54316578  0.78130260  1.0
  Na  Na19  1  1.21869740  0.76186318  1.21869740  1.0
  Na  Na20  1  0.76186318  1.21869740  1.21869740  1.0
  Na  Na21  1  1.54316578  1.00000000  0.78130260  1.0
  Na  Na22  1  0.78130260  1.54316578  1.00000000  1.0
  Na  Na23  1  1.54316578  0.78130260  1.00000000  1.0
  Pb  Pb24  1  0.74727102  0.74727102  0.74727102  1.0
  Pb  Pb25  1  1.00000000  1.00000000  0.25272898  1.0
  Pb  Pb26  1  1.00000000  0.25272898  1.00000000  1.0
  Pb  Pb27  1  0.25272898  1.00000000  1.00000000  1.0
  O  O28  1  0.48302642  0.71588493  0.71588493  1.0
  O  O29  1  0.71588493  0.48302642  0.71588493  1.0
  O  O30  1  1.00000000  0.76714149  1.28411507  1.0
  O  O31  1  0.76714149  1.00000000  1.28411507  1.0
  O  O32  1  0.71588493  0.71588493  0.48302642  1.0
  O  O33  1  1.23285851  1.23285851  0.51697358  1.0
  O  O34  1  1.00000000  1.28411507  0.76714149  1.0
  O  O35  1  1.23285851  0.51697358  1.23285851  1.0
  O  O36  1  0.51697358  1.23285851  1.23285851  1.0
  O  O37  1  1.28411507  1.00000000  0.76714149  1.0
  O  O38  1  0.76714149  1.28411507  1.00000000  1.0
  O  O39  1  1.28411507  0.76714149  1.00000000  1.0
  O  O40  1  0.50000000  0.50000000  0.00000000  1.0
  O  O41  1  0.50000000  0.00000000  0.50000000  1.0
  O  O42  1  0.00000000  0.50000000  0.50000000  1.0
  O  O43  1  0.00000000  0.00000000  0.00000000  1.0
