# generated using pymatgen
data_NaInTe2
_symmetry_space_group_name_H-M   'P 1'
_cell_length_a   6.97471600
_cell_length_b   6.97471600
_cell_length_c   6.97471600
_cell_angle_alpha   105.73433299
_cell_angle_beta   105.73433299
_cell_angle_gamma   117.23527803
_symmetry_Int_Tables_number   1
_chemical_formula_structural   NaInTe2
_chemical_formula_sum   'Na2 In2 Te4'
_cell_volume   257.54797010
_cell_formula_units_Z   2
loop_
 _symmetry_equiv_pos_site_id
 _symmetry_equiv_pos_as_xyz
  1  'x, y, z'
loop_
 _atom_site_type_symbol
 _atom_site_label
 _atom_site_symmetry_multiplicity
 _atom_site_fract_x
 _atom_site_fract_y
 _atom_site_fract_z
 _atom_site_occupancy
  Na  Na0  1  0.25000000  0.25000000  0.00000000  1.0
  Na  Na1  1  0.75000000  0.75000000  0.00000000  1.0
  In  In2  1  0.75000000  0.25000000  0.50000000  1.0
  In  In3  1  0.25000000  0.75000000  0.50000000  1.0
  Te  Te4  1  0.81488255  0.31488255  1.12976509  1.0
  Te  Te5  1  0.68511745  0.81488255  0.50000000  1.0
  Te  Te6  1  0.31488255  0.18511745  0.50000000  1.0
  Te  Te7  1  1.18511745  0.68511745  0.87023491  1.0
