# generated using pymatgen
data_K3Sn4Au
_symmetry_space_group_name_H-M   'P 1'
_cell_length_a   6.95901276
_cell_length_b   12.87316337
_cell_length_c   6.65429389
_cell_angle_alpha   90.00000000
_cell_angle_beta   90.00000000
_cell_angle_gamma   90.00000000
_symmetry_Int_Tables_number   1
_chemical_formula_structural   K3Sn4Au
_chemical_formula_sum   'K6 Sn8 Au2'
_cell_volume   596.12164511
_cell_formula_units_Z   2
loop_
 _symmetry_equiv_pos_site_id
 _symmetry_equiv_pos_as_xyz
  1  'x, y, z'
loop_
 _atom_site_type_symbol
 _atom_site_label
 _atom_site_symmetry_multiplicity
 _atom_site_fract_x
 _atom_site_fract_y
 _atom_site_fract_z
 _atom_site_occupancy
  K  K0  1  0.50000000  0.25304441  0.82741420  1.0
  K  K1  1  0.50000000  0.74695559  0.82741420  1.0
  K  K2  1  0.00000000  0.24695559  0.17258580  1.0
  K  K3  1  0.00000000  0.75304441  0.17258580  1.0
  K  K4  1  0.50000000  0.50000000  0.44279001  1.0
  K  K5  1  0.00000000  0.00000000  0.55720999  1.0
  Sn  Sn6  1  0.76916081  0.50000000  0.96151565  1.0
  Sn  Sn7  1  0.23083919  0.50000000  0.96151565  1.0
  Sn  Sn8  1  0.73083919  0.00000000  0.03848435  1.0
  Sn  Sn9  1  0.26916081  0.00000000  0.03848435  1.0
  Sn  Sn10  1  0.50000000  0.87795572  0.33161799  1.0
  Sn  Sn11  1  0.50000000  0.12204428  0.33161799  1.0
  Sn  Sn12  1  0.00000000  0.62204428  0.66838201  1.0
  Sn  Sn13  1  0.00000000  0.37795572  0.66838201  1.0
  Au  Au14  1  0.50000000  0.00000000  0.68575770  1.0
  Au  Au15  1  0.00000000  0.50000000  0.31424230  1.0
