# generated using pymatgen
data_MnC4Br3N
_symmetry_space_group_name_H-M   'P 1'
_cell_length_a   8.78638328
_cell_length_b   8.78638328
_cell_length_c   6.25181031
_cell_angle_alpha   90.00000000
_cell_angle_beta   90.00000000
_cell_angle_gamma   120.00000000
_symmetry_Int_Tables_number   1
_chemical_formula_structural   MnC4Br3N
_chemical_formula_sum   'Mn2 C8 Br6 N2'
_cell_volume   417.98116596
_cell_formula_units_Z   2
loop_
 _symmetry_equiv_pos_site_id
 _symmetry_equiv_pos_as_xyz
  1  'x, y, z'
loop_
 _atom_site_type_symbol
 _atom_site_label
 _atom_site_symmetry_multiplicity
 _atom_site_fract_x
 _atom_site_fract_y
 _atom_site_fract_z
 _atom_site_occupancy
  C  C0  1  0.57082188  0.19763501  0.77258729  1.0
  C  C1  1  0.62681314  0.42917812  0.77258729  1.0
  C  C2  1  0.80236499  0.37318686  0.77258729  1.0
  C  C3  1  0.42917812  0.80236499  0.27258729  1.0
  C  C4  1  0.37318686  0.57082188  0.27258729  1.0
  C  C5  1  0.19763501  0.62681314  0.27258729  1.0
  C  C6  1  0.66666667  0.33333333  0.94098546  1.0
  C  C7  1  0.33333333  0.66666667  0.44098546  1.0
  N  N8  1  0.66666667  0.33333333  0.60711604  1.0
  N  N9  1  0.33333333  0.66666667  0.10711604  1.0
  Mn  Mn10  1  0.00000000  0.00000000  -0.00018822  1.0
  Mn  Mn11  1  0.00000000  0.00000000  0.49981178  1.0
  Br  Br12  1  0.96502632  0.20947790  0.25004161  1.0
  Br  Br13  1  0.24445158  0.03497368  0.25004161  1.0
  Br  Br14  1  0.79052210  0.75554842  0.25004161  1.0
  Br  Br15  1  0.03497368  0.79052210  0.75004161  1.0
  Br  Br16  1  0.75554842  0.96502632  0.75004161  1.0
  Br  Br17  1  0.20947790  0.24445158  0.75004161  1.0
