# generated using pymatgen
data_Sr3B6H2O13
_symmetry_space_group_name_H-M   'P 1'
_cell_length_a   11.48043549
_cell_length_b   6.72537748
_cell_length_c   6.68028945
_cell_angle_alpha   93.11645143
_cell_angle_beta   94.25181087
_cell_angle_gamma   90.79333431
_symmetry_Int_Tables_number   1
_chemical_formula_structural   Sr3B6H2O13
_chemical_formula_sum   'Sr6 B12 H4 O26'
_cell_volume   513.52390468
_cell_formula_units_Z   2
loop_
 _symmetry_equiv_pos_site_id
 _symmetry_equiv_pos_as_xyz
  1  'x, y, z'
loop_
 _atom_site_type_symbol
 _atom_site_label
 _atom_site_symmetry_multiplicity
 _atom_site_fract_x
 _atom_site_fract_y
 _atom_site_fract_z
 _atom_site_occupancy
  Sr  Sr0  1  -0.97772707  -0.72697330  -0.87329127  1.0
  Sr  Sr1  1  -0.02227293  -0.27302670  -0.12670873  1.0
  Sr  Sr2  1  -0.47157395  -0.23730483  -0.81991653  1.0
  Sr  Sr3  1  -0.52842605  -0.76269517  -0.18008347  1.0
  Sr  Sr4  1  -0.76517954  -0.37457152  -0.56783613  1.0
  Sr  Sr5  1  -0.23482046  -0.62542848  -0.43216387  1.0
  B  B6  1  -0.27297506  -0.66237016  -0.96112471  1.0
  B  B7  1  -0.72702494  -0.33762984  -0.03887529  1.0
  B  B8  1  -0.70132071  -0.97897536  -0.87870849  1.0
  B  B9  1  -0.29867929  -0.02102464  -0.12129151  1.0
  B  B10  1  -0.20275207  -0.96764505  -0.76813879  1.0
  B  B11  1  -0.79724793  -0.03235495  -0.23186121  1.0
  B  B12  1  -0.56573964  -0.77943789  -0.61618047  1.0
  B  B13  1  -0.43426036  -0.22056211  -0.38381953  1.0
  B  B14  1  -0.77614308  -0.85358876  -0.55043588  1.0
  B  B15  1  -0.22385692  -0.14641124  -0.44956412  1.0
  B  B16  1  -0.93962203  -0.76263902  -0.32102116  1.0
  B  B17  1  -0.06037797  -0.23736098  -0.67897884  1.0
  H  H18  1  -0.24717743  -0.35924528  -0.98873184  1.0
  H  H19  1  -0.75282257  -0.64075472  -0.01126816  1.0
  H  H20  1  -0.40568165  -0.65800111  -0.75335905  1.0
  H  H21  1  -0.59431835  -0.34199889  -0.24664095  1.0
  O  O22  1  -0.91593000  -0.93550243  -0.21386895  1.0
  O  O23  1  -0.08407000  -0.06449757  -0.78613105  1.0
  O  O24  1  -0.71265517  -0.92438554  -0.08901723  1.0
  O  O25  1  -0.28734483  -0.07561446  -0.91098277  1.0
  O  O26  1  -0.78361834  -0.51507002  -0.95723687  1.0
  O  O27  1  -0.21638166  -0.48492998  -0.04276313  1.0
  O  O28  1  -0.38262837  -0.58686860  -0.87370898  1.0
  O  O29  1  -0.61737163  -0.41313140  -0.12629102  1.0
  O  O30  1  -0.69412542  -0.19867101  -0.86574695  1.0
  O  O31  1  -0.30587458  -0.80132899  -0.13425305  1.0
  O  O32  1  -0.19201364  -0.75352626  -0.81290694  1.0
  O  O33  1  -0.80798636  -0.24647374  -0.18709306  1.0
  O  O34  1  -0.58287256  -0.89305452  -0.79855562  1.0
  O  O35  1  -0.41712744  -0.10694548  -0.20144438  1.0
  O  O36  1  -0.79527044  -0.89851993  -0.76558767  1.0
  O  O37  1  -0.20472956  -0.10148007  -0.23441233  1.0
  O  O38  1  -0.97907886  -0.36325491  -0.74381830  1.0
  O  O39  1  -0.02092114  -0.63674509  -0.25618170  1.0
  O  O40  1  -0.23266930  -0.97144569  -0.56252700  1.0
  O  O41  1  -0.76733070  -0.02855431  -0.43747300  1.0
  O  O42  1  -0.45860151  -0.72329141  -0.53706920  1.0
  O  O43  1  -0.54139849  -0.27670859  -0.46293080  1.0
  O  O44  1  -0.66422738  -0.72788253  -0.51109030  1.0
  O  O45  1  -0.33577262  -0.27211747  -0.48890970  1.0
  O  O46  1  -0.87447220  -0.72405385  -0.48604491  1.0
  O  O47  1  -0.12552780  -0.27594615  -0.51395509  1.0
