# generated using pymatgen
data_Cd2Ru(CN)6
_symmetry_space_group_name_H-M   'P 1'
_cell_length_a   6.42993439
_cell_length_b   6.42993439
_cell_length_c   6.64654922
_cell_angle_alpha   90.00000000
_cell_angle_beta   90.00000000
_cell_angle_gamma   120.00000000
_symmetry_Int_Tables_number   1
_chemical_formula_structural   Cd2Ru(CN)6
_chemical_formula_sum   'Cd2 Ru1 C6 N6'
_cell_volume   237.97971446
_cell_formula_units_Z   1
loop_
 _symmetry_equiv_pos_site_id
 _symmetry_equiv_pos_as_xyz
  1  'x, y, z'
loop_
 _atom_site_type_symbol
 _atom_site_label
 _atom_site_symmetry_multiplicity
 _atom_site_fract_x
 _atom_site_fract_y
 _atom_site_fract_z
 _atom_site_occupancy
  Cd  Cd0  1  0.33333333  0.66666667  0.49998773  1.0
  Cd  Cd1  1  0.66666667  0.33333333  0.50001227  1.0
  Ru  Ru2  1  0.00000000  0.00000000  -0.00000000  1.0
  C  C3  1  0.24633453  0.99996043  0.18481218  1.0
  C  C4  1  0.99996043  0.75362590  0.81518782  1.0
  C  C5  1  0.75362590  0.75366547  0.18481218  1.0
  C  C6  1  0.00003957  0.24637410  0.18481218  1.0
  C  C7  1  0.75366547  0.00003957  0.81518782  1.0
  C  C8  1  0.24637410  0.24633453  0.81518782  1.0
  N  N9  1  0.38092074  1.00000219  0.30608390  1.0
  N  N10  1  1.00000219  0.61908145  0.69391610  1.0
  N  N11  1  0.61908145  0.61907926  0.30608390  1.0
  N  N12  1  -0.00000219  0.38091855  0.30608390  1.0
  N  N13  1  0.61907926  -0.00000219  0.69391610  1.0
  N  N14  1  0.38091855  0.38092074  0.69391610  1.0
