# generated using pymatgen
data_Bi2Pd
_symmetry_space_group_name_H-M   'P 1'
_cell_length_a   6.81032074
_cell_length_b   6.81032074
_cell_length_c   5.72210940
_cell_angle_alpha   77.48817144
_cell_angle_beta   102.51182856
_cell_angle_gamma   142.87739793
_symmetry_Int_Tables_number   1
_chemical_formula_structural   Bi2Pd
_chemical_formula_sum   'Bi4 Pd2'
_cell_volume   155.93276542
_cell_formula_units_Z   2
loop_
 _symmetry_equiv_pos_site_id
 _symmetry_equiv_pos_as_xyz
  1  'x, y, z'
loop_
 _atom_site_type_symbol
 _atom_site_label
 _atom_site_symmetry_multiplicity
 _atom_site_fract_x
 _atom_site_fract_y
 _atom_site_fract_z
 _atom_site_occupancy
  Bi  Bi0  1  0.92628798  -0.92628798  0.70698684  1.0
  Bi  Bi1  1  1.07371202  -0.07371202  0.29301316  1.0
  Bi  Bi2  1  0.65752400  -0.65752400  0.81349471  1.0
  Bi  Bi3  1  1.34247600  -0.34247600  0.18650529  1.0
  Pd  Pd4  1  0.72354178  -0.72354178  0.33037949  1.0
  Pd  Pd5  1  1.27645822  -0.27645822  0.66962051  1.0
