# generated using pymatgen
data_NaGe2(PO4)3
_symmetry_space_group_name_H-M   'P 1'
_cell_length_a   8.70277081
_cell_length_b   8.70277081
_cell_length_c   8.70277081
_cell_angle_alpha   56.47815981
_cell_angle_beta   56.47815981
_cell_angle_gamma   56.47815981
_symmetry_Int_Tables_number   1
_chemical_formula_structural   NaGe2(PO4)3
_chemical_formula_sum   'Na2 Ge4 P6 O24'
_cell_volume   428.13331828
_cell_formula_units_Z   2
loop_
 _symmetry_equiv_pos_site_id
 _symmetry_equiv_pos_as_xyz
  1  'x, y, z'
loop_
 _atom_site_type_symbol
 _atom_site_label
 _atom_site_symmetry_multiplicity
 _atom_site_fract_x
 _atom_site_fract_y
 _atom_site_fract_z
 _atom_site_occupancy
  Na  Na0  1  0.50000000  0.50000000  -0.50000000  1.0
  Na  Na1  1  0.00000000  0.00000000  0.00000000  1.0
  Ge  Ge2  1  0.14433150  0.14433150  0.14433150  1.0
  Ge  Ge3  1  0.85566850  -0.14433150  -0.14433150  1.0
  Ge  Ge4  1  0.35190148  0.35190148  -0.64809852  1.0
  Ge  Ge5  1  0.64809852  0.64809852  -0.35190148  1.0
  P  P6  1  0.53660842  0.24929255  -0.03480115  1.0
  P  P7  1  1.03480115  -0.53660842  -0.24929255  1.0
  P  P8  1  0.75070745  0.03480115  -0.53660842  1.0
  P  P9  1  0.46339158  -0.24929255  0.03480115  1.0
  P  P10  1  0.96519885  -0.46339158  0.24929255  1.0
  P  P11  1  1.24929255  -0.03480115  -0.46339158  1.0
  O  O12  1  0.20458919  0.98958885  -0.62565416  1.0
  O  O13  1  0.62565416  -0.20458919  0.01041115  1.0
  O  O14  1  1.01041115  -0.37434584  -0.20458919  1.0
  O  O15  1  0.79541081  0.01041115  -0.37434584  1.0
  O  O16  1  0.37434584  0.20458919  -0.01041115  1.0
  O  O17  1  0.98958885  0.37434584  -0.79541081  1.0
  O  O18  1  0.54252777  0.19906675  -0.52256196  1.0
  O  O19  1  0.52256196  0.45747223  -0.19906675  1.0
  O  O20  1  0.80093325  0.52256196  -0.54252777  1.0
  O  O21  1  0.45747223  0.80093325  -0.47743804  1.0
  O  O22  1  0.47743804  0.54252777  -0.80093325  1.0
  O  O23  1  0.19906675  0.47743804  -0.45747223  1.0
  O  O24  1  0.25775260  0.90313419  -0.89533506  1.0
  O  O25  1  0.89533506  -0.25775260  0.09686581  1.0
  O  O26  1  1.09686581  -0.10466494  -0.25775260  1.0
  O  O27  1  0.74224740  0.09686581  -0.10466494  1.0
  O  O28  1  0.10466494  0.25775260  -0.09686581  1.0
  O  O29  1  0.90313419  0.10466494  -0.74224740  1.0
  O  O30  1  0.52146512  0.23336157  0.15942182  1.0
  O  O31  1  0.84057818  -0.52146512  -0.23336157  1.0
  O  O32  1  0.76663843  -0.15942182  -0.52146512  1.0
  O  O33  1  0.47853488  -0.23336157  -0.15942182  1.0
  O  O34  1  1.15942182  -0.47853488  0.23336157  1.0
  O  O35  1  1.23336157  0.15942182  -0.47853488  1.0
