# generated using pymatgen
data_YMnB4
_symmetry_space_group_name_H-M   'P 1'
_cell_length_a   5.90501995
_cell_length_b   11.41699051
_cell_length_c   3.40339779
_cell_angle_alpha   90.00000000
_cell_angle_beta   90.00000000
_cell_angle_gamma   90.00000000
_symmetry_Int_Tables_number   1
_chemical_formula_structural   YMnB4
_chemical_formula_sum   'Y4 Mn4 B16'
_cell_volume   229.44876388
_cell_formula_units_Z   4
loop_
 _symmetry_equiv_pos_site_id
 _symmetry_equiv_pos_as_xyz
  1  'x, y, z'
loop_
 _atom_site_type_symbol
 _atom_site_label
 _atom_site_symmetry_multiplicity
 _atom_site_fract_x
 _atom_site_fract_y
 _atom_site_fract_z
 _atom_site_occupancy
  Y  Y0  1  0.12591307  0.65040716  0.50000000  1.0
  Y  Y1  1  0.62591307  0.84959284  0.50000000  1.0
  Y  Y2  1  0.87408693  0.34959284  0.50000000  1.0
  Y  Y3  1  0.37408693  0.15040716  0.50000000  1.0
  Mn  Mn4  1  0.12724592  0.91632157  0.50000000  1.0
  Mn  Mn5  1  0.62724592  0.58367843  0.50000000  1.0
  Mn  Mn6  1  0.87275408  0.08367843  0.50000000  1.0
  Mn  Mn7  1  0.37275408  0.41632157  0.50000000  1.0
  B  B8  1  0.47510312  0.69080219  0.00000000  1.0
  B  B9  1  0.97510312  0.80919781  0.00000000  1.0
  B  B10  1  0.52489688  0.30919781  0.00000000  1.0
  B  B11  1  0.02489688  0.19080219  0.00000000  1.0
  B  B12  1  0.38792304  0.54624560  0.00000000  1.0
  B  B13  1  0.88792304  0.95375440  0.00000000  1.0
  B  B14  1  0.61207696  0.45375440  0.00000000  1.0
  B  B15  1  0.11207696  0.04624560  0.00000000  1.0
  B  B16  1  0.36168733  0.96779282  0.00000000  1.0
  B  B17  1  0.86168733  0.53220718  0.00000000  1.0
  B  B18  1  0.63831267  0.03220718  0.00000000  1.0
  B  B19  1  0.13831267  0.46779282  0.00000000  1.0
  B  B20  1  0.28070212  0.81638356  0.00000000  1.0
  B  B21  1  0.78070212  0.68361644  0.00000000  1.0
  B  B22  1  0.71929788  0.18361644  0.00000000  1.0
  B  B23  1  0.21929788  0.31638356  0.00000000  1.0
