# generated using pymatgen
data_MgSi4
_symmetry_space_group_name_H-M   'P 1'
_cell_length_a   6.68918627
_cell_length_b   6.68918627
_cell_length_c   6.68918627
_cell_angle_alpha   60.00000000
_cell_angle_beta   60.00000000
_cell_angle_gamma   60.00000000
_symmetry_Int_Tables_number   1
_chemical_formula_structural   MgSi4
_chemical_formula_sum   'Mg2 Si8'
_cell_volume   211.64346909
_cell_formula_units_Z   2
loop_
 _symmetry_equiv_pos_site_id
 _symmetry_equiv_pos_as_xyz
  1  'x, y, z'
loop_
 _atom_site_type_symbol
 _atom_site_label
 _atom_site_symmetry_multiplicity
 _atom_site_fract_x
 _atom_site_fract_y
 _atom_site_fract_z
 _atom_site_occupancy
  Mg  Mg0  1  0.50000000  0.50000000  -0.50000000  1.0
  Mg  Mg1  1  0.75000000  -0.25000000  0.75000000  1.0
  Si  Si2  1  -0.09006812  0.90993188  0.27020436  1.0
  Si  Si3  1  0.90993188  -0.72979564  0.90993188  1.0
  Si  Si4  1  0.34006812  0.34006812  0.34006812  1.0
  Si  Si5  1  -0.02020436  0.34006812  0.34006812  1.0
  Si  Si6  1  -0.72979564  0.90993188  0.90993188  1.0
  Si  Si7  1  0.90993188  -0.09006812  0.90993188  1.0
  Si  Si8  1  0.34006812  -0.02020436  0.34006812  1.0
  Si  Si9  1  0.34006812  0.34006812  -0.02020436  1.0
