# generated using pymatgen
data_Eu4Au2O9
_symmetry_space_group_name_H-M   'P 1'
_cell_length_a   11.96342336
_cell_length_b   6.14739795
_cell_length_c   11.91821307
_cell_angle_alpha   90.00000000
_cell_angle_beta   90.00000000
_cell_angle_gamma   90.00000000
_symmetry_Int_Tables_number   1
_chemical_formula_structural   Eu4Au2O9
_chemical_formula_sum   'Eu16 Au8 O36'
_cell_volume   876.51215868
_cell_formula_units_Z   4
loop_
 _symmetry_equiv_pos_site_id
 _symmetry_equiv_pos_as_xyz
  1  'x, y, z'
loop_
 _atom_site_type_symbol
 _atom_site_label
 _atom_site_symmetry_multiplicity
 _atom_site_fract_x
 _atom_site_fract_y
 _atom_site_fract_z
 _atom_site_occupancy
  O  O0  1  0.33508957  0.05352658  0.85268941  1.0
  O  O1  1  0.33508957  0.94647342  0.35268941  1.0
  O  O2  1  0.83508957  0.55352658  0.64731059  1.0
  O  O3  1  0.83508957  0.44647342  0.14731059  1.0
  O  O4  1  0.66491043  0.05352658  0.64731059  1.0
  O  O5  1  0.66491043  0.94647342  0.14731059  1.0
  O  O6  1  0.16491043  0.55352658  0.85268941  1.0
  O  O7  1  0.16491043  0.44647342  0.35268941  1.0
  O  O8  1  0.30506818  0.37659665  0.65857054  1.0
  O  O9  1  0.30506818  0.62340335  0.15857054  1.0
  O  O10  1  0.80506818  0.87659665  0.84142946  1.0
  O  O11  1  0.80506818  0.12340335  0.34142946  1.0
  O  O12  1  0.69493182  0.37659665  0.84142946  1.0
  O  O13  1  0.69493182  0.62340335  0.34142946  1.0
  O  O14  1  0.19493182  0.87659665  0.65857054  1.0
  O  O15  1  0.19493182  0.12340335  0.15857054  1.0
  O  O16  1  0.11333420  0.06504088  0.94502561  1.0
  O  O17  1  0.11333420  0.93495912  0.44502561  1.0
  O  O18  1  0.61333420  0.56504088  0.55497439  1.0
  O  O19  1  0.61333420  0.43495912  0.05497439  1.0
  O  O20  1  0.88666580  0.06504088  0.55497439  1.0
  O  O21  1  0.88666580  0.93495912  0.05497439  1.0
  O  O22  1  0.38666580  0.56504088  0.94502561  1.0
  O  O23  1  0.38666580  0.43495912  0.44502561  1.0
  O  O24  1  0.07990144  0.39502670  0.58666248  1.0
  O  O25  1  0.07990144  0.60497330  0.08666248  1.0
  O  O26  1  0.57990144  0.89502670  0.91333752  1.0
  O  O27  1  0.57990144  0.10497330  0.41333752  1.0
  O  O28  1  0.92009856  0.39502670  0.91333752  1.0
  O  O29  1  0.92009856  0.60497330  0.41333752  1.0
  O  O30  1  0.42009856  0.89502670  0.58666248  1.0
  O  O31  1  0.42009856  0.10497330  0.08666248  1.0
  O  O32  1  0.50000000  0.47650245  0.75000000  1.0
  O  O33  1  0.50000000  0.52349755  0.25000000  1.0
  O  O34  1  0.00000000  0.97650245  0.75000000  1.0
  O  O35  1  0.00000000  0.02349755  0.25000000  1.0
  Eu  Eu36  1  0.49527174  0.25739780  0.58796536  1.0
  Eu  Eu37  1  0.49527174  0.74260220  0.08796536  1.0
  Eu  Eu38  1  0.99527174  0.75739780  0.91203464  1.0
  Eu  Eu39  1  0.99527174  0.24260220  0.41203464  1.0
  Eu  Eu40  1  0.50472826  0.25739780  0.91203464  1.0
  Eu  Eu41  1  0.50472826  0.74260220  0.41203464  1.0
  Eu  Eu42  1  0.00472826  0.75739780  0.58796536  1.0
  Eu  Eu43  1  0.00472826  0.24260220  0.08796536  1.0
  Eu  Eu44  1  0.15985126  0.19742797  0.76008055  1.0
  Eu  Eu45  1  0.15985126  0.80257203  0.26008055  1.0
  Eu  Eu46  1  0.65985126  0.69742797  0.73991945  1.0
  Eu  Eu47  1  0.65985126  0.30257203  0.23991945  1.0
  Eu  Eu48  1  0.84014874  0.19742797  0.73991945  1.0
  Eu  Eu49  1  0.84014874  0.80257203  0.23991945  1.0
  Eu  Eu50  1  0.34014874  0.69742797  0.76008055  1.0
  Eu  Eu51  1  0.34014874  0.30257203  0.26008055  1.0
  Au  Au52  1  0.23124158  0.42431118  0.51034577  1.0
  Au  Au53  1  0.23124158  0.57568882  0.01034577  1.0
  Au  Au54  1  0.73124158  0.92431118  0.98965423  1.0
  Au  Au55  1  0.73124158  0.07568882  0.48965423  1.0
  Au  Au56  1  0.76875842  0.42431118  0.98965423  1.0
  Au  Au57  1  0.76875842  0.57568882  0.48965423  1.0
  Au  Au58  1  0.26875842  0.92431118  0.51034577  1.0
  Au  Au59  1  0.26875842  0.07568882  0.01034577  1.0
