# generated using pymatgen
data_InCuSe2
_symmetry_space_group_name_H-M   'P 1'
_cell_length_a   7.21514127
_cell_length_b   7.21514127
_cell_length_c   7.21514127
_cell_angle_alpha   132.02180054
_cell_angle_beta   132.02180054
_cell_angle_gamma   70.19459749
_symmetry_Int_Tables_number   1
_chemical_formula_structural   InCuSe2
_chemical_formula_sum   'In2 Cu2 Se4'
_cell_volume   203.18752485
_cell_formula_units_Z   2
loop_
 _symmetry_equiv_pos_site_id
 _symmetry_equiv_pos_as_xyz
  1  'x, y, z'
loop_
 _atom_site_type_symbol
 _atom_site_label
 _atom_site_symmetry_multiplicity
 _atom_site_fract_x
 _atom_site_fract_y
 _atom_site_fract_z
 _atom_site_occupancy
  In  In0  1  0.75000000  0.25000000  0.50000000  1.0
  In  In1  1  1.00000000  1.00000000  1.00000000  1.0
  Cu  Cu2  1  0.25000000  0.75000000  0.50000000  1.0
  Cu  Cu3  1  0.50000000  0.50000000  0.00000000  1.0
  Se  Se4  1  1.15667657  1.12500000  1.53167657  1.0
  Se  Se5  1  1.37500000  0.84332343  0.96832343  1.0
  Se  Se6  1  0.87500000  1.40667657  1.03167657  1.0
  Se  Se7  1  0.59332343  0.62500000  0.46832343  1.0
