# generated using pymatgen
data_Li2MoO4
_symmetry_space_group_name_H-M   'P 1'
_cell_length_a   8.98487353
_cell_length_b   8.98487353
_cell_length_c   8.98487353
_cell_angle_alpha   107.95537013
_cell_angle_beta   107.95537013
_cell_angle_gamma   107.95537013
_symmetry_Int_Tables_number   1
_chemical_formula_structural   Li2MoO4
_chemical_formula_sum   'Li12 Mo6 O24'
_cell_volume   587.60901257
_cell_formula_units_Z   6
loop_
 _symmetry_equiv_pos_site_id
 _symmetry_equiv_pos_as_xyz
  1  'x, y, z'
loop_
 _atom_site_type_symbol
 _atom_site_label
 _atom_site_symmetry_multiplicity
 _atom_site_fract_x
 _atom_site_fract_y
 _atom_site_fract_z
 _atom_site_occupancy
  Li  Li0  1  0.70306817  1.10719911  -0.06835246  1.0
  Li  Li1  1  0.89280089  0.06835246  0.29693183  1.0
  Li  Li2  1  1.06835246  0.29693183  -0.10719911  1.0
  Li  Li3  1  1.29693183  -0.10719911  0.06835246  1.0
  Li  Li4  1  1.10719911  0.93164754  -0.29693183  1.0
  Li  Li5  1  0.93164754  0.70306817  0.10719911  1.0
  Li  Li6  1  1.37314730  0.77751165  -0.39452425  1.0
  Li  Li7  1  1.22248835  0.39452425  -0.37314730  1.0
  Li  Li8  1  1.39452425  -0.37314730  0.22248835  1.0
  Li  Li9  1  0.62685270  0.22248835  0.39452425  1.0
  Li  Li10  1  0.77751165  0.60547575  0.37314730  1.0
  Li  Li11  1  0.60547575  1.37314730  -0.22248835  1.0
  Mo  Mo12  1  1.55445828  0.73370953  -0.03709244  1.0
  Mo  Mo13  1  0.26629047  1.03709244  -0.55445828  1.0
  Mo  Mo14  1  1.03709244  0.44554172  -0.73370953  1.0
  Mo  Mo15  1  0.44554172  0.26629047  0.03709244  1.0
  Mo  Mo16  1  1.73370953  -0.03709244  0.55445828  1.0
  Mo  Mo17  1  0.96290756  0.55445828  0.73370953  1.0
  O  O18  1  0.77680020  0.81836960  0.11382881  1.0
  O  O19  1  1.18163040  -0.11382881  0.22319980  1.0
  O  O20  1  0.88617119  0.22319980  0.18163040  1.0
  O  O21  1  1.22319980  0.18163040  -0.11382881  1.0
  O  O22  1  0.81836960  1.11382881  -0.22319980  1.0
  O  O23  1  1.11382881  0.77680020  -0.18163040  1.0
  O  O24  1  1.47124826  0.51197093  -0.19044270  1.0
  O  O25  1  0.48802907  1.19044270  -0.47124826  1.0
  O  O26  1  1.19044270  0.52875174  -0.51197093  1.0
  O  O27  1  0.52875174  0.48802907  0.19044270  1.0
  O  O28  1  1.51197093  -0.19044270  0.47124826  1.0
  O  O29  1  0.80955730  0.47124826  0.51197093  1.0
  O  O30  1  1.53932635  0.86186914  -0.15213315  1.0
  O  O31  1  1.13813086  0.15213315  -0.53932635  1.0
  O  O32  1  1.15213315  -0.53932635  0.13813086  1.0
  O  O33  1  0.46067365  0.13813086  0.15213315  1.0
  O  O34  1  0.86186914  0.84786685  0.53932635  1.0
  O  O35  1  0.84786685  1.53932635  -0.13813086  1.0
  O  O36  1  1.57431207  0.25043372  -0.07851413  1.0
  O  O37  1  0.74956628  1.07851413  -0.57431207  1.0
  O  O38  1  1.07851413  0.42568793  -0.25043372  1.0
  O  O39  1  0.42568793  0.74956628  0.07851413  1.0
  O  O40  1  1.25043372  -0.07851413  0.57431207  1.0
  O  O41  1  0.92148587  0.57431207  0.25043372  1.0
