# generated using pymatgen
data_CuCS
_symmetry_space_group_name_H-M   'P 1'
_cell_length_a   8.57381980
_cell_length_b   8.57381980
_cell_length_c   3.24619540
_cell_angle_alpha   90.00000000
_cell_angle_beta   90.00000000
_cell_angle_gamma   90.00000000
_symmetry_Int_Tables_number   1
_chemical_formula_structural   CuCS
_chemical_formula_sum   'Cu4 C4 S4'
_cell_volume   238.62907645
_cell_formula_units_Z   4
loop_
 _symmetry_equiv_pos_site_id
 _symmetry_equiv_pos_as_xyz
  1  'x, y, z'
loop_
 _atom_site_type_symbol
 _atom_site_label
 _atom_site_symmetry_multiplicity
 _atom_site_fract_x
 _atom_site_fract_y
 _atom_site_fract_z
 _atom_site_occupancy
  Cu  Cu0  1  0.83738344  0.04562594  0.50000000  1.0
  Cu  Cu1  1  0.16261656  0.95437406  0.50000000  1.0
  Cu  Cu2  1  0.04562594  0.16261656  0.00000000  1.0
  Cu  Cu3  1  0.95437406  0.83738344  0.00000000  1.0
  C  C4  1  0.81775715  0.81422426  0.50000000  1.0
  C  C5  1  0.18224285  0.18577574  0.50000000  1.0
  C  C6  1  0.81422426  0.18224285  -0.00000000  1.0
  C  C7  1  0.18577574  0.81775715  -0.00000000  1.0
  S  S8  1  0.68412997  0.68454516  0.50000000  1.0
  S  S9  1  0.31587003  0.31545484  0.50000000  1.0
  S  S10  1  0.68454516  0.31587003  0.00000000  1.0
  S  S11  1  0.31545484  0.68412997  -0.00000000  1.0
