# generated using pymatgen
data_MgAl2O4
_symmetry_space_group_name_H-M   'P 1'
_cell_length_a   8.76219337
_cell_length_b   2.81461373
_cell_length_c   10.03275899
_cell_angle_alpha   90.00000000
_cell_angle_beta   90.00000000
_cell_angle_gamma   90.00000000
_symmetry_Int_Tables_number   1
_chemical_formula_structural   MgAl2O4
_chemical_formula_sum   'Mg4 Al8 O16'
_cell_volume   247.42980566
_cell_formula_units_Z   4
loop_
 _symmetry_equiv_pos_site_id
 _symmetry_equiv_pos_as_xyz
  1  'x, y, z'
loop_
 _atom_site_type_symbol
 _atom_site_label
 _atom_site_symmetry_multiplicity
 _atom_site_fract_x
 _atom_site_fract_y
 _atom_site_fract_z
 _atom_site_occupancy
  Mg  Mg0  1  0.75406837  0.75000000  0.65183839  1.0
  Mg  Mg1  1  0.25406837  0.75000000  0.84816161  1.0
  Mg  Mg2  1  0.24593163  0.25000000  0.34816161  1.0
  Mg  Mg3  1  0.74593163  0.25000000  0.15183839  1.0
  Al  Al4  1  0.44133085  0.75000000  0.61671585  1.0
  Al  Al5  1  0.94133085  0.75000000  0.88328415  1.0
  Al  Al6  1  0.55866915  0.25000000  0.38328415  1.0
  Al  Al7  1  0.05866915  0.25000000  0.11671585  1.0
  Al  Al8  1  0.91314413  0.75000000  0.39661098  1.0
  Al  Al9  1  0.41314413  0.75000000  0.10338902  1.0
  Al  Al10  1  0.08685587  0.25000000  0.60338902  1.0
  Al  Al11  1  0.58685587  0.25000000  0.89661098  1.0
  O  O12  1  0.61999961  0.75000000  0.02962072  1.0
  O  O13  1  0.11999961  0.75000000  0.47037928  1.0
  O  O14  1  0.38000039  0.25000000  0.97037928  1.0
  O  O15  1  0.88000039  0.25000000  0.52962072  1.0
  O  O16  1  0.53738332  0.75000000  0.78355911  1.0
  O  O17  1  0.03738332  0.75000000  0.71644089  1.0
  O  O18  1  0.46261668  0.25000000  0.21644089  1.0
  O  O19  1  0.96261668  0.25000000  0.28355911  1.0
  O  O20  1  0.70055199  0.75000000  0.33131652  1.0
  O  O21  1  0.20055199  0.75000000  0.16868348  1.0
  O  O22  1  0.29944801  0.25000000  0.66868348  1.0
  O  O23  1  0.79944801  0.25000000  0.83131652  1.0
  O  O24  1  0.91162161  0.75000000  0.07037076  1.0
  O  O25  1  0.41162161  0.75000000  0.42962924  1.0
  O  O26  1  0.08837839  0.25000000  0.92962924  1.0
  O  O27  1  0.58837839  0.25000000  0.57037076  1.0
