# generated using pymatgen
data_Ba2Tl2CuO6
_symmetry_space_group_name_H-M   'P 1'
_cell_length_a   12.22417618
_cell_length_b   12.22417618
_cell_length_c   5.57037874
_cell_angle_alpha   90.00000000
_cell_angle_beta   90.00000000
_cell_angle_gamma   153.99376493
_symmetry_Int_Tables_number   1
_chemical_formula_structural   Ba2Tl2CuO6
_chemical_formula_sum   'Ba4 Tl4 Cu2 O12'
_cell_volume   364.97471133
_cell_formula_units_Z   2
loop_
 _symmetry_equiv_pos_site_id
 _symmetry_equiv_pos_as_xyz
  1  'x, y, z'
loop_
 _atom_site_type_symbol
 _atom_site_label
 _atom_site_symmetry_multiplicity
 _atom_site_fract_x
 _atom_site_fract_y
 _atom_site_fract_z
 _atom_site_occupancy
  Ba  Ba0  1  -0.08112133  0.08112133  0.50094157  1.0
  Ba  Ba1  1  0.41887867  0.58112133  -0.00094157  1.0
  Ba  Ba2  1  0.08112133  0.91887867  0.49905843  1.0
  Ba  Ba3  1  -0.41887867  0.41887867  0.00094157  1.0
  Tl  Tl4  1  -0.29801502  0.29801502  0.51749322  1.0
  Tl  Tl5  1  0.20198498  0.79801502  -0.01749322  1.0
  Tl  Tl6  1  0.29801502  0.70198498  0.48250678  1.0
  Tl  Tl7  1  -0.20198498  0.20198498  0.01749322  1.0
  Cu  Cu8  1  -0.50000000  0.50000000  0.50000000  1.0
  Cu  Cu9  1  0.00000000  1.00000000  0.00000000  1.0
  O  O10  1  -0.38327190  0.38327190  0.50080377  1.0
  O  O11  1  0.11672810  0.88327190  -0.00080377  1.0
  O  O12  1  0.38327190  0.61672810  0.49919623  1.0
  O  O13  1  -0.11672810  0.11672810  0.00080377  1.0
  O  O14  1  0.24998613  1.25001387  0.25000000  1.0
  O  O15  1  -0.25001387  0.75001387  0.25000000  1.0
  O  O16  1  0.25001387  1.24998613  0.75000000  1.0
  O  O17  1  -0.24998613  0.74998613  0.75000000  1.0
  O  O18  1  -0.21167242  0.21167242  0.45674003  1.0
  O  O19  1  0.28832758  0.71167242  0.04325997  1.0
  O  O20  1  0.21167242  0.78832758  0.54325997  1.0
  O  O21  1  -0.28832758  0.28832758  0.95674003  1.0
