# generated using pymatgen
data_Co2AsO5
_symmetry_space_group_name_H-M   'P 1'
_cell_length_a   8.42697263
_cell_length_b   8.58412732
_cell_length_c   5.82869574
_cell_angle_alpha   90.00000000
_cell_angle_beta   90.00000000
_cell_angle_gamma   90.00000000
_symmetry_Int_Tables_number   1
_chemical_formula_structural   Co2AsO5
_chemical_formula_sum   'Co8 As4 O20'
_cell_volume   421.63739290
_cell_formula_units_Z   4
loop_
 _symmetry_equiv_pos_site_id
 _symmetry_equiv_pos_as_xyz
  1  'x, y, z'
loop_
 _atom_site_type_symbol
 _atom_site_label
 _atom_site_symmetry_multiplicity
 _atom_site_fract_x
 _atom_site_fract_y
 _atom_site_fract_z
 _atom_site_occupancy
  Co  Co0  1  0.87809973  0.64917940  0.50000000  1.0
  Co  Co1  1  0.37809973  0.85082060  -0.00000000  1.0
  Co  Co2  1  0.12190027  0.35082060  0.50000000  1.0
  Co  Co3  1  0.62190027  0.14917940  -0.00000000  1.0
  Co  Co4  1  0.50000000  0.50000000  0.22279166  1.0
  Co  Co5  1  0.50000000  0.50000000  0.77720834  1.0
  Co  Co6  1  0.00000000  0.00000000  0.72279166  1.0
  Co  Co7  1  0.00000000  0.00000000  0.27720834  1.0
  As  As8  1  0.25247639  0.73650559  0.50000000  1.0
  As  As9  1  0.75247639  0.76349441  -0.00000000  1.0
  As  As10  1  0.74752361  0.26349441  0.50000000  1.0
  As  As11  1  0.24752361  0.23650559  -0.00000000  1.0
  O  O12  1  0.23659456  0.85977241  0.26289446  1.0
  O  O13  1  0.23659456  0.85977241  0.73710554  1.0
  O  O14  1  0.73659456  0.64022759  0.76289446  1.0
  O  O15  1  0.73659456  0.64022759  0.23710554  1.0
  O  O16  1  0.76340544  0.14022759  0.26289446  1.0
  O  O17  1  0.76340544  0.14022759  0.73710554  1.0
  O  O18  1  0.26340544  0.35977241  0.76289446  1.0
  O  O19  1  0.26340544  0.35977241  0.23710554  1.0
  O  O20  1  0.43144232  0.63105630  0.50000000  1.0
  O  O21  1  0.93144232  0.86894370  0.00000000  1.0
  O  O22  1  0.56855768  0.36894370  0.50000000  1.0
  O  O23  1  0.06855768  0.13105630  0.00000000  1.0
  O  O24  1  0.10258134  0.59488423  0.50000000  1.0
  O  O25  1  0.60258134  0.90511577  0.00000000  1.0
  O  O26  1  0.89741866  0.40511577  0.50000000  1.0
  O  O27  1  0.39741866  0.09488423  0.00000000  1.0
  O  O28  1  0.92619986  0.86169375  0.50000000  1.0
  O  O29  1  0.42619986  0.63830625  0.00000000  1.0
  O  O30  1  0.07380014  0.13830625  0.50000000  1.0
  O  O31  1  0.57380014  0.36169375  0.00000000  1.0
