# generated using pymatgen
data_BiPd2Pb
_symmetry_space_group_name_H-M   'P 1'
_cell_length_a   5.75092559
_cell_length_b   5.75092559
_cell_length_c   10.69366275
_cell_angle_alpha   90.00000000
_cell_angle_beta   90.00000000
_cell_angle_gamma   78.83025498
_symmetry_Int_Tables_number   1
_chemical_formula_structural   BiPd2Pb
_chemical_formula_sum   'Bi4 Pd8 Pb4'
_cell_volume   346.97363794
_cell_formula_units_Z   4
loop_
 _symmetry_equiv_pos_site_id
 _symmetry_equiv_pos_as_xyz
  1  'x, y, z'
loop_
 _atom_site_type_symbol
 _atom_site_label
 _atom_site_symmetry_multiplicity
 _atom_site_fract_x
 _atom_site_fract_y
 _atom_site_fract_z
 _atom_site_occupancy
  Bi  Bi0  1  0.15050744  0.39612067  0.27588414  1.0
  Bi  Bi1  1  -0.60387933  1.15050744  0.77588414  1.0
  Bi  Bi2  1  0.60387933  0.84949256  0.27588414  1.0
  Bi  Bi3  1  -0.15050744  1.60387933  0.77588414  1.0
  Pd  Pd4  1  -0.12980983  1.62245968  0.05474995  1.0
  Pd  Pd5  1  0.62245968  0.87019017  0.55474995  1.0
  Pd  Pd6  1  -0.62245968  1.12980983  0.05474995  1.0
  Pd  Pd7  1  0.12980983  0.37754032  0.55474995  1.0
  Pd  Pd8  1  0.08324139  0.91675861  0.22122736  1.0
  Pd  Pd9  1  -0.08324139  1.08324139  0.72122736  1.0
  Pd  Pd10  1  -0.32854296  1.32854296  0.22533819  1.0
  Pd  Pd11  1  0.32854296  0.67145704  0.72533819  1.0
  Pb  Pb12  1  0.12052860  0.87947140  0.48981503  1.0
  Pb  Pb13  1  -0.12052860  1.12052860  0.98981503  1.0
  Pb  Pb14  1  0.36787334  0.63212666  -0.00164877  1.0
  Pb  Pb15  1  -0.36787334  1.36787334  0.49835123  1.0
