# generated using pymatgen
data_Ba4Na2CaTi3Si4(SO13)2
_symmetry_space_group_name_H-M   'P 1'
_cell_length_a   7.20776242
_cell_length_b   5.49052480
_cell_length_c   14.99831350
_cell_angle_alpha   94.74976625
_cell_angle_beta   98.98930193
_cell_angle_gamma   89.99404371
_symmetry_Int_Tables_number   1
_chemical_formula_structural   Ba4Na2CaTi3Si4(SO13)2
_chemical_formula_sum   'Ba4 Na2 Ca1 Ti3 Si4 S2 O26'
_cell_volume   584.19601227
_cell_formula_units_Z   1
loop_
 _symmetry_equiv_pos_site_id
 _symmetry_equiv_pos_as_xyz
  1  'x, y, z'
loop_
 _atom_site_type_symbol
 _atom_site_label
 _atom_site_symmetry_multiplicity
 _atom_site_fract_x
 _atom_site_fract_y
 _atom_site_fract_z
 _atom_site_occupancy
  Ba  Ba0  1  0.00785385  -0.00237427  -0.01789833  1.0
  Ba  Ba1  1  -0.70812652  -0.93241542  -0.70496424  1.0
  Ba  Ba2  1  -0.45590805  -0.48361808  -0.93060537  1.0
  Ba  Ba3  1  -0.17191822  -0.41470126  -0.61733434  1.0
  Na  Na4  1  -0.57881774  -0.70876503  -0.31764617  1.0
  Na  Na5  1  -0.31638376  -0.20838309  -0.31801367  1.0
  Ca  Ca6  1  -0.85724127  -0.20947153  -0.31743548  1.0
  Ti  Ti7  1  -0.64660260  -0.38990813  -0.51935569  1.0
  Ti  Ti8  1  -0.09519008  -0.70932410  -0.31804705  1.0
  Ti  Ti9  1  -0.51852847  -0.02689833  -0.11587278  1.0
  Si  Si10  1  -0.36034128  -0.88605190  -0.50821000  1.0
  Si  Si11  1  -0.92502439  -0.88615626  -0.50764185  1.0
  Si  Si12  1  -0.80246552  -0.53075013  -0.12627591  1.0
  Si  Si13  1  -0.23844285  -0.53112347  -0.12882671  1.0
  S  S14  1  -0.28503365  -0.95237769  -0.79381636  1.0
  S  S15  1  -0.87912563  -0.46286999  -0.84186121  1.0
  O  O16  1  -0.15612999  -0.89897219  -0.54949528  1.0
  O  O17  1  -0.09341264  -0.45163737  -0.38941325  1.0
  O  O18  1  -0.69327992  -0.76391636  -0.07868006  1.0
  O  O19  1  -0.46910637  -0.14356117  -0.55378320  1.0
  O  O20  1  -0.31419424  -0.97566472  -0.89573796  1.0
  O  O21  1  -0.69413033  -0.27268289  -0.07949452  1.0
  O  O22  1  -0.56167372  -0.04950117  -0.22957728  1.0
  O  O23  1  -0.27174004  -0.54938205  -0.23799024  1.0
  O  O24  1  -0.78382980  -0.24771814  -0.87278926  1.0
  O  O25  1  -0.78430847  -0.69240648  -0.87281003  1.0
  O  O26  1  -0.08020215  -0.47147508  -0.88152734  1.0
  O  O27  1  -0.85099924  -0.43982388  -0.73999007  1.0
  O  O28  1  -0.38024815  -0.72322437  -0.76271996  1.0
  O  O29  1  -0.37922004  -0.16778789  -0.76248980  1.0
  O  O30  1  -0.08371211  -0.94238548  -0.75472891  1.0
  O  O31  1  -0.31949008  -0.76428595  -0.08281194  1.0
  O  O32  1  -0.31918494  -0.27453470  -0.08391683  1.0
  O  O33  1  -0.61478978  -0.36719410  -0.40563376  1.0
  O  O34  1  -0.84533193  -0.14318812  -0.55365785  1.0
  O  O35  1  -0.84456896  -0.65379843  -0.55434238  1.0
  O  O36  1  -0.46971828  -0.65196755  -0.55493578  1.0
  O  O37  1  -0.00805101  -0.51824096  -0.08604572  1.0
  O  O38  1  -0.83662731  -0.54456508  -0.23517050  1.0
  O  O39  1  -0.89043092  -0.87310624  -0.39881662  1.0
  O  O40  1  -0.32440716  -0.86780199  -0.39896085  1.0
  O  O41  1  -0.04881625  -0.96678896  -0.24657544  1.0
