# generated using pymatgen
data_CoSeO5
_symmetry_space_group_name_H-M   'P 1'
_cell_length_a   6.04579594
_cell_length_b   8.62148790
_cell_length_c   8.98681236
_cell_angle_alpha   90.00000000
_cell_angle_beta   126.03587556
_cell_angle_gamma   90.00000000
_symmetry_Int_Tables_number   1
_chemical_formula_structural   CoSeO5
_chemical_formula_sum   'Co4 Se4 O20'
_cell_volume   378.79246058
_cell_formula_units_Z   4
loop_
 _symmetry_equiv_pos_site_id
 _symmetry_equiv_pos_as_xyz
  1  'x, y, z'
loop_
 _atom_site_type_symbol
 _atom_site_label
 _atom_site_symmetry_multiplicity
 _atom_site_fract_x
 _atom_site_fract_y
 _atom_site_fract_z
 _atom_site_occupancy
  Se  Se0  1  0.78450602  0.86959179  0.19702108  1.0
  Se  Se1  1  0.78450602  0.63040821  0.69702108  1.0
  Se  Se2  1  0.21549398  0.36959179  0.30297892  1.0
  Se  Se3  1  0.21549398  0.13040821  0.80297892  1.0
  Co  Co4  1  0.81406646  0.34219603  0.44899195  1.0
  Co  Co5  1  0.81406646  0.15780397  0.94899195  1.0
  Co  Co6  1  0.18593354  0.84219603  0.05100805  1.0
  Co  Co7  1  0.18593354  0.65780397  0.55100805  1.0
  O  O8  1  0.58071225  0.40804466  0.23904842  1.0
  O  O9  1  0.58071225  0.09195534  0.73904842  1.0
  O  O10  1  0.41928775  0.90804466  0.26095158  1.0
  O  O11  1  0.41928775  0.59195534  0.76095158  1.0
  O  O12  1  0.84001835  0.15719203  0.41608756  1.0
  O  O13  1  0.84001835  0.34280797  0.91608756  1.0
  O  O14  1  0.15998165  0.65719203  0.08391244  1.0
  O  O15  1  0.15998165  0.84280797  0.58391244  1.0
  O  O16  1  0.55263415  0.32574657  0.49605827  1.0
  O  O17  1  0.55263415  0.17425343  0.99605827  1.0
  O  O18  1  0.44736585  0.82574657  0.00394173  1.0
  O  O19  1  0.44736585  0.67425343  0.50394173  1.0
  O  O20  1  0.91452531  0.68853906  0.27325610  1.0
  O  O21  1  0.91452531  0.81146094  0.77325610  1.0
  O  O22  1  0.08547469  0.18853906  0.22674390  1.0
  O  O23  1  0.08547469  0.31146094  0.72674390  1.0
  O  O24  1  0.87504426  0.91354018  0.04419124  1.0
  O  O25  1  0.87504426  0.58645982  0.54419124  1.0
  O  O26  1  0.12495574  0.41354018  0.45580876  1.0
  O  O27  1  0.12495574  0.08645982  0.95580876  1.0
