# generated using pymatgen
data_CoSbS
_symmetry_space_group_name_H-M   'P 1'
_cell_length_a   5.83707272
_cell_length_b   5.97376231
_cell_length_c   11.68416123
_cell_angle_alpha   90.00000000
_cell_angle_beta   90.00000000
_cell_angle_gamma   90.00000000
_symmetry_Int_Tables_number   1
_chemical_formula_structural   CoSbS
_chemical_formula_sum   'Co8 Sb8 S8'
_cell_volume   407.41834830
_cell_formula_units_Z   8
loop_
 _symmetry_equiv_pos_site_id
 _symmetry_equiv_pos_as_xyz
  1  'x, y, z'
loop_
 _atom_site_type_symbol
 _atom_site_label
 _atom_site_symmetry_multiplicity
 _atom_site_fract_x
 _atom_site_fract_y
 _atom_site_fract_z
 _atom_site_occupancy
  Co  Co0  1  0.48410766  0.83391323  0.61465147  1.0
  Co  Co1  1  0.48410766  0.66608677  0.11465147  1.0
  Co  Co2  1  0.98410766  0.83391323  0.88534853  1.0
  Co  Co3  1  0.98410766  0.66608677  0.38534853  1.0
  Co  Co4  1  0.51589234  0.33391323  0.88534853  1.0
  Co  Co5  1  0.51589234  0.16608677  0.38534853  1.0
  Co  Co6  1  0.01589234  0.33391323  0.61465147  1.0
  Co  Co7  1  0.01589234  0.16608677  0.11465147  1.0
  Sb  Sb8  1  0.37988464  0.95083376  0.81990569  1.0
  Sb  Sb9  1  0.37988464  0.54916624  0.31990569  1.0
  Sb  Sb10  1  0.87988464  0.95083376  0.68009431  1.0
  Sb  Sb11  1  0.87988464  0.54916624  0.18009431  1.0
  Sb  Sb12  1  0.62011536  0.45083376  0.68009431  1.0
  Sb  Sb13  1  0.62011536  0.04916624  0.18009431  1.0
  Sb  Sb14  1  0.12011536  0.45083376  0.81990569  1.0
  Sb  Sb15  1  0.12011536  0.04916624  0.31990569  1.0
  S  S16  1  0.13386016  0.68586111  0.56477588  1.0
  S  S17  1  0.13386016  0.81413889  0.06477588  1.0
  S  S18  1  0.63386016  0.68586111  0.93522412  1.0
  S  S19  1  0.63386016  0.81413889  0.43522412  1.0
  S  S20  1  0.86613984  0.18586111  0.93522412  1.0
  S  S21  1  0.86613984  0.31413889  0.43522412  1.0
  S  S22  1  0.36613984  0.18586111  0.56477588  1.0
  S  S23  1  0.36613984  0.31413889  0.06477588  1.0
