# generated using pymatgen
data_KIn(MoO4)2
_symmetry_space_group_name_H-M   'P 1'
_cell_length_a   15.62534381
_cell_length_b   5.90439079
_cell_length_c   9.05440892
_cell_angle_alpha   90.00000000
_cell_angle_beta   90.00000000
_cell_angle_gamma   90.00000000
_symmetry_Int_Tables_number   1
_chemical_formula_structural   KIn(MoO4)2
_chemical_formula_sum   'K4 In4 Mo8 O32'
_cell_volume   835.34288995
_cell_formula_units_Z   4
loop_
 _symmetry_equiv_pos_site_id
 _symmetry_equiv_pos_as_xyz
  1  'x, y, z'
loop_
 _atom_site_type_symbol
 _atom_site_label
 _atom_site_symmetry_multiplicity
 _atom_site_fract_x
 _atom_site_fract_y
 _atom_site_fract_z
 _atom_site_occupancy
  K  K0  1  0.12632798  0.75000000  0.93985527  1.0
  K  K1  1  0.62632798  0.75000000  0.56014473  1.0
  K  K2  1  0.87367202  0.25000000  0.06014473  1.0
  K  K3  1  0.37367202  0.25000000  0.43985527  1.0
  In  In4  1  0.38437634  0.75000000  0.81834947  1.0
  In  In5  1  0.88437634  0.75000000  0.68165053  1.0
  In  In6  1  0.61562366  0.25000000  0.18165053  1.0
  In  In7  1  0.11562366  0.25000000  0.31834947  1.0
  Mo  Mo8  1  0.47157976  0.75000000  0.21702235  1.0
  Mo  Mo9  1  0.97157976  0.75000000  0.28297765  1.0
  Mo  Mo10  1  0.52842024  0.25000000  0.78297765  1.0
  Mo  Mo11  1  0.02842024  0.25000000  0.71702235  1.0
  Mo  Mo12  1  0.21641167  0.75000000  0.51477632  1.0
  Mo  Mo13  1  0.71641167  0.75000000  0.98522368  1.0
  Mo  Mo14  1  0.78358833  0.25000000  0.48522368  1.0
  Mo  Mo15  1  0.28358833  0.25000000  0.01477632  1.0
  O  O16  1  0.46802256  0.49401586  0.72352668  1.0
  O  O17  1  0.46802256  0.00598414  0.72352668  1.0
  O  O18  1  0.96802256  0.49401586  0.77647332  1.0
  O  O19  1  0.96802256  0.00598414  0.77647332  1.0
  O  O20  1  0.53197744  0.99401586  0.27647332  1.0
  O  O21  1  0.53197744  0.50598414  0.27647332  1.0
  O  O22  1  0.03197744  0.99401586  0.22352668  1.0
  O  O23  1  0.03197744  0.50598414  0.22352668  1.0
  O  O24  1  0.29463072  0.99786778  0.90494224  1.0
  O  O25  1  0.29463072  0.50213222  0.90494224  1.0
  O  O26  1  0.79463072  0.99786778  0.59505776  1.0
  O  O27  1  0.79463072  0.50213222  0.59505776  1.0
  O  O28  1  0.70536928  0.49786778  0.09505776  1.0
  O  O29  1  0.70536928  0.00213222  0.09505776  1.0
  O  O30  1  0.20536928  0.49786778  0.40494224  1.0
  O  O31  1  0.20536928  0.00213222  0.40494224  1.0
  O  O32  1  0.45498009  0.75000000  0.02297940  1.0
  O  O33  1  0.95498009  0.75000000  0.47702060  1.0
  O  O34  1  0.54501991  0.25000000  0.97702060  1.0
  O  O35  1  0.04501991  0.25000000  0.52297940  1.0
  O  O36  1  0.37534536  0.75000000  0.31216072  1.0
  O  O37  1  0.87534536  0.75000000  0.18783928  1.0
  O  O38  1  0.62465464  0.25000000  0.68783928  1.0
  O  O39  1  0.12465464  0.25000000  0.81216072  1.0
  O  O40  1  0.31673603  0.75000000  0.61098259  1.0
  O  O41  1  0.81673603  0.75000000  0.88901741  1.0
  O  O42  1  0.68326397  0.25000000  0.38901741  1.0
  O  O43  1  0.18326397  0.25000000  0.11098259  1.0
  O  O44  1  0.13551765  0.75000000  0.64447024  1.0
  O  O45  1  0.63551765  0.75000000  0.85552976  1.0
  O  O46  1  0.86448235  0.25000000  0.35552976  1.0
  O  O47  1  0.36448235  0.25000000  0.14447024  1.0
