# generated using pymatgen
data_CaH2(CO2)2
_symmetry_space_group_name_H-M   'P 1'
_cell_length_a   6.82688869
_cell_length_b   6.82688869
_cell_length_c   9.72117914
_cell_angle_alpha   90.00000000
_cell_angle_beta   90.00000000
_cell_angle_gamma   90.00000000
_symmetry_Int_Tables_number   1
_chemical_formula_structural   CaH2(CO2)2
_chemical_formula_sum   'Ca4 H8 C8 O16'
_cell_volume   453.06925274
_cell_formula_units_Z   4
loop_
 _symmetry_equiv_pos_site_id
 _symmetry_equiv_pos_as_xyz
  1  'x, y, z'
loop_
 _atom_site_type_symbol
 _atom_site_label
 _atom_site_symmetry_multiplicity
 _atom_site_fract_x
 _atom_site_fract_y
 _atom_site_fract_z
 _atom_site_occupancy
  Ca  Ca0  1  0.28464465  0.71535535  0.25000000  1.0
  Ca  Ca1  1  0.71535535  0.28464465  0.75000000  1.0
  Ca  Ca2  1  0.21535535  0.21535535  0.50000000  1.0
  Ca  Ca3  1  0.78464465  0.78464465  -0.00000000  1.0
  H  H4  1  0.83894322  0.65585408  0.42269900  1.0
  H  H5  1  0.16105678  0.34414592  0.92269900  1.0
  H  H6  1  0.15585408  0.66105678  0.67269900  1.0
  H  H7  1  0.84414592  0.33894322  0.17269900  1.0
  H  H8  1  0.34414592  0.16105678  0.07730100  1.0
  H  H9  1  0.65585408  0.83894322  0.57730100  1.0
  H  H10  1  0.66105678  0.15585408  0.32730100  1.0
  H  H11  1  0.33894322  0.84414592  0.82730100  1.0
  C  C12  1  0.79708438  0.69976035  0.31687804  1.0
  C  C13  1  0.20291562  0.30023965  0.81687804  1.0
  C  C14  1  0.19976035  0.70291562  0.56687804  1.0
  C  C15  1  0.80023965  0.29708438  0.06687804  1.0
  C  C16  1  0.30023965  0.20291562  0.18312196  1.0
  C  C17  1  0.69976035  0.79708438  0.68312196  1.0
  C  C18  1  0.70291562  0.19976035  0.43312196  1.0
  C  C19  1  0.29708438  0.80023965  0.93312196  1.0
  O  O20  1  0.93485804  0.72427916  0.23027442  1.0
  O  O21  1  0.06514196  0.27572084  0.73027442  1.0
  O  O22  1  0.22427916  0.56514196  0.48027442  1.0
  O  O23  1  0.77572084  0.43485804  0.98027442  1.0
  O  O24  1  0.27572084  0.06514196  0.26972558  1.0
  O  O25  1  0.72427916  0.93485804  0.76972558  1.0
  O  O26  1  0.56514196  0.22427916  0.51972558  1.0
  O  O27  1  0.43485804  0.77572084  0.01972558  1.0
  O  O28  1  0.61846552  0.72007215  0.28942960  1.0
  O  O29  1  0.38153448  0.27992785  0.78942960  1.0
  O  O30  1  0.22007215  0.88153448  0.53942960  1.0
  O  O31  1  0.77992785  0.11846552  0.03942960  1.0
  O  O32  1  0.27992785  0.38153448  0.21057040  1.0
  O  O33  1  0.72007215  0.61846552  0.71057040  1.0
  O  O34  1  0.88153448  0.22007215  0.46057040  1.0
  O  O35  1  0.11846552  0.77992785  0.96057040  1.0
