# generated using pymatgen
data_V6PbO11
_symmetry_space_group_name_H-M   'P 1'
_cell_length_a   5.69955947
_cell_length_b   5.69955947
_cell_length_c   13.68297493
_cell_angle_alpha   90.00000000
_cell_angle_beta   90.00000000
_cell_angle_gamma   120.00000000
_symmetry_Int_Tables_number   1
_chemical_formula_structural   V6PbO11
_chemical_formula_sum   'V12 Pb2 O22'
_cell_volume   384.94061984
_cell_formula_units_Z   2
loop_
 _symmetry_equiv_pos_site_id
 _symmetry_equiv_pos_as_xyz
  1  'x, y, z'
loop_
 _atom_site_type_symbol
 _atom_site_label
 _atom_site_symmetry_multiplicity
 _atom_site_fract_x
 _atom_site_fract_y
 _atom_site_fract_z
 _atom_site_occupancy
  O  O0  1  0.65856496  0.82928248  0.27401591  1.0
  O  O1  1  0.82928248  0.65856496  0.77401591  1.0
  O  O2  1  0.82928248  0.17071752  0.77401591  1.0
  O  O3  1  0.17071752  0.82928248  0.27401591  1.0
  O  O4  1  0.17071752  0.34143504  0.27401591  1.0
  O  O5  1  0.34143504  0.17071752  0.77401591  1.0
  O  O6  1  0.30819698  0.15409849  0.10249250  1.0
  O  O7  1  0.15409849  0.30819698  0.60249250  1.0
  O  O8  1  0.15409849  0.84590151  0.60249250  1.0
  O  O9  1  0.84590151  0.15409849  0.10249250  1.0
  O  O10  1  0.84590151  0.69180302  0.10249250  1.0
  O  O11  1  0.69180302  0.84590151  0.60249250  1.0
  O  O12  1  0.33333333  0.66666667  0.43623894  1.0
  O  O13  1  0.66666667  0.33333333  0.93623894  1.0
  O  O14  1  0.33333333  0.66666667  0.75629698  1.0
  O  O15  1  0.66666667  0.33333333  0.25629698  1.0
  O  O16  1  0.33568054  0.16784027  0.43384015  1.0
  O  O17  1  0.16784027  0.33568054  0.93384015  1.0
  O  O18  1  0.16784027  0.83215973  0.93384015  1.0
  O  O19  1  0.83215973  0.16784027  0.43384015  1.0
  O  O20  1  0.83215973  0.66431946  0.43384015  1.0
  O  O21  1  0.66431946  0.83215973  0.93384015  1.0
  V  V22  1  0.00000000  0.00000000  0.20474696  1.0
  V  V23  1  0.00000000  0.00000000  0.70474696  1.0
  V  V24  1  0.00000000  0.00000000  0.00244790  1.0
  V  V25  1  0.00000000  0.00000000  0.50244790  1.0
  V  V26  1  0.95714420  0.47857210  0.35294841  1.0
  V  V27  1  0.47857210  0.95714420  0.85294841  1.0
  V  V28  1  0.47857210  0.52142790  0.85294841  1.0
  V  V29  1  0.52142790  0.47857210  0.35294841  1.0
  V  V30  1  0.52142790  0.04285580  0.35294841  1.0
  V  V31  1  0.04285580  0.52142790  0.85294841  1.0
  V  V32  1  0.33333333  0.66666667  0.57204999  1.0
  V  V33  1  0.66666667  0.33333333  0.07204999  1.0
  Pb  Pb34  1  0.33333333  0.66666667  0.13932832  1.0
  Pb  Pb35  1  0.66666667  0.33333333  0.63932832  1.0
