# generated using pymatgen
data_NbSi2
_symmetry_space_group_name_H-M   'P 1'
_cell_length_a   4.98766430
_cell_length_b   4.98766430
_cell_length_c   7.91045123
_cell_angle_alpha   90.00000000
_cell_angle_beta   90.00000000
_cell_angle_gamma   120.00000000
_symmetry_Int_Tables_number   1
_chemical_formula_structural   NbSi2
_chemical_formula_sum   'Nb4 Si8'
_cell_volume   170.42225959
_cell_formula_units_Z   4
loop_
 _symmetry_equiv_pos_site_id
 _symmetry_equiv_pos_as_xyz
  1  'x, y, z'
loop_
 _atom_site_type_symbol
 _atom_site_label
 _atom_site_symmetry_multiplicity
 _atom_site_fract_x
 _atom_site_fract_y
 _atom_site_fract_z
 _atom_site_occupancy
  Nb  Nb0  1  0.33333333  0.66666667  0.44490855  1.0
  Nb  Nb1  1  0.66666667  0.33333333  0.55509145  1.0
  Nb  Nb2  1  0.66666667  0.33333333  0.94490855  1.0
  Nb  Nb3  1  0.33333333  0.66666667  0.05509145  1.0
  Si  Si4  1  0.00000000  0.00000000  0.50000000  1.0
  Si  Si5  1  0.00000000  0.00000000  0.00000000  1.0
  Si  Si6  1  0.82804891  0.17195109  0.25000000  1.0
  Si  Si7  1  0.82804891  0.65609781  0.25000000  1.0
  Si  Si8  1  0.34390219  0.17195109  0.25000000  1.0
  Si  Si9  1  0.17195109  0.82804891  0.75000000  1.0
  Si  Si10  1  0.17195109  0.34390219  0.75000000  1.0
  Si  Si11  1  0.65609781  0.82804891  0.75000000  1.0
