# generated using pymatgen
data_Na2Te4MoO12
_symmetry_space_group_name_H-M   'P 1'
_cell_length_a   9.29018693
_cell_length_b   9.29018693
_cell_length_c   11.59331262
_cell_angle_alpha   74.03035896
_cell_angle_beta   105.96964104
_cell_angle_gamma   142.61162929
_symmetry_Int_Tables_number   1
_chemical_formula_structural   Na2Te4MoO12
_chemical_formula_sum   'Na4 Te8 Mo2 O24'
_cell_volume   581.38061908
_cell_formula_units_Z   2
loop_
 _symmetry_equiv_pos_site_id
 _symmetry_equiv_pos_as_xyz
  1  'x, y, z'
loop_
 _atom_site_type_symbol
 _atom_site_label
 _atom_site_symmetry_multiplicity
 _atom_site_fract_x
 _atom_site_fract_y
 _atom_site_fract_z
 _atom_site_occupancy
  Na  Na0  1  0.56504112  -0.01365854  0.73542808  1.0
  Na  Na1  1  1.01365854  0.43495888  0.23542808  1.0
  Na  Na2  1  0.98634146  0.56504112  0.76457192  1.0
  Na  Na3  1  0.43495888  0.01365854  0.26457192  1.0
  Te  Te4  1  0.47950499  0.16724365  0.93297501  1.0
  Te  Te5  1  0.83275635  0.52049501  0.43297501  1.0
  Te  Te6  1  1.16724365  0.47950499  0.56702499  1.0
  Te  Te7  1  0.52049501  -0.16724365  0.06702499  1.0
  Te  Te8  1  0.32146987  0.13807776  0.59640372  1.0
  Te  Te9  1  0.86192224  0.67853013  0.09640372  1.0
  Te  Te10  1  1.13807776  0.32146987  0.90359628  1.0
  Te  Te11  1  0.67853013  -0.13807776  0.40359628  1.0
  Mo  Mo12  1  0.67680006  0.67680006  0.75000000  1.0
  Mo  Mo13  1  0.32319994  0.32319994  0.25000000  1.0
  O  O14  1  0.84112701  -0.11882508  0.85640898  1.0
  O  O15  1  1.11882508  0.15887299  0.35640898  1.0
  O  O16  1  0.88117492  0.84112701  0.64359102  1.0
  O  O17  1  0.15887299  0.11882508  0.14359102  1.0
  O  O18  1  0.50011321  -0.27992064  0.66646877  1.0
  O  O19  1  1.27992064  0.49988679  0.16646877  1.0
  O  O20  1  0.72007936  0.50011321  0.83353123  1.0
  O  O21  1  0.49988679  0.27992064  0.33353123  1.0
  O  O22  1  0.69058255  0.16505098  0.93494747  1.0
  O  O23  1  0.83494902  0.30941745  0.43494747  1.0
  O  O24  1  1.16505098  0.69058255  0.56505253  1.0
  O  O25  1  0.30941745  -0.16505098  0.06505253  1.0
  O  O26  1  0.65612101  0.32897973  0.59216239  1.0
  O  O27  1  0.67102027  0.34387899  0.09216239  1.0
  O  O28  1  1.32897973  0.65612101  0.90783761  1.0
  O  O29  1  0.34387899  -0.32897973  0.40783761  1.0
  O  O30  1  0.31493553  -0.00694007  0.75665836  1.0
  O  O31  1  1.00694007  0.68506447  0.25665836  1.0
  O  O32  1  0.99305993  0.31493553  0.74334164  1.0
  O  O33  1  0.68506447  0.00694007  0.24334164  1.0
  O  O34  1  1.38325036  0.39602267  0.86854448  1.0
  O  O35  1  0.60397733  -0.38325036  0.36854448  1.0
  O  O36  1  0.39602267  0.38325036  0.63145552  1.0
  O  O37  1  0.61674964  0.60397733  0.13145552  1.0
