# generated using pymatgen
data_InP(H2O3)2
_symmetry_space_group_name_H-M   'P 1'
_cell_length_a   5.43543972
_cell_length_b   10.54758720
_cell_length_c   10.18745874
_cell_angle_alpha   90.00000000
_cell_angle_beta   119.02493863
_cell_angle_gamma   90.00000000
_symmetry_Int_Tables_number   1
_chemical_formula_structural   InP(H2O3)2
_chemical_formula_sum   'In4 P4 H16 O24'
_cell_volume   510.70262921
_cell_formula_units_Z   4
loop_
 _symmetry_equiv_pos_site_id
 _symmetry_equiv_pos_as_xyz
  1  'x, y, z'
loop_
 _atom_site_type_symbol
 _atom_site_label
 _atom_site_symmetry_multiplicity
 _atom_site_fract_x
 _atom_site_fract_y
 _atom_site_fract_z
 _atom_site_occupancy
  In  In0  1  0.12379061  0.16995688  0.21353841  1.0
  In  In1  1  0.12379061  0.33004312  0.71353841  1.0
  In  In2  1  0.87620939  0.83004312  0.78646159  1.0
  In  In3  1  0.87620939  0.66995688  0.28646159  1.0
  P  P4  1  0.73099748  0.35678298  0.32626086  1.0
  P  P5  1  0.73099748  0.14321702  0.82626086  1.0
  P  P6  1  0.26900252  0.64321702  0.67373914  1.0
  P  P7  1  0.26900252  0.85678298  0.17373914  1.0
  H  H8  1  0.91727461  0.95835475  0.25585328  1.0
  H  H9  1  0.91727461  0.54164525  0.75585328  1.0
  H  H10  1  0.08272539  0.04164525  0.74414672  1.0
  H  H11  1  0.08272539  0.45835475  0.24414672  1.0
  H  H12  1  0.64441021  0.04377566  0.21216549  1.0
  H  H13  1  0.64441021  0.45622434  0.71216549  1.0
  H  H14  1  0.35558979  0.95622434  0.78783451  1.0
  H  H15  1  0.35558979  0.54377566  0.28783451  1.0
  H  H16  1  0.38008817  0.15793028  0.53058700  1.0
  H  H17  1  0.38008817  0.34206972  0.03058700  1.0
  H  H18  1  0.61991183  0.84206972  0.46941300  1.0
  H  H19  1  0.61991183  0.65793028  0.96941300  1.0
  H  H20  1  0.59787709  0.18964534  0.47358124  1.0
  H  H21  1  0.59787709  0.31035466  0.97358124  1.0
  H  H22  1  0.40212291  0.81035466  0.52641876  1.0
  H  H23  1  0.40212291  0.68964534  0.02641876  1.0
  O  O24  1  0.94600952  0.33347424  0.26878660  1.0
  O  O25  1  0.94600952  0.16652576  0.76878660  1.0
  O  O26  1  0.05399048  0.66652576  0.73121340  1.0
  O  O27  1  0.05399048  0.83347424  0.23121340  1.0
  O  O28  1  0.83289455  0.29224929  0.48229011  1.0
  O  O29  1  0.83289455  0.20775071  0.98229011  1.0
  O  O30  1  0.16710545  0.70775071  0.51770989  1.0
  O  O31  1  0.16710545  0.79224929  0.01770989  1.0
  O  O32  1  0.44173106  0.29688790  0.21269430  1.0
  O  O33  1  0.44173106  0.20311210  0.71269430  1.0
  O  O34  1  0.55826894  0.70311210  0.78730570  1.0
  O  O35  1  0.55826894  0.79688790  0.28730570  1.0
  O  O36  1  0.69762495  0.50276408  0.33779062  1.0
  O  O37  1  0.69762495  -0.00276408  0.83779062  1.0
  O  O38  1  0.30237505  0.49723592  0.66220938  1.0
  O  O39  1  0.30237505  1.00276408  0.16220938  1.0
  O  O40  1  0.85381667  0.04704641  0.26149696  1.0
  O  O41  1  0.85381667  0.45295359  0.76149696  1.0
  O  O42  1  0.14618333  0.95295359  0.73850304  1.0
  O  O43  1  0.14618333  0.54704641  0.23850304  1.0
  O  O44  1  0.42546857  0.13849246  0.44929722  1.0
  O  O45  1  0.42546857  0.36150754  0.94929722  1.0
  O  O46  1  0.57453143  0.86150754  0.55070278  1.0
  O  O47  1  0.57453143  0.63849246  0.05070278  1.0
