# generated using pymatgen
data_V4HgO10
_symmetry_space_group_name_H-M   'P 1'
_cell_length_a   11.74785733
_cell_length_b   11.74785733
_cell_length_c   9.73667934
_cell_angle_alpha   87.15075642
_cell_angle_beta   92.84924358
_cell_angle_gamma   162.21740724
_symmetry_Int_Tables_number   1
_chemical_formula_structural   V4HgO10
_chemical_formula_sum   'V8 Hg2 O20'
_cell_volume   409.87875753
_cell_formula_units_Z   2
loop_
 _symmetry_equiv_pos_site_id
 _symmetry_equiv_pos_as_xyz
  1  'x, y, z'
loop_
 _atom_site_type_symbol
 _atom_site_label
 _atom_site_symmetry_multiplicity
 _atom_site_fract_x
 _atom_site_fract_y
 _atom_site_fract_z
 _atom_site_occupancy
  Hg  Hg0  1  0.51766889  -0.51766889  0.62675993  1.0
  Hg  Hg1  1  1.48233111  -0.48233111  0.37324007  1.0
  O  O2  1  1.37094065  -0.37094065  0.85830313  1.0
  O  O3  1  0.62905935  -0.62905935  0.14169687  1.0
  O  O4  1  0.93509072  -0.93509072  0.72146873  1.0
  O  O5  1  1.06490928  -0.06490928  0.27853127  1.0
  O  O6  1  0.89632055  -0.89632055  1.00527607  1.0
  O  O7  1  1.10367945  -0.10367945  -0.00527607  1.0
  O  O8  1  0.87834372  -0.87834372  0.43512098  1.0
  O  O9  1  1.12165628  -0.12165628  0.56487902  1.0
  O  O10  1  0.81814923  -0.81814923  0.66959560  1.0
  O  O11  1  1.18185077  -0.18185077  0.33040440  1.0
  O  O12  1  0.77789103  -0.77789103  0.90948854  1.0
  O  O13  1  1.22210897  -0.22210897  0.09051146  1.0
  O  O14  1  0.77054351  -0.77054351  0.28404176  1.0
  O  O15  1  1.22945649  -0.22945649  0.71595824  1.0
  O  O16  1  0.71022998  -0.71022998  0.53745161  1.0
  O  O17  1  1.28977002  -0.28977002  0.46254839  1.0
  O  O18  1  0.66343617  -0.66343617  0.83523990  1.0
  O  O19  1  1.33656383  -0.33656383  0.16476010  1.0
  O  O20  1  0.54725608  -0.54725608  0.83682821  1.0
  O  O21  1  1.45274392  -0.45274392  0.16317179  1.0
  V  V22  1  0.60826061  -0.60826061  0.93701608  1.0
  V  V23  1  1.39173939  -0.39173939  0.06298392  1.0
  V  V24  1  0.74188877  -0.74188877  0.76564988  1.0
  V  V25  1  1.25811123  -0.25811123  0.23435012  1.0
  V  V26  1  0.81182229  -0.81182229  0.47051019  1.0
  V  V27  1  1.18817771  -0.18817771  0.52948981  1.0
  V  V28  1  0.87713611  -0.87713611  0.80503082  1.0
  V  V29  1  1.12286389  -0.12286389  0.19496918  1.0
