# generated using pymatgen
data_NaVCdO4
_symmetry_space_group_name_H-M   'P 1'
_cell_length_a   5.66947405
_cell_length_b   5.66947405
_cell_length_c   6.82733018
_cell_angle_alpha   90.00000000
_cell_angle_beta   90.00000000
_cell_angle_gamma   113.80745175
_symmetry_Int_Tables_number   1
_chemical_formula_structural   NaVCdO4
_chemical_formula_sum   'Na2 V2 Cd2 O8'
_cell_volume   200.77677951
_cell_formula_units_Z   2
loop_
 _symmetry_equiv_pos_site_id
 _symmetry_equiv_pos_as_xyz
  1  'x, y, z'
loop_
 _atom_site_type_symbol
 _atom_site_label
 _atom_site_symmetry_multiplicity
 _atom_site_fract_x
 _atom_site_fract_y
 _atom_site_fract_z
 _atom_site_occupancy
  Na  Na0  1  0.50000000  0.50000000  0.00000000  1.0
  Na  Na1  1  0.50000000  0.50000000  0.50000000  1.0
  V  V2  1  0.13894785  0.86105215  0.75000000  1.0
  V  V3  1  -0.13894785  1.13894785  0.25000000  1.0
  Cd  Cd4  1  -0.17491433  1.17491433  0.75000000  1.0
  Cd  Cd5  1  0.17491433  0.82508567  0.25000000  1.0
  O  O6  1  -0.74665331  1.19223793  0.75000000  1.0
  O  O7  1  0.19223793  0.25334669  0.25000000  1.0
  O  O8  1  0.74665331  0.80776207  0.25000000  1.0
  O  O9  1  -0.19223793  1.74665331  0.75000000  1.0
  O  O10  1  -0.24667603  1.24667603  0.45479252  1.0
  O  O11  1  0.24667603  0.75332397  0.54520748  1.0
  O  O12  1  -0.24667603  1.24667603  0.04520748  1.0
  O  O13  1  0.24667603  0.75332397  0.95479252  1.0
