# generated using pymatgen
data_AgSbO6
_symmetry_space_group_name_H-M   'P 1'
_cell_length_a   8.37224333
_cell_length_b   8.37224333
_cell_length_c   6.61998642
_cell_angle_alpha   90.00000000
_cell_angle_beta   90.00000000
_cell_angle_gamma   90.00000000
_symmetry_Int_Tables_number   1
_chemical_formula_structural   AgSbO6
_chemical_formula_sum   'Ag4 Sb4 O24'
_cell_volume   464.02436230
_cell_formula_units_Z   4
loop_
 _symmetry_equiv_pos_site_id
 _symmetry_equiv_pos_as_xyz
  1  'x, y, z'
loop_
 _atom_site_type_symbol
 _atom_site_label
 _atom_site_symmetry_multiplicity
 _atom_site_fract_x
 _atom_site_fract_y
 _atom_site_fract_z
 _atom_site_occupancy
  Ag  Ag0  1  0.75000000  0.75000000  0.25000000  1.0
  Ag  Ag1  1  0.75000000  0.25000000  0.75000000  1.0
  Ag  Ag2  1  0.25000000  0.25000000  0.25000000  1.0
  Ag  Ag3  1  0.25000000  0.75000000  0.75000000  1.0
  Sb  Sb4  1  0.75000000  0.75000000  0.75000000  1.0
  Sb  Sb5  1  0.75000000  0.25000000  0.25000000  1.0
  Sb  Sb6  1  0.25000000  0.25000000  0.75000000  1.0
  Sb  Sb7  1  0.25000000  0.75000000  0.25000000  1.0
  O  O8  1  0.00319161  0.73591778  0.10594426  1.0
  O  O9  1  0.73591778  0.99680839  0.89405574  1.0
  O  O10  1  0.76408222  0.50319161  0.60594426  1.0
  O  O11  1  0.50319161  0.23591778  0.39405574  1.0
  O  O12  1  0.99680839  0.26408222  0.10594426  1.0
  O  O13  1  0.26408222  0.00319161  0.89405574  1.0
  O  O14  1  0.23591778  0.49680839  0.60594426  1.0
  O  O15  1  0.49680839  0.76408222  0.39405574  1.0
  O  O16  1  0.73591778  0.00319161  0.10594426  1.0
  O  O17  1  0.00319161  0.26408222  0.89405574  1.0
  O  O18  1  0.49680839  0.23591778  0.60594426  1.0
  O  O19  1  0.23591778  0.50319161  0.39405574  1.0
  O  O20  1  0.26408222  0.99680839  0.10594426  1.0
  O  O21  1  0.99680839  0.73591778  0.89405574  1.0
  O  O22  1  0.50319161  0.76408222  0.60594426  1.0
  O  O23  1  0.76408222  0.49680839  0.39405574  1.0
  O  O24  1  0.83937657  0.83937657  0.51662537  1.0
  O  O25  1  0.83937657  0.16062343  0.48337463  1.0
  O  O26  1  0.66062343  0.33937657  0.01662537  1.0
  O  O27  1  0.33937657  0.33937657  0.98337463  1.0
  O  O28  1  0.16062343  0.16062343  0.51662537  1.0
  O  O29  1  0.16062343  0.83937657  0.48337463  1.0
  O  O30  1  0.33937657  0.66062343  0.01662537  1.0
  O  O31  1  0.66062343  0.66062343  0.98337463  1.0
