# generated using pymatgen
data_Ca3(InNi2)4
_symmetry_space_group_name_H-M   'P 1'
_cell_length_a   9.00953203
_cell_length_b   9.00953203
_cell_length_c   7.55059716
_cell_angle_alpha   90.00000000
_cell_angle_beta   90.00000000
_cell_angle_gamma   120.00000000
_symmetry_Int_Tables_number   1
_chemical_formula_structural   Ca3(InNi2)4
_chemical_formula_sum   'Ca6 In8 Ni16'
_cell_volume   530.78225962
_cell_formula_units_Z   2
loop_
 _symmetry_equiv_pos_site_id
 _symmetry_equiv_pos_as_xyz
  1  'x, y, z'
loop_
 _atom_site_type_symbol
 _atom_site_label
 _atom_site_symmetry_multiplicity
 _atom_site_fract_x
 _atom_site_fract_y
 _atom_site_fract_z
 _atom_site_occupancy
  Ca  Ca0  1  0.94126362  0.47063181  0.23155278  1.0
  Ca  Ca1  1  0.47063181  0.94126362  0.73155278  1.0
  Ca  Ca2  1  0.47063181  0.52936819  0.73155278  1.0
  Ca  Ca3  1  0.52936819  0.47063181  0.23155278  1.0
  Ca  Ca4  1  0.52936819  0.05873638  0.23155278  1.0
  Ca  Ca5  1  0.05873638  0.52936819  0.73155278  1.0
  In  In6  1  0.66115897  0.83057949  0.42821797  1.0
  In  In7  1  0.83057949  0.66115897  0.92821797  1.0
  In  In8  1  0.83057949  0.16942051  0.92821797  1.0
  In  In9  1  0.16942051  0.83057949  0.42821797  1.0
  In  In10  1  0.16942051  0.33884103  0.42821797  1.0
  In  In11  1  0.33884103  0.16942051  0.92821797  1.0
  In  In12  1  0.33333333  0.66666667  0.07241643  1.0
  In  In13  1  0.66666667  0.33333333  0.57241643  1.0
  Ni  Ni14  1  0.68061387  0.84030694  0.06013318  1.0
  Ni  Ni15  1  0.84030694  0.68061387  0.56013318  1.0
  Ni  Ni16  1  0.84030694  0.15969306  0.56013318  1.0
  Ni  Ni17  1  0.15969306  0.84030694  0.06013318  1.0
  Ni  Ni18  1  0.15969306  0.31938613  0.06013318  1.0
  Ni  Ni19  1  0.31938613  0.15969306  0.56013318  1.0
  Ni  Ni20  1  0.19529294  0.09764647  0.24758210  1.0
  Ni  Ni21  1  0.09764647  0.19529294  0.74758210  1.0
  Ni  Ni22  1  0.09764647  0.90235353  0.74758210  1.0
  Ni  Ni23  1  0.90235353  0.09764647  0.24758210  1.0
  Ni  Ni24  1  0.90235353  0.80470706  0.24758210  1.0
  Ni  Ni25  1  0.80470706  0.90235353  0.74758210  1.0
  Ni  Ni26  1  0.33333333  0.66666667  0.42767175  1.0
  Ni  Ni27  1  0.66666667  0.33333333  0.92767175  1.0
  Ni  Ni28  1  0.00000000  0.00000000  -0.00014628  1.0
  Ni  Ni29  1  0.00000000  0.00000000  0.49985372  1.0
