# generated using pymatgen
data_SiPAu
_symmetry_space_group_name_H-M   'P 1'
_cell_length_a   6.12239496
_cell_length_b   6.12239496
_cell_length_c   6.12239496
_cell_angle_alpha   33.37420899
_cell_angle_beta   33.37420899
_cell_angle_gamma   33.37420899
_symmetry_Int_Tables_number   1
_chemical_formula_structural   SiPAu
_chemical_formula_sum   'Si1 P1 Au1'
_cell_volume   61.83972125
_cell_formula_units_Z   1
loop_
 _symmetry_equiv_pos_site_id
 _symmetry_equiv_pos_as_xyz
  1  'x, y, z'
loop_
 _atom_site_type_symbol
 _atom_site_label
 _atom_site_symmetry_multiplicity
 _atom_site_fract_x
 _atom_site_fract_y
 _atom_site_fract_z
 _atom_site_occupancy
  Si  Si0  1  0.72805700  -0.27194300  -0.27194300  1.0
  P  P1  1  0.00108834  0.00108834  0.00108834  1.0
  Au  Au2  1  0.86355466  -0.13644534  -0.13644534  1.0
