# generated using pymatgen
data_CaN4
_symmetry_space_group_name_H-M   'P 1'
_cell_length_a   9.58123615
_cell_length_b   8.59816132
_cell_length_c   7.67277412
_cell_angle_alpha   71.89633632
_cell_angle_beta   58.53629948
_cell_angle_gamma   49.56736420
_symmetry_Int_Tables_number   1
_chemical_formula_structural   CaN4
_chemical_formula_sum   'Ca4 N16'
_cell_volume   410.01240055
_cell_formula_units_Z   4
loop_
 _symmetry_equiv_pos_site_id
 _symmetry_equiv_pos_as_xyz
  1  'x, y, z'
loop_
 _atom_site_type_symbol
 _atom_site_label
 _atom_site_symmetry_multiplicity
 _atom_site_fract_x
 _atom_site_fract_y
 _atom_site_fract_z
 _atom_site_occupancy
  Ca  Ca0  1  1.12500000  0.12500000  0.62500000  1.0
  Ca  Ca1  1  1.12500000  0.62500000  0.12500000  1.0
  Ca  Ca2  1  1.12500000  0.12500000  0.12500000  1.0
  Ca  Ca3  1  1.62500000  0.12500000  0.12500000  1.0
  N  N4  1  0.88341145  1.27521760  0.49817875  1.0
  N  N5  1  0.34319220  0.49817875  1.27521760  1.0
  N  N6  1  0.97478240  0.36658855  0.90680780  1.0
  N  N7  1  0.75182125  0.90680780  0.36658855  1.0
  N  N8  1  0.49817875  0.34319220  0.88341145  1.0
  N  N9  1  1.27521760  0.88341145  0.34319220  1.0
  N  N10  1  0.90680780  0.75182125  0.97478240  1.0
  N  N11  1  0.36658855  0.97478240  0.75182125  1.0
  N  N12  1  1.45511830  0.42051806  0.34465964  1.0
  N  N13  1  0.77970400  0.34465964  0.42051806  1.0
  N  N14  1  0.82948194  0.79488170  0.47029600  1.0
  N  N15  1  0.90534036  0.47029600  0.79488170  1.0
  N  N16  1  1.34465964  -0.22029600  0.45511830  1.0
  N  N17  1  1.42051806  0.45511830  -0.22029600  1.0
  N  N18  1  0.47029600  0.90534036  0.82948194  1.0
  N  N19  1  0.79488170  0.82948194  0.90534036  1.0
