# generated using pymatgen
data_BaFe2Se3
_symmetry_space_group_name_H-M   'P 1'
_cell_length_a   12.17422139
_cell_length_b   5.37292221
_cell_length_c   9.22470583
_cell_angle_alpha   90.00000000
_cell_angle_beta   90.00000000
_cell_angle_gamma   90.00000000
_symmetry_Int_Tables_number   1
_chemical_formula_structural   BaFe2Se3
_chemical_formula_sum   'Ba4 Fe8 Se12'
_cell_volume   603.39856643
_cell_formula_units_Z   4
loop_
 _symmetry_equiv_pos_site_id
 _symmetry_equiv_pos_as_xyz
  1  'x, y, z'
loop_
 _atom_site_type_symbol
 _atom_site_label
 _atom_site_symmetry_multiplicity
 _atom_site_fract_x
 _atom_site_fract_y
 _atom_site_fract_z
 _atom_site_occupancy
  Fe  Fe0  1  0.49105288  -0.00006428  0.86217158  1.0
  Fe  Fe1  1  0.49105288  0.50006428  0.86217158  1.0
  Fe  Fe2  1  0.99105288  -0.00006428  0.63782842  1.0
  Fe  Fe3  1  0.99105288  0.50006428  0.63782842  1.0
  Fe  Fe4  1  0.50894712  0.49993572  0.13782842  1.0
  Fe  Fe5  1  0.50894712  1.00006428  0.13782842  1.0
  Fe  Fe6  1  0.00894712  0.49993572  0.36217158  1.0
  Fe  Fe7  1  0.00894712  1.00006428  0.36217158  1.0
  Se  Se8  1  0.36743040  0.75000000  0.01522392  1.0
  Se  Se9  1  0.86743040  0.75000000  0.48477608  1.0
  Se  Se10  1  0.63256960  0.25000000  0.98477608  1.0
  Se  Se11  1  0.13256960  0.25000000  0.51522392  1.0
  Se  Se12  1  0.08573452  0.75000000  0.81827907  1.0
  Se  Se13  1  0.58573452  0.75000000  0.68172093  1.0
  Se  Se14  1  0.91426548  0.25000000  0.18172093  1.0
  Se  Se15  1  0.41426548  0.25000000  0.31827907  1.0
  Se  Se16  1  0.14741501  0.75000000  0.24179226  1.0
  Se  Se17  1  0.64741501  0.75000000  0.25820774  1.0
  Se  Se18  1  0.85258499  0.25000000  0.75820774  1.0
  Se  Se19  1  0.35258499  0.25000000  0.74179226  1.0
  Ba  Ba20  1  0.31810381  0.75000000  0.52783011  1.0
  Ba  Ba21  1  0.81810381  0.75000000  0.97216989  1.0
  Ba  Ba22  1  0.68189619  0.25000000  0.47216989  1.0
  Ba  Ba23  1  0.18189619  0.25000000  0.02783011  1.0
