# generated using pymatgen
data_LiHSeO4
_symmetry_space_group_name_H-M   'P 1'
_cell_length_a   6.47156612
_cell_length_b   7.89971048
_cell_length_c   7.19332972
_cell_angle_alpha   110.78267094
_cell_angle_beta   101.01186967
_cell_angle_gamma   95.43917034
_symmetry_Int_Tables_number   1
_chemical_formula_structural   LiHSeO4
_chemical_formula_sum   'Li4 H4 Se4 O16'
_cell_volume   332.15221444
_cell_formula_units_Z   4
loop_
 _symmetry_equiv_pos_site_id
 _symmetry_equiv_pos_as_xyz
  1  'x, y, z'
loop_
 _atom_site_type_symbol
 _atom_site_label
 _atom_site_symmetry_multiplicity
 _atom_site_fract_x
 _atom_site_fract_y
 _atom_site_fract_z
 _atom_site_occupancy
  Li  Li0  1  -0.82305438  -0.56295941  -0.40461289  1.0
  Li  Li1  1  -0.17694562  -0.43704059  -0.59538711  1.0
  Li  Li2  1  -0.68569665  -0.96106154  -0.62282956  1.0
  Li  Li3  1  -0.31430335  -0.03893846  -0.37717044  1.0
  H  H4  1  -0.74371553  -0.70637686  -0.98569362  1.0
  H  H5  1  -0.25628447  -0.29362314  -0.01430638  1.0
  H  H6  1  -0.25498765  -0.74745170  -0.95775486  1.0
  H  H7  1  -0.74501235  -0.25254830  -0.04224514  1.0
  Se  Se8  1  -0.70040868  -0.40111767  -0.75122448  1.0
  Se  Se9  1  -0.29959132  -0.59888233  -0.24877552  1.0
  Se  Se10  1  -0.19693540  -0.91876922  -0.75836010  1.0
  Se  Se11  1  -0.80306460  -0.08123078  -0.24163990  1.0
  O  O12  1  -0.94865502  -0.85127443  -0.61767235  1.0
  O  O13  1  -0.05134498  -0.14872557  -0.38232765  1.0
  O  O14  1  -0.87088002  -0.46656242  -0.63588731  1.0
  O  O15  1  -0.12911998  -0.53343758  -0.36411269  1.0
  O  O16  1  -0.76952045  -0.23337000  -0.82492560  1.0
  O  O17  1  -0.23047956  -0.76663000  -0.17507440  1.0
  O  O18  1  -0.77192068  -0.91500838  -0.01536087  1.0
  O  O19  1  -0.22807932  -0.08499162  -0.98463913  1.0
  O  O20  1  -0.72728458  -0.57688764  -0.98887415  1.0
  O  O21  1  -0.27271542  -0.42311236  -0.01112585  1.0
  O  O22  1  -0.54779553  -0.64721761  -0.38427769  1.0
  O  O23  1  -0.45220447  -0.35278239  -0.61572231  1.0
  O  O24  1  -0.36340577  -0.95706773  -0.62476784  1.0
  O  O25  1  -0.63659423  -0.04293227  -0.37523216  1.0
  O  O26  1  -0.27364227  -0.73077157  -0.81340473  1.0
  O  O27  1  -0.72635773  -0.26922843  -0.18659527  1.0
