# generated using pymatgen
data_LiZnPH2O5
_symmetry_space_group_name_H-M   'P 1'
_cell_length_a   10.90959913
_cell_length_b   8.09846358
_cell_length_c   5.07557496
_cell_angle_alpha   90.00000000
_cell_angle_beta   90.00000000
_cell_angle_gamma   90.00000000
_symmetry_Int_Tables_number   1
_chemical_formula_structural   LiZnPH2O5
_chemical_formula_sum   'Li4 Zn4 P4 H8 O20'
_cell_volume   448.43207857
_cell_formula_units_Z   4
loop_
 _symmetry_equiv_pos_site_id
 _symmetry_equiv_pos_as_xyz
  1  'x, y, z'
loop_
 _atom_site_type_symbol
 _atom_site_label
 _atom_site_symmetry_multiplicity
 _atom_site_fract_x
 _atom_site_fract_y
 _atom_site_fract_z
 _atom_site_occupancy
  Li  Li0  1  0.30889600  0.80836737  0.39745758  1.0
  Li  Li1  1  0.80889600  0.69163263  0.39745758  1.0
  Li  Li2  1  0.69110400  0.19163263  0.89745758  1.0
  Li  Li3  1  0.19110400  0.30836737  0.89745758  1.0
  Zn  Zn4  1  0.12666912  0.11743062  0.39886453  1.0
  Zn  Zn5  1  0.62666912  0.38256938  0.39886453  1.0
  Zn  Zn6  1  0.87333088  0.88256938  0.89886453  1.0
  Zn  Zn7  1  0.37333088  0.61743062  0.89886453  1.0
  P  P8  1  0.33623838  0.40510984  0.40343110  1.0
  P  P9  1  0.83623838  0.09489016  0.40343110  1.0
  P  P10  1  0.66376162  0.59489016  0.90343110  1.0
  P  P11  1  0.16376162  0.90510984  0.90343110  1.0
  H  H12  1  0.47819964  0.17674362  0.78266203  1.0
  H  H13  1  0.97819964  0.32325638  0.78266203  1.0
  H  H14  1  0.52180036  0.82325638  0.28266203  1.0
  H  H15  1  0.02180036  0.67674362  0.28266203  1.0
  H  H16  1  0.52119711  -0.00183459  0.75684848  1.0
  H  H17  1  1.02119711  0.50183459  0.75684848  1.0
  H  H18  1  0.47880289  1.00183459  0.25684848  1.0
  H  H19  1  -0.02119711  0.49816541  0.25684848  1.0
  O  O20  1  0.31772096  0.42065887  0.09938965  1.0
  O  O21  1  0.81772096  0.07934113  0.09938965  1.0
  O  O22  1  0.68227904  0.57934113  0.59938965  1.0
  O  O23  1  0.18227904  0.92065887  0.59938965  1.0
  O  O24  1  0.22955813  0.30299766  0.52420537  1.0
  O  O25  1  0.72955813  0.19700234  0.52420537  1.0
  O  O26  1  0.77044187  0.69700234  1.02420537  1.0
  O  O27  1  0.27044187  0.80299766  1.02420537  1.0
  O  O28  1  0.16420721  0.08329422  0.02420593  1.0
  O  O29  1  0.66420721  0.41670578  0.02420593  1.0
  O  O30  1  0.83579279  0.91670578  0.52420593  1.0
  O  O31  1  0.33579279  0.58329422  0.52420593  1.0
  O  O32  1  0.45864243  0.31682748  0.47450822  1.0
  O  O33  1  0.95864243  0.18317252  0.47450822  1.0
  O  O34  1  0.54135757  0.68317252  0.97450822  1.0
  O  O35  1  0.04135757  0.81682748  0.97450822  1.0
  O  O36  1  0.47720739  0.90905776  0.38162710  1.0
  O  O37  1  0.97720739  0.59094224  0.38162710  1.0
  O  O38  1  0.52279261  0.09094224  0.88162710  1.0
  O  O39  1  0.02279261  0.40905776  0.88162710  1.0
