# generated using pymatgen
data_Co2TeO3F2
_symmetry_space_group_name_H-M   'P 1'
_cell_length_a   7.49136908
_cell_length_b   10.14164508
_cell_length_c   5.35679918
_cell_angle_alpha   90.00000000
_cell_angle_beta   90.00000000
_cell_angle_gamma   90.00000000
_symmetry_Int_Tables_number   1
_chemical_formula_structural   Co2TeO3F2
_chemical_formula_sum   'Co8 Te4 O12 F8'
_cell_volume   406.98178008
_cell_formula_units_Z   4
loop_
 _symmetry_equiv_pos_site_id
 _symmetry_equiv_pos_as_xyz
  1  'x, y, z'
loop_
 _atom_site_type_symbol
 _atom_site_label
 _atom_site_symmetry_multiplicity
 _atom_site_fract_x
 _atom_site_fract_y
 _atom_site_fract_z
 _atom_site_occupancy
  Co  Co0  1  0.08118249  0.93108169  0.73647714  1.0
  Co  Co1  1  0.08118249  0.56891831  0.73647714  1.0
  Co  Co2  1  0.58118249  0.93108169  0.76352286  1.0
  Co  Co3  1  0.58118249  0.56891831  0.76352286  1.0
  Co  Co4  1  0.91881751  0.43108169  0.26352286  1.0
  Co  Co5  1  0.91881751  0.06891831  0.26352286  1.0
  Co  Co6  1  0.41881751  0.43108169  0.23647714  1.0
  Co  Co7  1  0.41881751  0.06891831  0.23647714  1.0
  Te  Te8  1  0.29007872  0.75000000  0.18888036  1.0
  Te  Te9  1  0.79007872  0.75000000  0.31111964  1.0
  Te  Te10  1  0.70992128  0.25000000  0.81111964  1.0
  Te  Te11  1  0.20992128  0.25000000  0.68888036  1.0
  O  O12  1  0.46538173  0.88601395  0.09449372  1.0
  O  O13  1  0.46538173  0.61398605  0.09449372  1.0
  O  O14  1  0.96538173  0.88601395  0.40550628  1.0
  O  O15  1  0.96538173  0.61398605  0.40550628  1.0
  O  O16  1  0.53461827  0.38601395  0.90550628  1.0
  O  O17  1  0.53461827  0.11398605  0.90550628  1.0
  O  O18  1  0.03461827  0.38601395  0.59449372  1.0
  O  O19  1  0.03461827  0.11398605  0.59449372  1.0
  O  O20  1  0.13572872  0.75000000  0.88261691  1.0
  O  O21  1  0.63572872  0.75000000  0.61738309  1.0
  O  O22  1  0.86427128  0.25000000  0.11738309  1.0
  O  O23  1  0.36427128  0.25000000  0.38261691  1.0
  F  F24  1  0.33595112  0.95275065  0.57610118  1.0
  F  F25  1  0.33595112  0.54724935  0.57610118  1.0
  F  F26  1  0.83595112  0.95275065  0.92389882  1.0
  F  F27  1  0.83595112  0.54724935  0.92389882  1.0
  F  F28  1  0.66404888  0.45275065  0.42389882  1.0
  F  F29  1  0.66404888  0.04724935  0.42389882  1.0
  F  F30  1  0.16404888  0.45275065  0.07610118  1.0
  F  F31  1  0.16404888  0.04724935  0.07610118  1.0
