# generated using pymatgen
data_TaS2
_symmetry_space_group_name_H-M   'P 1'
_cell_length_a   3.33594250
_cell_length_b   3.33594250
_cell_length_c   13.29662909
_cell_angle_alpha   90.00000000
_cell_angle_beta   90.00000000
_cell_angle_gamma   120.00000000
_symmetry_Int_Tables_number   1
_chemical_formula_structural   TaS2
_chemical_formula_sum   'Ta2 S4'
_cell_volume   128.14725254
_cell_formula_units_Z   2
loop_
 _symmetry_equiv_pos_site_id
 _symmetry_equiv_pos_as_xyz
  1  'x, y, z'
loop_
 _atom_site_type_symbol
 _atom_site_label
 _atom_site_symmetry_multiplicity
 _atom_site_fract_x
 _atom_site_fract_y
 _atom_site_fract_z
 _atom_site_occupancy
  Ta  Ta0  1  0.33333333  0.66666667  0.25000000  1.0
  Ta  Ta1  1  0.66666667  0.33333333  0.75000000  1.0
  S  S2  1  0.33333333  0.66666667  0.86762215  1.0
  S  S3  1  0.33333333  0.66666667  0.63237785  1.0
  S  S4  1  0.66666667  0.33333333  0.36762215  1.0
  S  S5  1  0.66666667  0.33333333  0.13237785  1.0
