# generated using pymatgen
data_KY(WO4)2
_symmetry_space_group_name_H-M   'P 1'
_cell_length_a   7.54165922
_cell_length_b   7.54165922
_cell_length_c   7.62178113
_cell_angle_alpha   61.72977323
_cell_angle_beta   118.27022677
_cell_angle_gamma   92.08070210
_symmetry_Int_Tables_number   1
_chemical_formula_structural   KY(WO4)2
_chemical_formula_sum   'K2 Y2 W4 O16'
_cell_volume   326.22774994
_cell_formula_units_Z   2
loop_
 _symmetry_equiv_pos_site_id
 _symmetry_equiv_pos_as_xyz
  1  'x, y, z'
loop_
 _atom_site_type_symbol
 _atom_site_label
 _atom_site_symmetry_multiplicity
 _atom_site_fract_x
 _atom_site_fract_y
 _atom_site_fract_z
 _atom_site_occupancy
  K  K0  1  0.20298894  0.20298894  0.25000000  1.0
  K  K1  1  0.79701106  0.79701106  0.75000000  1.0
  Y  Y2  1  0.77320226  0.77320226  0.25000000  1.0
  Y  Y3  1  0.22679774  0.22679774  0.75000000  1.0
  W  W4  1  0.69531052  0.30266134  0.23470773  1.0
  W  W5  1  0.69733866  0.30468948  0.73470773  1.0
  W  W6  1  1.30266134  -0.30468948  0.26529227  1.0
  W  W7  1  1.30468948  -0.30266134  0.76529227  1.0
  O  O8  1  1.58779035  -0.37078502  0.03292161  1.0
  O  O9  1  1.37078502  -0.58779035  0.53292161  1.0
  O  O10  1  0.62921498  0.58779035  0.46707839  1.0
  O  O11  1  0.41220965  0.37078502  0.96707839  1.0
  O  O12  1  0.78336695  0.04378187  0.30918109  1.0
  O  O13  1  0.95621813  0.21663305  0.80918109  1.0
  O  O14  1  1.04378187  -0.21663305  0.19081891  1.0
  O  O15  1  1.21663305  -0.04378187  0.69081891  1.0
  O  O16  1  1.37411297  -0.06442463  0.12215933  1.0
  O  O17  1  1.06442463  -0.37411297  0.62215933  1.0
  O  O18  1  0.93557537  0.37411297  0.37784067  1.0
  O  O19  1  0.62588703  0.06442463  0.87784067  1.0
  O  O20  1  0.61717533  0.23458080  0.44423095  1.0
  O  O21  1  0.76541920  0.38282467  0.94423095  1.0
  O  O22  1  1.23458080  -0.38282467  0.05576905  1.0
  O  O23  1  1.38282467  -0.23458080  0.55576905  1.0
