# generated using pymatgen
data_LiTaO3
_symmetry_space_group_name_H-M   'P 1'
_cell_length_a   6.32686809
_cell_length_b   9.04268877
_cell_length_c   4.79503681
_cell_angle_alpha   90.00000000
_cell_angle_beta   90.00000000
_cell_angle_gamma   90.00000000
_symmetry_Int_Tables_number   1
_chemical_formula_structural   LiTaO3
_chemical_formula_sum   'Li4 Ta4 O12'
_cell_volume   274.33316195
_cell_formula_units_Z   4
loop_
 _symmetry_equiv_pos_site_id
 _symmetry_equiv_pos_as_xyz
  1  'x, y, z'
loop_
 _atom_site_type_symbol
 _atom_site_label
 _atom_site_symmetry_multiplicity
 _atom_site_fract_x
 _atom_site_fract_y
 _atom_site_fract_z
 _atom_site_occupancy
  Li  Li0  1  0.50000000  0.00000000  0.00000000  1.0
  Li  Li1  1  0.00000000  0.50000000  0.50000000  1.0
  Li  Li2  1  0.50000000  0.50000000  0.00000000  1.0
  Li  Li3  1  0.00000000  0.00000000  0.50000000  1.0
  Ta  Ta4  1  0.67652492  0.25000000  0.47772148  1.0
  Ta  Ta5  1  0.17652492  0.25000000  1.02227852  1.0
  Ta  Ta6  1  0.32347508  0.75000000  0.52227852  1.0
  Ta  Ta7  1  0.82347508  0.75000000  -0.02227852  1.0
  O  O8  1  0.94730720  0.25000000  0.29304026  1.0
  O  O9  1  0.44730720  0.25000000  0.20695974  1.0
  O  O10  1  0.05269280  0.75000000  0.70695974  1.0
  O  O11  1  0.55269280  0.75000000  0.79304026  1.0
  O  O12  1  0.17650017  0.08931323  0.79845199  1.0
  O  O13  1  0.67650017  0.41068677  0.70154801  1.0
  O  O14  1  0.82349983  0.58931323  0.20154801  1.0
  O  O15  1  0.32349983  0.91068677  0.29845199  1.0
  O  O16  1  0.82349983  0.91068677  0.20154801  1.0
  O  O17  1  0.32349983  0.58931323  0.29845199  1.0
  O  O18  1  0.17650017  0.41068677  0.79845199  1.0
  O  O19  1  0.67650017  0.08931323  0.70154801  1.0
