# generated using pymatgen
data_Rb(TeO3)2
_symmetry_space_group_name_H-M   'P 1'
_cell_length_a   7.55092279
_cell_length_b   7.55092279
_cell_length_c   7.55092279
_cell_angle_alpha   60.00000000
_cell_angle_beta   60.00000000
_cell_angle_gamma   60.00000000
_symmetry_Int_Tables_number   1
_chemical_formula_structural   Rb(TeO3)2
_chemical_formula_sum   'Rb2 Te4 O12'
_cell_volume   304.42834775
_cell_formula_units_Z   2
loop_
 _symmetry_equiv_pos_site_id
 _symmetry_equiv_pos_as_xyz
  1  'x, y, z'
loop_
 _atom_site_type_symbol
 _atom_site_label
 _atom_site_symmetry_multiplicity
 _atom_site_fract_x
 _atom_site_fract_y
 _atom_site_fract_z
 _atom_site_occupancy
  Rb  Rb0  1  0.00000000  0.00000000  -0.00000000  1.0
  Rb  Rb1  1  0.25000000  1.25000000  0.25000000  1.0
  Te  Te2  1  -0.37500000  0.62500000  0.62500000  1.0
  Te  Te3  1  1.12500000  0.62500000  0.62500000  1.0
  Te  Te4  1  -0.37500000  0.62500000  1.12500000  1.0
  Te  Te5  1  0.62500000  1.12500000  -0.37500000  1.0
  O  O6  1  0.55176267  0.94823733  -0.05176267  1.0
  O  O7  1  0.69823733  -0.69823733  0.69823733  1.0
  O  O8  1  0.94823733  0.55176267  -0.44823733  1.0
  O  O9  1  0.30176267  -0.30176267  0.30176267  1.0
  O  O10  1  0.94823733  0.55176267  0.94823733  1.0
  O  O11  1  -0.30176267  0.30176267  0.30176267  1.0
  O  O12  1  0.55176267  0.94823733  0.55176267  1.0
  O  O13  1  -0.69823733  0.69823733  0.69823733  1.0
  O  O14  1  0.94823733  0.94823733  -0.44823733  1.0
  O  O15  1  -0.44823733  0.55176267  0.94823733  1.0
  O  O16  1  0.30176267  1.30176267  -0.30176267  1.0
  O  O17  1  0.69823733  0.69823733  -0.69823733  1.0
