# generated using pymatgen
data_BaTb2ZnO5
_symmetry_space_group_name_H-M   'P 1'
_cell_length_a   12.49533705
_cell_length_b   5.79036978
_cell_length_c   7.18086802
_cell_angle_alpha   90.00000000
_cell_angle_beta   90.00000000
_cell_angle_gamma   90.00000000
_symmetry_Int_Tables_number   1
_chemical_formula_structural   BaTb2ZnO5
_chemical_formula_sum   'Ba4 Tb8 Zn4 O20'
_cell_volume   519.55462976
_cell_formula_units_Z   4
loop_
 _symmetry_equiv_pos_site_id
 _symmetry_equiv_pos_as_xyz
  1  'x, y, z'
loop_
 _atom_site_type_symbol
 _atom_site_label
 _atom_site_symmetry_multiplicity
 _atom_site_fract_x
 _atom_site_fract_y
 _atom_site_fract_z
 _atom_site_occupancy
  Ba  Ba0  1  0.10055004  0.75000000  0.57788161  1.0
  Ba  Ba1  1  0.60055004  0.75000000  0.92211839  1.0
  Ba  Ba2  1  0.89944996  0.25000000  0.42211839  1.0
  Ba  Ba3  1  0.39944996  0.25000000  0.07788161  1.0
  Tb  Tb4  1  0.20859611  0.75000000  0.11875261  1.0
  Tb  Tb5  1  0.70859611  0.75000000  0.38124739  1.0
  Tb  Tb6  1  0.79140389  0.25000000  0.88124739  1.0
  Tb  Tb7  1  0.29140389  0.25000000  0.61875261  1.0
  Tb  Tb8  1  0.92606727  0.75000000  0.10266086  1.0
  Tb  Tb9  1  0.42606727  0.75000000  0.39733914  1.0
  Tb  Tb10  1  0.07393273  0.25000000  0.89733914  1.0
  Tb  Tb11  1  0.57393273  0.25000000  0.60266086  1.0
  Zn  Zn12  1  0.35004041  0.75000000  0.80716326  1.0
  Zn  Zn13  1  0.85004041  0.75000000  0.69283674  1.0
  Zn  Zn14  1  0.64995959  0.25000000  0.19283674  1.0
  Zn  Zn15  1  0.14995959  0.25000000  0.30716326  1.0
  O  O16  1  0.43488845  0.99713696  0.66684768  1.0
  O  O17  1  0.43488845  0.50286304  0.66684768  1.0
  O  O18  1  0.93488845  0.99713696  0.83315232  1.0
  O  O19  1  0.93488845  0.50286304  0.83315232  1.0
  O  O20  1  0.56511155  0.49713696  0.33315232  1.0
  O  O21  1  0.56511155  0.00286304  0.33315232  1.0
  O  O22  1  0.06511155  0.49713696  0.16684768  1.0
  O  O23  1  0.06511155  0.00286304  0.16684768  1.0
  O  O24  1  0.22428015  0.99804014  0.85662129  1.0
  O  O25  1  0.22428015  0.50195986  0.85662129  1.0
  O  O26  1  0.72428015  0.99804014  0.64337871  1.0
  O  O27  1  0.72428015  0.50195986  0.64337871  1.0
  O  O28  1  0.77571985  0.49804014  0.14337871  1.0
  O  O29  1  0.77571985  0.00195986  0.14337871  1.0
  O  O30  1  0.27571985  0.49804014  0.35662129  1.0
  O  O31  1  0.27571985  0.00195986  0.35662129  1.0
  O  O32  1  0.39986660  0.75000000  0.07238223  1.0
  O  O33  1  0.89986660  0.75000000  0.42761777  1.0
  O  O34  1  0.60013340  0.25000000  0.92761777  1.0
  O  O35  1  0.10013340  0.25000000  0.57238223  1.0
