# generated using pymatgen
data_CsTl3O5
_symmetry_space_group_name_H-M   'P 1'
_cell_length_a   10.43346184
_cell_length_b   3.56479004
_cell_length_c   17.60442633
_cell_angle_alpha   90.00000000
_cell_angle_beta   90.00000000
_cell_angle_gamma   90.00000000
_symmetry_Int_Tables_number   1
_chemical_formula_structural   CsTl3O5
_chemical_formula_sum   'Cs4 Tl12 O20'
_cell_volume   654.76320390
_cell_formula_units_Z   4
loop_
 _symmetry_equiv_pos_site_id
 _symmetry_equiv_pos_as_xyz
  1  'x, y, z'
loop_
 _atom_site_type_symbol
 _atom_site_label
 _atom_site_symmetry_multiplicity
 _atom_site_fract_x
 _atom_site_fract_y
 _atom_site_fract_z
 _atom_site_occupancy
  Cs  Cs0  1  0.46710806  0.75000000  0.62850289  1.0
  Cs  Cs1  1  0.96710806  0.75000000  0.87149711  1.0
  Cs  Cs2  1  0.53289194  0.25000000  0.37149711  1.0
  Cs  Cs3  1  0.03289194  0.25000000  0.12850289  1.0
  Tl  Tl4  1  0.88519430  0.75000000  0.33705914  1.0
  Tl  Tl5  1  0.38519430  0.75000000  0.16294086  1.0
  Tl  Tl6  1  0.11480570  0.25000000  0.66294086  1.0
  Tl  Tl7  1  0.61480570  0.25000000  0.83705914  1.0
  Tl  Tl8  1  0.81929157  0.75000000  0.67697003  1.0
  Tl  Tl9  1  0.31929157  0.75000000  0.82302997  1.0
  Tl  Tl10  1  0.18070843  0.25000000  0.32302997  1.0
  Tl  Tl11  1  0.68070843  0.25000000  0.17697003  1.0
  Tl  Tl12  1  0.64753990  0.75000000  0.00981054  1.0
  Tl  Tl13  1  0.14753990  0.75000000  0.49018946  1.0
  Tl  Tl14  1  0.35246010  0.25000000  0.99018946  1.0
  Tl  Tl15  1  0.85246010  0.25000000  0.50981054  1.0
  O  O16  1  0.56289415  0.75000000  0.22655785  1.0
  O  O17  1  0.06289415  0.75000000  0.27344215  1.0
  O  O18  1  0.43710585  0.25000000  0.77344215  1.0
  O  O19  1  0.93710585  0.25000000  0.72655785  1.0
  O  O20  1  0.97367153  0.75000000  0.57372003  1.0
  O  O21  1  0.47367153  0.75000000  0.92627997  1.0
  O  O22  1  0.02632847  0.25000000  0.42627997  1.0
  O  O23  1  0.52632847  0.25000000  0.07372003  1.0
  O  O24  1  0.77582913  0.75000000  0.11154926  1.0
  O  O25  1  0.27582913  0.75000000  0.38845074  1.0
  O  O26  1  0.22417087  0.25000000  0.88845074  1.0
  O  O27  1  0.72417087  0.25000000  0.61154926  1.0
  O  O28  1  0.70438056  0.75000000  0.78372701  1.0
  O  O29  1  0.20438056  0.75000000  0.71627299  1.0
  O  O30  1  0.29561944  0.25000000  0.21627299  1.0
  O  O31  1  0.79561944  0.25000000  0.28372701  1.0
  O  O32  1  0.76905292  0.75000000  0.44156236  1.0
  O  O33  1  0.26905292  0.75000000  0.05843764  1.0
  O  O34  1  0.23094708  0.25000000  0.55843764  1.0
  O  O35  1  0.73094708  0.25000000  0.94156236  1.0
