# generated using pymatgen
data_KIn(PO4)2
_symmetry_space_group_name_H-M   'P 1'
_cell_length_a   9.84397312
_cell_length_b   8.52270007
_cell_length_c   9.59692029
_cell_angle_alpha   90.00000000
_cell_angle_beta   116.17321569
_cell_angle_gamma   90.00000000
_symmetry_Int_Tables_number   1
_chemical_formula_structural   KIn(PO4)2
_chemical_formula_sum   'K4 In4 P8 O32'
_cell_volume   722.59819144
_cell_formula_units_Z   4
loop_
 _symmetry_equiv_pos_site_id
 _symmetry_equiv_pos_as_xyz
  1  'x, y, z'
loop_
 _atom_site_type_symbol
 _atom_site_label
 _atom_site_symmetry_multiplicity
 _atom_site_fract_x
 _atom_site_fract_y
 _atom_site_fract_z
 _atom_site_occupancy
  P  P0  1  0.50575681  0.31868448  0.66827440  1.0
  P  P1  1  0.49424319  0.81868448  0.83172560  1.0
  P  P2  1  0.49424319  0.68131552  0.33172560  1.0
  P  P3  1  0.50575681  0.18131552  0.16827440  1.0
  P  P4  1  0.90670492  0.44210721  0.25406991  1.0
  P  P5  1  0.09329508  0.94210721  0.24593009  1.0
  P  P6  1  0.09329508  0.55789279  0.74593009  1.0
  P  P7  1  0.90670492  0.05789279  0.75406991  1.0
  O  O8  1  0.85575658  0.34628383  0.10272214  1.0
  O  O9  1  0.14424342  0.84628383  0.39727786  1.0
  O  O10  1  0.14424342  0.65371617  0.89727786  1.0
  O  O11  1  0.85575658  0.15371617  0.60272214  1.0
  O  O12  1  0.87807548  0.35749177  0.37925436  1.0
  O  O13  1  0.12192452  0.85749177  0.12074564  1.0
  O  O14  1  0.12192452  0.64250823  0.62074564  1.0
  O  O15  1  0.87807548  0.14250823  0.87925436  1.0
  O  O16  1  0.47516636  0.15205117  0.59162282  1.0
  O  O17  1  0.52483364  0.65205117  0.90837718  1.0
  O  O18  1  0.52483364  0.84794883  0.40837718  1.0
  O  O19  1  0.47516636  0.34794883  0.09162282  1.0
  O  O20  1  0.84448836  0.61384728  0.21628400  1.0
  O  O21  1  0.15551164  0.11384728  0.28371600  1.0
  O  O22  1  0.15551164  0.38615272  0.78371600  1.0
  O  O23  1  0.84448836  0.88615272  0.71628400  1.0
  O  O24  1  0.55158849  0.26117559  0.83831166  1.0
  O  O25  1  0.44841151  0.76117559  0.66168834  1.0
  O  O26  1  0.44841151  0.73882441  0.16168834  1.0
  O  O27  1  0.55158849  0.23882441  0.33831166  1.0
  O  O28  1  0.35596223  0.41065674  0.61051336  1.0
  O  O29  1  0.64403777  0.91065674  0.88948664  1.0
  O  O30  1  0.64403777  0.58934326  0.38948664  1.0
  O  O31  1  0.35596223  0.08934326  0.11051336  1.0
  O  O32  1  0.07817963  0.48452477  0.31063445  1.0
  O  O33  1  0.92182037  0.98452477  0.18936555  1.0
  O  O34  1  0.92182037  0.51547523  0.68936555  1.0
  O  O35  1  0.07817963  0.01547523  0.81063445  1.0
  O  O36  1  0.63372392  0.40985358  0.65376689  1.0
  O  O37  1  0.36627608  0.90985358  0.84623311  1.0
  O  O38  1  0.36627608  0.59014642  0.34623311  1.0
  O  O39  1  0.63372392  0.09014642  0.15376689  1.0
  K  K40  1  0.81406687  0.63900224  0.89602984  1.0
  K  K41  1  0.18593313  0.13900224  0.60397016  1.0
  K  K42  1  0.18593313  0.36099776  0.10397016  1.0
  K  K43  1  0.81406687  0.86099776  0.39602984  1.0
  In  In44  1  0.74362564  0.37277578  0.50550112  1.0
  In  In45  1  0.25637436  0.87277578  0.99449888  1.0
  In  In46  1  0.25637436  0.62722422  0.49449888  1.0
  In  In47  1  0.74362564  0.12722422  0.00550112  1.0
