# generated using pymatgen
data_Ni(AsO2)2
_symmetry_space_group_name_H-M   'P 1'
_cell_length_a   8.35689178
_cell_length_b   8.35689178
_cell_length_c   5.78052751
_cell_angle_alpha   90.00000000
_cell_angle_beta   90.00000000
_cell_angle_gamma   90.00000000
_symmetry_Int_Tables_number   1
_chemical_formula_structural   Ni(AsO2)2
_chemical_formula_sum   'Ni4 As8 O16'
_cell_volume   403.69840067
_cell_formula_units_Z   4
loop_
 _symmetry_equiv_pos_site_id
 _symmetry_equiv_pos_as_xyz
  1  'x, y, z'
loop_
 _atom_site_type_symbol
 _atom_site_label
 _atom_site_symmetry_multiplicity
 _atom_site_fract_x
 _atom_site_fract_y
 _atom_site_fract_z
 _atom_site_occupancy
  O  O0  1  0.31943743  0.18056257  0.75000000  1.0
  O  O1  1  0.31943743  0.18056257  0.25000000  1.0
  O  O2  1  0.81943743  0.31943743  0.75000000  1.0
  O  O3  1  0.81943743  0.31943743  0.25000000  1.0
  O  O4  1  0.68056257  0.81943743  0.75000000  1.0
  O  O5  1  0.68056257  0.81943743  0.25000000  1.0
  O  O6  1  0.18056257  0.68056257  0.75000000  1.0
  O  O7  1  0.18056257  0.68056257  0.25000000  1.0
  O  O8  1  0.36301660  0.89633052  0.00000000  1.0
  O  O9  1  0.86301660  0.60366948  0.00000000  1.0
  O  O10  1  0.10366948  0.36301660  0.50000000  1.0
  O  O11  1  0.60366948  0.13698340  0.50000000  1.0
  O  O12  1  0.63698340  0.10366948  0.00000000  1.0
  O  O13  1  0.13698340  0.39633052  0.00000000  1.0
  O  O14  1  0.89633052  0.63698340  0.50000000  1.0
  O  O15  1  0.39633052  0.86301660  0.50000000  1.0
  Ni  Ni16  1  0.50000000  0.00000000  0.75000000  1.0
  Ni  Ni17  1  0.50000000  0.00000000  0.25000000  1.0
  Ni  Ni18  1  0.00000000  0.50000000  0.75000000  1.0
  Ni  Ni19  1  0.00000000  0.50000000  0.25000000  1.0
  As  As20  1  0.32911481  0.68501755  0.00000000  1.0
  As  As21  1  0.82911481  0.81498245  0.00000000  1.0
  As  As22  1  0.31498245  0.32911481  0.50000000  1.0
  As  As23  1  0.81498245  0.17088519  0.50000000  1.0
  As  As24  1  0.67088519  0.31498245  0.00000000  1.0
  As  As25  1  0.17088519  0.18501755  0.00000000  1.0
  As  As26  1  0.68501755  0.67088519  0.50000000  1.0
  As  As27  1  0.18501755  0.82911481  0.50000000  1.0
