# generated using pymatgen
data_Si3Ir
_symmetry_space_group_name_H-M   'P 1'
_cell_length_a   4.77914961
_cell_length_b   4.77914961
_cell_length_c   6.40206486
_cell_angle_alpha   90.00000000
_cell_angle_beta   90.00000000
_cell_angle_gamma   120.00000000
_symmetry_Int_Tables_number   1
_chemical_formula_structural   Si3Ir
_chemical_formula_sum   'Si6 Ir2'
_cell_volume   126.63447476
_cell_formula_units_Z   2
loop_
 _symmetry_equiv_pos_site_id
 _symmetry_equiv_pos_as_xyz
  1  'x, y, z'
loop_
 _atom_site_type_symbol
 _atom_site_label
 _atom_site_symmetry_multiplicity
 _atom_site_fract_x
 _atom_site_fract_y
 _atom_site_fract_z
 _atom_site_occupancy
  Si  Si0  1  0.33413772  0.16706886  0.16846218  1.0
  Si  Si1  1  0.16706886  0.33413772  0.66846218  1.0
  Si  Si2  1  0.16706886  0.83293114  0.66846218  1.0
  Si  Si3  1  0.83293114  0.16706886  0.16846218  1.0
  Si  Si4  1  0.83293114  0.66586228  0.16846218  1.0
  Si  Si5  1  0.66586228  0.83293114  0.66846218  1.0
  Ir  Ir6  1  0.33333333  0.66666667  -0.00438654  1.0
  Ir  Ir7  1  0.66666667  0.33333333  0.49561346  1.0
