# generated using pymatgen
data_SiO2
_symmetry_space_group_name_H-M   'P 1'
_cell_length_a   12.74615862
_cell_length_b   12.74615862
_cell_length_c   8.68498267
_cell_angle_alpha   90.00000000
_cell_angle_beta   90.00000000
_cell_angle_gamma   109.39990515
_symmetry_Int_Tables_number   1
_chemical_formula_structural   SiO2
_chemical_formula_sum   'Si24 O48'
_cell_volume   1330.88972323
_cell_formula_units_Z   24
loop_
 _symmetry_equiv_pos_site_id
 _symmetry_equiv_pos_as_xyz
  1  'x, y, z'
loop_
 _atom_site_type_symbol
 _atom_site_label
 _atom_site_symmetry_multiplicity
 _atom_site_fract_x
 _atom_site_fract_y
 _atom_site_fract_z
 _atom_site_occupancy
  Si  Si0  1  -0.11789143  1.50460800  0.43601788  1.0
  Si  Si1  1  -0.11789143  1.50460800  0.06398212  1.0
  Si  Si2  1  0.50460800  0.88210857  0.93601788  1.0
  Si  Si3  1  0.50460800  0.88210857  0.56398212  1.0
  Si  Si4  1  -0.50460800  1.11789143  0.43601788  1.0
  Si  Si5  1  -0.50460800  1.11789143  0.06398212  1.0
  Si  Si6  1  0.11789143  0.49539200  0.93601788  1.0
  Si  Si7  1  0.11789143  0.49539200  0.56398212  1.0
  Si  Si8  1  0.12090668  0.26117723  0.43604505  1.0
  Si  Si9  1  0.12090668  0.26117723  0.06395495  1.0
  Si  Si10  1  -0.73882277  1.12090668  0.93604505  1.0
  Si  Si11  1  -0.73882277  1.12090668  0.56395495  1.0
  Si  Si12  1  0.73882277  0.87909332  0.43604505  1.0
  Si  Si13  1  0.73882277  0.87909332  0.06395495  1.0
  Si  Si14  1  -0.12090668  1.73882277  0.93604505  1.0
  Si  Si15  1  -0.12090668  1.73882277  0.56395495  1.0
  Si  Si16  1  0.12146954  0.87853046  0.43592802  1.0
  Si  Si17  1  0.12146954  0.87853046  0.06407198  1.0
  Si  Si18  1  -0.12146954  1.12146954  0.93592802  1.0
  Si  Si19  1  -0.12146954  1.12146954  0.56407198  1.0
  Si  Si20  1  0.27270778  0.72729222  0.43591544  1.0
  Si  Si21  1  0.27270778  0.72729222  0.06408456  1.0
  Si  Si22  1  -0.27270778  1.27270778  0.93591544  1.0
  Si  Si23  1  -0.27270778  1.27270778  0.56408456  1.0
  O  O24  1  -0.00242626  1.82468418  0.50582370  1.0
  O  O25  1  -0.00242626  1.82468418  -0.00582370  1.0
  O  O26  1  0.82468418  0.99757374  1.00582370  1.0
  O  O27  1  0.82468418  0.99757374  0.49417630  1.0
  O  O28  1  -0.82468418  1.00242626  0.50582370  1.0
  O  O29  1  -0.82468418  1.00242626  -0.00582370  1.0
  O  O30  1  0.00242626  0.17531582  1.00582370  1.0
  O  O31  1  0.00242626  0.17531582  0.49417630  1.0
  O  O32  1  0.14022093  0.38536422  0.50054417  1.0
  O  O33  1  0.14022093  0.38536422  -0.00054417  1.0
  O  O34  1  -0.61463578  1.14022093  1.00054417  1.0
  O  O35  1  -0.61463578  1.14022093  0.49945583  1.0
  O  O36  1  0.61463578  0.85977907  0.50054417  1.0
  O  O37  1  0.61463578  0.85977907  -0.00054417  1.0
  O  O38  1  -0.14022093  1.61463578  1.00054417  1.0
  O  O39  1  -0.14022093  1.61463578  0.49945583  1.0
  O  O40  1  -0.21917288  1.39668467  0.49351652  1.0
  O  O41  1  -0.21917288  1.39668467  0.00648348  1.0
  O  O42  1  0.39668467  0.78082712  0.99351652  1.0
  O  O43  1  0.39668467  0.78082712  0.50648348  1.0
  O  O44  1  -0.39668467  1.21917288  0.49351652  1.0
  O  O45  1  -0.39668467  1.21917288  0.00648348  1.0
  O  O46  1  0.21917288  0.60331533  0.99351652  1.0
  O  O47  1  0.21917288  0.60331533  0.50648348  1.0
  O  O48  1  -0.11364434  1.50782843  0.25000000  1.0
  O  O49  1  0.50782843  0.88635566  0.75000000  1.0
  O  O50  1  -0.50782843  1.11364434  0.25000000  1.0
  O  O51  1  0.11364434  0.49217157  0.75000000  1.0
  O  O52  1  0.12290873  0.26349910  0.25000000  1.0
  O  O53  1  -0.73650090  1.12290873  0.75000000  1.0
  O  O54  1  0.73650090  0.87709127  0.25000000  1.0
  O  O55  1  -0.12290873  1.73650090  0.75000000  1.0
  O  O56  1  0.19703828  0.80296172  1.01504443  1.0
  O  O57  1  0.19703828  0.80296172  0.48495557  1.0
  O  O58  1  -0.19703828  1.19703828  0.51504443  1.0
  O  O59  1  -0.19703828  1.19703828  -0.01504443  1.0
  O  O60  1  0.77873379  0.77873379  0.50000000  1.0
  O  O61  1  0.77873379  0.77873379  0.00000000  1.0
  O  O62  1  0.22126621  0.22126621  0.50000000  1.0
  O  O63  1  0.22126621  0.22126621  0.00000000  1.0
  O  O64  1  0.00000000  1.50000000  0.50000000  1.0
  O  O65  1  0.00000000  1.50000000  0.00000000  1.0
  O  O66  1  0.50000000  1.00000000  0.00000000  1.0
  O  O67  1  0.50000000  1.00000000  0.50000000  1.0
  O  O68  1  0.11444130  0.88555870  0.25000000  1.0
  O  O69  1  -0.11444130  1.11444130  0.75000000  1.0
  O  O70  1  0.27955874  0.72044126  0.25000000  1.0
  O  O71  1  -0.27955874  1.27955874  0.75000000  1.0
