# generated using pymatgen
data_MnCu2SnS4
_symmetry_space_group_name_H-M   'P 1'
_cell_length_a   6.69942031
_cell_length_b   6.69942031
_cell_length_c   6.69942031
_cell_angle_alpha   131.41078605
_cell_angle_beta   131.41078605
_cell_angle_gamma   71.16123351
_symmetry_Int_Tables_number   1
_chemical_formula_structural   MnCu2SnS4
_chemical_formula_sum   'Mn1 Cu2 Sn1 S4'
_cell_volume   165.58083832
_cell_formula_units_Z   1
loop_
 _symmetry_equiv_pos_site_id
 _symmetry_equiv_pos_as_xyz
  1  'x, y, z'
loop_
 _atom_site_type_symbol
 _atom_site_label
 _atom_site_symmetry_multiplicity
 _atom_site_fract_x
 _atom_site_fract_y
 _atom_site_fract_z
 _atom_site_occupancy
  Mn  Mn0  1  0.50000000  0.50000000  1.00000000  1.0
  Cu  Cu1  1  0.25000000  0.75000000  0.50000000  1.0
  Cu  Cu2  1  0.75000000  0.25000000  0.50000000  1.0
  Sn  Sn3  1  0.00000000  0.00000000  0.00000000  1.0
  S  S4  1  0.39118265  0.87812879  1.00000000  1.0
  S  S5  1  1.12187121  1.12187121  1.51305386  1.0
  S  S6  1  0.60881735  0.60881735  0.48694614  1.0
  S  S7  1  0.87812879  0.39118265  1.00000000  1.0
