# generated using pymatgen
data_Mn7(AsO4)6
_symmetry_space_group_name_H-M   'P 1'
_cell_length_a   8.30709274
_cell_length_b   6.55233477
_cell_length_c   10.11933829
_cell_angle_alpha   69.31167874
_cell_angle_beta   68.06681408
_cell_angle_gamma   80.16879236
_symmetry_Int_Tables_number   1
_chemical_formula_structural   Mn7(AsO4)6
_chemical_formula_sum   'Mn7 As6 O24'
_cell_volume   477.51215777
_cell_formula_units_Z   1
loop_
 _symmetry_equiv_pos_site_id
 _symmetry_equiv_pos_as_xyz
  1  'x, y, z'
loop_
 _atom_site_type_symbol
 _atom_site_label
 _atom_site_symmetry_multiplicity
 _atom_site_fract_x
 _atom_site_fract_y
 _atom_site_fract_z
 _atom_site_occupancy
  Mn  Mn0  1  -0.78400661  -0.03535459  0.98067635  1.0
  Mn  Mn1  1  -0.21599339  0.03535459  0.01932365  1.0
  Mn  Mn2  1  -0.69026157  0.51142036  0.22072946  1.0
  Mn  Mn3  1  -0.30973843  -0.51142036  0.77927054  1.0
  Mn  Mn4  1  -0.94782470  -0.23322282  0.61157021  1.0
  Mn  Mn5  1  -0.05217530  0.23322282  0.38842979  1.0
  Mn  Mn6  1  -0.50000000  -0.50000000  0.50000000  1.0
  As  As7  1  -0.91787087  0.23904738  0.67081983  1.0
  As  As8  1  -0.08212913  -0.23904738  0.32918017  1.0
  As  As9  1  -0.37495217  0.04128993  0.72733975  1.0
  As  As10  1  -0.62504783  -0.04128993  0.27266025  1.0
  As  As11  1  -0.73493483  -0.48347569  0.87756025  1.0
  As  As12  1  -0.26506517  0.48347569  0.12243975  1.0
  O  O13  1  -0.31693064  0.16703690  0.83180455  1.0
  O  O14  1  -0.68306936  -0.16703690  0.16819545  1.0
  O  O15  1  -0.97078159  0.08244986  0.86038300  1.0
  O  O16  1  -0.02921841  -0.08244986  0.13961700  1.0
  O  O17  1  -0.70988892  0.31819380  0.57951240  1.0
  O  O18  1  -0.29011108  -0.31819380  0.42048760  1.0
  O  O19  1  -0.94510388  0.52055689  0.34192155  1.0
  O  O20  1  -0.05489612  -0.52055689  0.65807845  1.0
  O  O21  1  -0.59322054  -0.00360825  0.79895013  1.0
  O  O22  1  -0.40677946  0.00360825  0.20104987  1.0
  O  O23  1  -0.32315847  0.22356049  0.54491886  1.0
  O  O24  1  -0.67684153  -0.22356049  0.45508114  1.0
  O  O25  1  -0.97574843  0.09384656  0.57933748  1.0
  O  O26  1  -0.02425157  -0.09384656  0.42066252  1.0
  O  O27  1  -0.74082629  -0.36176317  1.01060143  1.0
  O  O28  1  -0.25917371  0.36176317  -0.01060143  1.0
  O  O29  1  -0.25799068  -0.20792851  0.73104180  1.0
  O  O30  1  -0.74200932  0.20792851  0.26895820  1.0
  O  O31  1  -0.88180255  -0.34921406  0.79067281  1.0
  O  O32  1  -0.11819745  0.34921406  0.20932719  1.0
  O  O33  1  -0.52712160  -0.46599522  0.73680388  1.0
  O  O34  1  -0.47287840  0.46599522  0.26319612  1.0
  O  O35  1  -0.77605304  -0.75097215  0.98711673  1.0
  O  O36  1  -0.22394696  0.75097215  0.01288327  1.0
