# generated using pymatgen
data_MnCdF6
_symmetry_space_group_name_H-M   'P 1'
_cell_length_a   5.62687274
_cell_length_b   5.62687274
_cell_length_c   5.62687274
_cell_angle_alpha   56.49220667
_cell_angle_beta   56.49220667
_cell_angle_gamma   56.49220668
_symmetry_Int_Tables_number   1
_chemical_formula_structural   MnCdF6
_chemical_formula_sum   'Mn1 Cd1 F6'
_cell_volume   115.76138132
_cell_formula_units_Z   1
loop_
 _symmetry_equiv_pos_site_id
 _symmetry_equiv_pos_as_xyz
  1  'x, y, z'
loop_
 _atom_site_type_symbol
 _atom_site_label
 _atom_site_symmetry_multiplicity
 _atom_site_fract_x
 _atom_site_fract_y
 _atom_site_fract_z
 _atom_site_occupancy
  Mn  Mn0  1  0.00000000  0.00000000  0.00000000  1.0
  Cd  Cd1  1  0.50000000  0.50000000  -0.50000000  1.0
  F  F2  1  0.09778808  0.78337579  -0.65684028  1.0
  F  F3  1  0.65684028  -0.09778808  0.21662421  1.0
  F  F4  1  1.21662421  -0.34315972  -0.09778808  1.0
  F  F5  1  0.90221192  0.21662421  -0.34315972  1.0
  F  F6  1  0.34315972  0.09778808  -0.21662421  1.0
  F  F7  1  0.78337579  0.34315972  -0.90221192  1.0
