# generated using pymatgen
data_GaH13(C2N)2
_symmetry_space_group_name_H-M   'P 1'
_cell_length_a   9.14760692
_cell_length_b   7.42981992
_cell_length_c   6.56057264
_cell_angle_alpha   76.73829707
_cell_angle_beta   73.73306778
_cell_angle_gamma   82.85467003
_symmetry_Int_Tables_number   1
_chemical_formula_structural   GaH13(C2N)2
_chemical_formula_sum   'Ga2 H26 C8 N4'
_cell_volume   415.76119297
_cell_formula_units_Z   2
loop_
 _symmetry_equiv_pos_site_id
 _symmetry_equiv_pos_as_xyz
  1  'x, y, z'
loop_
 _atom_site_type_symbol
 _atom_site_label
 _atom_site_symmetry_multiplicity
 _atom_site_fract_x
 _atom_site_fract_y
 _atom_site_fract_z
 _atom_site_occupancy
  Ga  Ga0  1  -0.11847757  -0.09467207  -0.54377790  1.0
  Ga  Ga1  1  -0.88152243  -0.90532793  -0.45622210  1.0
  H  H2  1  -0.11324205  -0.08950063  -0.78575157  1.0
  H  H3  1  -0.88675795  -0.91049937  -0.21424843  1.0
  H  H4  1  -0.81918197  -0.36256018  -0.69751923  1.0
  H  H5  1  -0.18081803  -0.63743982  -0.30248077  1.0
  H  H6  1  -0.80914402  -0.12569604  -0.83455868  1.0
  H  H7  1  -0.19085598  -0.87430396  -0.16544132  1.0
  H  H8  1  -0.67955528  -0.22604288  -0.67478494  1.0
  H  H9  1  -0.32044472  -0.77395712  -0.32521506  1.0
  H  H10  1  -0.77998867  -0.33303824  -0.28296489  1.0
  H  H11  1  -0.22001133  -0.66696176  -0.71703511  1.0
  H  H12  1  -0.96963066  -0.26406968  -0.15146832  1.0
  H  H13  1  -0.03036934  -0.73593032  -0.84853168  1.0
  H  H14  1  -0.93653726  -0.44138403  -0.30543521  1.0
  H  H15  1  -0.06346274  -0.55861597  -0.69456479  1.0
  H  H16  1  -0.34447590  -0.38339982  -0.01869476  1.0
  H  H17  1  -0.65552410  -0.61660018  -0.98130524  1.0
  H  H18  1  -0.21781507  -0.20954707  -0.05265582  1.0
  H  H19  1  -0.78218493  -0.79045293  -0.94734418  1.0
  H  H20  1  -0.41282647  -0.14655786  -0.04582720  1.0
  H  H21  1  -0.58717353  -0.85344214  -0.95417280  1.0
  H  H22  1  -0.50571994  -0.17264388  -0.36609894  1.0
  H  H23  1  -0.49428006  -0.82735612  -0.63390106  1.0
  H  H24  1  -0.37122440  -0.25490682  -0.58534130  1.0
  H  H25  1  -0.62877560  -0.74509318  -0.41465870  1.0
  H  H26  1  -0.43694520  -0.40970369  -0.33269779  1.0
  H  H27  1  -0.56305480  -0.59029631  -0.66730221  1.0
  C  C28  1  -0.79808143  -0.22287211  -0.68528528  1.0
  C  C29  1  -0.20191857  -0.77712789  -0.31471472  1.0
  C  C30  1  -0.89824878  -0.30856223  -0.29826994  1.0
  C  C31  1  -0.10175122  -0.69143777  -0.70173006  1.0
  C  C32  1  -0.31377367  -0.24098696  -0.10569776  1.0
  C  C33  1  -0.68622633  -0.75901304  -0.89430224  1.0
  C  C34  1  -0.40241568  -0.26667666  -0.40852785  1.0
  C  C35  1  -0.59758432  -0.73332334  -0.59147215  1.0
  N  N36  1  -0.90670077  -0.16644145  -0.49351399  1.0
  N  N37  1  -0.09329923  -0.83355855  -0.50648601  1.0
  N  N38  1  -0.27597787  -0.22539426  -0.33799085  1.0
  N  N39  1  -0.72402213  -0.77460574  -0.66200915  1.0
