# generated using pymatgen
data_Rb2MnH2OF5
_symmetry_space_group_name_H-M   'P 1'
_cell_length_a   6.35574509
_cell_length_b   6.35574509
_cell_length_c   8.62278417
_cell_angle_alpha   90.00000000
_cell_angle_beta   90.00000000
_cell_angle_gamma   79.83494202
_symmetry_Int_Tables_number   1
_chemical_formula_structural   Rb2MnH2OF5
_chemical_formula_sum   'Rb4 Mn2 H4 O2 F10'
_cell_volume   342.85418213
_cell_formula_units_Z   2
loop_
 _symmetry_equiv_pos_site_id
 _symmetry_equiv_pos_as_xyz
  1  'x, y, z'
loop_
 _atom_site_type_symbol
 _atom_site_label
 _atom_site_symmetry_multiplicity
 _atom_site_fract_x
 _atom_site_fract_y
 _atom_site_fract_z
 _atom_site_occupancy
  Rb  Rb0  1  0.08610928  0.50116894  0.25000000  1.0
  Rb  Rb1  1  -0.49883106  1.08610928  0.75000000  1.0
  Rb  Rb2  1  0.49883106  0.91389072  0.25000000  1.0
  Rb  Rb3  1  -0.08610928  1.49883106  0.75000000  1.0
  Mn  Mn4  1  0.00000000  0.00000000  0.50000000  1.0
  Mn  Mn5  1  -0.00000000  -0.00000000  -0.00000000  1.0
  H  H6  1  -0.36122624  1.36122624  0.34139306  1.0
  H  H7  1  -0.36122624  1.36122624  0.15860694  1.0
  H  H8  1  0.36122624  0.63877376  0.84139306  1.0
  H  H9  1  0.36122624  0.63877376  0.65860694  1.0
  O  O10  1  -0.43407986  1.43407986  0.25000000  1.0
  O  O11  1  0.43407986  0.56592014  0.75000000  1.0
  F  F12  1  0.23232040  0.76767960  1.00082127  1.0
  F  F13  1  0.23232040  0.76767960  0.49917873  1.0
  F  F14  1  -0.23232040  1.23232040  0.50082127  1.0
  F  F15  1  -0.23232040  1.23232040  -0.00082127  1.0
  F  F16  1  0.80899371  0.80899371  0.50000000  1.0
  F  F17  1  0.80899371  0.80899371  0.00000000  1.0
  F  F18  1  0.19100629  0.19100629  0.50000000  1.0
  F  F19  1  0.19100629  0.19100629  0.00000000  1.0
  F  F20  1  0.00512908  0.99487092  0.25000000  1.0
  F  F21  1  -0.00512908  1.00512908  0.75000000  1.0
