# generated using pymatgen
data_BaGe2S5
_symmetry_space_group_name_H-M   'P 1'
_cell_length_a   10.75685897
_cell_length_b   10.75685897
_cell_length_c   10.75685897
_cell_angle_alpha   60.00000000
_cell_angle_beta   60.00000000
_cell_angle_gamma   60.00000000
_symmetry_Int_Tables_number   1
_chemical_formula_structural   BaGe2S5
_chemical_formula_sum   'Ba4 Ge8 S20'
_cell_volume   880.11906096
_cell_formula_units_Z   4
loop_
 _symmetry_equiv_pos_site_id
 _symmetry_equiv_pos_as_xyz
  1  'x, y, z'
loop_
 _atom_site_type_symbol
 _atom_site_label
 _atom_site_symmetry_multiplicity
 _atom_site_fract_x
 _atom_site_fract_y
 _atom_site_fract_z
 _atom_site_occupancy
  Ba  Ba0  1  0.62500000  1.12500000  0.12500000  1.0
  Ba  Ba1  1  0.12500000  1.62500000  0.12500000  1.0
  Ba  Ba2  1  0.12500000  0.12500000  1.62500000  1.0
  Ba  Ba3  1  0.12500000  0.12500000  0.12500000  1.0
  Ge  Ge4  1  -0.25064173  0.41688058  0.41688058  1.0
  Ge  Ge5  1  0.41688058  -0.25064173  0.41688058  1.0
  Ge  Ge6  1  0.41688058  1.41688058  -0.25064173  1.0
  Ge  Ge7  1  0.41688058  1.41688058  0.41688058  1.0
  Ge  Ge8  1  0.50064173  0.83311942  -0.16688058  1.0
  Ge  Ge9  1  0.83311942  0.50064173  0.83311942  1.0
  Ge  Ge10  1  0.83311942  0.83311942  -0.49935827  1.0
  Ge  Ge11  1  0.83311942  0.83311942  0.83311942  1.0
  S  S12  1  -0.00250439  1.33416813  0.33416813  1.0
  S  S13  1  0.33416813  0.99749561  0.33416813  1.0
  S  S14  1  0.33416813  1.33416813  -0.00250439  1.0
  S  S15  1  0.33416813  1.33416813  0.33416813  1.0
  S  S16  1  -0.74749561  0.91583187  0.91583187  1.0
  S  S17  1  0.91583187  -0.74749561  0.91583187  1.0
  S  S18  1  0.91583187  0.91583187  -0.74749561  1.0
  S  S19  1  0.91583187  0.91583187  0.91583187  1.0
  S  S20  1  -0.32669493  0.32669493  0.32669493  1.0
  S  S21  1  -0.67330507  0.67330507  0.67330507  1.0
  S  S22  1  0.32669493  1.32669493  -0.32669493  1.0
  S  S23  1  0.67330507  0.67330507  -0.67330507  1.0
  S  S24  1  0.32669493  -0.32669493  0.32669493  1.0
  S  S25  1  0.67330507  -0.67330507  0.67330507  1.0
  S  S26  1  0.57669493  0.92330507  -0.07669493  1.0
  S  S27  1  0.92330507  0.57669493  -0.42330507  1.0
  S  S28  1  0.92330507  0.92330507  -0.42330507  1.0
  S  S29  1  -0.42330507  0.57669493  0.92330507  1.0
  S  S30  1  0.92330507  0.57669493  0.92330507  1.0
  S  S31  1  0.57669493  0.92330507  0.57669493  1.0
