# generated using pymatgen
data_Na4W(NO)2
_symmetry_space_group_name_H-M   'P 1'
_cell_length_a   9.02572105
_cell_length_b   5.93582975
_cell_length_c   5.90558362
_cell_angle_alpha   69.75403820
_cell_angle_beta   71.50946052
_cell_angle_gamma   83.35110221
_symmetry_Int_Tables_number   1
_chemical_formula_structural   Na4W(NO)2
_chemical_formula_sum   'Na8 W2 N4 O4'
_cell_volume   281.51364832
_cell_formula_units_Z   2
loop_
 _symmetry_equiv_pos_site_id
 _symmetry_equiv_pos_as_xyz
  1  'x, y, z'
loop_
 _atom_site_type_symbol
 _atom_site_label
 _atom_site_symmetry_multiplicity
 _atom_site_fract_x
 _atom_site_fract_y
 _atom_site_fract_z
 _atom_site_occupancy
  Na  Na0  1  -0.55185867  -0.74301126  -0.47957111  1.0
  Na  Na1  1  -0.44814133  -0.25698874  -0.52042889  1.0
  Na  Na2  1  -0.40621166  -0.75797754  -0.05459190  1.0
  Na  Na3  1  -0.59378834  -0.24202246  -0.94540810  1.0
  Na  Na4  1  -0.18701332  -0.72209267  -0.61392214  1.0
  Na  Na5  1  -0.81298668  -0.27790733  -0.38607786  1.0
  Na  Na6  1  -0.01608306  -0.23633205  -0.75853032  1.0
  Na  Na7  1  -0.98391694  -0.76366795  -0.24146968  1.0
  W  W8  1  -0.76482474  -0.71837396  -0.84125430  1.0
  W  W9  1  -0.23517526  -0.28162604  -0.15874570  1.0
  N  N10  1  -0.35297220  -0.45592727  -0.84301965  1.0
  N  N11  1  -0.64702780  -0.54407273  -0.15698035  1.0
  N  N12  1  -0.64198691  -0.96048543  -0.70278443  1.0
  N  N13  1  -0.35801309  -0.03951457  -0.29721557  1.0
  O  O14  1  -0.81801312  -0.51385961  -0.64322275  1.0
  O  O15  1  -0.18198688  -0.48614039  -0.35677725  1.0
  O  O16  1  -0.94554657  -0.84099314  -0.85079790  1.0
  O  O17  1  -0.05445343  -0.15900686  -0.14920210  1.0
