# generated using pymatgen
data_Eu2ReO5
_symmetry_space_group_name_H-M   'P 1'
_cell_length_a   8.73174851
_cell_length_b   8.73174851
_cell_length_c   5.94061398
_cell_angle_alpha   90.00000000
_cell_angle_beta   90.00000000
_cell_angle_gamma   90.00000000
_symmetry_Int_Tables_number   1
_chemical_formula_structural   Eu2ReO5
_chemical_formula_sum   'Eu8 Re4 O20'
_cell_volume   452.93279767
_cell_formula_units_Z   4
loop_
 _symmetry_equiv_pos_site_id
 _symmetry_equiv_pos_as_xyz
  1  'x, y, z'
loop_
 _atom_site_type_symbol
 _atom_site_label
 _atom_site_symmetry_multiplicity
 _atom_site_fract_x
 _atom_site_fract_y
 _atom_site_fract_z
 _atom_site_occupancy
  O  O0  1  0.08866583  0.30540698  0.39693178  1.0
  O  O1  1  0.91133417  0.69459302  0.39693178  1.0
  O  O2  1  0.80540698  0.41133417  0.39693178  1.0
  O  O3  1  0.19459302  0.58866583  0.39693178  1.0
  O  O4  1  0.41133417  0.19459302  0.60306822  1.0
  O  O5  1  0.58866583  0.80540698  0.60306822  1.0
  O  O6  1  0.69459302  0.08866583  0.60306822  1.0
  O  O7  1  0.30540698  0.91133417  0.60306822  1.0
  O  O8  1  0.19458613  0.41072739  0.90881275  1.0
  O  O9  1  0.80541387  0.58927261  0.90881275  1.0
  O  O10  1  0.91072739  0.30541387  0.90881275  1.0
  O  O11  1  0.08927261  0.69458613  0.90881275  1.0
  O  O12  1  0.30541387  0.08927261  0.09118725  1.0
  O  O13  1  0.69458613  0.91072739  0.09118725  1.0
  O  O14  1  0.58927261  0.19458613  0.09118725  1.0
  O  O15  1  0.41072739  0.80541387  0.09118725  1.0
  O  O16  1  0.50000000  0.50000000  0.50000000  1.0
  O  O17  1  0.00000000  0.00000000  0.50000000  1.0
  O  O18  1  0.50000000  0.50000000  0.00000000  1.0
  O  O19  1  0.00000000  0.00000000  -0.00000000  1.0
  Re  Re20  1  -0.00000000  0.50000000  0.85415781  1.0
  Re  Re21  1  0.50000000  -0.00000000  0.14584219  1.0
  Re  Re22  1  -0.00000000  0.50000000  0.45772750  1.0
  Re  Re23  1  0.50000000  -0.00000000  0.54227250  1.0
  Eu  Eu24  1  0.64167872  0.35235815  0.75099452  1.0
  Eu  Eu25  1  0.35832128  0.64764185  0.75099452  1.0
  Eu  Eu26  1  0.85235815  0.85832128  0.75099452  1.0
  Eu  Eu27  1  0.14764185  0.14167872  0.75099452  1.0
  Eu  Eu28  1  0.85832128  0.14764185  0.24900548  1.0
  Eu  Eu29  1  0.14167872  0.85235815  0.24900548  1.0
  Eu  Eu30  1  0.64764185  0.64167872  0.24900548  1.0
  Eu  Eu31  1  0.35235815  0.35832128  0.24900548  1.0
