# generated using pymatgen
data_FeBW
_symmetry_space_group_name_H-M   'P 1'
_cell_length_a   5.84957960
_cell_length_b   3.15927222
_cell_length_c   6.78626836
_cell_angle_alpha   90.00000000
_cell_angle_beta   90.00000000
_cell_angle_gamma   90.00000000
_symmetry_Int_Tables_number   1
_chemical_formula_structural   FeBW
_chemical_formula_sum   'Fe4 B4 W4'
_cell_volume   125.41305123
_cell_formula_units_Z   4
loop_
 _symmetry_equiv_pos_site_id
 _symmetry_equiv_pos_as_xyz
  1  'x, y, z'
loop_
 _atom_site_type_symbol
 _atom_site_label
 _atom_site_symmetry_multiplicity
 _atom_site_fract_x
 _atom_site_fract_y
 _atom_site_fract_z
 _atom_site_occupancy
  Fe  Fe0  1  0.85676790  0.75000000  0.05736129  1.0
  Fe  Fe1  1  0.35676790  0.75000000  0.44263871  1.0
  Fe  Fe2  1  0.14323210  0.25000000  0.94263871  1.0
  Fe  Fe3  1  0.64323210  0.25000000  0.55736129  1.0
  B  B4  1  0.73483823  0.75000000  0.36634042  1.0
  B  B5  1  0.23483823  0.75000000  0.13365958  1.0
  B  B6  1  0.26516177  0.25000000  0.63365958  1.0
  B  B7  1  0.76516177  0.25000000  0.86634042  1.0
  W  W8  1  0.97034244  0.75000000  0.67334593  1.0
  W  W9  1  0.47034244  0.75000000  0.82665407  1.0
  W  W10  1  0.02965756  0.25000000  0.32665407  1.0
  W  W11  1  0.52965756  0.25000000  0.17334593  1.0
