# generated using pymatgen
data_MgS2O9
_symmetry_space_group_name_H-M   'P 1'
_cell_length_a   8.68039661
_cell_length_b   12.84184656
_cell_length_c   6.21974062
_cell_angle_alpha   90.00000000
_cell_angle_beta   90.00000000
_cell_angle_gamma   90.00000000
_symmetry_Int_Tables_number   1
_chemical_formula_structural   MgS2O9
_chemical_formula_sum   'Mg4 S8 O36'
_cell_volume   693.32892566
_cell_formula_units_Z   4
loop_
 _symmetry_equiv_pos_site_id
 _symmetry_equiv_pos_as_xyz
  1  'x, y, z'
loop_
 _atom_site_type_symbol
 _atom_site_label
 _atom_site_symmetry_multiplicity
 _atom_site_fract_x
 _atom_site_fract_y
 _atom_site_fract_z
 _atom_site_occupancy
  Mg  Mg0  1  0.50000000  0.00000000  0.50000000  1.0
  Mg  Mg1  1  0.50000000  0.50000000  0.50000000  1.0
  Mg  Mg2  1  0.00000000  0.00000000  0.00000000  1.0
  Mg  Mg3  1  0.00000000  0.50000000  0.00000000  1.0
  S  S4  1  0.41406875  0.75000000  1.03494532  1.0
  S  S5  1  0.91406875  0.75000000  0.46505468  1.0
  S  S6  1  0.58593125  0.25000000  -0.03494532  1.0
  S  S7  1  0.08593125  0.25000000  0.53494532  1.0
  S  S8  1  0.36497969  0.75000000  0.43510359  1.0
  S  S9  1  0.86497969  0.75000000  0.06489641  1.0
  S  S10  1  0.63502031  0.25000000  0.56489641  1.0
  S  S11  1  0.13502031  0.25000000  0.93510359  1.0
  O  O12  1  0.30943929  0.47725728  0.74271546  1.0
  O  O13  1  0.30943929  0.02274272  0.74271546  1.0
  O  O14  1  0.80943929  0.47725728  0.75728454  1.0
  O  O15  1  0.80943929  0.02274272  0.75728454  1.0
  O  O16  1  0.69056071  0.97725728  0.25728454  1.0
  O  O17  1  0.69056071  0.52274272  0.25728454  1.0
  O  O18  1  0.19056071  0.97725728  0.24271546  1.0
  O  O19  1  0.19056071  0.52274272  0.24271546  1.0
  O  O20  1  0.94751879  0.84674676  -0.00602520  1.0
  O  O21  1  0.94751879  0.65325324  -0.00602520  1.0
  O  O22  1  0.44751879  0.84674676  0.50602520  1.0
  O  O23  1  0.44751879  0.65325324  0.50602520  1.0
  O  O24  1  0.05248121  0.34674676  1.00602520  1.0
  O  O25  1  0.05248121  0.15325324  1.00602520  1.0
  O  O26  1  0.55248121  0.34674676  0.49397480  1.0
  O  O27  1  0.55248121  0.15325324  0.49397480  1.0
  O  O28  1  0.18332532  0.97332147  0.75049646  1.0
  O  O29  1  0.18332532  0.52667853  0.75049646  1.0
  O  O30  1  0.68332532  0.97332147  0.74950354  1.0
  O  O31  1  0.68332532  0.52667853  0.74950354  1.0
  O  O32  1  0.81667468  0.47332147  0.24950354  1.0
  O  O33  1  0.81667468  0.02667853  0.24950354  1.0
  O  O34  1  0.31667468  0.47332147  0.25049646  1.0
  O  O35  1  0.31667468  0.02667853  0.25049646  1.0
  O  O36  1  0.25831575  0.75000000  0.94769747  1.0
  O  O37  1  0.75831575  0.75000000  0.55230253  1.0
  O  O38  1  0.74168425  0.25000000  0.05230253  1.0
  O  O39  1  0.24168425  0.25000000  0.44769747  1.0
  O  O40  1  0.00044649  0.84730597  0.47381997  1.0
  O  O41  1  0.00044649  0.65269403  0.47381997  1.0
  O  O42  1  0.50044649  0.84730597  1.02618003  1.0
  O  O43  1  0.50044649  0.65269403  1.02618003  1.0
  O  O44  1  0.99955351  0.34730597  0.52618003  1.0
  O  O45  1  0.99955351  0.15269403  0.52618003  1.0
  O  O46  1  0.49955351  0.34730597  -0.02618003  1.0
  O  O47  1  0.49955351  0.15269403  -0.02618003  1.0
