# generated using pymatgen
data_NaNO3
_symmetry_space_group_name_H-M   'P 1'
_cell_length_a   6.40278182
_cell_length_b   6.40278182
_cell_length_c   6.40278182
_cell_angle_alpha   47.51856928
_cell_angle_beta   47.51856928
_cell_angle_gamma   47.51856928
_symmetry_Int_Tables_number   1
_chemical_formula_structural   NaNO3
_chemical_formula_sum   'Na2 N2 O6'
_cell_volume   130.65279642
_cell_formula_units_Z   2
loop_
 _symmetry_equiv_pos_site_id
 _symmetry_equiv_pos_as_xyz
  1  'x, y, z'
loop_
 _atom_site_type_symbol
 _atom_site_label
 _atom_site_symmetry_multiplicity
 _atom_site_fract_x
 _atom_site_fract_y
 _atom_site_fract_z
 _atom_site_occupancy
  Na  Na0  1  1.00000000  0.00000000  0.00000000  1.0
  Na  Na1  1  0.50000000  0.50000000  0.50000000  1.0
  N  N2  1  0.75000000  0.75000000  -0.25000000  1.0
  N  N3  1  0.25000000  0.25000000  0.25000000  1.0
  O  O4  1  0.50533476  0.75000000  -0.00533476  1.0
  O  O5  1  1.00533476  -0.50533476  0.25000000  1.0
  O  O6  1  0.25000000  1.00533476  -0.50533476  1.0
  O  O7  1  0.75000000  0.99466524  -0.49466524  1.0
  O  O8  1  0.49466524  0.25000000  0.00533476  1.0
  O  O9  1  0.99466524  0.50533476  -0.25000000  1.0
