# generated using pymatgen
data_AsSeI
_symmetry_space_group_name_H-M   'P 1'
_cell_length_a   9.87645657
_cell_length_b   3.95523672
_cell_length_c   15.00153536
_cell_angle_alpha   90.00000000
_cell_angle_beta   135.67631256
_cell_angle_gamma   90.00000000
_symmetry_Int_Tables_number   1
_chemical_formula_structural   AsSeI
_chemical_formula_sum   'As4 Se4 I4'
_cell_volume   409.45577280
_cell_formula_units_Z   4
loop_
 _symmetry_equiv_pos_site_id
 _symmetry_equiv_pos_as_xyz
  1  'x, y, z'
loop_
 _atom_site_type_symbol
 _atom_site_label
 _atom_site_symmetry_multiplicity
 _atom_site_fract_x
 _atom_site_fract_y
 _atom_site_fract_z
 _atom_site_occupancy
  As  As0  1  0.78090948  0.24998743  0.13860109  1.0
  As  As1  1  0.78090948  0.25001257  0.63860109  1.0
  As  As2  1  0.21909052  0.74998743  0.36139891  1.0
  As  As3  1  0.21909052  0.75001257  0.86139891  1.0
  Se  Se4  1  0.90668325  0.74973899  0.30045304  1.0
  Se  Se5  1  0.90668325  0.75026101  0.80045304  1.0
  Se  Se6  1  0.09331675  0.24973899  0.19954696  1.0
  Se  Se7  1  0.09331675  0.25026101  0.69954696  1.0
  I  I8  1  0.61337805  0.75044867  0.42905971  1.0
  I  I9  1  0.61337805  -0.25044867  0.92905971  1.0
  I  I10  1  0.38662195  1.25044867  0.07094029  1.0
  I  I11  1  0.38662195  0.24955133  0.57094029  1.0
