# generated using pymatgen
data_La6P13Ru20
_symmetry_space_group_name_H-M   'P 1'
_cell_length_a   13.38028969
_cell_length_b   13.38028969
_cell_length_c   4.02790611
_cell_angle_alpha   90.00000000
_cell_angle_beta   90.00000000
_cell_angle_gamma   120.00000000
_symmetry_Int_Tables_number   1
_chemical_formula_structural   La6P13Ru20
_chemical_formula_sum   'La6 P13 Ru20'
_cell_volume   624.51230926
_cell_formula_units_Z   1
loop_
 _symmetry_equiv_pos_site_id
 _symmetry_equiv_pos_as_xyz
  1  'x, y, z'
loop_
 _atom_site_type_symbol
 _atom_site_label
 _atom_site_symmetry_multiplicity
 _atom_site_fract_x
 _atom_site_fract_y
 _atom_site_fract_z
 _atom_site_occupancy
  La  La0  1  0.28471059  0.80807252  0.50000000  1.0
  La  La1  1  0.52336193  0.71528941  0.50000000  1.0
  La  La2  1  0.19192748  0.47663807  0.50000000  1.0
  La  La3  1  0.80390509  0.52810808  0.00000000  1.0
  La  La4  1  0.72420299  0.19609491  -0.00000000  1.0
  La  La5  1  0.47189192  0.27579701  0.00000000  1.0
  P  P6  1  -0.00000000  -0.00000000  -0.00000000  1.0
  P  P7  1  0.95566747  0.73235113  0.50000000  1.0
  P  P8  1  0.77668366  0.04433253  0.50000000  1.0
  P  P9  1  0.26764887  0.22331634  0.50000000  1.0
  P  P10  1  0.60525511  0.48128176  0.50000000  1.0
  P  P11  1  0.87602666  0.39474489  0.50000000  1.0
  P  P12  1  0.51871824  0.12397334  0.50000000  1.0
  P  P13  1  0.24455637  0.95877746  -0.00000000  1.0
  P  P14  1  0.71422109  0.75544363  0.00000000  1.0
  P  P15  1  0.04122254  0.28577891  -0.00000000  1.0
  P  P16  1  0.49521373  0.87344747  0.00000000  1.0
  P  P17  1  0.37823374  0.50478627  -0.00000000  1.0
  P  P18  1  0.12655253  0.62176626  -0.00000000  1.0
  Ru  Ru19  1  0.57405740  0.97766515  0.50000000  1.0
  Ru  Ru20  1  0.40360775  0.42594260  0.50000000  1.0
  Ru  Ru21  1  0.02233485  0.59639225  0.50000000  1.0
  Ru  Ru22  1  0.07459018  0.93005105  0.50000000  1.0
  Ru  Ru23  1  0.85546088  0.92540982  0.50000000  1.0
  Ru  Ru24  1  0.06994895  0.14453912  0.50000000  1.0
  Ru  Ru25  1  0.74789731  0.68024869  0.50000000  1.0
  Ru  Ru26  1  0.93235137  0.25210269  0.50000000  1.0
  Ru  Ru27  1  0.31975131  0.06764863  0.50000000  1.0
  Ru  Ru28  1  0.33333333  0.66666667  0.00000000  1.0
  Ru  Ru29  1  0.66666667  0.33333333  0.50000000  1.0
  Ru  Ru30  1  0.57500377  0.55310583  0.00000000  1.0
  Ru  Ru31  1  0.97810206  0.42499623  -0.00000000  1.0
  Ru  Ru32  1  0.44689417  0.02189794  -0.00000000  1.0
  Ru  Ru33  1  0.08273404  0.77212157  0.00000000  1.0
  Ru  Ru34  1  0.68938753  0.91726596  -0.00000000  1.0
  Ru  Ru35  1  0.22787843  0.31061247  -0.00000000  1.0
  Ru  Ru36  1  0.90558526  0.80798215  0.00000000  1.0
  Ru  Ru37  1  0.90239689  0.09441474  0.00000000  1.0
  Ru  Ru38  1  0.19201785  0.09760311  0.00000000  1.0
