# generated using pymatgen
data_AlInCl4
_symmetry_space_group_name_H-M   'P 1'
_cell_length_a   10.79849923
_cell_length_b   7.28934943
_cell_length_c   9.93323961
_cell_angle_alpha   90.00000000
_cell_angle_beta   90.00000000
_cell_angle_gamma   90.00000000
_symmetry_Int_Tables_number   1
_chemical_formula_structural   AlInCl4
_chemical_formula_sum   'Al4 In4 Cl16'
_cell_volume   781.88536250
_cell_formula_units_Z   4
loop_
 _symmetry_equiv_pos_site_id
 _symmetry_equiv_pos_as_xyz
  1  'x, y, z'
loop_
 _atom_site_type_symbol
 _atom_site_label
 _atom_site_symmetry_multiplicity
 _atom_site_fract_x
 _atom_site_fract_y
 _atom_site_fract_z
 _atom_site_occupancy
  Al  Al0  1  0.44470933  0.75000000  0.68052902  1.0
  Al  Al1  1  0.94470933  0.75000000  0.81947098  1.0
  Al  Al2  1  0.55529067  0.25000000  0.31947098  1.0
  Al  Al3  1  0.05529067  0.25000000  0.18052902  1.0
  In  In4  1  0.28584133  0.75000000  0.23821881  1.0
  In  In5  1  0.78584133  0.75000000  0.26178119  1.0
  In  In6  1  0.71415867  0.25000000  0.76178119  1.0
  In  In7  1  0.21415867  0.25000000  0.73821881  1.0
  Cl  Cl8  1  0.44369773  0.99170077  0.80885868  1.0
  Cl  Cl9  1  0.44369773  0.50829923  0.80885868  1.0
  Cl  Cl10  1  0.94369773  0.99170077  0.69114132  1.0
  Cl  Cl11  1  0.94369773  0.50829923  0.69114132  1.0
  Cl  Cl12  1  0.55630227  0.49170077  0.19114132  1.0
  Cl  Cl13  1  0.55630227  0.00829923  0.19114132  1.0
  Cl  Cl14  1  0.05630227  0.49170077  0.30885868  1.0
  Cl  Cl15  1  0.05630227  0.00829923  0.30885868  1.0
  Cl  Cl16  1  0.27718507  0.75000000  0.56071445  1.0
  Cl  Cl17  1  0.77718507  0.75000000  0.93928555  1.0
  Cl  Cl18  1  0.72281493  0.25000000  0.43928555  1.0
  Cl  Cl19  1  0.22281493  0.25000000  0.06071445  1.0
  Cl  Cl20  1  0.10996166  0.75000000  0.93969587  1.0
  Cl  Cl21  1  0.60996166  0.75000000  0.56030413  1.0
  Cl  Cl22  1  0.89003834  0.25000000  0.06030413  1.0
  Cl  Cl23  1  0.39003834  0.25000000  0.43969587  1.0
