# generated using pymatgen
data_Cs3Cu2(BiS2)5
_symmetry_space_group_name_H-M   'P 1'
_cell_length_a   15.21287665
_cell_length_b   18.52948372
_cell_length_c   4.09568956
_cell_angle_alpha   90.00000000
_cell_angle_beta   90.00000000
_cell_angle_gamma   90.00000000
_symmetry_Int_Tables_number   1
_chemical_formula_structural   Cs3Cu2(BiS2)5
_chemical_formula_sum   'Cs6 Cu4 Bi10 S20'
_cell_volume   1154.52062009
_cell_formula_units_Z   2
loop_
 _symmetry_equiv_pos_site_id
 _symmetry_equiv_pos_as_xyz
  1  'x, y, z'
loop_
 _atom_site_type_symbol
 _atom_site_label
 _atom_site_symmetry_multiplicity
 _atom_site_fract_x
 _atom_site_fract_y
 _atom_site_fract_z
 _atom_site_occupancy
  Cs  Cs0  1  0.01941335  0.74958594  0.50000000  1.0
  Cs  Cs1  1  0.51941335  0.75041406  0.00000000  1.0
  Cs  Cs2  1  0.98058665  0.25041406  0.50000000  1.0
  Cs  Cs3  1  0.48058665  0.24958594  0.00000000  1.0
  Cs  Cs4  1  0.50000000  0.00000000  0.50000000  1.0
  Cs  Cs5  1  0.00000000  0.50000000  0.00000000  1.0
  Cu  Cu6  1  0.26779909  0.75424875  0.50000000  1.0
  Cu  Cu7  1  0.76779909  0.74575125  -0.00000000  1.0
  Cu  Cu8  1  0.73220091  0.24575125  0.50000000  1.0
  Cu  Cu9  1  0.23220091  0.25424875  -0.00000000  1.0
  Bi  Bi10  1  0.21019461  0.09423465  0.50000000  1.0
  Bi  Bi11  1  0.71019461  0.40576535  0.00000000  1.0
  Bi  Bi12  1  0.78980539  0.90576535  0.50000000  1.0
  Bi  Bi13  1  0.28980539  0.59423465  -0.00000000  1.0
  Bi  Bi14  1  0.75588990  0.60014640  0.50000000  1.0
  Bi  Bi15  1  0.25588990  0.89985360  0.00000000  1.0
  Bi  Bi16  1  0.24411010  0.39985360  0.50000000  1.0
  Bi  Bi17  1  0.74411010  0.10014640  0.00000000  1.0
  Bi  Bi18  1  0.50000000  0.50000000  0.50000000  1.0
  Bi  Bi19  1  0.00000000  0.00000000  0.00000000  1.0
  S  S20  1  0.40649975  0.63168291  0.50000000  1.0
  S  S21  1  0.90649975  0.86831709  0.00000000  1.0
  S  S22  1  0.59350025  0.36831709  0.50000000  1.0
  S  S23  1  0.09350025  0.13168291  0.00000000  1.0
  S  S24  1  0.36058296  0.85268370  0.50000000  1.0
  S  S25  1  0.86058296  0.64731630  0.00000000  1.0
  S  S26  1  0.63941704  0.14731630  0.50000000  1.0
  S  S27  1  0.13941704  0.35268370  0.00000000  1.0
  S  S28  1  0.29240985  0.22367030  0.50000000  1.0
  S  S29  1  0.79240985  0.27632970  -0.00000000  1.0
  S  S30  1  0.70759015  0.77632970  0.50000000  1.0
  S  S31  1  0.20759015  0.72367030  0.00000000  1.0
  S  S32  1  0.17881587  0.53128563  0.50000000  1.0
  S  S33  1  0.67881587  0.96871437  0.00000000  1.0
  S  S34  1  0.82118413  0.46871437  0.50000000  1.0
  S  S35  1  0.32118413  0.03128563  0.00000000  1.0
  S  S36  1  0.11721245  0.94803480  0.50000000  1.0
  S  S37  1  0.61721245  0.55196520  0.00000000  1.0
  S  S38  1  0.88278755  0.05196520  0.50000000  1.0
  S  S39  1  0.38278755  0.44803480  0.00000000  1.0
