# generated using pymatgen
data_NaFe(SeO3)2
_symmetry_space_group_name_H-M   'P 1'
_cell_length_a   12.76212009
_cell_length_b   5.46838506
_cell_length_c   8.11982897
_cell_angle_alpha   90.00000000
_cell_angle_beta   90.00000000
_cell_angle_gamma   90.00000000
_symmetry_Int_Tables_number   1
_chemical_formula_structural   NaFe(SeO3)2
_chemical_formula_sum   'Na4 Fe4 Se8 O24'
_cell_volume   566.66814181
_cell_formula_units_Z   4
loop_
 _symmetry_equiv_pos_site_id
 _symmetry_equiv_pos_as_xyz
  1  'x, y, z'
loop_
 _atom_site_type_symbol
 _atom_site_label
 _atom_site_symmetry_multiplicity
 _atom_site_fract_x
 _atom_site_fract_y
 _atom_site_fract_z
 _atom_site_occupancy
  Na  Na0  1  0.10858280  0.75000000  0.98488102  1.0
  Na  Na1  1  0.60858280  0.75000000  0.51511898  1.0
  Na  Na2  1  0.89141720  0.25000000  0.01511898  1.0
  Na  Na3  1  0.39141720  0.25000000  0.48488102  1.0
  Fe  Fe4  1  0.39634360  0.75000000  0.80109743  1.0
  Fe  Fe5  1  0.89634360  0.75000000  0.69890257  1.0
  Fe  Fe6  1  0.60365640  0.25000000  0.19890257  1.0
  Fe  Fe7  1  0.10365640  0.25000000  0.30109743  1.0
  Se  Se8  1  0.43295190  0.75000000  0.21209553  1.0
  Se  Se9  1  0.93295190  0.75000000  0.28790447  1.0
  Se  Se10  1  0.56704810  0.25000000  0.78790447  1.0
  Se  Se11  1  0.06704810  0.25000000  0.71209553  1.0
  Se  Se12  1  0.20828438  0.75000000  0.50402363  1.0
  Se  Se13  1  0.70828438  0.75000000  0.99597637  1.0
  Se  Se14  1  0.79171562  0.25000000  0.49597637  1.0
  Se  Se15  1  0.29171562  0.25000000  0.00402363  1.0
  O  O16  1  0.49802577  0.49149249  0.70330468  1.0
  O  O17  1  0.49802577  0.00850751  0.70330468  1.0
  O  O18  1  0.99802577  0.49149249  0.79669532  1.0
  O  O19  1  0.99802577  0.00850751  0.79669532  1.0
  O  O20  1  0.50197423  0.99149249  0.29669532  1.0
  O  O21  1  0.50197423  0.50850751  0.29669532  1.0
  O  O22  1  0.00197423  0.99149249  0.20330468  1.0
  O  O23  1  0.00197423  0.50850751  0.20330468  1.0
  O  O24  1  0.28575890  0.49855067  0.87212462  1.0
  O  O25  1  0.28575890  0.00144933  0.87212462  1.0
  O  O26  1  0.78575890  0.49855067  0.62787538  1.0
  O  O27  1  0.78575890  0.00144933  0.62787538  1.0
  O  O28  1  0.71424110  0.99855067  0.12787538  1.0
  O  O29  1  0.71424110  0.50144933  0.12787538  1.0
  O  O30  1  0.21424110  0.99855067  0.37212462  1.0
  O  O31  1  0.21424110  0.50144933  0.37212462  1.0
  O  O32  1  0.47489939  0.75000000  0.01023026  1.0
  O  O33  1  0.97489939  0.75000000  0.48976974  1.0
  O  O34  1  0.52510062  0.25000000  0.98976974  1.0
  O  O35  1  0.02510062  0.25000000  0.51023026  1.0
  O  O36  1  0.33762954  0.75000000  0.56654686  1.0
  O  O37  1  0.83762954  0.75000000  0.93345314  1.0
  O  O38  1  0.66237046  0.25000000  0.43345314  1.0
  O  O39  1  0.16237046  0.25000000  0.06654686  1.0
