# generated using pymatgen
data_Ge7Ir3
_symmetry_space_group_name_H-M   'P 1'
_cell_length_a   7.60411439
_cell_length_b   7.60411439
_cell_length_c   7.60411439
_cell_angle_alpha   109.47122063
_cell_angle_beta   109.47122063
_cell_angle_gamma   109.47122063
_symmetry_Int_Tables_number   1
_chemical_formula_structural   Ge7Ir3
_chemical_formula_sum   'Ge14 Ir6'
_cell_volume   338.47300265
_cell_formula_units_Z   2
loop_
 _symmetry_equiv_pos_site_id
 _symmetry_equiv_pos_as_xyz
  1  'x, y, z'
loop_
 _atom_site_type_symbol
 _atom_site_label
 _atom_site_symmetry_multiplicity
 _atom_site_fract_x
 _atom_site_fract_y
 _atom_site_fract_z
 _atom_site_occupancy
  Ge  Ge0  1  0.66528098  0.66528098  0.66528098  1.0
  Ge  Ge1  1  1.00000000  1.00000000  0.66528098  1.0
  Ge  Ge2  1  1.00000000  1.66528098  1.00000000  1.0
  Ge  Ge3  1  1.33471902  1.00000000  1.00000000  1.0
  Ge  Ge4  1  1.66528098  1.00000000  1.00000000  1.0
  Ge  Ge5  1  1.00000000  1.33471902  1.00000000  1.0
  Ge  Ge6  1  1.00000000  1.00000000  0.33471902  1.0
  Ge  Ge7  1  0.33471902  0.33471902  0.33471902  1.0
  Ge  Ge8  1  0.50000000  0.25000000  0.75000000  1.0
  Ge  Ge9  1  0.50000000  0.75000000  0.25000000  1.0
  Ge  Ge10  1  0.25000000  0.50000000  0.75000000  1.0
  Ge  Ge11  1  1.25000000  0.75000000  0.50000000  1.0
  Ge  Ge12  1  0.75000000  1.25000000  0.50000000  1.0
  Ge  Ge13  1  0.75000000  0.50000000  0.25000000  1.0
  Ir  Ir14  1  -0.00000000  0.66002403  0.66002403  1.0
  Ir  Ir15  1  0.66002403  -0.00000000  0.66002403  1.0
  Ir  Ir16  1  0.66002403  0.66002403  -0.00000000  1.0
  Ir  Ir17  1  0.33997597  0.33997597  -0.00000000  1.0
  Ir  Ir18  1  0.33997597  -0.00000000  0.33997597  1.0
  Ir  Ir19  1  -0.00000000  0.33997597  0.33997597  1.0
