# generated using pymatgen
data_SrH6C4O7
_symmetry_space_group_name_H-M   'P 1'
_cell_length_a   8.11075676
_cell_length_b   6.73036750
_cell_length_c   8.59232016
_cell_angle_alpha   67.70432076
_cell_angle_beta   59.65914807
_cell_angle_gamma   74.41309998
_symmetry_Int_Tables_number   1
_chemical_formula_structural   SrH6C4O7
_chemical_formula_sum   'Sr2 H12 C8 O14'
_cell_volume   372.78755493
_cell_formula_units_Z   2
loop_
 _symmetry_equiv_pos_site_id
 _symmetry_equiv_pos_as_xyz
  1  'x, y, z'
loop_
 _atom_site_type_symbol
 _atom_site_label
 _atom_site_symmetry_multiplicity
 _atom_site_fract_x
 _atom_site_fract_y
 _atom_site_fract_z
 _atom_site_occupancy
  Sr  Sr0  1  -0.08556839  -0.06867396  0.80735610  1.0
  Sr  Sr1  1  0.08556839  -0.93132604  0.19264390  1.0
  H  H2  1  0.35576675  -0.37587773  0.19086359  1.0
  H  H3  1  -0.35576675  -0.62412227  0.80913641  1.0
  H  H4  1  0.11884957  -0.68766711  0.44950403  1.0
  H  H5  1  -0.11884957  -0.31233289  0.55049597  1.0
  H  H6  1  -0.25100366  -0.52981863  0.95445713  1.0
  H  H7  1  0.25100366  -0.47018137  0.04554287  1.0
  H  H8  1  -0.76455587  -0.47750629  0.87621210  1.0
  H  H9  1  0.76455587  -0.52249371  0.12378790  1.0
  H  H10  1  -0.43486293  -0.79043839  1.01613235  1.0
  H  H11  1  0.43486293  -0.20956161  -0.01613235  1.0
  H  H12  1  0.09671661  -0.35452888  0.51021699  1.0
  H  H13  1  -0.09671661  -0.64547112  0.48978301  1.0
  C  C14  1  -0.68234874  -0.83187986  0.70757564  1.0
  C  C15  1  0.68234874  -0.16812014  0.29242436  1.0
  C  C16  1  0.38419397  -0.69215836  0.51232810  1.0
  C  C17  1  -0.38419397  -0.30784164  0.48767190  1.0
  C  C18  1  -0.48066181  -0.90282291  0.67360929  1.0
  C  C19  1  0.48066181  -0.09717709  0.32639071  1.0
  C  C20  1  -0.41511783  -0.76765149  0.47452838  1.0
  C  C21  1  0.41511783  -0.23234851  0.52547162  1.0
  O  O22  1  0.15525317  -0.87644011  0.84455542  1.0
  O  O23  1  -0.15525317  -0.12355989  0.15544458  1.0
  O  O24  1  0.29855598  -0.56342426  0.41747055  1.0
  O  O25  1  -0.29855598  -0.43657574  0.58252945  1.0
  O  O26  1  0.31768196  -0.27447883  0.09306032  1.0
  O  O27  1  -0.31768196  -0.72552117  0.90693968  1.0
  O  O28  1  -0.40013573  -0.02881230  0.77210386  1.0
  O  O29  1  0.40013573  -0.97118770  0.22789614  1.0
  O  O30  1  0.01065061  -0.76033667  0.47781839  1.0
  O  O31  1  -0.01065061  -0.23966333  0.52218161  1.0
  O  O32  1  0.22290565  -0.56885340  0.00235696  1.0
  O  O33  1  -0.22290565  -0.43114660  0.99764304  1.0
  O  O34  1  0.25419052  -0.26274886  0.66836706  1.0
  O  O35  1  -0.25419052  -0.73725114  0.33163294  1.0
