# generated using pymatgen
data_MgFeBO4
_symmetry_space_group_name_H-M   'P 1'
_cell_length_a   9.38416947
_cell_length_b   3.13952173
_cell_length_c   9.46258041
_cell_angle_alpha   90.00000000
_cell_angle_beta   90.00000000
_cell_angle_gamma   90.00000000
_symmetry_Int_Tables_number   1
_chemical_formula_structural   MgFeBO4
_chemical_formula_sum   'Mg4 Fe4 B4 O16'
_cell_volume   278.78468926
_cell_formula_units_Z   4
loop_
 _symmetry_equiv_pos_site_id
 _symmetry_equiv_pos_as_xyz
  1  'x, y, z'
loop_
 _atom_site_type_symbol
 _atom_site_label
 _atom_site_symmetry_multiplicity
 _atom_site_fract_x
 _atom_site_fract_y
 _atom_site_fract_z
 _atom_site_occupancy
  Fe  Fe0  1  0.88666769  0.75000000  0.07671508  1.0
  Fe  Fe1  1  0.38666769  0.75000000  0.42328492  1.0
  Fe  Fe2  1  0.11333231  0.25000000  0.92328492  1.0
  Fe  Fe3  1  0.61333231  0.25000000  0.57671508  1.0
  O  O4  1  0.97323089  0.75000000  0.36399880  1.0
  O  O5  1  0.47323089  0.75000000  0.13600120  1.0
  O  O6  1  0.02676911  0.25000000  0.63600120  1.0
  O  O7  1  0.52676911  0.25000000  0.86399880  1.0
  O  O8  1  0.48984493  0.75000000  0.61565225  1.0
  O  O9  1  0.98984493  0.75000000  0.88434775  1.0
  O  O10  1  0.51015507  0.25000000  0.38434775  1.0
  O  O11  1  0.01015507  0.25000000  0.11565225  1.0
  O  O12  1  0.76074170  0.75000000  0.50388042  1.0
  O  O13  1  0.26074170  0.75000000  0.99611958  1.0
  O  O14  1  0.23925830  0.25000000  0.49611958  1.0
  O  O15  1  0.73925830  0.25000000  0.00388042  1.0
  O  O16  1  0.74883467  0.75000000  0.24715522  1.0
  O  O17  1  0.24883467  0.75000000  0.25284478  1.0
  O  O18  1  0.25116533  0.25000000  0.75284478  1.0
  O  O19  1  0.75116533  0.25000000  0.74715522  1.0
  Mg  Mg20  1  0.89819169  0.75000000  0.68413310  1.0
  Mg  Mg21  1  0.39819169  0.75000000  0.81586690  1.0
  Mg  Mg22  1  0.10180831  0.25000000  0.31586690  1.0
  Mg  Mg23  1  0.60180831  0.25000000  0.18413310  1.0
  B  B24  1  0.82914995  0.75000000  0.37226815  1.0
  B  B25  1  0.32914995  0.75000000  0.12773185  1.0
  B  B26  1  0.17085005  0.25000000  0.62773185  1.0
  B  B27  1  0.67085005  0.25000000  0.87226815  1.0
