# generated using pymatgen
data_Rb2SnHgTe4
_symmetry_space_group_name_H-M   'P 1'
_cell_length_a   7.41725851
_cell_length_b   7.41725851
_cell_length_c   7.41725851
_cell_angle_alpha   105.15318831
_cell_angle_beta   105.15318831
_cell_angle_gamma   118.50260327
_symmetry_Int_Tables_number   1
_chemical_formula_structural   Rb2SnHgTe4
_chemical_formula_sum   'Rb2 Sn1 Hg1 Te4'
_cell_volume   308.19280538
_cell_formula_units_Z   1
loop_
 _symmetry_equiv_pos_site_id
 _symmetry_equiv_pos_as_xyz
  1  'x, y, z'
loop_
 _atom_site_type_symbol
 _atom_site_label
 _atom_site_symmetry_multiplicity
 _atom_site_fract_x
 _atom_site_fract_y
 _atom_site_fract_z
 _atom_site_occupancy
  Rb  Rb0  1  0.50000000  0.00000000  0.50000000  1.0
  Rb  Rb1  1  0.00000000  0.50000000  0.50000000  1.0
  Sn  Sn2  1  0.50000000  0.50000000  0.00000000  1.0
  Hg  Hg3  1  0.00000000  0.00000000  0.00000000  1.0
  Te  Te4  1  1.09295268  1.09295268  0.66160382  1.0
  Te  Te5  1  0.43134886  0.43134886  0.33839618  1.0
  Te  Te6  1  1.56865114  0.90704732  1.00000000  1.0
  Te  Te7  1  0.90704732  1.56865114  1.00000000  1.0
