# generated using pymatgen
data_AlAsO4
_symmetry_space_group_name_H-M   'P 1'
_cell_length_a   5.28759062
_cell_length_b   5.28759062
_cell_length_c   5.28759062
_cell_angle_alpha   121.38318526
_cell_angle_beta   121.38318526
_cell_angle_gamma   87.62049663
_symmetry_Int_Tables_number   1
_chemical_formula_structural   AlAsO4
_chemical_formula_sum   'Al1 As1 O4'
_cell_volume   102.25293171
_cell_formula_units_Z   1
loop_
 _symmetry_equiv_pos_site_id
 _symmetry_equiv_pos_as_xyz
  1  'x, y, z'
loop_
 _atom_site_type_symbol
 _atom_site_label
 _atom_site_symmetry_multiplicity
 _atom_site_fract_x
 _atom_site_fract_y
 _atom_site_fract_z
 _atom_site_occupancy
  Al  Al0  1  0.25000000  0.75000000  0.50000000  1.0
  As  As1  1  0.00000000  0.00000000  0.00000000  1.0
  O  O2  1  0.63125112  1.00652828  0.88849638  1.0
  O  O3  1  1.25724526  1.36874888  1.37527716  1.0
  O  O4  1  1.11803190  1.74275474  1.11150362  1.0
  O  O5  1  0.99347172  0.88196810  1.62472284  1.0
