# generated using pymatgen
data_ZnH8(N2Cl)2
_symmetry_space_group_name_H-M   'P 1'
_cell_length_a   6.12213725
_cell_length_b   6.12213725
_cell_length_c   4.17772358
_cell_angle_alpha   81.39611303
_cell_angle_beta   98.60388697
_cell_angle_gamma   95.06416339
_symmetry_Int_Tables_number   1
_chemical_formula_structural   ZnH8(N2Cl)2
_chemical_formula_sum   'Zn1 H8 N4 Cl2'
_cell_volume   152.73087790
_cell_formula_units_Z   1
loop_
 _symmetry_equiv_pos_site_id
 _symmetry_equiv_pos_as_xyz
  1  'x, y, z'
loop_
 _atom_site_type_symbol
 _atom_site_label
 _atom_site_symmetry_multiplicity
 _atom_site_fract_x
 _atom_site_fract_y
 _atom_site_fract_z
 _atom_site_occupancy
  Zn  Zn0  1  0.00000000  0.00000000  0.00000000  1.0
  H  H1  1  1.64554483  -0.24016653  0.71118484  1.0
  H  H2  1  1.24016653  -0.64554483  0.71118484  1.0
  H  H3  1  0.75983347  0.64554483  0.28881516  1.0
  H  H4  1  0.35445517  0.24016653  0.28881516  1.0
  H  H5  1  1.69010180  0.00127957  0.47948803  1.0
  H  H6  1  0.99872043  -0.69010180  0.47948803  1.0
  H  H7  1  1.00127957  0.69010180  0.52051197  1.0
  H  H8  1  0.30989820  -0.00127957  0.52051197  1.0
  N  N9  1  1.76556988  -0.13354814  0.61340979  1.0
  N  N10  1  1.13354814  -0.76556988  0.61340979  1.0
  N  N11  1  0.86645186  0.76556988  0.38659021  1.0
  N  N12  1  0.23443012  0.13354814  0.38659021  1.0
  Cl  Cl13  1  0.71838920  0.28161080  0.02609243  1.0
  Cl  Cl14  1  1.28161080  -0.28161080  -0.02609243  1.0
