# generated using pymatgen
data_NaB(HO)4
_symmetry_space_group_name_H-M   'P 1'
_cell_length_a   6.22594509
_cell_length_b   10.56158620
_cell_length_c   5.97891697
_cell_angle_alpha   90.00000000
_cell_angle_beta   112.26051040
_cell_angle_gamma   90.00000000
_symmetry_Int_Tables_number   1
_chemical_formula_structural   NaB(HO)4
_chemical_formula_sum   'Na4 B4 H16 O16'
_cell_volume   363.84782607
_cell_formula_units_Z   4
loop_
 _symmetry_equiv_pos_site_id
 _symmetry_equiv_pos_as_xyz
  1  'x, y, z'
loop_
 _atom_site_type_symbol
 _atom_site_label
 _atom_site_symmetry_multiplicity
 _atom_site_fract_x
 _atom_site_fract_y
 _atom_site_fract_z
 _atom_site_occupancy
  Na  Na0  1  0.76055138  0.48316239  0.74858955  1.0
  Na  Na1  1  0.76055138  0.01683761  0.24858955  1.0
  Na  Na2  1  0.23944862  0.98316239  0.75141045  1.0
  Na  Na3  1  0.23944862  0.51683761  0.25141045  1.0
  B  B4  1  0.72835864  0.91011145  0.77182386  1.0
  B  B5  1  0.72835864  0.58988855  0.27182386  1.0
  B  B6  1  0.27164136  0.41011145  0.72817614  1.0
  B  B7  1  0.27164136  0.08988855  0.22817614  1.0
  H  H8  1  1.01955539  0.62005205  0.57280662  1.0
  H  H9  1  1.01955539  0.87994795  0.07280662  1.0
  H  H10  1  -0.01955539  0.12005205  0.92719338  1.0
  H  H11  1  -0.01955539  0.37994795  0.42719338  1.0
  H  H12  1  0.86223047  0.80644538  0.57109661  1.0
  H  H13  1  0.86223047  0.69355462  0.07109661  1.0
  H  H14  1  0.13776953  0.30644538  0.92890339  1.0
  H  H15  1  0.13776953  0.19355462  0.42890339  1.0
  H  H16  1  0.50476356  0.75749925  0.65128488  1.0
  H  H17  1  0.50476356  0.74250075  0.15128488  1.0
  H  H18  1  0.49523644  0.25749925  0.84871512  1.0
  H  H19  1  0.49523644  0.24250075  0.34871512  1.0
  H  H20  1  0.37612394  0.58989155  0.85426946  1.0
  H  H21  1  0.37612394  0.91010845  0.35426946  1.0
  H  H22  1  0.62387606  0.08989155  0.64573054  1.0
  H  H23  1  0.62387606  0.41010845  0.14573054  1.0
  O  O24  1  0.85929432  0.89761272  0.61295775  1.0
  O  O25  1  0.85929432  0.60238728  0.11295775  1.0
  O  O26  1  0.14070568  0.39761272  0.88704225  1.0
  O  O27  1  0.14070568  0.10238728  0.38704225  1.0
  O  O28  1  0.85402470  0.64487247  0.51489158  1.0
  O  O29  1  0.85402470  0.85512753  0.01489158  1.0
  O  O30  1  0.14597530  0.14487247  0.98510842  1.0
  O  O31  1  0.14597530  0.35512753  0.48510842  1.0
  O  O32  1  0.49393082  0.84879003  0.66391742  1.0
  O  O33  1  0.49393082  0.65120997  0.16391742  1.0
  O  O34  1  0.50606918  0.34879003  0.83608258  1.0
  O  O35  1  0.50606918  0.15120997  0.33608258  1.0
  O  O36  1  0.31372431  0.54666807  0.69523135  1.0
  O  O37  1  0.31372431  0.95333193  0.19523135  1.0
  O  O38  1  0.68627569  0.04666807  0.80476865  1.0
  O  O39  1  0.68627569  0.45333193  0.30476865  1.0
