# generated using pymatgen
data_CsAlCuF6
_symmetry_space_group_name_H-M   'P 1'
_cell_length_a   7.17413782
_cell_length_b   7.23546696
_cell_length_c   10.39383661
_cell_angle_alpha   90.00000000
_cell_angle_beta   90.00000000
_cell_angle_gamma   90.00000000
_symmetry_Int_Tables_number   1
_chemical_formula_structural   CsAlCuF6
_chemical_formula_sum   'Cs4 Al4 Cu4 F24'
_cell_volume   539.52573533
_cell_formula_units_Z   4
loop_
 _symmetry_equiv_pos_site_id
 _symmetry_equiv_pos_as_xyz
  1  'x, y, z'
loop_
 _atom_site_type_symbol
 _atom_site_label
 _atom_site_symmetry_multiplicity
 _atom_site_fract_x
 _atom_site_fract_y
 _atom_site_fract_z
 _atom_site_occupancy
  Cs  Cs0  1  0.49180301  0.75000000  0.12826132  1.0
  Cs  Cs1  1  0.99180301  0.75000000  0.37173868  1.0
  Cs  Cs2  1  0.50819699  0.25000000  0.87173868  1.0
  Cs  Cs3  1  0.00819699  0.25000000  0.62826132  1.0
  Al  Al4  1  0.50000000  0.00000000  0.50000000  1.0
  Al  Al5  1  0.50000000  0.50000000  0.50000000  1.0
  Al  Al6  1  0.00000000  0.00000000  0.00000000  1.0
  Al  Al7  1  0.00000000  0.50000000  0.00000000  1.0
  Cu  Cu8  1  0.26948830  0.75000000  0.75597117  1.0
  Cu  Cu9  1  0.76948830  0.75000000  0.74402883  1.0
  Cu  Cu10  1  0.73051170  0.25000000  0.24402883  1.0
  Cu  Cu11  1  0.23051170  0.25000000  0.25597117  1.0
  F  F12  1  0.34147245  0.52653058  0.63549582  1.0
  F  F13  1  0.34147245  0.97346942  0.63549582  1.0
  F  F14  1  0.84147245  0.52653058  0.86450418  1.0
  F  F15  1  0.84147245  0.97346942  0.86450418  1.0
  F  F16  1  0.65852755  0.02653058  0.36450418  1.0
  F  F17  1  0.65852755  0.47346942  0.36450418  1.0
  F  F18  1  0.15852755  0.02653058  0.13549582  1.0
  F  F19  1  0.15852755  0.47346942  0.13549582  1.0
  F  F20  1  0.19897025  0.95141793  0.89673812  1.0
  F  F21  1  0.19897025  0.54858207  0.89673812  1.0
  F  F22  1  0.69897025  0.95141793  0.60326188  1.0
  F  F23  1  0.69897025  0.54858207  0.60326188  1.0
  F  F24  1  0.80102975  0.45141793  0.10326188  1.0
  F  F25  1  0.80102975  0.04858207  0.10326188  1.0
  F  F26  1  0.30102975  0.45141793  0.39673812  1.0
  F  F27  1  0.30102975  0.04858207  0.39673812  1.0
  F  F28  1  0.02335234  0.75000000  0.67686126  1.0
  F  F29  1  0.52335234  0.75000000  0.82313874  1.0
  F  F30  1  0.97664766  0.25000000  0.32313874  1.0
  F  F31  1  0.47664766  0.25000000  0.17686126  1.0
  F  F32  1  0.97534077  0.75000000  0.04112605  1.0
  F  F33  1  0.47534077  0.75000000  0.45887395  1.0
  F  F34  1  0.02465923  0.25000000  0.95887395  1.0
  F  F35  1  0.52465923  0.25000000  0.54112605  1.0
