# generated using pymatgen
data_P2Pt5
_symmetry_space_group_name_H-M   'P 1'
_cell_length_a   6.10657048
_cell_length_b   6.10657048
_cell_length_c   7.51094095
_cell_angle_alpha   81.52657588
_cell_angle_beta   98.47342412
_cell_angle_gamma   127.09343941
_symmetry_Int_Tables_number   1
_chemical_formula_structural   P2Pt5
_chemical_formula_sum   'P4 Pt10'
_cell_volume   220.36366425
_cell_formula_units_Z   2
loop_
 _symmetry_equiv_pos_site_id
 _symmetry_equiv_pos_as_xyz
  1  'x, y, z'
loop_
 _atom_site_type_symbol
 _atom_site_label
 _atom_site_symmetry_multiplicity
 _atom_site_fract_x
 _atom_site_fract_y
 _atom_site_fract_z
 _atom_site_occupancy
  P  P0  1  0.43534506  -0.24694007  0.72440626  1.0
  P  P1  1  1.24694007  0.56465494  0.22440626  1.0
  P  P2  1  0.75305993  0.43534506  0.77559374  1.0
  P  P3  1  0.56465494  0.24694007  0.27559374  1.0
  Pt  Pt4  1  0.36962967  0.08086633  0.59444803  1.0
  Pt  Pt5  1  0.91913367  0.63037033  0.09444803  1.0
  Pt  Pt6  1  1.08086633  0.36962967  0.90555197  1.0
  Pt  Pt7  1  0.63037033  -0.08086633  0.40555197  1.0
  Pt  Pt8  1  0.39315405  0.15560877  0.96778582  1.0
  Pt  Pt9  1  0.84439123  0.60684595  0.46778582  1.0
  Pt  Pt10  1  1.15560877  0.39315405  0.53221418  1.0
  Pt  Pt11  1  0.60684595  -0.15560877  0.03221418  1.0
  Pt  Pt12  1  0.88924589  0.88924589  0.75000000  1.0
  Pt  Pt13  1  0.11075411  0.11075411  0.25000000  1.0
