# generated using pymatgen
data_PAuClF3
_symmetry_space_group_name_H-M   'P 1'
_cell_length_a   19.08205110
_cell_length_b   5.74335557
_cell_length_c   5.06581911
_cell_angle_alpha   90.00000000
_cell_angle_beta   90.00000000
_cell_angle_gamma   90.00000000
_symmetry_Int_Tables_number   1
_chemical_formula_structural   PAuClF3
_chemical_formula_sum   'P4 Au4 Cl4 F12'
_cell_volume   555.18846796
_cell_formula_units_Z   4
loop_
 _symmetry_equiv_pos_site_id
 _symmetry_equiv_pos_as_xyz
  1  'x, y, z'
loop_
 _atom_site_type_symbol
 _atom_site_label
 _atom_site_symmetry_multiplicity
 _atom_site_fract_x
 _atom_site_fract_y
 _atom_site_fract_z
 _atom_site_occupancy
  P  P0  1  0.85639166  0.25000000  0.04426093  1.0
  P  P1  1  0.35639166  0.25000000  0.45573907  1.0
  P  P2  1  0.14360834  0.75000000  0.95573907  1.0
  P  P3  1  0.64360834  0.75000000  0.54426093  1.0
  Au  Au4  1  0.96714654  0.25000000  0.15692270  1.0
  Au  Au5  1  0.46714654  0.25000000  0.34307730  1.0
  Au  Au6  1  0.03285346  0.75000000  0.84307730  1.0
  Au  Au7  1  0.53285346  0.75000000  0.65692270  1.0
  Cl  Cl8  1  0.57925718  0.25000000  0.18643451  1.0
  Cl  Cl9  1  0.07925718  0.25000000  0.31356549  1.0
  Cl  Cl10  1  0.42074282  0.75000000  0.81356549  1.0
  Cl  Cl11  1  0.92074282  0.75000000  0.68643451  1.0
  F  F12  1  0.81087302  0.45869005  0.14883750  1.0
  F  F13  1  0.81087302  0.04130995  0.14883750  1.0
  F  F14  1  0.31087302  0.45869005  0.35116250  1.0
  F  F15  1  0.31087302  0.04130995  0.35116250  1.0
  F  F16  1  0.18912698  0.95869005  0.85116250  1.0
  F  F17  1  0.18912698  0.54130995  0.85116250  1.0
  F  F18  1  0.68912698  0.95869005  0.64883750  1.0
  F  F19  1  0.68912698  0.54130995  0.64883750  1.0
  F  F20  1  0.83339613  0.25000000  0.74673459  1.0
  F  F21  1  0.33339613  0.25000000  0.75326541  1.0
  F  F22  1  0.16660387  0.75000000  0.25326541  1.0
  F  F23  1  0.66660387  0.75000000  0.24673459  1.0
