# generated using pymatgen
data_CrSe
_symmetry_space_group_name_H-M   'P 1'
_cell_length_a   3.52185141
_cell_length_b   3.52185141
_cell_length_c   7.00953106
_cell_angle_alpha   90.00000000
_cell_angle_beta   90.00000000
_cell_angle_gamma   90.00000000
_symmetry_Int_Tables_number   1
_chemical_formula_structural   CrSe
_chemical_formula_sum   'Cr2 Se2'
_cell_volume   86.94227920
_cell_formula_units_Z   2
loop_
 _symmetry_equiv_pos_site_id
 _symmetry_equiv_pos_as_xyz
  1  'x, y, z'
loop_
 _atom_site_type_symbol
 _atom_site_label
 _atom_site_symmetry_multiplicity
 _atom_site_fract_x
 _atom_site_fract_y
 _atom_site_fract_z
 _atom_site_occupancy
  Cr  Cr0  1  0.50000000  0.50000000  0.00000000  1.0
  Cr  Cr1  1  0.00000000  0.00000000  0.00000000  1.0
  Se  Se2  1  0.00000000  0.50000000  0.23874353  1.0
  Se  Se3  1  0.50000000  0.00000000  0.76125647  1.0
