# generated using pymatgen
data_NaBOF2
_symmetry_space_group_name_H-M   'P 1'
_cell_length_a   6.97467145
_cell_length_b   6.97467145
_cell_length_c   9.49557009
_cell_angle_alpha   69.63605348
_cell_angle_beta   110.36394652
_cell_angle_gamma   119.64946384
_symmetry_Int_Tables_number   1
_chemical_formula_structural   NaBOF2
_chemical_formula_sum   'Na6 B6 O6 F12'
_cell_volume   367.48274168
_cell_formula_units_Z   6
loop_
 _symmetry_equiv_pos_site_id
 _symmetry_equiv_pos_as_xyz
  1  'x, y, z'
loop_
 _atom_site_type_symbol
 _atom_site_label
 _atom_site_symmetry_multiplicity
 _atom_site_fract_x
 _atom_site_fract_y
 _atom_site_fract_z
 _atom_site_occupancy
  Na  Na0  1  0.62920264  -0.18441684  0.50183254  1.0
  Na  Na1  1  1.18441684  0.37079736  0.00183254  1.0
  Na  Na2  1  0.81558316  -0.37079736  0.99816746  1.0
  Na  Na3  1  1.37079736  0.18441684  0.49816746  1.0
  Na  Na4  1  1.50000000  0.00000000  -0.00000000  1.0
  Na  Na5  1  1.00000000  -0.50000000  0.50000000  1.0
  B  B6  1  1.87191834  0.07921044  0.75335064  1.0
  B  B7  1  0.92078956  -0.87191834  0.25335064  1.0
  B  B8  1  1.07921044  0.87191834  0.74664936  1.0
  B  B9  1  0.12808166  -0.07921044  0.24664936  1.0
  B  B10  1  1.28651972  0.28651972  0.75000000  1.0
  B  B11  1  0.71348028  -0.28651972  0.25000000  1.0
  O  O12  1  1.27921776  0.08100501  0.74438609  1.0
  O  O13  1  0.91899499  -0.27921776  0.24438609  1.0
  O  O14  1  1.08100501  0.27921776  0.75561391  1.0
  O  O15  1  0.72078224  -0.08100501  0.25561391  1.0
  O  O16  1  0.87880798  -0.12119202  0.75000000  1.0
  O  O17  1  1.12119202  0.12119202  0.25000000  1.0
  F  F18  1  1.78079886  0.03498443  0.88375384  1.0
  F  F19  1  0.96501557  -0.78079886  0.38375384  1.0
  F  F20  1  1.03498443  0.78079886  0.61624616  1.0
  F  F21  1  0.21920114  -0.03498443  0.11624616  1.0
  F  F22  1  1.70394317  0.12730106  0.61571547  1.0
  F  F23  1  0.87269894  -0.70394317  0.11571547  1.0
  F  F24  1  1.12730106  0.70394317  0.88428453  1.0
  F  F25  1  0.29605683  -0.12730106  0.38428453  1.0
  F  F26  1  1.46220933  0.37020149  0.88406615  1.0
  F  F27  1  0.62979851  -0.46220933  0.38406615  1.0
  F  F28  1  1.37020149  0.46220933  0.61593385  1.0
  F  F29  1  0.53779067  -0.37020149  0.11593385  1.0
