# generated using pymatgen
data_V7O13
_symmetry_space_group_name_H-M   'P 1'
_cell_length_a   5.46699852
_cell_length_b   11.17888083
_cell_length_c   7.05782077
_cell_angle_alpha   95.83204502
_cell_angle_beta   109.29182520
_cell_angle_gamma   88.60274051
_symmetry_Int_Tables_number   1
_chemical_formula_structural   V7O13
_chemical_formula_sum   'V14 O26'
_cell_volume   404.99111535
_cell_formula_units_Z   2
loop_
 _symmetry_equiv_pos_site_id
 _symmetry_equiv_pos_as_xyz
  1  'x, y, z'
loop_
 _atom_site_type_symbol
 _atom_site_label
 _atom_site_symmetry_multiplicity
 _atom_site_fract_x
 _atom_site_fract_y
 _atom_site_fract_z
 _atom_site_occupancy
  V  V0  1  0.89637944  0.85735341  -0.26231803  1.0
  V  V1  1  0.10362056  0.14264659  -0.73768197  1.0
  V  V2  1  0.50000000  0.00000000  -0.50000000  1.0
  V  V3  1  0.72075757  0.28875217  -0.97475733  1.0
  V  V4  1  0.27924243  0.71124783  -0.02524267  1.0
  V  V5  1  0.50000000  0.00000000  0.00000000  1.0
  V  V6  1  0.27683666  0.70652016  -0.52390805  1.0
  V  V7  1  0.72316334  0.29347984  -0.47609195  1.0
  V  V8  1  0.69719941  0.55953206  -0.29200273  1.0
  V  V9  1  0.30280059  0.44046794  -0.70799727  1.0
  V  V10  1  0.88850875  0.85185685  -0.76126707  1.0
  V  V11  1  0.11149125  0.14814315  -0.23873293  1.0
  V  V12  1  0.70162892  0.55337163  -0.79105900  1.0
  V  V13  1  0.29837108  0.44662837  -0.20894100  1.0
  O  O14  1  0.95727757  0.44606725  -0.83016006  1.0
  O  O15  1  0.04272243  0.55393275  -0.16983994  1.0
  O  O16  1  0.52495720  0.83142018  -0.92988802  1.0
  O  O17  1  0.47504280  0.16857982  -0.07011198  1.0
  O  O18  1  0.82349845  0.25021580  -0.70580222  1.0
  O  O19  1  0.17650155  0.74978420  -0.29419778  1.0
  O  O20  1  1.00044381  0.79634444  -0.99216815  1.0
  O  O21  1  -0.00044381  0.20365556  -0.00783185  1.0
  O  O22  1  0.61265513  0.95089275  -0.22924497  1.0
  O  O23  1  0.38734487  0.04910725  -0.77075503  1.0
  O  O24  1  0.44465692  0.40764488  -0.92927780  1.0
  O  O25  1  0.55534308  0.59235512  -0.07072220  1.0
  O  O26  1  0.25670669  0.86197370  -0.59443681  1.0
  O  O27  1  0.74329331  0.13802630  -0.40556319  1.0
  O  O28  1  0.69650926  0.47274237  -0.54868985  1.0
  O  O29  1  0.30349074  0.52725763  -0.45131015  1.0
  O  O30  1  0.64877981  0.70977979  -0.36367223  1.0
  O  O31  1  0.35122019  0.29022021  -0.63632777  1.0
  O  O32  1  0.91767269  0.67985881  -0.69167186  1.0
  O  O33  1  0.08232731  0.32014119  -0.30832814  1.0
  O  O34  1  0.86337636  0.01371235  -0.82953949  1.0
  O  O35  1  0.13662364  0.98628765  -0.17046051  1.0
  O  O36  1  0.37245583  0.62692264  -0.76807224  1.0
  O  O37  1  0.62754417  0.37307736  -0.23192776  1.0
  O  O38  1  0.78017244  0.89790168  -0.53185063  1.0
  O  O39  1  0.21982756  0.10209832  -0.46814937  1.0
