# generated using pymatgen
data_H2NO2
_symmetry_space_group_name_H-M   'P 1'
_cell_length_a   4.74334435
_cell_length_b   7.28526391
_cell_length_c   11.33225840
_cell_angle_alpha   90.00000000
_cell_angle_beta   100.55581106
_cell_angle_gamma   90.00000000
_symmetry_Int_Tables_number   1
_chemical_formula_structural   H2NO2
_chemical_formula_sum   'H16 N8 O16'
_cell_volume   384.97622989
_cell_formula_units_Z   8
loop_
 _symmetry_equiv_pos_site_id
 _symmetry_equiv_pos_as_xyz
  1  'x, y, z'
loop_
 _atom_site_type_symbol
 _atom_site_label
 _atom_site_symmetry_multiplicity
 _atom_site_fract_x
 _atom_site_fract_y
 _atom_site_fract_z
 _atom_site_occupancy
  H  H0  1  0.24024652  0.54025877  0.84206593  1.0
  H  H1  1  0.24024652  0.95974123  0.34206593  1.0
  H  H2  1  0.75975348  0.04025877  0.65793407  1.0
  H  H3  1  0.75975348  0.45974123  0.15793407  1.0
  H  H4  1  0.52622005  0.85739996  0.63456590  1.0
  H  H5  1  0.52622005  0.64260004  0.13456590  1.0
  H  H6  1  0.47377995  0.35739996  0.86543410  1.0
  H  H7  1  0.47377995  0.14260004  0.36543410  1.0
  H  H8  1  0.57315250  0.94048606  0.85612970  1.0
  H  H9  1  0.57315250  0.55951394  0.35612970  1.0
  H  H10  1  0.42684750  0.44048606  0.64387030  1.0
  H  H11  1  0.42684750  0.05951394  0.14387030  1.0
  H  H12  1  0.82557013  0.84795656  0.74546762  1.0
  H  H13  1  0.82557013  0.65204344  0.24546762  1.0
  H  H14  1  0.17442987  0.34795656  0.75453238  1.0
  H  H15  1  0.17442987  0.15204344  0.25453238  1.0
  N  N16  1  0.66494038  0.93251688  0.69801026  1.0
  N  N17  1  0.66494038  0.56748312  0.19801026  1.0
  N  N18  1  0.33505962  0.43251688  0.80198974  1.0
  N  N19  1  0.33505962  0.06748312  0.30198974  1.0
  N  N20  1  0.96781800  0.74600408  0.97218904  1.0
  N  N21  1  0.96781800  0.75399592  0.47218904  1.0
  N  N22  1  0.03218200  0.24600408  0.52781096  1.0
  N  N23  1  0.03218200  0.25399592  0.02781096  1.0
  O  O24  1  0.72994911  0.82173390  0.97782667  1.0
  O  O25  1  0.72994911  0.67826610  0.47782667  1.0
  O  O26  1  0.27005089  0.32173390  0.52217333  1.0
  O  O27  1  0.27005089  0.17826610  0.02217333  1.0
  O  O28  1  0.88931723  0.32776118  0.93671173  1.0
  O  O29  1  0.88931723  0.17223882  0.43671173  1.0
  O  O30  1  0.11068277  0.82776118  0.56328827  1.0
  O  O31  1  0.11068277  0.67223882  0.06328827  1.0
  O  O32  1  0.94223222  0.24445957  0.62720915  1.0
  O  O33  1  0.94223222  0.25554043  0.12720915  1.0
  O  O34  1  0.05776778  0.74445957  0.87279085  1.0
  O  O35  1  0.05776778  0.75554043  0.37279085  1.0
  O  O36  1  0.49333150  0.51133231  0.72027007  1.0
  O  O37  1  0.49333150  0.98866769  0.22027007  1.0
  O  O38  1  0.50666850  0.01133231  0.77972993  1.0
  O  O39  1  0.50666850  0.48866769  0.27972993  1.0
