# generated using pymatgen
data_Sm(GaS2)2
_symmetry_space_group_name_H-M   'P 1'
_cell_length_a   5.99420796
_cell_length_b   5.99420796
_cell_length_c   10.38291634
_cell_angle_alpha   90.00000000
_cell_angle_beta   90.00000000
_cell_angle_gamma   118.75915224
_symmetry_Int_Tables_number   1
_chemical_formula_structural   Sm(GaS2)2
_chemical_formula_sum   'Sm2 Ga4 S8'
_cell_volume   327.04624068
_cell_formula_units_Z   2
loop_
 _symmetry_equiv_pos_site_id
 _symmetry_equiv_pos_as_xyz
  1  'x, y, z'
loop_
 _atom_site_type_symbol
 _atom_site_label
 _atom_site_symmetry_multiplicity
 _atom_site_fract_x
 _atom_site_fract_y
 _atom_site_fract_z
 _atom_site_occupancy
  Sm  Sm0  1  0.50000000  0.50000000  0.75000000  1.0
  Sm  Sm1  1  0.50000000  0.50000000  0.25000000  1.0
  Ga  Ga2  1  -0.23185194  1.23515814  0.50000000  1.0
  Ga  Ga3  1  0.23185194  0.76484186  0.50000000  1.0
  Ga  Ga4  1  -0.23515814  1.23185194  0.00000000  1.0
  Ga  Ga5  1  0.23515814  0.76814806  -0.00000000  1.0
  S  S6  1  -0.64430164  1.19236495  0.50000000  1.0
  S  S7  1  0.64430164  0.80763505  0.50000000  1.0
  S  S8  1  -0.19236495  1.64430164  -0.00000000  1.0
  S  S9  1  0.19236495  0.35569836  -0.00000000  1.0
  S  S10  1  0.50000000  1.00000000  0.83107628  1.0
  S  S11  1  -0.00000000  1.50000000  0.66892372  1.0
  S  S12  1  0.50000000  1.00000000  0.16892372  1.0
  S  S13  1  -0.00000000  1.50000000  0.33107628  1.0
