# generated using pymatgen
data_K3As11
_symmetry_space_group_name_H-M   'P 1'
_cell_length_a   11.35315973
_cell_length_b   14.47285264
_cell_length_c   11.23525078
_cell_angle_alpha   90.00000000
_cell_angle_beta   90.00000000
_cell_angle_gamma   90.00000000
_symmetry_Int_Tables_number   1
_chemical_formula_structural   K3As11
_chemical_formula_sum   'K12 As44'
_cell_volume   1846.09335582
_cell_formula_units_Z   4
loop_
 _symmetry_equiv_pos_site_id
 _symmetry_equiv_pos_as_xyz
  1  'x, y, z'
loop_
 _atom_site_type_symbol
 _atom_site_label
 _atom_site_symmetry_multiplicity
 _atom_site_fract_x
 _atom_site_fract_y
 _atom_site_fract_z
 _atom_site_occupancy
  K  K0  1  0.25897220  0.51012796  0.58250016  1.0
  K  K1  1  0.25897220  0.48987204  0.08250016  1.0
  K  K2  1  0.75897220  0.01012796  0.91749984  1.0
  K  K3  1  0.75897220  0.98987204  0.41749984  1.0
  K  K4  1  0.74102780  0.51012796  0.91749984  1.0
  K  K5  1  0.74102780  0.48987204  0.41749984  1.0
  K  K6  1  0.24102780  0.01012796  0.58250016  1.0
  K  K7  1  0.24102780  0.98987204  0.08250016  1.0
  K  K8  1  0.50000000  0.77935418  0.75000000  1.0
  K  K9  1  0.50000000  0.22064582  0.25000000  1.0
  K  K10  1  0.00000000  0.27935418  0.75000000  1.0
  K  K11  1  0.00000000  0.72064582  0.25000000  1.0
  As  As12  1  0.41462999  0.39384112  0.81915417  1.0
  As  As13  1  0.41462999  0.60615888  0.31915417  1.0
  As  As14  1  0.91462999  0.89384112  0.68084583  1.0
  As  As15  1  0.91462999  0.10615888  0.18084583  1.0
  As  As16  1  0.58537001  0.39384112  0.68084583  1.0
  As  As17  1  0.58537001  0.60615888  0.18084583  1.0
  As  As18  1  0.08537001  0.89384112  0.81915417  1.0
  As  As19  1  0.08537001  0.10615888  0.31915417  1.0
  As  As20  1  0.39886781  0.21590938  0.56034214  1.0
  As  As21  1  0.39886781  0.78409062  0.06034214  1.0
  As  As22  1  0.89886781  0.71590938  0.93965786  1.0
  As  As23  1  0.89886781  0.28409062  0.43965786  1.0
  As  As24  1  0.60113219  0.21590938  0.93965786  1.0
  As  As25  1  0.60113219  0.78409062  0.43965786  1.0
  As  As26  1  0.10113219  0.71590938  0.56034214  1.0
  As  As27  1  0.10113219  0.28409062  0.06034214  1.0
  As  As28  1  0.31447482  0.24601733  0.76318528  1.0
  As  As29  1  0.31447482  0.75398267  0.26318528  1.0
  As  As30  1  0.81447482  0.74601733  0.73681472  1.0
  As  As31  1  0.81447482  0.25398267  0.23681472  1.0
  As  As32  1  0.68552518  0.24601733  0.73681472  1.0
  As  As33  1  0.68552518  0.75398267  0.23681472  1.0
  As  As34  1  0.18552518  0.74601733  0.76318528  1.0
  As  As35  1  0.18552518  0.25398267  0.26318528  1.0
  As  As36  1  0.50000000  0.01932456  0.75000000  1.0
  As  As37  1  0.50000000  0.98067544  0.25000000  1.0
  As  As38  1  0.00000000  0.51932456  0.75000000  1.0
  As  As39  1  0.00000000  0.48067544  0.25000000  1.0
  As  As40  1  0.47937416  0.36335521  0.49746736  1.0
  As  As41  1  0.47937416  0.63664479  0.99746736  1.0
  As  As42  1  0.97937416  0.86335521  0.00253264  1.0
  As  As43  1  0.97937416  0.13664479  0.50253264  1.0
  As  As44  1  0.52062584  0.36335521  0.00253264  1.0
  As  As45  1  0.52062584  0.63664479  0.50253264  1.0
  As  As46  1  0.02062584  0.86335521  0.49746736  1.0
  As  As47  1  0.02062584  0.13664479  0.99746736  1.0
  As  As48  1  0.41892138  0.13005331  0.89012105  1.0
  As  As49  1  0.41892138  0.86994669  0.39012105  1.0
  As  As50  1  0.91892138  0.63005331  0.60987895  1.0
  As  As51  1  0.91892138  0.36994669  0.10987895  1.0
  As  As52  1  0.58107862  0.13005331  0.60987895  1.0
  As  As53  1  0.58107862  0.86994669  0.10987895  1.0
  As  As54  1  0.08107862  0.63005331  0.89012105  1.0
  As  As55  1  0.08107862  0.36994669  0.39012105  1.0
