# generated using pymatgen
data_K2GaAs2
_symmetry_space_group_name_H-M   'P 1'
_cell_length_a   9.03158204
_cell_length_b   14.56227833
_cell_length_c   11.30519564
_cell_angle_alpha   90.00000000
_cell_angle_beta   118.04886972
_cell_angle_gamma   90.00000000
_symmetry_Int_Tables_number   1
_chemical_formula_structural   K2GaAs2
_chemical_formula_sum   'K16 Ga8 As16'
_cell_volume   1312.22711159
_cell_formula_units_Z   8
loop_
 _symmetry_equiv_pos_site_id
 _symmetry_equiv_pos_as_xyz
  1  'x, y, z'
loop_
 _atom_site_type_symbol
 _atom_site_label
 _atom_site_symmetry_multiplicity
 _atom_site_fract_x
 _atom_site_fract_y
 _atom_site_fract_z
 _atom_site_occupancy
  K  K0  1  0.97595052  0.87825310  0.44232411  1.0
  K  K1  1  0.97595052  0.62174690  0.94232411  1.0
  K  K2  1  0.02404948  0.37825310  0.05767589  1.0
  K  K3  1  0.02404948  0.12174690  0.55767589  1.0
  K  K4  1  0.90973449  0.12925162  0.08704178  1.0
  K  K5  1  0.90973449  0.37074838  0.58704178  1.0
  K  K6  1  0.09026551  0.62925162  0.41295822  1.0
  K  K7  1  0.09026551  0.87074838  0.91295822  1.0
  K  K8  1  0.50895343  0.12808792  0.46883265  1.0
  K  K9  1  0.50895343  0.37191208  0.96883265  1.0
  K  K10  1  0.49104657  0.62808792  0.03116735  1.0
  K  K11  1  0.49104657  0.87191208  0.53116735  1.0
  K  K12  1  0.30064131  0.38462196  0.47768541  1.0
  K  K13  1  0.30064131  0.11537804  0.97768541  1.0
  K  K14  1  0.69935869  0.88462196  0.02231459  1.0
  K  K15  1  0.69935869  0.61537804  0.52231459  1.0
  Ga  Ga16  1  0.65489233  0.21735750  0.25489951  1.0
  Ga  Ga17  1  0.65489233  0.28264250  0.75489951  1.0
  Ga  Ga18  1  0.34510767  0.71735750  0.24510049  1.0
  Ga  Ga19  1  0.34510767  0.78264250  0.74510049  1.0
  Ga  Ga20  1  0.49648828  0.44277625  0.25735640  1.0
  Ga  Ga21  1  0.49648828  0.05722375  0.75735640  1.0
  Ga  Ga22  1  0.50351172  0.94277625  0.24264360  1.0
  Ga  Ga23  1  0.50351172  0.55722375  0.74264360  1.0
  As  As24  1  0.88178638  0.31713341  0.28106023  1.0
  As  As25  1  0.88178638  0.18286659  0.78106023  1.0
  As  As26  1  0.11821362  0.81713341  0.21893977  1.0
  As  As27  1  0.11821362  0.68286659  0.71893977  1.0
  As  As28  1  0.76828164  0.47374730  0.27542015  1.0
  As  As29  1  0.76828164  0.02625270  0.77542015  1.0
  As  As30  1  0.23171836  0.97374730  0.22457985  1.0
  As  As31  1  0.23171836  0.52625270  0.72457985  1.0
  As  As32  1  0.71566967  0.05300840  0.25760146  1.0
  As  As33  1  0.71566967  0.44699160  0.75760146  1.0
  As  As34  1  0.28433033  0.55300840  0.24239854  1.0
  As  As35  1  0.28433033  0.94699160  0.74239854  1.0
  As  As36  1  0.39713710  0.28486250  0.22847273  1.0
  As  As37  1  0.39713710  0.21513750  0.72847273  1.0
  As  As38  1  0.60286290  0.78486250  0.27152727  1.0
  As  As39  1  0.60286290  0.71513750  0.77152727  1.0
