# generated using pymatgen
data_Na4FeO4
_symmetry_space_group_name_H-M   'P 1'
_cell_length_a   8.27996778
_cell_length_b   5.81895742
_cell_length_c   5.81568743
_cell_angle_alpha   110.53876607
_cell_angle_beta   107.71488068
_cell_angle_gamma   88.00824188
_symmetry_Int_Tables_number   1
_chemical_formula_structural   Na4FeO4
_chemical_formula_sum   'Na8 Fe2 O8'
_cell_volume   249.13565174
_cell_formula_units_Z   2
loop_
 _symmetry_equiv_pos_site_id
 _symmetry_equiv_pos_as_xyz
  1  'x, y, z'
loop_
 _atom_site_type_symbol
 _atom_site_label
 _atom_site_symmetry_multiplicity
 _atom_site_fract_x
 _atom_site_fract_y
 _atom_site_fract_z
 _atom_site_occupancy
  Na  Na0  1  0.01782629  0.73766187  -0.20374024  1.0
  Na  Na1  1  0.98217371  0.26233813  -0.79625976  1.0
  Na  Na2  1  0.43183108  0.72413213  -0.04737277  1.0
  Na  Na3  1  0.56816892  0.27586787  -0.95262723  1.0
  Na  Na4  1  0.16371646  0.22972227  -0.24930507  1.0
  Na  Na5  1  0.83628354  0.77027773  -0.75069493  1.0
  Na  Na6  1  0.36822315  0.21058494  -0.59322722  1.0
  Na  Na7  1  0.63177685  0.78941506  -0.40677278  1.0
  Fe  Fe8  1  0.25110442  0.72048645  -0.59152581  1.0
  Fe  Fe9  1  0.74889558  0.27951355  -0.40847419  1.0
  O  O10  1  0.38178357  0.96871175  -0.31275409  1.0
  O  O11  1  0.61821643  0.03128825  -0.68724591  1.0
  O  O12  1  0.11001682  0.89940488  -0.75626369  1.0
  O  O13  1  0.88998318  0.10059512  -0.24373631  1.0
  O  O14  1  0.20200500  0.52656326  -0.43394409  1.0
  O  O15  1  0.79799500  0.47343674  -0.56605591  1.0
  O  O16  1  0.67433465  0.50256734  -0.16512782  1.0
  O  O17  1  0.32566535  0.49743266  -0.83487218  1.0
