# generated using pymatgen
data_Be2TlF5
_symmetry_space_group_name_H-M   'P 1'
_cell_length_a   8.20375768
_cell_length_b   4.73571251
_cell_length_c   12.91277015
_cell_angle_alpha   90.00000000
_cell_angle_beta   90.75309969
_cell_angle_gamma   90.00000000
_symmetry_Int_Tables_number   1
_chemical_formula_structural   Be2TlF5
_chemical_formula_sum   'Be8 Tl4 F20'
_cell_volume   501.62602145
_cell_formula_units_Z   4
loop_
 _symmetry_equiv_pos_site_id
 _symmetry_equiv_pos_as_xyz
  1  'x, y, z'
loop_
 _atom_site_type_symbol
 _atom_site_label
 _atom_site_symmetry_multiplicity
 _atom_site_fract_x
 _atom_site_fract_y
 _atom_site_fract_z
 _atom_site_occupancy
  Be  Be0  1  0.83253694  1.01010419  0.29473555  1.0
  Be  Be1  1  0.83253694  -0.01010419  0.79473555  1.0
  Be  Be2  1  0.16746306  1.01010419  0.20526445  1.0
  Be  Be3  1  0.16746306  -0.01010419  0.70526445  1.0
  Be  Be4  1  0.66682559  0.50989451  0.20439802  1.0
  Be  Be5  1  0.66682559  0.49010549  0.70439802  1.0
  Be  Be6  1  0.33317441  0.50989451  0.29560198  1.0
  Be  Be7  1  0.33317441  0.49010549  0.79560198  1.0
  Tl  Tl8  1  0.50000000  0.00000000  0.50000000  1.0
  Tl  Tl9  1  0.50000000  0.00000000  0.00000000  1.0
  Tl  Tl10  1  -0.00000000  0.50000000  0.50000000  1.0
  Tl  Tl11  1  0.00000000  0.50000000  0.00000000  1.0
  F  F12  1  0.83045647  0.99431568  0.41235113  1.0
  F  F13  1  0.83045647  0.00568432  0.91235113  1.0
  F  F14  1  0.16954353  0.99431568  0.08764887  1.0
  F  F15  1  0.16954353  0.00568432  0.58764887  1.0
  F  F16  1  0.80657852  0.32388152  0.25539131  1.0
  F  F17  1  0.80657852  0.67611848  0.75539131  1.0
  F  F18  1  0.19342148  0.32388152  0.24460869  1.0
  F  F19  1  0.19342148  0.67611848  0.74460869  1.0
  F  F20  1  0.69336052  0.82397751  0.24305699  1.0
  F  F21  1  0.69336052  0.17602249  0.74305699  1.0
  F  F22  1  0.30663948  0.82397751  0.25694301  1.0
  F  F23  1  0.30663948  0.17602249  0.75694301  1.0
  F  F24  1  0.66734667  0.49361558  0.08671002  1.0
  F  F25  1  0.66734667  0.50638442  0.58671002  1.0
  F  F26  1  0.33265333  0.49361558  0.41328998  1.0
  F  F27  1  0.33265333  0.50638442  0.91328998  1.0
  F  F28  1  0.50000000  0.40304681  0.25000000  1.0
  F  F29  1  0.50000000  0.59695319  0.75000000  1.0
  F  F30  1  0.00000000  0.90294237  0.25000000  1.0
  F  F31  1  0.00000000  0.09705763  0.75000000  1.0
