# generated using pymatgen
data_V2Co(H4O5)2
_symmetry_space_group_name_H-M   'P 1'
_cell_length_a   8.34634957
_cell_length_b   8.34634957
_cell_length_c   6.91470831
_cell_angle_alpha   72.69882065
_cell_angle_beta   107.30117935
_cell_angle_gamma   109.20473735
_symmetry_Int_Tables_number   1
_chemical_formula_structural   V2Co(H4O5)2
_chemical_formula_sum   'V4 Co2 H16 O20'
_cell_volume   423.52911411
_cell_formula_units_Z   2
loop_
 _symmetry_equiv_pos_site_id
 _symmetry_equiv_pos_as_xyz
  1  'x, y, z'
loop_
 _atom_site_type_symbol
 _atom_site_label
 _atom_site_symmetry_multiplicity
 _atom_site_fract_x
 _atom_site_fract_y
 _atom_site_fract_z
 _atom_site_occupancy
  Co  Co0  1  1.00000000  -0.50000000  -0.00000000  1.0
  Co  Co1  1  1.50000000  -0.00000000  0.50000000  1.0
  O  O2  1  0.10471177  -0.01090473  0.92381543  1.0
  O  O3  1  0.98909527  -0.89528823  0.57618457  1.0
  O  O4  1  1.89528823  0.01090473  0.07618457  1.0
  O  O5  1  1.01090473  0.89528823  0.42381543  1.0
  O  O6  1  1.01942425  0.33931603  0.82358226  1.0
  O  O7  1  1.33931603  0.01942425  0.67641774  1.0
  O  O8  1  0.98057575  -0.33931603  0.17641774  1.0
  O  O9  1  0.66068397  -0.01942425  0.32358226  1.0
  O  O10  1  0.87935585  -0.71679227  0.18196992  1.0
  O  O11  1  0.28320773  -0.12064415  0.31803008  1.0
  O  O12  1  1.12064415  0.71679227  0.81803008  1.0
  O  O13  1  1.71679227  0.12064415  0.68196992  1.0
  O  O14  1  1.52022578  0.25335945  0.92655120  1.0
  O  O15  1  1.25335945  0.52022578  0.57344880  1.0
  O  O16  1  0.47977422  -0.25335945  0.07344880  1.0
  O  O17  1  0.74664055  -0.52022578  0.42655120  1.0
  O  O18  1  1.46603520  0.22854668  0.30324878  1.0
  O  O19  1  1.22854668  0.46603520  0.19675122  1.0
  O  O20  1  0.53396480  -0.22854668  0.69675122  1.0
  O  O21  1  0.77145332  -0.46603520  0.80324878  1.0
  H  H22  1  1.45924441  0.23329953  0.15585061  1.0
  H  H23  1  1.23329953  0.45924441  0.34414939  1.0
  H  H24  1  0.54075559  -0.23329953  0.84414939  1.0
  H  H25  1  0.76670047  -0.45924441  0.65585061  1.0
  H  H26  1  1.45129649  0.17823884  0.82655568  1.0
  H  H27  1  1.17823884  0.45129649  0.67344432  1.0
  H  H28  1  0.54870351  -0.17823884  0.17344432  1.0
  H  H29  1  0.82176116  -0.45129649  0.32655568  1.0
  H  H30  1  1.66544608  0.44244193  0.83671723  1.0
  H  H31  1  1.44244193  0.66544608  0.66328277  1.0
  H  H32  1  0.33455392  -0.44244193  0.16328277  1.0
  H  H33  1  0.55755807  -0.66544608  0.33671723  1.0
  H  H34  1  1.61735826  0.20273974  0.00577265  1.0
  H  H35  1  1.20273974  0.61735826  0.49422735  1.0
  H  H36  1  0.38264174  -0.20273974  -0.00577265  1.0
  H  H37  1  0.79726026  -0.61735826  0.50577265  1.0
  V  V38  1  0.13179735  -0.07478418  0.69338678  1.0
  V  V39  1  0.92521582  -0.86820265  0.80661322  1.0
  V  V40  1  1.86820265  0.07478418  0.30661322  1.0
  V  V41  1  1.07478418  0.86820265  0.19338678  1.0
