# generated using pymatgen
data_LuMgTl
_symmetry_space_group_name_H-M   'P 1'
_cell_length_a   7.46228834
_cell_length_b   7.46228834
_cell_length_c   4.61612385
_cell_angle_alpha   90.00000000
_cell_angle_beta   90.00000000
_cell_angle_gamma   120.00000000
_symmetry_Int_Tables_number   1
_chemical_formula_structural   LuMgTl
_chemical_formula_sum   'Lu3 Mg3 Tl3'
_cell_volume   222.61382689
_cell_formula_units_Z   3
loop_
 _symmetry_equiv_pos_site_id
 _symmetry_equiv_pos_as_xyz
  1  'x, y, z'
loop_
 _atom_site_type_symbol
 _atom_site_label
 _atom_site_symmetry_multiplicity
 _atom_site_fract_x
 _atom_site_fract_y
 _atom_site_fract_z
 _atom_site_occupancy
  Lu  Lu0  1  0.43303312  0.43303312  0.00000000  1.0
  Lu  Lu1  1  0.00000000  0.56696688  0.00000000  1.0
  Lu  Lu2  1  0.56696688  0.00000000  0.00000000  1.0
  Mg  Mg3  1  0.75711698  0.75711698  0.50000000  1.0
  Mg  Mg4  1  -0.00000000  0.24288302  0.50000000  1.0
  Mg  Mg5  1  0.24288302  0.00000000  0.50000000  1.0
  Tl  Tl6  1  0.33333333  0.66666667  0.50000000  1.0
  Tl  Tl7  1  0.66666667  0.33333333  0.50000000  1.0
  Tl  Tl8  1  0.00000000  0.00000000  0.00000000  1.0
