# generated using pymatgen
data_SrLuCuS3
_symmetry_space_group_name_H-M   'P 1'
_cell_length_a   6.80541643
_cell_length_b   6.80541643
_cell_length_c   10.05899827
_cell_angle_alpha   90.00000000
_cell_angle_beta   90.00000000
_cell_angle_gamma   146.68814912
_symmetry_Int_Tables_number   1
_chemical_formula_structural   SrLuCuS3
_chemical_formula_sum   'Sr2 Lu2 Cu2 S6'
_cell_volume   255.85343810
_cell_formula_units_Z   2
loop_
 _symmetry_equiv_pos_site_id
 _symmetry_equiv_pos_as_xyz
  1  'x, y, z'
loop_
 _atom_site_type_symbol
 _atom_site_label
 _atom_site_symmetry_multiplicity
 _atom_site_fract_x
 _atom_site_fract_y
 _atom_site_fract_z
 _atom_site_occupancy
  Sr  Sr0  1  -0.25064220  0.25064220  0.75000000  1.0
  Sr  Sr1  1  0.25064220  0.74935780  0.25000000  1.0
  Lu  Lu2  1  0.00000000  0.00000000  0.00000000  1.0
  Lu  Lu3  1  0.00000000  0.00000000  0.50000000  1.0
  Cu  Cu4  1  0.47270176  0.52729824  0.75000000  1.0
  Cu  Cu5  1  -0.47270176  0.47270176  0.25000000  1.0
  S  S6  1  0.36514317  0.63485683  0.93482469  1.0
  S  S7  1  0.36514317  0.63485683  0.56517531  1.0
  S  S8  1  -0.36514317  0.36514317  0.43482469  1.0
  S  S9  1  -0.36514317  0.36514317  0.06517531  1.0
  S  S10  1  0.07621299  0.92378701  0.75000000  1.0
  S  S11  1  -0.07621299  0.07621299  0.25000000  1.0
