# generated using pymatgen
data_KMoAsO6
_symmetry_space_group_name_H-M   'P 1'
_cell_length_a   10.95465940
_cell_length_b   6.73254914
_cell_length_c   7.15217421
_cell_angle_alpha   90.00000000
_cell_angle_beta   90.00000000
_cell_angle_gamma   90.00000000
_symmetry_Int_Tables_number   1
_chemical_formula_structural   KMoAsO6
_chemical_formula_sum   'K4 Mo4 As4 O24'
_cell_volume   527.49275036
_cell_formula_units_Z   4
loop_
 _symmetry_equiv_pos_site_id
 _symmetry_equiv_pos_as_xyz
  1  'x, y, z'
loop_
 _atom_site_type_symbol
 _atom_site_label
 _atom_site_symmetry_multiplicity
 _atom_site_fract_x
 _atom_site_fract_y
 _atom_site_fract_z
 _atom_site_occupancy
  K  K0  1  0.50000000  0.00000000  0.50000000  1.0
  K  K1  1  0.50000000  0.50000000  0.50000000  1.0
  K  K2  1  0.00000000  0.00000000  0.00000000  1.0
  K  K3  1  0.00000000  0.50000000  0.00000000  1.0
  Mo  Mo4  1  0.33850870  0.75000000  0.95447974  1.0
  Mo  Mo5  1  0.83850870  0.75000000  0.54552026  1.0
  Mo  Mo6  1  0.66149130  0.25000000  0.04552026  1.0
  Mo  Mo7  1  0.16149130  0.25000000  0.45447974  1.0
  As  As8  1  0.15357588  0.75000000  0.54595682  1.0
  As  As9  1  0.65357588  0.75000000  0.95404318  1.0
  As  As10  1  0.84642412  0.25000000  0.45404318  1.0
  As  As11  1  0.34642412  0.25000000  0.04595682  1.0
  O  O12  1  0.35016662  0.45842116  0.89855252  1.0
  O  O13  1  0.35016662  0.04157884  0.89855252  1.0
  O  O14  1  0.85016662  0.45842116  0.60144748  1.0
  O  O15  1  0.85016662  0.04157884  0.60144748  1.0
  O  O16  1  0.64983338  0.95842116  0.10144748  1.0
  O  O17  1  0.64983338  0.54157884  0.10144748  1.0
  O  O18  1  0.14983338  0.95842116  0.39855252  1.0
  O  O19  1  0.14983338  0.54157884  0.39855252  1.0
  O  O20  1  0.40853935  0.75000000  0.17023842  1.0
  O  O21  1  0.90853935  0.75000000  0.32976158  1.0
  O  O22  1  0.59146065  0.25000000  0.82976158  1.0
  O  O23  1  0.09146065  0.25000000  0.67023842  1.0
  O  O24  1  0.29501974  0.75000000  0.65455202  1.0
  O  O25  1  0.79501974  0.75000000  0.84544798  1.0
  O  O26  1  0.70498026  0.25000000  0.34544798  1.0
  O  O27  1  0.20498026  0.25000000  0.15455202  1.0
  O  O28  1  0.18699712  0.75000000  0.01486008  1.0
  O  O29  1  0.68699712  0.75000000  0.48513992  1.0
  O  O30  1  0.81300288  0.25000000  0.98513992  1.0
  O  O31  1  0.31300288  0.25000000  0.51486008  1.0
  O  O32  1  0.02587597  0.75000000  0.68752672  1.0
  O  O33  1  0.52587597  0.75000000  0.81247328  1.0
  O  O34  1  0.97412403  0.25000000  0.31247328  1.0
  O  O35  1  0.47412403  0.25000000  0.18752672  1.0
