# generated using pymatgen
data_MgSiO3
_symmetry_space_group_name_H-M   'P 1'
_cell_length_a   9.46391892
_cell_length_b   8.93993897
_cell_length_c   5.23543871
_cell_angle_alpha   90.00000000
_cell_angle_beta   102.92450358
_cell_angle_gamma   90.00000000
_symmetry_Int_Tables_number   1
_chemical_formula_structural   MgSiO3
_chemical_formula_sum   'Mg8 Si8 O24'
_cell_volume   431.73205505
_cell_formula_units_Z   8
loop_
 _symmetry_equiv_pos_site_id
 _symmetry_equiv_pos_as_xyz
  1  'x, y, z'
loop_
 _atom_site_type_symbol
 _atom_site_label
 _atom_site_symmetry_multiplicity
 _atom_site_fract_x
 _atom_site_fract_y
 _atom_site_fract_z
 _atom_site_occupancy
  Mg  Mg0  1  0.74902426  0.15209994  0.46824280  1.0
  Mg  Mg1  1  0.25097574  0.65209994  0.03175720  1.0
  Mg  Mg2  1  0.25097574  0.84790006  0.53175720  1.0
  Mg  Mg3  1  0.74902426  0.34790006  0.96824280  1.0
  Mg  Mg4  1  0.74567027  0.51082776  0.46163890  1.0
  Mg  Mg5  1  0.25432973  0.01082776  0.03836110  1.0
  Mg  Mg6  1  0.25432973  0.48917224  0.53836110  1.0
  Mg  Mg7  1  0.74567027  -0.01082776  0.96163890  1.0
  Si  Si8  1  0.95631013  0.84037544  0.75238517  1.0
  Si  Si9  1  0.04368987  0.34037544  0.74761483  1.0
  Si  Si10  1  0.04368987  0.15962456  0.24761483  1.0
  Si  Si11  1  0.95631013  0.65962456  0.25238517  1.0
  Si  Si12  1  0.44786559  0.33720249  0.18023452  1.0
  Si  Si13  1  0.55213441  0.83720249  0.31976548  1.0
  Si  Si14  1  0.55213441  0.66279751  0.81976548  1.0
  Si  Si15  1  0.44786559  0.16279751  0.68023452  1.0
  O  O16  1  0.13314409  0.83916896  0.81703880  1.0
  O  O17  1  0.86685591  0.33916896  0.68296120  1.0
  O  O18  1  0.86685591  0.16083104  0.18296120  1.0
  O  O19  1  0.13314409  0.66083104  0.31703880  1.0
  O  O20  1  0.87600201  -0.00073224  0.69998319  1.0
  O  O21  1  0.12399799  0.49926776  0.80001681  1.0
  O  O22  1  0.12399799  0.00073224  0.30001681  1.0
  O  O23  1  0.87600201  0.50073224  0.19998319  1.0
  O  O24  1  0.89393704  0.78134620  0.01169145  1.0
  O  O25  1  0.10606296  0.28134620  0.48830855  1.0
  O  O26  1  0.10606296  0.21865380  0.98830855  1.0
  O  O27  1  0.89393704  0.71865380  0.51169145  1.0
  O  O28  1  0.62548317  0.34035530  0.25144955  1.0
  O  O29  1  0.37451683  0.84035530  0.24855045  1.0
  O  O30  1  0.37451683  0.65964470  0.74855045  1.0
  O  O31  1  0.62548317  0.15964470  0.75144955  1.0
  O  O32  1  0.36505719  0.48234054  0.25448727  1.0
  O  O33  1  0.63494281  -0.01765946  0.24551273  1.0
  O  O34  1  0.63494281  0.51765946  0.74551273  1.0
  O  O35  1  0.36505719  0.01765946  0.75448727  1.0
  O  O36  1  0.39640755  0.19545160  0.35408221  1.0
  O  O37  1  0.60359245  0.69545160  0.14591779  1.0
  O  O38  1  0.60359245  0.80454840  0.64591779  1.0
  O  O39  1  0.39640755  0.30454840  0.85408221  1.0
