# generated using pymatgen
data_LaSi2
_symmetry_space_group_name_H-M   'P 1'
_cell_length_a   11.53567200
_cell_length_b   11.53567200
_cell_length_c   11.53567200
_cell_angle_alpha   150.32636967
_cell_angle_beta   150.32636967
_cell_angle_gamma   42.46253813
_symmetry_Int_Tables_number   1
_chemical_formula_structural   LaSi2
_chemical_formula_sum   'La4 Si8'
_cell_volume   375.29299126
_cell_formula_units_Z   4
loop_
 _symmetry_equiv_pos_site_id
 _symmetry_equiv_pos_as_xyz
  1  'x, y, z'
loop_
 _atom_site_type_symbol
 _atom_site_label
 _atom_site_symmetry_multiplicity
 _atom_site_fract_x
 _atom_site_fract_y
 _atom_site_fract_z
 _atom_site_occupancy
  La  La0  1  0.37500000  0.12500000  0.25000000  1.0
  La  La1  1  0.87500000  0.12500000  0.75000000  1.0
  La  La2  1  0.87500000  1.12500000  1.25000000  1.0
  La  La3  1  0.87500000  0.62500000  0.75000000  1.0
  Si  Si4  1  1.05264508  0.27119996  0.78144512  1.0
  Si  Si5  1  1.26024516  0.97880004  1.28144512  1.0
  Si  Si6  1  0.48975484  0.27119996  0.21855488  1.0
  Si  Si7  1  0.69735492  0.97880004  0.71855488  1.0
  Si  Si8  1  0.72880004  0.51024516  0.78144512  1.0
  Si  Si9  1  0.02119996  0.30264508  0.28144512  1.0
  Si  Si10  1  0.72880004  0.94735492  1.21855488  1.0
  Si  Si11  1  0.02119996  0.73975484  0.71855488  1.0
