# generated using pymatgen
data_ZrS3
_symmetry_space_group_name_H-M   'P 1'
_cell_length_a   5.19090652
_cell_length_b   3.64695673
_cell_length_c   9.86321783
_cell_angle_alpha   90.00000000
_cell_angle_beta   95.85887266
_cell_angle_gamma   90.00000000
_symmetry_Int_Tables_number   1
_chemical_formula_structural   ZrS3
_chemical_formula_sum   'Zr2 S6'
_cell_volume   185.74532593
_cell_formula_units_Z   2
loop_
 _symmetry_equiv_pos_site_id
 _symmetry_equiv_pos_as_xyz
  1  'x, y, z'
loop_
 _atom_site_type_symbol
 _atom_site_label
 _atom_site_symmetry_multiplicity
 _atom_site_fract_x
 _atom_site_fract_y
 _atom_site_fract_z
 _atom_site_occupancy
  Zr  Zr0  1  0.77756581  0.75000000  0.64119474  1.0
  Zr  Zr1  1  0.22243419  0.25000000  0.35880526  1.0
  S  S2  1  0.39241105  0.75000000  0.19888172  1.0
  S  S3  1  0.60758895  0.25000000  0.80111828  1.0
  S  S4  1  -0.00900001  0.75000000  0.19831781  1.0
  S  S5  1  1.00900001  0.25000000  0.80168219  1.0
  S  S6  1  0.25968635  0.75000000  0.54979816  1.0
  S  S7  1  0.74031365  0.25000000  0.45020184  1.0
