# generated using pymatgen
data_Li2CoSiO4
_symmetry_space_group_name_H-M   'P 1'
_cell_length_a   10.74654657
_cell_length_b   6.27108659
_cell_length_c   4.99381896
_cell_angle_alpha   90.00000000
_cell_angle_beta   90.00000000
_cell_angle_gamma   90.00000000
_symmetry_Int_Tables_number   1
_chemical_formula_structural   Li2CoSiO4
_chemical_formula_sum   'Li8 Co4 Si4 O16'
_cell_volume   336.54606463
_cell_formula_units_Z   4
loop_
 _symmetry_equiv_pos_site_id
 _symmetry_equiv_pos_as_xyz
  1  'x, y, z'
loop_
 _atom_site_type_symbol
 _atom_site_label
 _atom_site_symmetry_multiplicity
 _atom_site_fract_x
 _atom_site_fract_y
 _atom_site_fract_z
 _atom_site_occupancy
  Li  Li0  1  0.16253504  -0.00124463  0.39810073  1.0
  Li  Li1  1  0.66253504  0.50124463  0.39810073  1.0
  Li  Li2  1  0.83746496  1.00124463  0.89810073  1.0
  Li  Li3  1  0.33746496  0.49875537  0.89810073  1.0
  Li  Li4  1  0.42159324  0.74469488  0.39869550  1.0
  Li  Li5  1  0.92159324  0.75530512  0.39869550  1.0
  Li  Li6  1  0.57840676  0.25530512  0.89869550  1.0
  Li  Li7  1  0.07840676  0.24469488  0.89869550  1.0
  Co  Co8  1  0.16495238  0.49107973  0.39484350  1.0
  Co  Co9  1  0.66495238  0.00892027  0.39484350  1.0
  Co  Co10  1  0.83504762  0.50892027  0.89484350  1.0
  Co  Co11  1  0.33504762  0.99107973  0.89484350  1.0
  Si  Si12  1  0.41289275  0.24770034  0.39201738  1.0
  Si  Si13  1  0.91289275  0.25229966  0.39201738  1.0
  Si  Si14  1  0.58710725  0.75229966  0.89201738  1.0
  Si  Si15  1  0.08710725  0.74770034  0.89201738  1.0
  O  O16  1  0.05865159  0.24699528  0.49933709  1.0
  O  O17  1  0.55865159  0.25300472  0.49933709  1.0
  O  O18  1  0.94134841  0.75300472  0.99933709  1.0
  O  O19  1  0.44134841  0.74699528  0.99933709  1.0
  O  O20  1  0.41004891  0.24611735  0.06068810  1.0
  O  O21  1  0.91004891  0.25388265  0.06068810  1.0
  O  O22  1  0.58995109  0.75388265  0.56068810  1.0
  O  O23  1  0.08995109  0.74611735  0.56068810  1.0
  O  O24  1  0.34174171  0.46573443  0.50079011  1.0
  O  O25  1  0.84174171  0.03426557  0.50079011  1.0
  O  O26  1  0.65825829  0.53426557  0.00079011  1.0
  O  O27  1  0.15825829  0.96573443  0.00079011  1.0
  O  O28  1  0.34076007  0.02955986  0.49812760  1.0
  O  O29  1  0.84076007  0.47044014  0.49812760  1.0
  O  O30  1  0.65923993  0.97044014  0.99812760  1.0
  O  O31  1  0.15923993  0.52955986  0.99812760  1.0
