# generated using pymatgen
data_SrWO4
_symmetry_space_group_name_H-M   'P 1'
_cell_length_a   7.83055739
_cell_length_b   5.59374610
_cell_length_c   8.14476185
_cell_angle_alpha   90.00000000
_cell_angle_beta   103.83130539
_cell_angle_gamma   90.00000000
_symmetry_Int_Tables_number   1
_chemical_formula_structural   SrWO4
_chemical_formula_sum   'Sr4 W4 O16'
_cell_volume   346.41345233
_cell_formula_units_Z   4
loop_
 _symmetry_equiv_pos_site_id
 _symmetry_equiv_pos_as_xyz
  1  'x, y, z'
loop_
 _atom_site_type_symbol
 _atom_site_label
 _atom_site_symmetry_multiplicity
 _atom_site_fract_x
 _atom_site_fract_y
 _atom_site_fract_z
 _atom_site_occupancy
  Sr  Sr0  1  0.35428244  0.73105068  0.09848668  1.0
  Sr  Sr1  1  0.64571756  0.23105068  0.40151332  1.0
  Sr  Sr2  1  0.64571756  0.26894932  0.90151332  1.0
  Sr  Sr3  1  0.35428244  0.76894932  0.59848668  1.0
  W  W4  1  0.17588296  0.24248881  0.32927374  1.0
  W  W5  1  0.82411704  0.74248881  0.17072626  1.0
  W  W6  1  0.82411704  0.75751119  0.67072626  1.0
  W  W7  1  0.17588296  0.25751119  0.82927374  1.0
  O  O8  1  0.16944136  0.30278347  0.04732213  1.0
  O  O9  1  0.83055864  0.80278347  0.45267787  1.0
  O  O10  1  0.83055864  0.69721653  0.95267787  1.0
  O  O11  1  0.16944136  0.19721653  0.54732213  1.0
  O  O12  1  0.01712385  0.96324399  0.23097525  1.0
  O  O13  1  0.98287615  0.46324399  0.26902475  1.0
  O  O14  1  0.98287615  0.03675601  0.76902475  1.0
  O  O15  1  0.01712385  0.53675601  0.73097525  1.0
  O  O16  1  0.35706612  0.02082496  0.32780478  1.0
  O  O17  1  0.64293388  0.52082496  0.17219522  1.0
  O  O18  1  0.64293388  0.97917504  0.67219522  1.0
  O  O19  1  0.35706612  0.47917504  0.82780478  1.0
  O  O20  1  0.33906609  0.48581079  0.35652762  1.0
  O  O21  1  0.66093391  -0.01418921  0.14347238  1.0
  O  O22  1  0.66093391  0.51418921  0.64347238  1.0
  O  O23  1  0.33906609  1.01418921  0.85652762  1.0
