# generated using pymatgen
data_K2Cd3S4
_symmetry_space_group_name_H-M   'P 1'
_cell_length_a   14.04571674
_cell_length_b   10.39818533
_cell_length_c   6.74418976
_cell_angle_alpha   90.00000000
_cell_angle_beta   90.00000000
_cell_angle_gamma   90.00000000
_symmetry_Int_Tables_number   1
_chemical_formula_structural   K2Cd3S4
_chemical_formula_sum   'K8 Cd12 S16'
_cell_volume   984.98868355
_cell_formula_units_Z   4
loop_
 _symmetry_equiv_pos_site_id
 _symmetry_equiv_pos_as_xyz
  1  'x, y, z'
loop_
 _atom_site_type_symbol
 _atom_site_label
 _atom_site_symmetry_multiplicity
 _atom_site_fract_x
 _atom_site_fract_y
 _atom_site_fract_z
 _atom_site_occupancy
  K  K0  1  0.96938140  0.25000000  0.51608063  1.0
  K  K1  1  0.46938140  0.25000000  0.98391937  1.0
  K  K2  1  0.03061860  0.75000000  0.48391937  1.0
  K  K3  1  0.53061860  0.75000000  0.01608063  1.0
  K  K4  1  0.00000000  0.50000000  0.00000000  1.0
  K  K5  1  -0.00000000  0.00000000  0.00000000  1.0
  K  K6  1  0.50000000  0.50000000  0.50000000  1.0
  K  K7  1  0.50000000  0.00000000  0.50000000  1.0
  Cd  Cd8  1  0.74852467  0.90716375  0.34573388  1.0
  Cd  Cd9  1  0.74852467  0.59283625  0.34573388  1.0
  Cd  Cd10  1  0.24852467  0.90716375  0.15426612  1.0
  Cd  Cd11  1  0.24852467  0.59283625  0.15426612  1.0
  Cd  Cd12  1  0.25147533  0.40716375  0.65426612  1.0
  Cd  Cd13  1  0.25147533  0.09283625  0.65426612  1.0
  Cd  Cd14  1  0.75147533  0.40716375  0.84573388  1.0
  Cd  Cd15  1  0.75147533  0.09283625  0.84573388  1.0
  Cd  Cd16  1  0.70402439  0.25000000  0.28590032  1.0
  Cd  Cd17  1  0.20402439  0.25000000  0.21409968  1.0
  Cd  Cd18  1  0.29597561  0.75000000  0.71409968  1.0
  Cd  Cd19  1  0.79597561  0.75000000  0.78590032  1.0
  S  S20  1  0.63617276  0.46703292  0.12702998  1.0
  S  S21  1  0.63617276  0.03296708  0.12702998  1.0
  S  S22  1  0.13617276  0.46703292  0.37297002  1.0
  S  S23  1  0.13617276  0.03296708  0.37297002  1.0
  S  S24  1  0.36382724  0.96703292  0.87297002  1.0
  S  S25  1  0.36382724  0.53296708  0.87297002  1.0
  S  S26  1  0.86382724  0.96703292  0.62702998  1.0
  S  S27  1  0.86382724  0.53296708  0.62702998  1.0
  S  S28  1  0.85700010  0.25000000  0.07472495  1.0
  S  S29  1  0.35700010  0.25000000  0.42527505  1.0
  S  S30  1  0.14299990  0.75000000  0.92527505  1.0
  S  S31  1  0.64299990  0.75000000  0.57472495  1.0
  S  S32  1  0.64610982  0.25000000  0.63896665  1.0
  S  S33  1  0.14610982  0.25000000  0.86103335  1.0
  S  S34  1  0.35389018  0.75000000  0.36103335  1.0
  S  S35  1  0.85389018  0.75000000  0.13896665  1.0
