# generated using pymatgen
data_Eu2Ti2O7
_symmetry_space_group_name_H-M   'P 1'
_cell_length_a   7.28233831
_cell_length_b   7.28233831
_cell_length_c   7.28233831
_cell_angle_alpha   60.00000000
_cell_angle_beta   60.00000000
_cell_angle_gamma   60.00000000
_symmetry_Int_Tables_number   1
_chemical_formula_structural   Eu2Ti2O7
_chemical_formula_sum   'Eu4 Ti4 O14'
_cell_volume   273.08481639
_cell_formula_units_Z   2
loop_
 _symmetry_equiv_pos_site_id
 _symmetry_equiv_pos_as_xyz
  1  'x, y, z'
loop_
 _atom_site_type_symbol
 _atom_site_label
 _atom_site_symmetry_multiplicity
 _atom_site_fract_x
 _atom_site_fract_y
 _atom_site_fract_z
 _atom_site_occupancy
  O  O0  1  0.70049463  0.70049463  -0.70049463  1.0
  O  O1  1  0.29950537  1.29950537  -0.29950537  1.0
  O  O2  1  0.70049463  -0.70049463  0.70049463  1.0
  O  O3  1  0.29950537  -0.29950537  0.29950537  1.0
  O  O4  1  -0.70049463  0.70049463  0.70049463  1.0
  O  O5  1  -0.29950537  0.29950537  0.29950537  1.0
  O  O6  1  -0.45049463  0.54950537  0.95049463  1.0
  O  O7  1  0.95049463  0.95049463  -0.45049463  1.0
  O  O8  1  0.54950537  0.95049463  0.54950537  1.0
  O  O9  1  0.95049463  0.54950537  0.95049463  1.0
  O  O10  1  0.95049463  0.54950537  -0.45049463  1.0
  O  O11  1  0.54950537  0.95049463  -0.04950537  1.0
  O  O12  1  0.25000000  1.25000000  0.25000000  1.0
  O  O13  1  0.00000000  0.00000000  0.00000000  1.0
  Eu  Eu14  1  0.62500000  1.12500000  0.12500000  1.0
  Eu  Eu15  1  0.12500000  1.62500000  0.12500000  1.0
  Eu  Eu16  1  0.12500000  0.12500000  1.62500000  1.0
  Eu  Eu17  1  0.12500000  0.12500000  0.12500000  1.0
  Ti  Ti18  1  1.12500000  0.62500000  0.62500000  1.0
  Ti  Ti19  1  0.62500000  1.12500000  -0.37500000  1.0
  Ti  Ti20  1  -0.37500000  0.62500000  1.12500000  1.0
  Ti  Ti21  1  -0.37500000  0.62500000  0.62500000  1.0
