# generated using pymatgen
data_VO2
_symmetry_space_group_name_H-M   'P 1'
_cell_length_a   8.84116927
_cell_length_b   2.85013663
_cell_length_c   10.65482037
_cell_angle_alpha   90.00000000
_cell_angle_beta   90.00000000
_cell_angle_gamma   90.00000000
_symmetry_Int_Tables_number   1
_chemical_formula_structural   VO2
_chemical_formula_sum   'V8 O16'
_cell_volume   268.48592208
_cell_formula_units_Z   8
loop_
 _symmetry_equiv_pos_site_id
 _symmetry_equiv_pos_as_xyz
  1  'x, y, z'
loop_
 _atom_site_type_symbol
 _atom_site_label
 _atom_site_symmetry_multiplicity
 _atom_site_fract_x
 _atom_site_fract_y
 _atom_site_fract_z
 _atom_site_occupancy
  V  V0  1  0.54188762  0.75000000  0.62445077  1.0
  V  V1  1  0.95811238  0.25000000  0.12445077  1.0
  V  V2  1  0.45811238  0.25000000  0.37554923  1.0
  V  V3  1  0.04188762  0.75000000  0.87554923  1.0
  V  V4  1  0.90185106  0.25000000  0.59744767  1.0
  V  V5  1  0.59814894  0.75000000  0.09744767  1.0
  V  V6  1  0.09814894  0.75000000  0.40255233  1.0
  V  V7  1  0.40185106  0.25000000  0.90255233  1.0
  O  O8  1  0.69693380  0.25000000  0.63879303  1.0
  O  O9  1  0.80306620  0.75000000  0.13879303  1.0
  O  O10  1  0.30306620  0.75000000  0.36120697  1.0
  O  O11  1  0.19693380  0.25000000  0.86120697  1.0
  O  O12  1  0.61344283  0.25000000  0.98222077  1.0
  O  O13  1  0.88655717  0.75000000  0.48222077  1.0
  O  O14  1  0.38655717  0.75000000  0.01777923  1.0
  O  O15  1  0.11344283  0.25000000  0.51777923  1.0
  O  O16  1  0.96957573  0.75000000  0.71302819  1.0
  O  O17  1  0.53042427  0.25000000  0.21302819  1.0
  O  O18  1  0.03042427  0.25000000  0.28697181  1.0
  O  O19  1  0.46957573  0.75000000  0.78697181  1.0
  O  O20  1  0.92109097  0.25000000  0.93017083  1.0
  O  O21  1  0.57890903  0.75000000  0.43017083  1.0
  O  O22  1  0.07890903  0.75000000  0.06982917  1.0
  O  O23  1  0.42109097  0.25000000  0.56982917  1.0
