# generated using pymatgen
data_CaGe2Pt
_symmetry_space_group_name_H-M   'P 1'
_cell_length_a   9.51363659
_cell_length_b   9.51363659
_cell_length_c   9.51363659
_cell_angle_alpha   152.93993409
_cell_angle_beta   123.94516673
_cell_angle_gamma   63.32498803
_symmetry_Int_Tables_number   1
_chemical_formula_structural   CaGe2Pt
_chemical_formula_sum   'Ca4 Ge8 Pt4'
_cell_volume   322.28533950
_cell_formula_units_Z   4
loop_
 _symmetry_equiv_pos_site_id
 _symmetry_equiv_pos_as_xyz
  1  'x, y, z'
loop_
 _atom_site_type_symbol
 _atom_site_label
 _atom_site_symmetry_multiplicity
 _atom_site_fract_x
 _atom_site_fract_y
 _atom_site_fract_z
 _atom_site_occupancy
  Ca  Ca0  1  0.79691828  0.79691828  1.00000000  1.0
  Ca  Ca1  1  0.20308172  0.20308172  0.00000000  1.0
  Ca  Ca2  1  0.75475628  0.00000000  0.75475628  1.0
  Ca  Ca3  1  0.24524372  -0.00000000  0.24524372  1.0
  Ge  Ge4  1  0.45256098  0.80365194  0.64890904  1.0
  Ge  Ge5  1  0.84525710  0.19634806  0.64890904  1.0
  Ge  Ge6  1  1.15474290  0.80365194  1.35109096  1.0
  Ge  Ge7  1  0.54743902  0.19634806  0.35109096  1.0
  Ge  Ge8  1  0.92471761  0.42471761  0.50000000  1.0
  Ge  Ge9  1  0.07528239  0.57528239  0.50000000  1.0
  Ge  Ge10  1  0.57834351  0.57834351  1.00000000  1.0
  Ge  Ge11  1  0.42165649  0.42165649  -0.00000000  1.0
  Pt  Pt12  1  0.39665644  0.64828007  0.74837637  1.0
  Pt  Pt13  1  1.10009629  0.35171993  0.74837637  1.0
  Pt  Pt14  1  0.89990371  0.64828007  1.25162363  1.0
  Pt  Pt15  1  0.60334356  0.35171993  0.25162363  1.0
