# generated using pymatgen
data_Mn2O3
_symmetry_space_group_name_H-M   'P 1'
_cell_length_a   8.21907375
_cell_length_b   8.21907375
_cell_length_c   8.21907375
_cell_angle_alpha   109.47122063
_cell_angle_beta   109.47122063
_cell_angle_gamma   109.47122063
_symmetry_Int_Tables_number   1
_chemical_formula_structural   Mn2O3
_chemical_formula_sum   'Mn16 O24'
_cell_volume   427.41203000
_cell_formula_units_Z   8
loop_
 _symmetry_equiv_pos_site_id
 _symmetry_equiv_pos_as_xyz
  1  'x, y, z'
loop_
 _atom_site_type_symbol
 _atom_site_label
 _atom_site_symmetry_multiplicity
 _atom_site_fract_x
 _atom_site_fract_y
 _atom_site_fract_z
 _atom_site_occupancy
  Mn  Mn0  1  1.71516371  1.46516371  1.25000000  1.0
  Mn  Mn1  1  1.21516371  0.96516371  1.25000000  1.0
  Mn  Mn2  1  0.75000000  0.78483629  0.03483629  1.0
  Mn  Mn3  1  0.25000000  1.21516371  0.96516371  1.0
  Mn  Mn4  1  0.25000000  0.71516371  0.46516371  1.0
  Mn  Mn5  1  0.75000000  1.28483629  0.53483629  1.0
  Mn  Mn6  1  1.46516371  1.25000000  1.71516371  1.0
  Mn  Mn7  1  0.96516371  0.25000000  1.21516371  1.0
  Mn  Mn8  1  0.03483629  0.75000000  0.78483629  1.0
  Mn  Mn9  1  0.53483629  0.75000000  0.28483629  1.0
  Mn  Mn10  1  0.28483629  0.53483629  0.75000000  1.0
  Mn  Mn11  1  0.78483629  1.03483629  0.75000000  1.0
  Mn  Mn12  1  1.00000000  0.50000000  1.00000000  1.0
  Mn  Mn13  1  0.50000000  0.50000000  0.50000000  1.0
  Mn  Mn14  1  1.00000000  1.00000000  1.50000000  1.0
  Mn  Mn15  1  1.50000000  1.00000000  1.00000000  1.0
  O  O16  1  0.54474155  0.56223383  0.77311410  1.0
  O  O17  1  1.04474155  0.27162745  0.98250773  1.0
  O  O18  1  0.28911973  0.77162745  0.72688590  1.0
  O  O19  1  0.78911973  1.06223383  0.51749227  1.0
  O  O20  1  0.48250773  1.21088027  0.93776617  1.0
  O  O21  1  0.98250773  1.04474155  0.27162745  1.0
  O  O22  1  0.77311410  0.54474155  0.56223383  1.0
  O  O23  1  1.27311410  0.71088027  1.22837255  1.0
  O  O24  1  0.77162745  0.72688590  0.28911973  1.0
  O  O25  1  1.27162745  0.98250773  1.04474155  1.0
  O  O26  1  0.93776617  0.48250773  1.21088027  1.0
  O  O27  1  1.43776617  1.22688590  1.45525845  1.0
  O  O28  1  1.71088027  1.22837255  1.27311410  1.0
  O  O29  1  1.21088027  0.93776617  1.48250773  1.0
  O  O30  1  1.45525845  1.43776617  1.22688590  1.0
  O  O31  1  0.95525845  1.72837255  1.01749227  1.0
  O  O32  1  1.22688590  1.45525845  1.43776617  1.0
  O  O33  1  0.72688590  1.28911973  0.77162745  1.0
  O  O34  1  1.51749227  0.78911973  1.06223383  1.0
  O  O35  1  1.01749227  0.95525845  1.72837255  1.0
  O  O36  1  1.06223383  1.51749227  0.78911973  1.0
  O  O37  1  0.56223383  0.77311410  0.54474155  1.0
  O  O38  1  1.22837255  1.27311410  1.71088027  1.0
  O  O39  1  0.72837255  1.01749227  0.95525845  1.0
