# generated using pymatgen
data_Pr2WC2
_symmetry_space_group_name_H-M   'P 1'
_cell_length_a   5.68693612
_cell_length_b   5.68693612
_cell_length_c   10.41440214
_cell_angle_alpha   90.00000000
_cell_angle_beta   90.00000000
_cell_angle_gamma   90.00000000
_symmetry_Int_Tables_number   1
_chemical_formula_structural   Pr2WC2
_chemical_formula_sum   'Pr8 W4 C8'
_cell_volume   336.81470456
_cell_formula_units_Z   4
loop_
 _symmetry_equiv_pos_site_id
 _symmetry_equiv_pos_as_xyz
  1  'x, y, z'
loop_
 _atom_site_type_symbol
 _atom_site_label
 _atom_site_symmetry_multiplicity
 _atom_site_fract_x
 _atom_site_fract_y
 _atom_site_fract_z
 _atom_site_occupancy
  Pr  Pr0  1  0.31392266  0.68607734  0.15564600  1.0
  Pr  Pr1  1  0.31392266  0.68607734  0.84435400  1.0
  Pr  Pr2  1  0.81392266  0.81392266  0.65564600  1.0
  Pr  Pr3  1  0.81392266  0.81392266  0.34435400  1.0
  Pr  Pr4  1  0.68607734  0.31392266  0.15564600  1.0
  Pr  Pr5  1  0.68607734  0.31392266  0.84435400  1.0
  Pr  Pr6  1  0.18607734  0.18607734  0.65564600  1.0
  Pr  Pr7  1  0.18607734  0.18607734  0.34435400  1.0
  W  W8  1  0.32160858  0.67839142  0.50000000  1.0
  W  W9  1  0.82160858  0.82160858  0.00000000  1.0
  W  W10  1  0.67839142  0.32160858  0.50000000  1.0
  W  W11  1  0.17839142  0.17839142  -0.00000000  1.0
  C  C12  1  0.50000000  0.50000000  0.35674675  1.0
  C  C13  1  0.50000000  0.50000000  0.64325325  1.0
  C  C14  1  0.00000000  0.00000000  0.85674675  1.0
  C  C15  1  0.00000000  0.00000000  0.14325325  1.0
  C  C16  1  0.50000000  0.00000000  0.50000000  1.0
  C  C17  1  0.00000000  0.50000000  0.00000000  1.0
  C  C18  1  0.00000000  0.50000000  0.50000000  1.0
  C  C19  1  0.50000000  0.00000000  0.00000000  1.0
