# generated using pymatgen
data_SnS2(O3F)2
_symmetry_space_group_name_H-M   'P 1'
_cell_length_a   5.59778802
_cell_length_b   9.77517769
_cell_length_c   14.24355117
_cell_angle_alpha   90.00000000
_cell_angle_beta   110.26435976
_cell_angle_gamma   90.00000000
_symmetry_Int_Tables_number   1
_chemical_formula_structural   SnS2(O3F)2
_chemical_formula_sum   'Sn4 S8 O24 F8'
_cell_volume   731.15699105
_cell_formula_units_Z   4
loop_
 _symmetry_equiv_pos_site_id
 _symmetry_equiv_pos_as_xyz
  1  'x, y, z'
loop_
 _atom_site_type_symbol
 _atom_site_label
 _atom_site_symmetry_multiplicity
 _atom_site_fract_x
 _atom_site_fract_y
 _atom_site_fract_z
 _atom_site_occupancy
  Sn  Sn0  1  0.53675848  0.19633014  0.17442052  1.0
  Sn  Sn1  1  0.53675848  0.30366986  0.67442052  1.0
  Sn  Sn2  1  0.46324152  0.69633014  0.32557948  1.0
  Sn  Sn3  1  0.46324152  0.80366986  0.82557948  1.0
  S  S4  1  0.97457342  0.47739623  0.19412314  1.0
  S  S5  1  0.97457342  0.02260377  0.69412314  1.0
  S  S6  1  0.02542658  0.97739623  0.30587686  1.0
  S  S7  1  0.02542658  0.52260377  0.80587686  1.0
  S  S8  1  0.66947290  0.31412096  0.43565460  1.0
  S  S9  1  0.66947290  0.18587904  0.93565460  1.0
  S  S10  1  0.33052710  0.81412096  0.06434540  1.0
  S  S11  1  0.33052710  0.68587904  0.56434540  1.0
  O  O12  1  0.93924511  0.09507083  0.23687957  1.0
  O  O13  1  0.93924511  0.40492917  0.73687957  1.0
  O  O14  1  0.06075489  0.59507083  0.26312043  1.0
  O  O15  1  0.06075489  0.90492917  0.76312043  1.0
  O  O16  1  0.82762997  0.89809665  0.32334982  1.0
  O  O17  1  0.82762997  0.60190335  0.82334982  1.0
  O  O18  1  0.17237003  0.39809665  0.17665018  1.0
  O  O19  1  0.17237003  0.10190335  0.67665018  1.0
  O  O20  1  0.77473012  0.40144422  0.21726630  1.0
  O  O21  1  0.77473012  0.09855578  0.71726630  1.0
  O  O22  1  0.22526988  0.90144422  0.28273370  1.0
  O  O23  1  0.22526988  0.59855578  0.78273370  1.0
  O  O24  1  0.65562314  0.24071503  0.02955682  1.0
  O  O25  1  0.65562314  0.25928497  0.52955682  1.0
  O  O26  1  0.34437686  0.74071503  0.47044318  1.0
  O  O27  1  0.34437686  0.75928497  0.97044318  1.0
  O  O28  1  0.62219925  0.20941411  0.35784427  1.0
  O  O29  1  0.62219925  0.29058589  0.85784427  1.0
  O  O30  1  0.37780075  0.70941411  0.14215573  1.0
  O  O31  1  0.37780075  0.79058589  0.64215573  1.0
  O  O32  1  0.54524278  0.44487194  0.40420442  1.0
  O  O33  1  0.54524278  0.05512806  0.90420442  1.0
  O  O34  1  0.45475722  0.94487194  0.09579558  1.0
  O  O35  1  0.45475722  0.55512806  0.59579558  1.0
  F  F36  1  0.96945313  0.34700525  0.46453407  1.0
  F  F37  1  0.96945313  0.15299475  0.96453407  1.0
  F  F38  1  0.03054687  0.84700525  0.03546593  1.0
  F  F39  1  0.03054687  0.65299475  0.53546593  1.0
  F  F40  1  0.17573997  0.04914526  0.41038245  1.0
  F  F41  1  0.17573997  0.45085474  0.91038245  1.0
  F  F42  1  0.82426003  0.54914526  0.08961755  1.0
  F  F43  1  0.82426003  0.95085474  0.58961755  1.0
