# generated using pymatgen
data_Ta5Ge3
_symmetry_space_group_name_H-M   'P 1'
_cell_length_a   7.62981035
_cell_length_b   7.62981035
_cell_length_c   7.62981035
_cell_angle_alpha   96.63181074
_cell_angle_beta   96.63181074
_cell_angle_gamma   140.26620814
_symmetry_Int_Tables_number   1
_chemical_formula_structural   Ta5Ge3
_chemical_formula_sum   'Ta10 Ge6'
_cell_volume   267.02030983
_cell_formula_units_Z   2
loop_
 _symmetry_equiv_pos_site_id
 _symmetry_equiv_pos_as_xyz
  1  'x, y, z'
loop_
 _atom_site_type_symbol
 _atom_site_label
 _atom_site_symmetry_multiplicity
 _atom_site_fract_x
 _atom_site_fract_y
 _atom_site_fract_z
 _atom_site_occupancy
  Ta  Ta0  1  0.75000000  1.25000000  0.50000000  1.0
  Ta  Ta1  1  0.25000000  0.75000000  0.50000000  1.0
  Ta  Ta2  1  0.27643443  0.42547500  0.70190943  1.0
  Ta  Ta3  1  1.22356557  0.92547500  1.14904057  1.0
  Ta  Ta4  1  0.92547500  0.77643443  1.70190943  1.0
  Ta  Ta5  1  0.57452500  1.27643443  0.85095943  1.0
  Ta  Ta6  1  0.77643443  1.07452500  0.85095943  1.0
  Ta  Ta7  1  0.72356557  0.57452500  1.29809057  1.0
  Ta  Ta8  1  1.42547500  0.72356557  1.14904057  1.0
  Ta  Ta9  1  0.07452500  0.22356557  0.29809057  1.0
  Ge  Ge10  1  0.83310282  0.33310282  1.16620563  1.0
  Ge  Ge11  1  0.66689718  0.83310282  0.50000000  1.0
  Ge  Ge12  1  1.33310282  1.16689718  1.50000000  1.0
  Ge  Ge13  1  0.16689718  0.66689718  0.83379437  1.0
  Ge  Ge14  1  0.25000000  0.25000000  0.00000000  1.0
  Ge  Ge15  1  0.75000000  0.75000000  0.00000000  1.0
