# generated using pymatgen
data_La2Re3B7
_symmetry_space_group_name_H-M   'P 1'
_cell_length_a   7.68786174
_cell_length_b   6.79760427
_cell_length_c   11.67722049
_cell_angle_alpha   90.00000000
_cell_angle_beta   90.00000000
_cell_angle_gamma   90.00000000
_symmetry_Int_Tables_number   1
_chemical_formula_structural   La2Re3B7
_chemical_formula_sum   'La8 Re12 B28'
_cell_volume   610.24035411
_cell_formula_units_Z   4
loop_
 _symmetry_equiv_pos_site_id
 _symmetry_equiv_pos_as_xyz
  1  'x, y, z'
loop_
 _atom_site_type_symbol
 _atom_site_label
 _atom_site_symmetry_multiplicity
 _atom_site_fract_x
 _atom_site_fract_y
 _atom_site_fract_z
 _atom_site_occupancy
  La  La0  1  0.67681346  0.76361119  0.32249453  1.0
  La  La1  1  0.67681346  0.23638881  0.82249453  1.0
  La  La2  1  0.17681346  0.76361119  0.67750547  1.0
  La  La3  1  0.17681346  0.23638881  0.17750547  1.0
  La  La4  1  0.32318654  0.76361119  0.17750547  1.0
  La  La5  1  0.32318654  0.23638881  0.67750547  1.0
  La  La6  1  0.82318654  0.76361119  0.82249453  1.0
  La  La7  1  0.82318654  0.23638881  0.32249453  1.0
  Re  Re8  1  0.90869376  0.60496627  0.08030899  1.0
  Re  Re9  1  0.90869376  0.39503373  0.58030899  1.0
  Re  Re10  1  0.40869376  0.60496627  0.91969101  1.0
  Re  Re11  1  0.40869376  0.39503373  0.41969101  1.0
  Re  Re12  1  0.09130624  0.60496627  0.41969101  1.0
  Re  Re13  1  0.09130624  0.39503373  0.91969101  1.0
  Re  Re14  1  0.59130624  0.60496627  0.58030899  1.0
  Re  Re15  1  0.59130624  0.39503373  0.08030899  1.0
  Re  Re16  1  0.75000000  0.00000000  0.06828819  1.0
  Re  Re17  1  0.75000000  0.00000000  0.56828819  1.0
  Re  Re18  1  0.25000000  0.00000000  0.93171181  1.0
  Re  Re19  1  0.25000000  0.00000000  0.43171181  1.0
  B  B20  1  0.96700572  0.89610267  0.45916630  1.0
  B  B21  1  0.96700572  0.10389733  0.95916630  1.0
  B  B22  1  0.46700572  0.89610267  0.54083370  1.0
  B  B23  1  0.46700572  0.10389733  0.04083370  1.0
  B  B24  1  0.03299428  0.89610267  0.04083370  1.0
  B  B25  1  0.03299428  0.10389733  0.54083370  1.0
  B  B26  1  0.53299428  0.89610267  0.95916630  1.0
  B  B27  1  0.53299428  0.10389733  0.45916630  1.0
  B  B28  1  0.95985126  0.87693019  0.18309489  1.0
  B  B29  1  0.95985126  0.12306981  0.68309489  1.0
  B  B30  1  0.45985126  0.87693019  0.81690511  1.0
  B  B31  1  0.45985126  0.12306981  0.31690511  1.0
  B  B32  1  0.04014874  0.87693019  0.31690511  1.0
  B  B33  1  0.04014874  0.12306981  0.81690511  1.0
  B  B34  1  0.54014874  0.87693019  0.68309489  1.0
  B  B35  1  0.54014874  0.12306981  0.18309489  1.0
  B  B36  1  0.62913679  0.69801353  0.03824369  1.0
  B  B37  1  0.62913679  0.30198647  0.53824369  1.0
  B  B38  1  0.12913679  0.69801353  0.96175631  1.0
  B  B39  1  0.12913679  0.30198647  0.46175631  1.0
  B  B40  1  0.37086321  0.69801353  0.46175631  1.0
  B  B41  1  0.37086321  0.30198647  0.96175631  1.0
  B  B42  1  0.87086321  0.69801353  0.53824369  1.0
  B  B43  1  0.87086321  0.30198647  0.03824369  1.0
  B  B44  1  0.00000000  0.63368218  0.25000000  1.0
  B  B45  1  0.00000000  0.36631782  0.75000000  1.0
  B  B46  1  0.50000000  0.63368218  0.75000000  1.0
  B  B47  1  0.50000000  0.36631782  0.25000000  1.0
