# generated using pymatgen
data_Na3Sr(BO2)5
_symmetry_space_group_name_H-M   'P 1'
_cell_length_a   9.83210841
_cell_length_b   7.69357977
_cell_length_c   7.34854780
_cell_angle_alpha   117.91635847
_cell_angle_beta   108.98705249
_cell_angle_gamma   81.65789647
_symmetry_Int_Tables_number   1
_chemical_formula_structural   Na3Sr(BO2)5
_chemical_formula_sum   'Na6 Sr2 B10 O20'
_cell_volume   464.44640904
_cell_formula_units_Z   2
loop_
 _symmetry_equiv_pos_site_id
 _symmetry_equiv_pos_as_xyz
  1  'x, y, z'
loop_
 _atom_site_type_symbol
 _atom_site_label
 _atom_site_symmetry_multiplicity
 _atom_site_fract_x
 _atom_site_fract_y
 _atom_site_fract_z
 _atom_site_occupancy
  Na  Na0  1  0.45291975  0.77896268  -0.20886000  1.0
  Na  Na1  1  0.54708025  0.22103732  -0.79114000  1.0
  Na  Na2  1  0.83477349  0.99783777  -0.15773329  1.0
  Na  Na3  1  0.16522651  0.00216223  -0.84226671  1.0
  Na  Na4  1  0.11561630  0.51323440  -0.27947665  1.0
  Na  Na5  1  0.88438370  0.48676560  -0.72052335  1.0
  Sr  Sr6  1  0.22276298  0.55270088  -0.78381295  1.0
  Sr  Sr7  1  0.77723702  0.44729912  -0.21618705  1.0
  B  B8  1  0.13800425  0.84078706  -0.38167638  1.0
  B  B9  1  0.86199575  0.15921294  -0.61832362  1.0
  B  B10  1  0.62228802  0.72531463  -0.51346065  1.0
  B  B11  1  0.37771198  0.27468537  -0.48653935  1.0
  B  B12  1  0.08370192  0.17803022  -0.13693829  1.0
  B  B13  1  0.91629808  0.82196978  -0.86306171  1.0
  B  B14  1  0.70904619  0.87233635  -0.70326885  1.0
  B  B15  1  0.29095381  0.12766365  -0.29673115  1.0
  B  B16  1  0.45195367  0.74966029  -0.83755371  1.0
  B  B17  1  0.54804633  0.25033971  -0.16244629  1.0
  O  O18  1  0.64531853  0.69088157  -0.34400857  1.0
  O  O19  1  0.35468147  0.30911843  -0.65599143  1.0
  O  O20  1  0.10380966  0.65115593  -0.50033777  1.0
  O  O21  1  0.89619034  0.34884407  -0.49966223  1.0
  O  O22  1  0.06510661  0.97192747  -0.23224042  1.0
  O  O23  1  0.93489339  0.02807253  -0.76775958  1.0
  O  O24  1  0.00065602  0.29561400  -0.01571014  1.0
  O  O25  1  0.99934398  0.70438600  -0.98428986  1.0
  O  O26  1  0.25223894  0.91613701  -0.39926347  1.0
  O  O27  1  0.74776106  0.08386299  -0.60073653  1.0
  O  O28  1  0.72740166  0.81189391  -0.53502698  1.0
  O  O29  1  0.27259834  0.18810609  -0.46497302  1.0
  O  O30  1  0.19415024  0.25102493  -0.16337937  1.0
  O  O31  1  0.80584976  0.74897507  -0.83662063  1.0
  O  O32  1  0.48847825  0.67901523  -0.67941873  1.0
  O  O33  1  0.51152175  0.32098477  -0.32058127  1.0
  O  O34  1  0.55874438  0.84656222  -0.84440354  1.0
  O  O35  1  0.44125562  0.15343778  -0.15559646  1.0
  O  O36  1  0.31804351  0.72268171  -0.97074574  1.0
  O  O37  1  0.68195649  0.27731829  -0.02925426  1.0
