# generated using pymatgen
data_AsPbO4
_symmetry_space_group_name_H-M   'P 1'
_cell_length_a   4.98708389
_cell_length_b   6.02328200
_cell_length_c   6.12326162
_cell_angle_alpha   90.00000000
_cell_angle_beta   93.91873012
_cell_angle_gamma   90.00000000
_symmetry_Int_Tables_number   1
_chemical_formula_structural   AsPbO4
_chemical_formula_sum   'As2 Pb2 O8'
_cell_volume   183.50424400
_cell_formula_units_Z   2
loop_
 _symmetry_equiv_pos_site_id
 _symmetry_equiv_pos_as_xyz
  1  'x, y, z'
loop_
 _atom_site_type_symbol
 _atom_site_label
 _atom_site_symmetry_multiplicity
 _atom_site_fract_x
 _atom_site_fract_y
 _atom_site_fract_z
 _atom_site_occupancy
  Pb  Pb0  1  0.50000000  0.27224892  0.25000000  1.0
  Pb  Pb1  1  0.50000000  0.72775108  0.75000000  1.0
  As  As2  1  -0.00000000  0.74506899  0.25000000  1.0
  As  As3  1  0.00000000  0.25493101  0.75000000  1.0
  O  O4  1  0.75749749  0.59015396  0.10312315  1.0
  O  O5  1  0.75749749  0.40984604  0.60312315  1.0
  O  O6  1  0.24250251  0.59015396  0.39687685  1.0
  O  O7  1  0.24250251  0.40984604  0.89687685  1.0
  O  O8  1  0.81700003  0.91318118  0.42356963  1.0
  O  O9  1  0.81700003  0.08681882  0.92356963  1.0
  O  O10  1  0.18299997  0.91318118  0.07643037  1.0
  O  O11  1  0.18299997  0.08681882  0.57643037  1.0
