# generated using pymatgen
data_CrBr3
_symmetry_space_group_name_H-M   'P 1'
_cell_length_a   7.89150695
_cell_length_b   7.89150695
_cell_length_c   7.89150695
_cell_angle_alpha   48.21749161
_cell_angle_beta   48.21749161
_cell_angle_gamma   48.21749161
_symmetry_Int_Tables_number   1
_chemical_formula_structural   CrBr3
_chemical_formula_sum   'Cr2 Br6'
_cell_volume   250.46714012
_cell_formula_units_Z   2
loop_
 _symmetry_equiv_pos_site_id
 _symmetry_equiv_pos_as_xyz
  1  'x, y, z'
loop_
 _atom_site_type_symbol
 _atom_site_label
 _atom_site_symmetry_multiplicity
 _atom_site_fract_x
 _atom_site_fract_y
 _atom_site_fract_z
 _atom_site_occupancy
  Cr  Cr0  1  0.16664583  0.16664583  0.16664583  1.0
  Cr  Cr1  1  0.83335417  -0.16664583  -0.16664583  1.0
  Br  Br2  1  0.43131586  0.07197771  -0.20977362  1.0
  Br  Br3  1  0.20977362  0.56868414  -0.07197771  1.0
  Br  Br4  1  0.92802229  0.20977362  -0.43131586  1.0
  Br  Br5  1  0.56868414  0.92802229  -0.79022638  1.0
  Br  Br6  1  0.79022638  -0.56868414  0.07197771  1.0
  Br  Br7  1  1.07197771  -0.20977362  -0.56868414  1.0
