# generated using pymatgen
data_Lu2Mo2C3
_symmetry_space_group_name_H-M   'P 1'
_cell_length_a   5.95686378
_cell_length_b   5.95686378
_cell_length_c   5.61070766
_cell_angle_alpha   70.03357980
_cell_angle_beta   109.96642020
_cell_angle_gamma   147.96002047
_symmetry_Int_Tables_number   1
_chemical_formula_structural   Lu2Mo2C3
_chemical_formula_sum   'Lu2 Mo2 C3'
_cell_volume   98.73016069
_cell_formula_units_Z   1
loop_
 _symmetry_equiv_pos_site_id
 _symmetry_equiv_pos_as_xyz
  1  'x, y, z'
loop_
 _atom_site_type_symbol
 _atom_site_label
 _atom_site_symmetry_multiplicity
 _atom_site_fract_x
 _atom_site_fract_y
 _atom_site_fract_z
 _atom_site_occupancy
  Lu  Lu0  1  0.61141696  -0.61141696  0.82998595  1.0
  Lu  Lu1  1  1.38858304  -0.38858304  0.17001405  1.0
  Mo  Mo2  1  0.84480478  -0.84480478  0.67126036  1.0
  Mo  Mo3  1  1.15519522  -0.15519522  0.32873964  1.0
  C  C4  1  0.00000000  0.00000000  0.00000000  1.0
  C  C5  1  0.75321335  -0.75321335  0.26180392  1.0
  C  C6  1  1.24678665  -0.24678665  0.73819608  1.0
