# generated using pymatgen
data_Ba5Yb8Zn4O21
_symmetry_space_group_name_H-M   'P 1'
_cell_length_a   10.17934325
_cell_length_b   10.17934325
_cell_length_c   10.17934325
_cell_angle_alpha   94.51062034
_cell_angle_beta   94.51062034
_cell_angle_gamma   147.42764293
_symmetry_Int_Tables_number   1
_chemical_formula_structural   Ba5Yb8Zn4O21
_chemical_formula_sum   'Ba5 Yb8 Zn4 O21'
_cell_volume   545.06622355
_cell_formula_units_Z   1
loop_
 _symmetry_equiv_pos_site_id
 _symmetry_equiv_pos_as_xyz
  1  'x, y, z'
loop_
 _atom_site_type_symbol
 _atom_site_label
 _atom_site_symmetry_multiplicity
 _atom_site_fract_x
 _atom_site_fract_y
 _atom_site_fract_z
 _atom_site_occupancy
  Ba  Ba0  1  0.86002102  0.53408850  0.39410952  1.0
  Ba  Ba1  1  0.53408850  0.13997898  0.67406748  1.0
  Ba  Ba2  1  1.13997898  1.46591150  1.60589048  1.0
  Ba  Ba3  1  0.46591150  0.86002102  1.32593252  1.0
  Ba  Ba4  1  0.00000000  0.00000000  0.00000000  1.0
  Yb  Yb5  1  0.75087637  0.83252462  1.58340099  1.0
  Yb  Yb6  1  0.83252462  1.24912363  1.08164825  1.0
  Yb  Yb7  1  0.24912363  0.16747538  0.41659901  1.0
  Yb  Yb8  1  1.16747538  0.75087637  0.91835175  1.0
  Yb  Yb9  1  0.58874623  0.64092248  1.22966870  1.0
  Yb  Yb10  1  0.64092248  1.41125377  1.05217625  1.0
  Yb  Yb11  1  0.41125377  0.35907752  0.77033130  1.0
  Yb  Yb12  1  1.35907752  0.58874623  0.94782375  1.0
  Zn  Zn13  1  0.95852811  0.74930719  0.70783530  1.0
  Zn  Zn14  1  0.74930719  0.04147189  0.79077908  1.0
  Zn  Zn15  1  1.04147189  1.25069281  1.29216470  1.0
  Zn  Zn16  1  0.25069281  0.95852811  1.20922092  1.0
  O  O17  1  1.10023630  0.99099135  0.59458679  1.0
  O  O18  1  0.60359543  0.49435048  0.59458679  1.0
  O  O19  1  0.99099135  0.39640457  0.89075505  1.0
  O  O20  1  1.49435048  0.89976370  0.89075505  1.0
  O  O21  1  1.39640457  1.50564952  1.40541321  1.0
  O  O22  1  0.89976370  1.00900865  1.40541321  1.0
  O  O23  1  0.50564952  1.10023630  1.10924495  1.0
  O  O24  1  1.00900865  1.60359543  1.10924495  1.0
  O  O25  1  1.07151491  1.20255181  1.77451251  1.0
  O  O26  1  1.57196071  1.70299760  1.77451251  1.0
  O  O27  1  1.20255181  1.42803929  1.13103690  1.0
  O  O28  1  0.70299760  0.92848509  1.13103690  1.0
  O  O29  1  0.42803929  0.29700240  0.22548749  1.0
  O  O30  1  0.92848509  0.79744819  0.22548749  1.0
  O  O31  1  1.29700240  1.07151491  0.86896310  1.0
  O  O32  1  0.79744819  0.57196071  0.86896310  1.0
  O  O33  1  0.62754909  0.96352290  1.59107199  1.0
  O  O34  1  0.96352290  1.37245091  1.33597381  1.0
  O  O35  1  0.37245091  0.03647710  0.40892801  1.0
  O  O36  1  1.03647710  0.62754909  0.66402619  1.0
  O  O37  1  0.50000000  0.50000000  -0.00000000  1.0
