# generated using pymatgen
data_Ag2TeO6
_symmetry_space_group_name_H-M   'P 1'
_cell_length_a   10.21142698
_cell_length_b   5.42711497
_cell_length_c   9.67938566
_cell_angle_alpha   79.65261924
_cell_angle_beta   31.52235717
_cell_angle_gamma   68.82502359
_symmetry_Int_Tables_number   1
_chemical_formula_structural   Ag2TeO6
_chemical_formula_sum   'Ag4 Te2 O12'
_cell_volume   252.30202497
_cell_formula_units_Z   2
loop_
 _symmetry_equiv_pos_site_id
 _symmetry_equiv_pos_as_xyz
  1  'x, y, z'
loop_
 _atom_site_type_symbol
 _atom_site_label
 _atom_site_symmetry_multiplicity
 _atom_site_fract_x
 _atom_site_fract_y
 _atom_site_fract_z
 _atom_site_occupancy
  Ag  Ag0  1  0.68263321  0.48207798  0.46024353  1.0
  Ag  Ag1  1  0.78975647  -0.12504528  0.56736679  1.0
  Ag  Ag2  1  1.48207798  -0.31736679  0.37504528  1.0
  Ag  Ag3  1  0.87495472  -0.21024353  0.76792202  1.0
  Te  Te4  1  0.98197944  -0.01802056  0.01802056  1.0
  Te  Te5  1  1.23197944  0.23197944  0.26802056  1.0
  O  O6  1  0.07215486  0.39134602  1.57998110  1.0
  O  O7  1  0.67001890  0.29348199  1.17784514  1.0
  O  O8  1  0.39134602  0.07215486  0.95651801  1.0
  O  O9  1  0.29348199  0.67001890  0.85865398  1.0
  O  O10  1  0.86196627  0.28993916  0.51865281  1.0
  O  O11  1  0.73134719  -0.07944176  0.38803373  1.0
  O  O12  1  1.28993916  -0.13803373  0.32944176  1.0
  O  O13  1  0.92055824  -0.26865281  0.96006084  1.0
  O  O14  1  1.25528239  0.03842066  0.63933195  1.0
  O  O15  1  0.61066805  0.18303499  0.99471761  1.0
  O  O16  1  1.03842066  0.25528239  0.06696501  1.0
  O  O17  1  0.18303499  0.61066805  1.21157934  1.0
