# generated using pymatgen
data_NaOsO3
_symmetry_space_group_name_H-M   'P 1'
_cell_length_a   5.42008032
_cell_length_b   7.62753921
_cell_length_c   5.37798446
_cell_angle_alpha   90.00000000
_cell_angle_beta   90.00000000
_cell_angle_gamma   90.00000000
_symmetry_Int_Tables_number   1
_chemical_formula_structural   NaOsO3
_chemical_formula_sum   'Na4 Os4 O12'
_cell_volume   222.33596222
_cell_formula_units_Z   4
loop_
 _symmetry_equiv_pos_site_id
 _symmetry_equiv_pos_as_xyz
  1  'x, y, z'
loop_
 _atom_site_type_symbol
 _atom_site_label
 _atom_site_symmetry_multiplicity
 _atom_site_fract_x
 _atom_site_fract_y
 _atom_site_fract_z
 _atom_site_occupancy
  Na  Na0  1  0.52793095  0.25000000  0.50925376  1.0
  Na  Na1  1  0.02793095  0.25000000  0.99074624  1.0
  Na  Na2  1  0.47206905  0.75000000  0.49074624  1.0
  Na  Na3  1  0.97206905  0.75000000  0.00925376  1.0
  Os  Os4  1  0.50000000  0.00000000  0.00000000  1.0
  Os  Os5  1  0.00000000  0.50000000  0.50000000  1.0
  Os  Os6  1  0.50000000  0.50000000  0.00000000  1.0
  Os  Os7  1  0.00000000  0.00000000  0.50000000  1.0
  O  O8  1  0.99395219  0.25000000  0.41890112  1.0
  O  O9  1  0.49395219  0.25000000  0.08109888  1.0
  O  O10  1  0.00604781  0.75000000  0.58109888  1.0
  O  O11  1  0.50604781  0.75000000  0.91890112  1.0
  O  O12  1  0.78113752  0.03842955  0.78205734  1.0
  O  O13  1  0.28113752  0.46157045  0.71794266  1.0
  O  O14  1  0.21886248  0.53842955  0.21794266  1.0
  O  O15  1  0.71886248  0.96157045  0.28205734  1.0
  O  O16  1  0.21886248  0.96157045  0.21794266  1.0
  O  O17  1  0.71886248  0.53842955  0.28205734  1.0
  O  O18  1  0.78113752  0.46157045  0.78205734  1.0
  O  O19  1  0.28113752  0.03842955  0.71794266  1.0
