# generated using pymatgen
data_La2Cd(SeO)2
_symmetry_space_group_name_H-M   'P 1'
_cell_length_a   4.09775304
_cell_length_b   4.09775304
_cell_length_c   18.87668625
_cell_angle_alpha   90.00000000
_cell_angle_beta   90.00000000
_cell_angle_gamma   90.00000000
_symmetry_Int_Tables_number   1
_chemical_formula_structural   La2Cd(SeO)2
_chemical_formula_sum   'La4 Cd2 Se4 O4'
_cell_volume   316.96938748
_cell_formula_units_Z   2
loop_
 _symmetry_equiv_pos_site_id
 _symmetry_equiv_pos_as_xyz
  1  'x, y, z'
loop_
 _atom_site_type_symbol
 _atom_site_label
 _atom_site_symmetry_multiplicity
 _atom_site_fract_x
 _atom_site_fract_y
 _atom_site_fract_z
 _atom_site_occupancy
  La  La0  1  0.50000000  0.00000000  0.81509709  1.0
  La  La1  1  0.00000000  0.50000000  0.68490291  1.0
  La  La2  1  0.50000000  0.00000000  0.31509709  1.0
  La  La3  1  0.00000000  0.50000000  0.18490291  1.0
  Cd  Cd4  1  0.00000000  0.00000000  0.00000000  1.0
  Cd  Cd5  1  0.50000000  0.50000000  0.50000000  1.0
  Se  Se6  1  0.50000000  0.00000000  0.09281467  1.0
  Se  Se7  1  0.00000000  0.50000000  0.40718533  1.0
  Se  Se8  1  0.50000000  0.00000000  0.59281467  1.0
  Se  Se9  1  0.00000000  0.50000000  0.90718533  1.0
  O  O10  1  0.00000000  0.00000000  0.75109582  1.0
  O  O11  1  0.50000000  0.50000000  0.74890418  1.0
  O  O12  1  0.50000000  0.50000000  0.25109582  1.0
  O  O13  1  0.00000000  0.00000000  0.24890418  1.0
