# generated using pymatgen
data_NaCdP2NO10
_symmetry_space_group_name_H-M   'P 1'
_cell_length_a   9.75975777
_cell_length_b   9.75975777
_cell_length_c   5.99125453
_cell_angle_alpha   82.62300561
_cell_angle_beta   97.37699439
_cell_angle_gamma   60.90685522
_symmetry_Int_Tables_number   1
_chemical_formula_structural   NaCdP2NO10
_chemical_formula_sum   'Na2 Cd2 P4 N2 O20'
_cell_volume   482.41413752
_cell_formula_units_Z   2
loop_
 _symmetry_equiv_pos_site_id
 _symmetry_equiv_pos_as_xyz
  1  'x, y, z'
loop_
 _atom_site_type_symbol
 _atom_site_label
 _atom_site_symmetry_multiplicity
 _atom_site_fract_x
 _atom_site_fract_y
 _atom_site_fract_z
 _atom_site_occupancy
  Na  Na0  1  0.64038392  -0.48712689  0.84403384  1.0
  Na  Na1  1  1.48712689  0.35961608  0.34403384  1.0
  O  O2  1  1.28790341  0.32755031  0.58544409  1.0
  O  O3  1  0.67244969  -0.28790341  0.08544409  1.0
  O  O4  1  0.93143387  0.03155312  0.61970297  1.0
  O  O5  1  0.96844688  0.06856613  0.11970297  1.0
  O  O6  1  0.81609456  -0.83294235  0.57435415  1.0
  O  O7  1  1.83294235  0.18390544  0.07435415  1.0
  O  O8  1  0.93369676  -0.57032134  0.82010384  1.0
  O  O9  1  1.57032134  0.06630324  0.32010384  1.0
  O  O10  1  1.15990457  0.59905692  0.70884526  1.0
  O  O11  1  0.40094308  -0.15990457  0.20884526  1.0
  O  O12  1  1.55655576  0.01669268  0.94147904  1.0
  O  O13  1  0.98330732  -0.55655576  0.44147904  1.0
  O  O14  1  1.14379558  0.19878482  0.77760919  1.0
  O  O15  1  0.80121518  -0.14379558  0.27760919  1.0
  O  O16  1  0.82312229  -0.18733810  0.86980748  1.0
  O  O17  1  1.18733810  0.17687771  0.36980748  1.0
  O  O18  1  1.46029798  0.43672364  0.70726488  1.0
  O  O19  1  0.56327636  -0.46029798  0.20726488  1.0
  O  O20  1  0.65298869  -0.33960627  0.51247488  1.0
  O  O21  1  1.33960627  0.34701131  1.01247488  1.0
  N  N22  1  1.17649536  0.68386418  0.19082734  1.0
  N  N23  1  0.31613582  -0.17649536  0.69082734  1.0
  Cd  Cd24  1  0.89819501  -0.33305879  0.60745381  1.0
  Cd  Cd25  1  1.33305879  0.10180499  0.10745382  1.0
  P  P26  1  1.31410059  0.43362814  0.76253033  1.0
  P  P27  1  0.56637186  -0.31410059  0.26253033  1.0
  P  P28  1  1.14504304  0.28495131  0.54106890  1.0
  P  P29  1  0.71504869  -0.14504304  0.04106890  1.0
