# generated using pymatgen
data_TlV4O10
_symmetry_space_group_name_H-M   'P 1'
_cell_length_a   5.98918256
_cell_length_b   5.98918256
_cell_length_c   10.42770888
_cell_angle_alpha   80.67320083
_cell_angle_beta   99.32679917
_cell_angle_gamma   144.35922025
_symmetry_Int_Tables_number   1
_chemical_formula_structural   TlV4O10
_chemical_formula_sum   'Tl1 V4 O10'
_cell_volume   214.77533719
_cell_formula_units_Z   1
loop_
 _symmetry_equiv_pos_site_id
 _symmetry_equiv_pos_as_xyz
  1  'x, y, z'
loop_
 _atom_site_type_symbol
 _atom_site_label
 _atom_site_symmetry_multiplicity
 _atom_site_fract_x
 _atom_site_fract_y
 _atom_site_fract_z
 _atom_site_occupancy
  Tl  Tl0  1  0.50000000  0.50000000  0.50000000  1.0
  O  O1  1  0.61837932  0.38162068  0.13137851  1.0
  O  O2  1  0.38162068  -0.38162068  0.86862149  1.0
  O  O3  1  0.90080137  0.09919863  0.67837192  1.0
  O  O4  1  0.09919863  -0.09919863  0.32162808  1.0
  O  O5  1  0.93439998  0.06560002  0.10564034  1.0
  O  O6  1  0.06560002  -0.06560002  0.89435966  1.0
  O  O7  1  0.73944672  0.26055328  0.87210846  1.0
  O  O8  1  0.26055328  -0.26055328  0.12789154  1.0
  O  O9  1  0.83825852  0.16174148  0.32413516  1.0
  O  O10  1  0.16174148  -0.16174148  0.67586484  1.0
  V  V11  1  0.90772518  0.09227482  0.83384845  1.0
  V  V12  1  0.09227482  -0.09227482  0.16615155  1.0
  V  V13  1  0.79638112  0.20361888  0.16900959  1.0
  V  V14  1  0.20361888  -0.20361888  0.83099041  1.0
