# generated using pymatgen
data_SbH3CS2N
_symmetry_space_group_name_H-M   'P 1'
_cell_length_a   9.58211554
_cell_length_b   8.19177748
_cell_length_c   8.63834264
_cell_angle_alpha   106.73148688
_cell_angle_beta   94.18375564
_cell_angle_gamma   92.34373213
_symmetry_Int_Tables_number   1
_chemical_formula_structural   SbH3CS2N
_chemical_formula_sum   'Sb4 H12 C4 S8 N4'
_cell_volume   646.26490556
_cell_formula_units_Z   4
loop_
 _symmetry_equiv_pos_site_id
 _symmetry_equiv_pos_as_xyz
  1  'x, y, z'
loop_
 _atom_site_type_symbol
 _atom_site_label
 _atom_site_symmetry_multiplicity
 _atom_site_fract_x
 _atom_site_fract_y
 _atom_site_fract_z
 _atom_site_occupancy
  C  C0  1  -0.74798321  -1.10137365  -0.31615115  1.0
  C  C1  1  -0.25201679  0.10137365  -0.68384885  1.0
  C  C2  1  -0.94602253  -1.02688651  -0.67497913  1.0
  C  C3  1  -0.05397747  0.02688651  -0.32502087  1.0
  S  S4  1  -0.38353092  -0.75620522  -0.32131251  1.0
  S  S5  1  -0.61646908  -0.24379478  -0.67868749  1.0
  S  S6  1  -0.05617186  -0.58663458  -0.37039708  1.0
  S  S7  1  -0.94382814  -0.41336542  -0.62960292  1.0
  S  S8  1  -0.15719044  -0.34765162  -0.94274687  1.0
  S  S9  1  -0.84280956  -0.65234838  -0.05725313  1.0
  S  S10  1  -0.40489314  -0.28255169  -0.33565151  1.0
  S  S11  1  -0.59510686  -0.71744831  -0.66434849  1.0
  N  N12  1  -0.67891341  -0.95790181  -0.27236351  1.0
  N  N13  1  -0.32108659  -0.04209819  -0.72763649  1.0
  N  N14  1  -0.89435351  -0.87436957  -0.62907742  1.0
  N  N15  1  -0.10564649  -0.12563043  -0.37092258  1.0
  H  H16  1  -0.72368408  -0.85007227  -0.19611492  1.0
  H  H17  1  -0.27631592  -0.14992773  -0.80388508  1.0
  H  H18  1  -0.85420431  -0.70927221  -0.92599478  1.0
  H  H19  1  -0.14579569  -0.29072779  -0.07400522  1.0
  H  H20  1  -0.79564490  -0.83048882  -0.65738281  1.0
  H  H21  1  -0.20435510  -0.16951118  -0.34261719  1.0
  H  H22  1  -0.59137677  -0.65838409  -0.79532508  1.0
  H  H23  1  -0.40862323  -0.34161591  -0.20467492  1.0
  H  H24  1  -0.94806350  -0.77854133  -0.54943082  1.0
  H  H25  1  -0.05193650  -0.22145867  -0.45056918  1.0
  H  H26  1  -0.58106167  -0.93134996  -0.30987416  1.0
  H  H27  1  -0.41893833  -0.06865004  -0.69012584  1.0
  Sb  Sb28  1  -0.31108480  -0.63092640  -0.52742731  1.0
  Sb  Sb29  1  -0.68891520  -0.36907360  -0.47257269  1.0
  Sb  Sb30  1  -0.12359493  -0.72174859  -0.16693485  1.0
  Sb  Sb31  1  -0.87640507  -0.27825141  -0.83306515  1.0
