# generated using pymatgen
data_RbCdAg3(CN)6
_symmetry_space_group_name_H-M   'P 1'
_cell_length_a   7.38690480
_cell_length_b   7.38690480
_cell_length_c   8.13544873
_cell_angle_alpha   90.00000000
_cell_angle_beta   90.00000000
_cell_angle_gamma   120.00000000
_symmetry_Int_Tables_number   1
_chemical_formula_structural   RbCdAg3(CN)6
_chemical_formula_sum   'Rb1 Cd1 Ag3 C6 N6'
_cell_volume   384.44759510
_cell_formula_units_Z   1
loop_
 _symmetry_equiv_pos_site_id
 _symmetry_equiv_pos_as_xyz
  1  'x, y, z'
loop_
 _atom_site_type_symbol
 _atom_site_label
 _atom_site_symmetry_multiplicity
 _atom_site_fract_x
 _atom_site_fract_y
 _atom_site_fract_z
 _atom_site_occupancy
  Rb  Rb0  1  0.00000000  0.00000000  0.00000000  1.0
  Cd  Cd1  1  0.66666667  0.33333333  -0.00000000  1.0
  Ag  Ag2  1  0.18491479  0.81508521  0.50000000  1.0
  Ag  Ag3  1  0.18491479  0.36982957  0.50000000  1.0
  Ag  Ag4  1  0.63017043  0.81508521  0.50000000  1.0
  C  C5  1  0.33041930  0.97968383  0.29181193  1.0
  C  C6  1  0.02031617  0.35073546  0.29181193  1.0
  C  C7  1  0.64926454  0.66958070  0.29181193  1.0
  C  C8  1  0.02031617  0.66958070  0.70818807  1.0
  C  C9  1  0.64926454  0.97968383  0.70818807  1.0
  C  C10  1  0.33041930  0.35073546  0.70818807  1.0
  N  N11  1  0.41044263  0.07822749  0.17400753  1.0
  N  N12  1  0.92177251  0.33221515  0.17400753  1.0
  N  N13  1  0.66778485  0.58955737  0.17400753  1.0
  N  N14  1  0.92177251  0.58955737  0.82599247  1.0
  N  N15  1  0.66778485  0.07822749  0.82599247  1.0
  N  N16  1  0.41044263  0.33221515  0.82599247  1.0
