# generated using pymatgen
data_NaCaH3
_symmetry_space_group_name_H-M   'P 1'
_cell_length_a   3.63470759
_cell_length_b   6.83894710
_cell_length_c   6.88125683
_cell_angle_alpha   117.23087520
_cell_angle_beta   99.61355745
_cell_angle_gamma   95.32094223
_symmetry_Int_Tables_number   1
_chemical_formula_structural   NaCaH3
_chemical_formula_sum   'Na2 Ca2 H6'
_cell_volume   147.14004348
_cell_formula_units_Z   2
loop_
 _symmetry_equiv_pos_site_id
 _symmetry_equiv_pos_as_xyz
  1  'x, y, z'
loop_
 _atom_site_type_symbol
 _atom_site_label
 _atom_site_symmetry_multiplicity
 _atom_site_fract_x
 _atom_site_fract_y
 _atom_site_fract_z
 _atom_site_occupancy
  Na  Na0  1  0.98760380  0.72673871  0.26163312  1.0
  Na  Na1  1  0.01239620  0.27326129  0.73836688  1.0
  Ca  Ca2  1  0.37062906  0.24833141  0.20996702  1.0
  Ca  Ca3  1  0.62937094  0.75166859  0.79003298  1.0
  H  H4  1  0.48283683  0.35035064  0.58154494  1.0
  H  H5  1  0.51716317  0.64964936  0.41845506  1.0
  H  H6  1  0.17883182  0.98361773  0.81603741  1.0
  H  H7  1  0.82116818  0.01638227  0.18396259  1.0
  H  H8  1  0.15862281  0.65403941  0.92575847  1.0
  H  H9  1  0.84137719  0.34596059  0.07424153  1.0
