# generated using pymatgen
data_TlCrSe2
_symmetry_space_group_name_H-M   'P 1'
_cell_length_a   9.50480551
_cell_length_b   9.50480551
_cell_length_c   9.50480551
_cell_angle_alpha   21.62833779
_cell_angle_beta   21.62833779
_cell_angle_gamma   21.62833779
_symmetry_Int_Tables_number   1
_chemical_formula_structural   TlCrSe2
_chemical_formula_sum   'Tl1 Cr1 Se2'
_cell_volume   102.22542209
_cell_formula_units_Z   1
loop_
 _symmetry_equiv_pos_site_id
 _symmetry_equiv_pos_as_xyz
  1  'x, y, z'
loop_
 _atom_site_type_symbol
 _atom_site_label
 _atom_site_symmetry_multiplicity
 _atom_site_fract_x
 _atom_site_fract_y
 _atom_site_fract_z
 _atom_site_occupancy
  Tl  Tl0  1  0.89260805  -0.10739195  -0.10739195  1.0
  Cr  Cr1  1  0.39259644  0.39259644  -0.60740356  1.0
  Se  Se2  1  0.00796133  0.00796133  0.00796133  1.0
  Se  Se3  1  0.77723418  -0.22276582  -0.22276582  1.0
