# generated using pymatgen
data_RbSb2PO8
_symmetry_space_group_name_H-M   'P 1'
_cell_length_a   7.33677093
_cell_length_b   7.33677093
_cell_length_c   15.31380919
_cell_angle_alpha   84.17460666
_cell_angle_beta   95.82539334
_cell_angle_gamma   120.91656282
_symmetry_Int_Tables_number   1
_chemical_formula_structural   RbSb2PO8
_chemical_formula_sum   'Rb4 Sb8 P4 O32'
_cell_volume   702.36418677
_cell_formula_units_Z   4
loop_
 _symmetry_equiv_pos_site_id
 _symmetry_equiv_pos_as_xyz
  1  'x, y, z'
loop_
 _atom_site_type_symbol
 _atom_site_label
 _atom_site_symmetry_multiplicity
 _atom_site_fract_x
 _atom_site_fract_y
 _atom_site_fract_z
 _atom_site_occupancy
  Rb  Rb0  1  0.68272781  0.07764161  0.57986865  1.0
  Rb  Rb1  1  0.92235839  0.31727219  0.07986865  1.0
  Rb  Rb2  1  0.74321119  0.01722442  0.85599108  1.0
  Rb  Rb3  1  0.98277558  0.25678881  0.35599108  1.0
  Sb  Sb4  1  0.71007899  0.54665454  0.72147197  1.0
  Sb  Sb5  1  0.45334546  0.28992101  0.22147197  1.0
  Sb  Sb6  1  1.02400435  0.71298658  0.53164111  1.0
  Sb  Sb7  1  0.28701342  -0.02400435  0.03164111  1.0
  Sb  Sb8  1  0.37852239  0.35852737  0.90413909  1.0
  Sb  Sb9  1  0.64147263  0.62147761  0.40413909  1.0
  Sb  Sb10  1  0.21216119  0.04458097  0.71429699  1.0
  Sb  Sb11  1  0.95541903  0.78783881  0.21429699  1.0
  P  P12  1  1.12222128  0.65590279  0.86142898  1.0
  P  P13  1  0.34409721  -0.12222128  0.36142898  1.0
  P  P14  1  1.32138819  0.45671678  0.57433385  1.0
  P  P15  1  0.54328322  -0.32138819  0.07433385  1.0
  O  O16  1  0.83667804  0.83462702  0.49376528  1.0
  O  O17  1  0.16537298  0.16332196  -0.00623472  1.0
  O  O18  1  0.58178862  0.57794874  0.82329776  1.0
  O  O19  1  0.42205126  0.41821138  0.32329776  1.0
  O  O20  1  0.89627869  0.86156851  0.71485117  1.0
  O  O21  1  0.13843149  0.10372131  0.21485117  1.0
  O  O22  1  0.52707542  0.23077729  0.72090899  1.0
  O  O23  1  0.76922271  0.47292458  0.22090899  1.0
  O  O24  1  1.08325669  0.75831645  0.93627560  1.0
  O  O25  1  0.24168355  -0.08325669  0.43627560  1.0
  O  O26  1  0.50021659  0.17124604  0.94203423  1.0
  O  O27  1  0.82875396  0.49978341  0.44203423  1.0
  O  O28  1  0.85209469  0.51122688  0.62723166  1.0
  O  O29  1  0.48877312  0.14790531  0.12723166  1.0
  O  O30  1  1.08358230  0.75655412  0.11242557  1.0
  O  O31  1  0.24344588  -0.08358230  0.61242557  1.0
  O  O32  1  0.90570916  0.49564362  0.81504631  1.0
  O  O33  1  0.50435638  0.09429084  0.31504631  1.0
  O  O34  1  1.16921788  0.72770559  0.29402588  1.0
  O  O35  1  0.27229441  -0.16921788  0.79402588  1.0
  O  O36  1  1.18601274  0.55243375  0.53260799  1.0
  O  O37  1  0.44756625  -0.18601274  0.03260799  1.0
  O  O38  1  1.21787572  0.52047099  0.90315329  1.0
  O  O39  1  0.47952901  -0.21787572  0.40315329  1.0
  O  O40  1  1.39319670  0.50365970  0.14170835  1.0
  O  O41  1  0.49634030  -0.39319670  0.64170835  1.0
  O  O42  1  1.16112104  0.24026712  0.62074953  1.0
  O  O43  1  0.75973288  -0.16112104  0.12074953  1.0
  O  O44  1  1.17673857  0.18649879  0.80857723  1.0
  O  O45  1  0.81350121  -0.17673857  0.30857723  1.0
  O  O46  1  0.42370938  0.41768792  0.49946944  1.0
  O  O47  1  0.58231208  0.57629062  -0.00053056  1.0
