# generated using pymatgen
data_CaMg3Al4O12
_symmetry_space_group_name_H-M   'P 1'
_cell_length_a   5.43219578
_cell_length_b   5.43219578
_cell_length_c   9.69773024
_cell_angle_alpha   84.21476127
_cell_angle_beta   95.78523873
_cell_angle_gamma   59.51015846
_symmetry_Int_Tables_number   1
_chemical_formula_structural   CaMg3Al4O12
_chemical_formula_sum   'Ca1 Mg3 Al4 O12'
_cell_volume   241.45651301
_cell_formula_units_Z   1
loop_
 _symmetry_equiv_pos_site_id
 _symmetry_equiv_pos_as_xyz
  1  'x, y, z'
loop_
 _atom_site_type_symbol
 _atom_site_label
 _atom_site_symmetry_multiplicity
 _atom_site_fract_x
 _atom_site_fract_y
 _atom_site_fract_z
 _atom_site_occupancy
  Ca  Ca0  1  0.50000000  -0.50000000  -0.00000000  1.0
  Mg  Mg1  1  0.68144719  -0.31855281  0.50000000  1.0
  Mg  Mg2  1  0.31855281  0.31855281  0.50000000  1.0
  Mg  Mg3  1  0.00000000  -0.00000000  0.50000000  1.0
  Al  Al4  1  1.08976205  -0.75878181  0.80183345  1.0
  Al  Al5  1  0.75878181  -0.08976205  0.80183345  1.0
  Al  Al6  1  0.24121819  0.08976205  0.19816655  1.0
  Al  Al7  1  0.91023795  -0.24121819  0.19816655  1.0
  O  O8  1  0.82031561  -0.44267270  0.85788387  1.0
  O  O9  1  0.44267270  0.17968439  0.85788387  1.0
  O  O10  1  0.55732730  -0.17968439  0.14211613  1.0
  O  O11  1  1.17968439  -0.55732730  0.14211613  1.0
  O  O12  1  1.03715748  -0.71089057  0.61459323  1.0
  O  O13  1  0.71089057  -0.03715748  0.61459323  1.0
  O  O14  1  0.28910943  0.03715748  0.38540677  1.0
  O  O15  1  0.96284252  -0.28910943  0.38540677  1.0
  O  O16  1  0.06686634  -0.06686634  0.86398117  1.0
  O  O17  1  0.93313366  -0.93313366  0.13601883  1.0
  O  O18  1  0.38830164  -0.38830164  0.58890531  1.0
  O  O19  1  0.61169836  -0.61169836  0.41109469  1.0
