# generated using pymatgen
data_Na4SiSe4
_symmetry_space_group_name_H-M   'P 1'
_cell_length_a   14.49036933
_cell_length_b   9.28226767
_cell_length_c   7.22427678
_cell_angle_alpha   90.00000000
_cell_angle_beta   90.00000000
_cell_angle_gamma   90.00000000
_symmetry_Int_Tables_number   1
_chemical_formula_structural   Na4SiSe4
_chemical_formula_sum   'Na16 Si4 Se16'
_cell_volume   971.69041745
_cell_formula_units_Z   4
loop_
 _symmetry_equiv_pos_site_id
 _symmetry_equiv_pos_as_xyz
  1  'x, y, z'
loop_
 _atom_site_type_symbol
 _atom_site_label
 _atom_site_symmetry_multiplicity
 _atom_site_fract_x
 _atom_site_fract_y
 _atom_site_fract_z
 _atom_site_occupancy
  Na  Na0  1  0.76765809  0.94809875  0.35721039  1.0
  Na  Na1  1  0.76765809  0.55190125  0.35721039  1.0
  Na  Na2  1  0.26765809  0.94809875  0.14278961  1.0
  Na  Na3  1  0.26765809  0.55190125  0.14278961  1.0
  Na  Na4  1  0.23234191  0.44809875  0.64278961  1.0
  Na  Na5  1  0.23234191  0.05190125  0.64278961  1.0
  Na  Na6  1  0.73234191  0.44809875  0.85721039  1.0
  Na  Na7  1  0.73234191  0.05190125  0.85721039  1.0
  Na  Na8  1  0.95115264  0.25000000  0.48451928  1.0
  Na  Na9  1  0.45115264  0.25000000  1.01548072  1.0
  Na  Na10  1  0.04884736  0.75000000  0.51548072  1.0
  Na  Na11  1  0.54884736  0.75000000  -0.01548072  1.0
  Na  Na12  1  0.00000000  0.50000000  -0.00000000  1.0
  Na  Na13  1  0.00000000  0.00000000  0.00000000  1.0
  Na  Na14  1  0.50000000  0.50000000  0.50000000  1.0
  Na  Na15  1  0.50000000  0.00000000  0.50000000  1.0
  Si  Si16  1  0.66445099  0.25000000  0.27607295  1.0
  Si  Si17  1  0.16445099  0.25000000  0.22392705  1.0
  Si  Si18  1  0.33554901  0.75000000  0.72392705  1.0
  Si  Si19  1  0.83554901  0.75000000  0.77607295  1.0
  Se  Se20  1  0.59484865  0.45215530  0.15559873  1.0
  Se  Se21  1  0.59484865  0.04784470  0.15559873  1.0
  Se  Se22  1  0.09484865  0.45215530  0.34440127  1.0
  Se  Se23  1  0.09484865  0.04784470  0.34440127  1.0
  Se  Se24  1  0.40515135  0.95215530  0.84440127  1.0
  Se  Se25  1  0.40515135  0.54784470  0.84440127  1.0
  Se  Se26  1  0.90515135  0.95215530  0.65559873  1.0
  Se  Se27  1  0.90515135  0.54784470  0.65559873  1.0
  Se  Se28  1  0.81592815  0.25000000  0.17679658  1.0
  Se  Se29  1  0.31592815  0.25000000  0.32320342  1.0
  Se  Se30  1  0.18407185  0.75000000  0.82320342  1.0
  Se  Se31  1  0.68407185  0.75000000  0.67679658  1.0
  Se  Se32  1  0.63973571  0.25000000  0.59013077  1.0
  Se  Se33  1  0.13973571  0.25000000  0.90986923  1.0
  Se  Se34  1  0.36026429  0.75000000  0.40986923  1.0
  Se  Se35  1  0.86026429  0.75000000  0.09013077  1.0
