# generated using pymatgen
data_CsBaPS4
_symmetry_space_group_name_H-M   'P 1'
_cell_length_a   12.09421922
_cell_length_b   6.93643194
_cell_length_c   10.11607101
_cell_angle_alpha   90.00000000
_cell_angle_beta   90.00000000
_cell_angle_gamma   90.00000000
_symmetry_Int_Tables_number   1
_chemical_formula_structural   CsBaPS4
_chemical_formula_sum   'Cs4 Ba4 P4 S16'
_cell_volume   848.64456637
_cell_formula_units_Z   4
loop_
 _symmetry_equiv_pos_site_id
 _symmetry_equiv_pos_as_xyz
  1  'x, y, z'
loop_
 _atom_site_type_symbol
 _atom_site_label
 _atom_site_symmetry_multiplicity
 _atom_site_fract_x
 _atom_site_fract_y
 _atom_site_fract_z
 _atom_site_occupancy
  Cs  Cs0  1  0.07811609  0.75000000  0.14120543  1.0
  Cs  Cs1  1  0.57811609  0.75000000  0.35879457  1.0
  Cs  Cs2  1  0.92188391  0.25000000  0.85879457  1.0
  Cs  Cs3  1  0.42188391  0.25000000  0.64120543  1.0
  Ba  Ba4  1  0.14908705  0.75000000  0.60261271  1.0
  Ba  Ba5  1  0.64908705  0.75000000  0.89738729  1.0
  Ba  Ba6  1  0.85091295  0.25000000  0.39738729  1.0
  Ba  Ba7  1  0.35091295  0.25000000  0.10261271  1.0
  P  P8  1  0.32853897  0.75000000  0.88421606  1.0
  P  P9  1  0.82853897  0.75000000  0.61578394  1.0
  P  P10  1  0.67146103  0.25000000  0.11578394  1.0
  P  P11  1  0.17146103  0.25000000  0.38421606  1.0
  S  S12  1  0.23056392  0.99230293  0.87343749  1.0
  S  S13  1  0.23056392  0.50769707  0.87343749  1.0
  S  S14  1  0.73056392  0.99230293  0.62656251  1.0
  S  S15  1  0.73056392  0.50769707  0.62656251  1.0
  S  S16  1  0.76943608  0.49230293  0.12656251  1.0
  S  S17  1  0.76943608  0.00769707  0.12656251  1.0
  S  S18  1  0.26943608  0.49230293  0.37343749  1.0
  S  S19  1  0.26943608  0.00769707  0.37343749  1.0
  S  S20  1  0.43066876  0.75000000  0.72083646  1.0
  S  S21  1  0.93066876  0.75000000  0.77916354  1.0
  S  S22  1  0.56933124  0.25000000  0.27916354  1.0
  S  S23  1  0.06933124  0.25000000  0.22083646  1.0
  S  S24  1  0.41635392  0.75000000  0.05881896  1.0
  S  S25  1  0.91635392  0.75000000  0.44118104  1.0
  S  S26  1  0.58364608  0.25000000  0.94118104  1.0
  S  S27  1  0.08364608  0.25000000  0.55881896  1.0
