# generated using pymatgen
data_Hg2H6CN3Cl5
_symmetry_space_group_name_H-M   'P 1'
_cell_length_a   7.88050292
_cell_length_b   7.88050292
_cell_length_c   19.02004058
_cell_angle_alpha   90.00000000
_cell_angle_beta   90.00000000
_cell_angle_gamma   148.45907447
_symmetry_Int_Tables_number   1
_chemical_formula_structural   Hg2H6CN3Cl5
_chemical_formula_sum   'Hg4 H12 C2 N6 Cl10'
_cell_volume   617.88865418
_cell_formula_units_Z   2
loop_
 _symmetry_equiv_pos_site_id
 _symmetry_equiv_pos_as_xyz
  1  'x, y, z'
loop_
 _atom_site_type_symbol
 _atom_site_label
 _atom_site_symmetry_multiplicity
 _atom_site_fract_x
 _atom_site_fract_y
 _atom_site_fract_z
 _atom_site_occupancy
  Hg  Hg0  1  0.23937467  0.98253396  0.53392635  1.0
  Hg  Hg1  1  -0.01746604  0.23937467  0.46607365  1.0
  Hg  Hg2  1  0.76062533  1.01746604  0.03392635  1.0
  Hg  Hg3  1  0.01746604  0.76062533  0.96607365  1.0
  H  H4  1  -0.17293196  0.60492224  0.34592019  1.0
  H  H5  1  0.60492224  0.82706804  0.65407981  1.0
  H  H6  1  0.17293196  0.39507776  0.84592019  1.0
  H  H7  1  0.39507776  1.17293196  0.15407981  1.0
  H  H8  1  -0.42489660  0.54697447  0.31265837  1.0
  H  H9  1  0.54697447  0.57510340  0.68734163  1.0
  H  H10  1  0.42489660  0.45302553  0.81265837  1.0
  H  H11  1  0.45302553  1.42489660  0.18734163  1.0
  H  H12  1  0.79602240  1.30336470  0.29396354  1.0
  H  H13  1  0.30336470  0.79602240  0.70603646  1.0
  H  H14  1  0.20397760  0.69663530  0.79396354  1.0
  H  H15  1  -0.30336470  0.20397760  0.20603646  1.0
  C  C16  1  -0.37734190  0.37734190  0.25000000  1.0
  C  C17  1  0.37734190  0.62265810  0.75000000  1.0
  N  N18  1  -0.30541159  0.53759084  0.30492124  1.0
  N  N19  1  0.53759084  0.69458841  0.69507876  1.0
  N  N20  1  0.30541159  0.46240916  0.80492124  1.0
  N  N21  1  0.46240916  1.30541159  0.19507876  1.0
  N  N22  1  -0.28916312  0.28916312  0.25000000  1.0
  N  N23  1  0.28916312  0.71083688  0.75000000  1.0
  Cl  Cl24  1  0.60249813  0.60249813  0.50000000  1.0
  Cl  Cl25  1  0.39750187  0.39750187  0.00000000  1.0
  Cl  Cl26  1  0.27494302  0.88064014  0.42278089  1.0
  Cl  Cl27  1  -0.11935986  0.27494302  0.57721911  1.0
  Cl  Cl28  1  0.72505698  1.11935986  0.92278089  1.0
  Cl  Cl29  1  0.11935986  0.72505698  0.07721911  1.0
  Cl  Cl30  1  0.22928230  1.02465843  0.65564709  1.0
  Cl  Cl31  1  0.02465843  0.22928230  0.34435291  1.0
  Cl  Cl32  1  0.77071770  0.97534157  0.15564709  1.0
  Cl  Cl33  1  -0.02465843  0.77071770  0.84435291  1.0
