# generated using pymatgen
data_NaSr3BiO6
_symmetry_space_group_name_H-M   'P 1'
_cell_length_a   7.03476195
_cell_length_b   7.03476195
_cell_length_c   7.03476195
_cell_angle_alpha   91.41472123
_cell_angle_beta   91.41472123
_cell_angle_gamma   91.41472123
_symmetry_Int_Tables_number   1
_chemical_formula_structural   NaSr3BiO6
_chemical_formula_sum   'Na2 Sr6 Bi2 O12'
_cell_volume   347.81172712
_cell_formula_units_Z   2
loop_
 _symmetry_equiv_pos_site_id
 _symmetry_equiv_pos_as_xyz
  1  'x, y, z'
loop_
 _atom_site_type_symbol
 _atom_site_label
 _atom_site_symmetry_multiplicity
 _atom_site_fract_x
 _atom_site_fract_y
 _atom_site_fract_z
 _atom_site_occupancy
  Na  Na0  1  0.25000000  0.25000000  0.25000000  1.0
  Na  Na1  1  0.75000000  0.75000000  0.75000000  1.0
  Sr  Sr2  1  0.90302869  1.25000000  -0.40302869  1.0
  Sr  Sr3  1  1.40302869  0.09697131  -0.25000000  1.0
  Sr  Sr4  1  0.75000000  0.40302869  0.09697131  1.0
  Sr  Sr5  1  1.25000000  0.59697131  -0.09697131  1.0
  Sr  Sr6  1  1.09697131  -0.25000000  0.40302869  1.0
  Sr  Sr7  1  0.59697131  0.90302869  0.25000000  1.0
  Bi  Bi8  1  0.50000000  0.50000000  0.50000000  1.0
  Bi  Bi9  1  0.00000000  0.00000000  0.00000000  1.0
  O  O10  1  1.20832158  0.43034336  -0.44657465  1.0
  O  O11  1  0.70832158  1.05342535  -0.06965664  1.0
  O  O12  1  0.94657465  0.06965664  0.29167842  1.0
  O  O13  1  1.44657465  -0.20832158  0.56965664  1.0
  O  O14  1  1.56965664  0.44657465  -0.20832158  1.0
  O  O15  1  1.06965664  0.29167842  -0.05342535  1.0
  O  O16  1  0.79167842  0.56965664  0.44657465  1.0
  O  O17  1  1.29167842  -0.05342535  0.06965664  1.0
  O  O18  1  0.55342535  1.20832158  -0.56965664  1.0
  O  O19  1  1.05342535  0.93034336  -0.29167842  1.0
  O  O20  1  0.93034336  0.70832158  0.05342535  1.0
  O  O21  1  0.43034336  0.55342535  0.20832158  1.0
