# generated using pymatgen
data_CsV2O5
_symmetry_space_group_name_H-M   'P 1'
_cell_length_a   7.58868240
_cell_length_b   9.78991483
_cell_length_c   7.89531080
_cell_angle_alpha   90.00000000
_cell_angle_beta   91.25511734
_cell_angle_gamma   90.00000000
_symmetry_Int_Tables_number   1
_chemical_formula_structural   CsV2O5
_chemical_formula_sum   'Cs4 V8 O20'
_cell_volume   586.42207515
_cell_formula_units_Z   4
loop_
 _symmetry_equiv_pos_site_id
 _symmetry_equiv_pos_as_xyz
  1  'x, y, z'
loop_
 _atom_site_type_symbol
 _atom_site_label
 _atom_site_symmetry_multiplicity
 _atom_site_fract_x
 _atom_site_fract_y
 _atom_site_fract_z
 _atom_site_occupancy
  O  O0  1  0.98079742  0.87069281  0.35220893  1.0
  O  O1  1  0.98079742  0.62930719  0.85220893  1.0
  O  O2  1  0.01920258  0.37069281  0.14779107  1.0
  O  O3  1  0.01920258  0.12930719  0.64779107  1.0
  O  O4  1  0.93097785  0.38672847  0.48150777  1.0
  O  O5  1  0.93097785  0.11327153  0.98150777  1.0
  O  O6  1  0.06902215  0.88672847  0.01849223  1.0
  O  O7  1  0.06902215  0.61327153  0.51849223  1.0
  O  O8  1  0.88002108  0.12567169  0.31276814  1.0
  O  O9  1  0.88002108  0.37432831  0.81276814  1.0
  O  O10  1  0.11997892  0.62567169  0.18723186  1.0
  O  O11  1  0.11997892  0.87432831  0.68723186  1.0
  O  O12  1  0.66568110  0.31675795  0.07345665  1.0
  O  O13  1  0.66568110  0.18324205  0.57345665  1.0
  O  O14  1  0.33431890  0.81675795  0.42654335  1.0
  O  O15  1  0.33431890  0.68324205  0.92654335  1.0
  O  O16  1  0.30113228  0.41469928  0.37614803  1.0
  O  O17  1  0.30113228  0.08530072  0.87614803  1.0
  O  O18  1  0.69886772  0.91469928  0.12385197  1.0
  O  O19  1  0.69886772  0.58530072  0.62385197  1.0
  Cs  Cs20  1  0.41423659  0.11839236  0.26088670  1.0
  Cs  Cs21  1  0.41423659  0.38160764  0.76088670  1.0
  Cs  Cs22  1  0.58576341  0.61839236  0.23911330  1.0
  Cs  Cs23  1  0.58576341  0.88160764  0.73911330  1.0
  V  V24  1  0.86906957  0.29531037  0.01000257  1.0
  V  V25  1  0.86906957  0.20468963  0.51000257  1.0
  V  V26  1  0.13093043  0.79531037  0.48999743  1.0
  V  V27  1  0.13093043  0.70468963  0.98999743  1.0
  V  V28  1  0.89522069  0.97498862  0.16551119  1.0
  V  V29  1  0.89522069  0.52501138  0.66551119  1.0
  V  V30  1  0.10477931  0.47498862  0.33448881  1.0
  V  V31  1  0.10477931  0.02501138  0.83448881  1.0
