# generated using pymatgen
data_KZrCuF7
_symmetry_space_group_name_H-M   'P 1'
_cell_length_a   7.76958398
_cell_length_b   7.76958398
_cell_length_c   10.23568584
_cell_angle_alpha   90.00000000
_cell_angle_beta   90.00000000
_cell_angle_gamma   112.42273860
_symmetry_Int_Tables_number   1
_chemical_formula_structural   KZrCuF7
_chemical_formula_sum   'K4 Zr4 Cu4 F28'
_cell_volume   571.17598353
_cell_formula_units_Z   4
loop_
 _symmetry_equiv_pos_site_id
 _symmetry_equiv_pos_as_xyz
  1  'x, y, z'
loop_
 _atom_site_type_symbol
 _atom_site_label
 _atom_site_symmetry_multiplicity
 _atom_site_fract_x
 _atom_site_fract_y
 _atom_site_fract_z
 _atom_site_occupancy
  K  K0  1  0.13389724  0.36519201  0.25000000  1.0
  K  K1  1  -0.63480799  1.13389724  0.75000000  1.0
  K  K2  1  0.63480799  0.86610276  0.25000000  1.0
  K  K3  1  -0.13389724  1.63480799  0.75000000  1.0
  Zr  Zr4  1  -0.36589746  1.36589746  0.43012587  1.0
  Zr  Zr5  1  -0.36589746  1.36589746  0.06987413  1.0
  Zr  Zr6  1  0.36589746  0.63410254  0.93012587  1.0
  Zr  Zr7  1  0.36589746  0.63410254  0.56987413  1.0
  Cu  Cu8  1  0.13342610  0.86657390  0.42967754  1.0
  Cu  Cu9  1  0.13342610  0.86657390  0.07032246  1.0
  Cu  Cu10  1  -0.13342610  1.13342610  0.92967754  1.0
  Cu  Cu11  1  -0.13342610  1.13342610  0.57032246  1.0
  F  F12  1  -0.15069746  1.59642875  0.48624041  1.0
  F  F13  1  -0.15069746  1.59642875  0.01375959  1.0
  F  F14  1  0.59642875  0.84930254  0.98624041  1.0
  F  F15  1  0.59642875  0.84930254  0.51375959  1.0
  F  F16  1  -0.59642875  1.15069746  0.48624041  1.0
  F  F17  1  -0.59642875  1.15069746  0.01375959  1.0
  F  F18  1  0.15069746  0.40357125  0.98624041  1.0
  F  F19  1  0.15069746  0.40357125  0.51375959  1.0
  F  F20  1  -0.22274650  1.49444844  0.25000000  1.0
  F  F21  1  0.49444844  0.77725350  0.75000000  1.0
  F  F22  1  -0.49444844  1.22274650  0.25000000  1.0
  F  F23  1  0.22274650  0.50555156  0.75000000  1.0
  F  F24  1  0.20298663  0.79701337  0.89285698  1.0
  F  F25  1  0.20298663  0.79701337  0.60714302  1.0
  F  F26  1  -0.20298663  1.20298663  0.39285698  1.0
  F  F27  1  -0.20298663  1.20298663  0.10714302  1.0
  F  F28  1  0.27802282  0.72197718  0.38584592  1.0
  F  F29  1  0.27802282  0.72197718  0.11415408  1.0
  F  F30  1  -0.27802282  1.27802282  0.88584592  1.0
  F  F31  1  -0.27802282  1.27802282  0.61415408  1.0
  F  F32  1  0.47684635  0.52315365  0.38544570  1.0
  F  F33  1  0.47684635  0.52315365  0.11455430  1.0
  F  F34  1  -0.47684635  1.47684635  0.88544570  1.0
  F  F35  1  -0.47684635  1.47684635  0.61455430  1.0
  F  F36  1  0.08555426  0.91444574  0.25000000  1.0
  F  F37  1  -0.08555426  1.08555426  0.75000000  1.0
  F  F38  1  0.00000000  0.00000000  0.50000000  1.0
  F  F39  1  0.00000000  0.00000000  0.00000000  1.0
