# generated using pymatgen
data_In(Mo2O3)2
_symmetry_space_group_name_H-M   'P 1'
_cell_length_a   9.79077529
_cell_length_b   9.79077529
_cell_length_c   2.87367966
_cell_angle_alpha   90.00000000
_cell_angle_beta   90.00000000
_cell_angle_gamma   90.00000000
_symmetry_Int_Tables_number   1
_chemical_formula_structural   In(Mo2O3)2
_chemical_formula_sum   'In2 Mo8 O12'
_cell_volume   275.46886519
_cell_formula_units_Z   2
loop_
 _symmetry_equiv_pos_site_id
 _symmetry_equiv_pos_as_xyz
  1  'x, y, z'
loop_
 _atom_site_type_symbol
 _atom_site_label
 _atom_site_symmetry_multiplicity
 _atom_site_fract_x
 _atom_site_fract_y
 _atom_site_fract_z
 _atom_site_occupancy
  In  In0  1  0.50000000  0.50000000  0.00000000  1.0
  In  In1  1  0.00000000  0.00000000  0.00000000  1.0
  Mo  Mo2  1  0.39922294  0.10077706  0.50000000  1.0
  Mo  Mo3  1  0.89922294  0.39922294  0.50000000  1.0
  Mo  Mo4  1  0.60077706  0.89922294  0.50000000  1.0
  Mo  Mo5  1  0.10077706  0.60077706  0.50000000  1.0
  Mo  Mo6  1  0.85943239  0.64056761  0.00000000  1.0
  Mo  Mo7  1  0.35943239  0.85943239  0.00000000  1.0
  Mo  Mo8  1  0.14056761  0.35943239  0.00000000  1.0
  Mo  Mo9  1  0.64056761  0.14056761  0.00000000  1.0
  O  O10  1  0.45514870  0.74455063  0.50000000  1.0
  O  O11  1  0.95514870  0.75544937  0.50000000  1.0
  O  O12  1  0.25544937  0.45514870  0.50000000  1.0
  O  O13  1  0.75544937  0.04485130  0.50000000  1.0
  O  O14  1  0.54485130  0.25544937  0.50000000  1.0
  O  O15  1  0.04485130  0.24455063  0.50000000  1.0
  O  O16  1  0.74455063  0.54485130  0.50000000  1.0
  O  O17  1  0.24455063  0.95514870  0.50000000  1.0
  O  O18  1  0.29370909  0.20629091  0.00000000  1.0
  O  O19  1  0.79370909  0.29370909  0.00000000  1.0
  O  O20  1  0.70629091  0.79370909  0.00000000  1.0
  O  O21  1  0.20629091  0.70629091  0.00000000  1.0
