# generated using pymatgen
data_FeSO5
_symmetry_space_group_name_H-M   'P 1'
_cell_length_a   5.32214197
_cell_length_b   5.32173754
_cell_length_c   7.45428622
_cell_angle_alpha   111.79411087
_cell_angle_beta   111.78549162
_cell_angle_gamma   97.41207374
_symmetry_Int_Tables_number   1
_chemical_formula_structural   FeSO5
_chemical_formula_sum   'Fe2 S2 O10'
_cell_volume   173.10231903
_cell_formula_units_Z   2
loop_
 _symmetry_equiv_pos_site_id
 _symmetry_equiv_pos_as_xyz
  1  'x, y, z'
loop_
 _atom_site_type_symbol
 _atom_site_label
 _atom_site_symmetry_multiplicity
 _atom_site_fract_x
 _atom_site_fract_y
 _atom_site_fract_z
 _atom_site_occupancy
  Fe  Fe0  1  -0.50000000  -0.50000000  -0.00000000  1.0
  Fe  Fe1  1  -0.00000000  -0.00000000  -0.50000000  1.0
  S  S2  1  -0.91870362  -0.58149940  -0.75006460  1.0
  S  S3  1  -0.08129638  -0.41850060  -0.24993540  1.0
  O  O4  1  -0.67743225  -0.82253519  -0.25003748  1.0
  O  O5  1  -0.32256775  -0.17746481  -0.74996252  1.0
  O  O6  1  -0.81568667  -0.25988408  -0.61874320  1.0
  O  O7  1  -0.18431333  -0.74011592  -0.38125680  1.0
  O  O8  1  -0.24030412  -0.68444750  -0.88120369  1.0
  O  O9  1  -0.75969588  -0.31555250  -0.11879631  1.0
  O  O10  1  -0.78789481  -0.65920004  -0.89760174  1.0
  O  O11  1  -0.21210519  -0.34079996  -0.10239826  1.0
  O  O12  1  -0.84086299  -0.71250259  -0.60268489  1.0
  O  O13  1  -0.15913701  -0.28749741  -0.39731511  1.0
