# generated using pymatgen
data_K6HgSe4
_symmetry_space_group_name_H-M   'P 1'
_cell_length_a   10.50082727
_cell_length_b   10.50082727
_cell_length_c   8.01005603
_cell_angle_alpha   90.00000000
_cell_angle_beta   90.00000000
_cell_angle_gamma   120.00000000
_symmetry_Int_Tables_number   1
_chemical_formula_structural   K6HgSe4
_chemical_formula_sum   'K12 Hg2 Se8'
_cell_volume   764.91506655
_cell_formula_units_Z   2
loop_
 _symmetry_equiv_pos_site_id
 _symmetry_equiv_pos_as_xyz
  1  'x, y, z'
loop_
 _atom_site_type_symbol
 _atom_site_label
 _atom_site_symmetry_multiplicity
 _atom_site_fract_x
 _atom_site_fract_y
 _atom_site_fract_z
 _atom_site_occupancy
  K  K0  1  0.70117983  0.85058992  0.28964721  1.0
  K  K1  1  0.85058992  0.70117983  0.78964721  1.0
  K  K2  1  0.85058992  0.14941008  0.78964721  1.0
  K  K3  1  0.14941008  0.85058992  0.28964721  1.0
  K  K4  1  0.14941008  0.29882017  0.28964721  1.0
  K  K5  1  0.29882017  0.14941008  0.78964721  1.0
  K  K6  1  0.94521920  0.47260960  0.11732229  1.0
  K  K7  1  0.47260960  0.94521920  0.61732229  1.0
  K  K8  1  0.47260960  0.52739040  0.61732229  1.0
  K  K9  1  0.52739040  0.47260960  0.11732229  1.0
  K  K10  1  0.52739040  0.05478080  0.11732229  1.0
  K  K11  1  0.05478080  0.52739040  0.61732229  1.0
  Hg  Hg12  1  0.33333333  0.66666667  -0.00731522  1.0
  Hg  Hg13  1  0.66666667  0.33333333  0.49268478  1.0
  Se  Se14  1  0.37835677  0.18917839  0.39022597  1.0
  Se  Se15  1  0.18917839  0.37835677  0.89022597  1.0
  Se  Se16  1  0.18917839  0.81082161  0.89022597  1.0
  Se  Se17  1  0.81082161  0.18917839  0.39022597  1.0
  Se  Se18  1  0.81082161  0.62164323  0.39022597  1.0
  Se  Se19  1  0.62164323  0.81082161  0.89022597  1.0
  Se  Se20  1  0.33333333  0.66666667  0.33972882  1.0
  Se  Se21  1  0.66666667  0.33333333  0.83972882  1.0
