# generated using pymatgen
data_YAg(WO4)2
_symmetry_space_group_name_H-M   'P 1'
_cell_length_a   7.38791036
_cell_length_b   7.38791036
_cell_length_c   7.28878229
_cell_angle_alpha   65.64069875
_cell_angle_beta   114.35930125
_cell_angle_gamma   85.28550772
_symmetry_Int_Tables_number   1
_chemical_formula_structural   YAg(WO4)2
_chemical_formula_sum   'Y2 Ag2 W4 O16'
_cell_volume   314.52221235
_cell_formula_units_Z   2
loop_
 _symmetry_equiv_pos_site_id
 _symmetry_equiv_pos_as_xyz
  1  'x, y, z'
loop_
 _atom_site_type_symbol
 _atom_site_label
 _atom_site_symmetry_multiplicity
 _atom_site_fract_x
 _atom_site_fract_y
 _atom_site_fract_z
 _atom_site_occupancy
  Y  Y0  1  0.69600022  -0.30399978  -0.00000000  1.0
  Y  Y1  1  1.30399978  0.30399978  -0.00000000  1.0
  Ag  Ag2  1  0.68649612  -0.68649612  0.51898319  1.0
  Ag  Ag3  1  0.31350388  -0.31350388  0.48101681  1.0
  W  W4  1  0.20916119  -0.20916119  0.97100249  1.0
  W  W5  1  0.79083881  -0.79083881  0.02899751  1.0
  W  W6  1  0.83502328  -0.16497672  0.50000000  1.0
  W  W7  1  1.16497672  0.16497672  0.50000000  1.0
  O  O8  1  0.68882638  -0.21710562  0.64978546  1.0
  O  O9  1  1.21710562  0.31117362  0.64978546  1.0
  O  O10  1  0.78289438  -0.31117362  0.35021454  1.0
  O  O11  1  1.31117362  0.21710562  0.35021454  1.0
  O  O12  1  1.70028301  0.04117789  0.91326071  1.0
  O  O13  1  0.95882211  -0.70028301  0.91326071  1.0
  O  O14  1  1.04117789  0.70028301  0.08673929  1.0
  O  O15  1  0.29971699  -0.04117789  0.08673929  1.0
  O  O16  1  0.35181018  -0.10221452  0.75612962  1.0
  O  O17  1  1.10221452  0.64818982  0.75612962  1.0
  O  O18  1  0.89778548  -0.64818982  0.24387038  1.0
  O  O19  1  1.64818982  0.10221452  0.24387038  1.0
  O  O20  1  0.97900892  -0.97900892  0.66067432  1.0
  O  O21  1  0.02099108  -0.02099108  0.33932568  1.0
  O  O22  1  0.55727223  -0.55727223  0.86373813  1.0
  O  O23  1  0.44272777  -0.44272777  0.13626187  1.0
