# generated using pymatgen
data_Sc13Ni4
_symmetry_space_group_name_H-M   'P 1'
_cell_length_a   11.07505954
_cell_length_b   11.07505954
_cell_length_c   11.07505954
_cell_angle_alpha   60.00000000
_cell_angle_beta   60.00000000
_cell_angle_gamma   60.00000000
_symmetry_Int_Tables_number   1
_chemical_formula_structural   Sc13Ni4
_chemical_formula_sum   'Sc26 Ni8'
_cell_volume   960.55715350
_cell_formula_units_Z   2
loop_
 _symmetry_equiv_pos_site_id
 _symmetry_equiv_pos_as_xyz
  1  'x, y, z'
loop_
 _atom_site_type_symbol
 _atom_site_label
 _atom_site_symmetry_multiplicity
 _atom_site_fract_x
 _atom_site_fract_y
 _atom_site_fract_z
 _atom_site_occupancy
  Sc  Sc0  1  0.94571872  -0.57175518  0.68031774  1.0
  Sc  Sc1  1  -0.05428128  0.68031774  0.42824482  1.0
  Sc  Sc2  1  -0.17824482  0.30428128  0.30428128  1.0
  Sc  Sc3  1  0.56968226  0.30428128  0.30428128  1.0
  Sc  Sc4  1  -0.57175518  0.94571872  0.68031774  1.0
  Sc  Sc5  1  0.94571872  -0.05428128  0.68031774  1.0
  Sc  Sc6  1  0.94571872  -0.31968226  0.94571872  1.0
  Sc  Sc7  1  -0.57175518  0.68031774  0.94571872  1.0
  Sc  Sc8  1  0.30428128  -0.17824482  0.30428128  1.0
  Sc  Sc9  1  0.30428128  0.30428128  -0.17824482  1.0
  Sc  Sc10  1  0.56968226  0.30428128  -0.17824482  1.0
  Sc  Sc11  1  0.56968226  -0.17824482  0.30428128  1.0
  Sc  Sc12  1  0.68031774  -0.05428128  0.94571872  1.0
  Sc  Sc13  1  -0.57175518  0.94571872  0.94571872  1.0
  Sc  Sc14  1  0.30428128  0.56968226  -0.17824482  1.0
  Sc  Sc15  1  0.30428128  -0.17824482  0.56968226  1.0
  Sc  Sc16  1  -0.31968226  0.94571872  0.42824482  1.0
  Sc  Sc17  1  0.68031774  -0.57175518  0.94571872  1.0
  Sc  Sc18  1  0.94571872  -0.57175518  0.94571872  1.0
  Sc  Sc19  1  -0.05428128  0.94571872  0.42824482  1.0
  Sc  Sc20  1  0.30428128  0.56968226  0.30428128  1.0
  Sc  Sc21  1  -0.17824482  0.56968226  0.30428128  1.0
  Sc  Sc22  1  -0.17824482  0.30428128  0.56968226  1.0
  Sc  Sc23  1  0.30428128  0.30428128  0.56968226  1.0
  Sc  Sc24  1  0.50000000  0.50000000  -0.50000000  1.0
  Sc  Sc25  1  0.75000000  -0.25000000  0.75000000  1.0
  Ni  Ni26  1  0.66407752  -0.33592248  1.00776744  1.0
  Ni  Ni27  1  0.66407752  0.00776744  0.66407752  1.0
  Ni  Ni28  1  0.58592248  -0.41407752  0.58592248  1.0
  Ni  Ni29  1  1.24223256  -0.41407752  0.58592248  1.0
  Ni  Ni30  1  1.00776744  -0.33592248  0.66407752  1.0
  Ni  Ni31  1  0.66407752  -0.33592248  0.66407752  1.0
  Ni  Ni32  1  0.58592248  0.24223256  0.58592248  1.0
  Ni  Ni33  1  0.58592248  -0.41407752  1.24223256  1.0
