# generated using pymatgen
data_Bi10(Pb2O7)3
_symmetry_space_group_name_H-M   'P 1'
_cell_length_a   7.38862898
_cell_length_b   14.42296404
_cell_length_c   7.77788640
_cell_angle_alpha   81.16179427
_cell_angle_beta   61.13500860
_cell_angle_gamma   82.86672007
_symmetry_Int_Tables_number   1
_chemical_formula_structural   Bi10(Pb2O7)3
_chemical_formula_sum   'Bi10 Pb6 O21'
_cell_volume   716.06256820
_cell_formula_units_Z   1
loop_
 _symmetry_equiv_pos_site_id
 _symmetry_equiv_pos_as_xyz
  1  'x, y, z'
loop_
 _atom_site_type_symbol
 _atom_site_label
 _atom_site_symmetry_multiplicity
 _atom_site_fract_x
 _atom_site_fract_y
 _atom_site_fract_z
 _atom_site_occupancy
  Bi  Bi0  1  -0.79636571  -0.47855056  -0.27239149  1.0
  Bi  Bi1  1  -0.20363429  -0.52144944  -0.72760851  1.0
  Bi  Bi2  1  -0.78585849  -0.68816729  -0.57724321  1.0
  Bi  Bi3  1  -0.21414151  -0.31183271  -0.42275679  1.0
  Bi  Bi4  1  -0.76661334  -0.96248627  -0.74029801  1.0
  Bi  Bi5  1  -0.23338666  -0.03751373  -0.25970199  1.0
  Bi  Bi6  1  -0.76430854  -0.69825382  -0.01453575  1.0
  Bi  Bi7  1  -0.23569146  -0.30174618  -0.98546425  1.0
  Bi  Bi8  1  -0.70388360  -0.42515526  -0.80323364  1.0
  Bi  Bi9  1  -0.29611640  -0.57484474  -0.19676636  1.0
  Pb  Pb10  1  -0.73986885  -0.94469378  -0.28320084  1.0
  Pb  Pb11  1  -0.26013115  -0.05530622  -0.71679916  1.0
  Pb  Pb12  1  -0.25749599  -0.82626070  -0.98461034  1.0
  Pb  Pb13  1  -0.74250401  -0.17373930  -0.01538966  1.0
  Pb  Pb14  1  -0.24595281  -0.79850260  -0.49124162  1.0
  Pb  Pb15  1  -0.75404719  -0.20149740  -0.50875838  1.0
  O  O16  1  0.00804879  -0.58830847  -0.09218497  1.0
  O  O17  1  -0.00804879  -0.41169153  -0.90781503  1.0
  O  O18  1  -0.89436704  -0.81010275  -0.64412687  1.0
  O  O19  1  -0.10563296  -0.18989725  -0.35587313  1.0
  O  O20  1  -0.89224429  -0.60984592  -0.77671781  1.0
  O  O21  1  -0.10775571  -0.39015408  -0.22328219  1.0
  O  O22  1  -0.87497765  -0.31150393  -0.64372306  1.0
  O  O23  1  -0.12502235  -0.68849607  -0.35627694  1.0
  O  O24  1  -0.76891757  -0.52752713  -0.53485758  1.0
  O  O25  1  -0.23108243  -0.47247287  -0.46514242  1.0
  O  O26  1  -0.66582427  -0.12020434  -0.80343923  1.0
  O  O27  1  -0.33417573  -0.87979566  -0.19656077  1.0
  O  O28  1  -0.51659638  -0.70234213  -0.92328472  1.0
  O  O29  1  -0.48340362  -0.29765787  -0.07671528  1.0
  O  O30  1  -0.47396241  -0.93332875  -0.74167003  1.0
  O  O31  1  -0.52603759  -0.06667125  -0.25832997  1.0
  O  O32  1  -0.43928762  -0.40049265  -0.75513727  1.0
  O  O33  1  -0.56071238  -0.59950735  -0.24486273  1.0
  O  O34  1  -0.15403095  -0.97185254  -0.55544748  1.0
  O  O35  1  -0.84596905  -0.02814746  -0.44455252  1.0
  O  O36  1  0.00000000  0.00000000  0.00000000  1.0
