# generated using pymatgen
data_NaSr3GdP3O12F
_symmetry_space_group_name_H-M   'P 1'
_cell_length_a   9.68114791
_cell_length_b   9.68114791
_cell_length_c   7.20303714
_cell_angle_alpha   90.00000000
_cell_angle_beta   90.00000000
_cell_angle_gamma   120.00000000
_symmetry_Int_Tables_number   1
_chemical_formula_structural   NaSr3GdP3O12F
_chemical_formula_sum   'Na2 Sr6 Gd2 P6 O24 F2'
_cell_volume   584.65544179
_cell_formula_units_Z   2
loop_
 _symmetry_equiv_pos_site_id
 _symmetry_equiv_pos_as_xyz
  1  'x, y, z'
loop_
 _atom_site_type_symbol
 _atom_site_label
 _atom_site_symmetry_multiplicity
 _atom_site_fract_x
 _atom_site_fract_y
 _atom_site_fract_z
 _atom_site_occupancy
  Na  Na0  1  0.33333333  0.66666667  0.52317247  1.0
  Na  Na1  1  0.66666667  0.33333333  0.47682753  1.0
  Sr  Sr2  1  0.98190210  0.74272357  0.25995714  1.0
  Sr  Sr3  1  0.74272357  0.76082147  0.74004286  1.0
  Sr  Sr4  1  0.76082147  0.01809790  0.25995714  1.0
  Sr  Sr5  1  0.25727643  0.23917853  0.25995714  1.0
  Sr  Sr6  1  0.01809790  0.25727643  0.74004286  1.0
  Sr  Sr7  1  0.23917853  0.98190210  0.74004286  1.0
  Gd  Gd8  1  0.33333333  0.66666667  0.02443540  1.0
  Gd  Gd9  1  0.66666667  0.33333333  0.97556460  1.0
  P  P10  1  0.37497774  0.97011237  0.23965880  1.0
  P  P11  1  0.97011237  0.59513462  0.76034120  1.0
  P  P12  1  0.59513462  0.62502226  0.23965880  1.0
  P  P13  1  0.02988763  0.40486538  0.23965880  1.0
  P  P14  1  0.62502226  0.02988763  0.76034120  1.0
  P  P15  1  0.40486538  0.37497774  0.76034120  1.0
  O  O16  1  0.25846362  0.95536989  0.39680871  1.0
  O  O17  1  0.95536989  0.69690627  0.60319129  1.0
  O  O18  1  0.69690627  0.74153638  0.39680871  1.0
  O  O19  1  0.04463011  0.30309373  0.39680871  1.0
  O  O20  1  0.74153638  0.04463011  0.60319129  1.0
  O  O21  1  0.30309373  0.25846362  0.60319129  1.0
  O  O22  1  0.27250668  0.89438032  0.06008646  1.0
  O  O23  1  0.89438032  0.62187364  0.93991354  1.0
  O  O24  1  0.62187364  0.72749332  0.06008646  1.0
  O  O25  1  0.10561968  0.37812636  0.06008646  1.0
  O  O26  1  0.72749332  0.10561968  0.93991354  1.0
  O  O27  1  0.37812636  0.27250668  0.93991354  1.0
  O  O28  1  0.45796936  0.86985486  0.27705074  1.0
  O  O29  1  0.86985486  0.41188550  0.72294926  1.0
  O  O30  1  0.41188550  0.54203064  0.27705074  1.0
  O  O31  1  0.13014514  0.58811450  0.27705074  1.0
  O  O32  1  0.54203064  0.13014514  0.72294926  1.0
  O  O33  1  0.58811450  0.45796936  0.72294926  1.0
  O  O34  1  0.64884181  0.49885495  0.21556133  1.0
  O  O35  1  0.49885495  0.85001314  0.78443867  1.0
  O  O36  1  0.85001314  0.35115819  0.21556133  1.0
  O  O37  1  0.50114505  0.14998686  0.21556133  1.0
  O  O38  1  0.35115819  0.50114505  0.78443867  1.0
  O  O39  1  0.14998686  0.64884181  0.78443867  1.0
  F  F40  1  0.00000000  0.00000000  0.21523133  1.0
  F  F41  1  0.00000000  0.00000000  0.78476867  1.0
