# generated using pymatgen
data_Li4Si2O7
_symmetry_space_group_name_H-M   'P 1'
_cell_length_a   7.70013078
_cell_length_b   7.70013078
_cell_length_c   5.48910240
_cell_angle_alpha   90.00000000
_cell_angle_beta   90.00000000
_cell_angle_gamma   90.00000000
_symmetry_Int_Tables_number   1
_chemical_formula_structural   Li4Si2O7
_chemical_formula_sum   'Li8 Si4 O14'
_cell_volume   325.45993655
_cell_formula_units_Z   2
loop_
 _symmetry_equiv_pos_site_id
 _symmetry_equiv_pos_as_xyz
  1  'x, y, z'
loop_
 _atom_site_type_symbol
 _atom_site_label
 _atom_site_symmetry_multiplicity
 _atom_site_fract_x
 _atom_site_fract_y
 _atom_site_fract_z
 _atom_site_occupancy
  Li  Li0  1  0.42949747  0.34489603  0.82195659  1.0
  Li  Li1  1  0.07050253  0.84489603  0.17804341  1.0
  Li  Li2  1  0.65510397  0.42949747  0.17804341  1.0
  Li  Li3  1  0.84489603  0.92949747  0.82195659  1.0
  Li  Li4  1  0.57050253  0.65510397  0.82195659  1.0
  Li  Li5  1  0.92949747  0.15510397  0.17804341  1.0
  Li  Li6  1  0.34489603  0.57050253  0.17804341  1.0
  Li  Li7  1  0.15510397  0.07050253  0.82195659  1.0
  Si  Si8  1  0.84828787  0.34828787  0.67509054  1.0
  Si  Si9  1  0.65171213  0.84828787  0.32490946  1.0
  Si  Si10  1  0.15171213  0.65171213  0.67509054  1.0
  Si  Si11  1  0.34828787  0.15171213  0.32490946  1.0
  O  O12  1  0.91713633  0.17388312  0.81339657  1.0
  O  O13  1  0.58286367  0.67388312  0.18660343  1.0
  O  O14  1  0.82611688  0.91713633  0.18660343  1.0
  O  O15  1  0.67388312  0.41713633  0.81339657  1.0
  O  O16  1  0.08286367  0.82611688  0.81339657  1.0
  O  O17  1  0.41713633  0.32611688  0.18660343  1.0
  O  O18  1  0.17388312  0.08286367  0.18660343  1.0
  O  O19  1  0.32611688  0.58286367  0.81339657  1.0
  O  O20  1  0.81866357  0.31866357  0.38449226  1.0
  O  O21  1  0.68133643  0.81866357  0.61550774  1.0
  O  O22  1  0.18133643  0.68133643  0.38449226  1.0
  O  O23  1  0.31866357  0.18133643  0.61550774  1.0
  O  O24  1  0.00000000  0.50000000  0.69721329  1.0
  O  O25  1  0.50000000  0.00000000  0.30278671  1.0
