# generated using pymatgen
data_RbSb2
_symmetry_space_group_name_H-M   'P 1'
_cell_length_a   7.39579955
_cell_length_b   7.39579955
_cell_length_c   8.74845327
_cell_angle_alpha   76.57541040
_cell_angle_beta   103.42458960
_cell_angle_gamma   146.74180368
_symmetry_Int_Tables_number   1
_chemical_formula_structural   RbSb2
_chemical_formula_sum   'Rb2 Sb4'
_cell_volume   254.60748752
_cell_formula_units_Z   2
loop_
 _symmetry_equiv_pos_site_id
 _symmetry_equiv_pos_as_xyz
  1  'x, y, z'
loop_
 _atom_site_type_symbol
 _atom_site_label
 _atom_site_symmetry_multiplicity
 _atom_site_fract_x
 _atom_site_fract_y
 _atom_site_fract_z
 _atom_site_occupancy
  Rb  Rb0  1  0.83508934  0.16491066  0.80341815  1.0
  Rb  Rb1  1  0.16491066  -0.16491066  0.19658185  1.0
  Sb  Sb2  1  0.90517948  0.09482052  0.39237982  1.0
  Sb  Sb3  1  0.09482052  -0.09482052  0.60762018  1.0
  Sb  Sb4  1  0.56420814  0.43579186  0.81230765  1.0
  Sb  Sb5  1  0.43579186  -0.43579186  0.18769235  1.0
