# generated using pymatgen
data_K2W2O7
_symmetry_space_group_name_H-M   'P 1'
_cell_length_a   3.92550968
_cell_length_b   14.05173362
_cell_length_c   6.07143922
_cell_angle_alpha   90.00000000
_cell_angle_beta   90.32038298
_cell_angle_gamma   90.00000000
_symmetry_Int_Tables_number   1
_chemical_formula_structural   K2W2O7
_chemical_formula_sum   'K4 W4 O14'
_cell_volume   334.89666525
_cell_formula_units_Z   2
loop_
 _symmetry_equiv_pos_site_id
 _symmetry_equiv_pos_as_xyz
  1  'x, y, z'
loop_
 _atom_site_type_symbol
 _atom_site_label
 _atom_site_symmetry_multiplicity
 _atom_site_fract_x
 _atom_site_fract_y
 _atom_site_fract_z
 _atom_site_occupancy
  K  K0  1  0.48807157  0.16801478  0.17518977  1.0
  K  K1  1  0.48807157  0.33198522  0.67518977  1.0
  K  K2  1  0.51192843  0.66801478  0.32481023  1.0
  K  K3  1  0.51192843  0.83198522  0.82481023  1.0
  W  W4  1  0.95387689  0.43458334  0.21708965  1.0
  W  W5  1  0.95387689  0.06541666  0.71708965  1.0
  W  W6  1  0.04612311  0.93458334  0.28291035  1.0
  W  W7  1  0.04612311  0.56541666  0.78291035  1.0
  O  O8  1  -0.00370023  0.08077659  0.41192965  1.0
  O  O9  1  -0.00370023  0.41922341  0.91192965  1.0
  O  O10  1  0.00370023  0.58077659  0.08807035  1.0
  O  O11  1  0.00370023  0.91922341  0.58807035  1.0
  O  O12  1  1.00374072  0.81478753  0.18890635  1.0
  O  O13  1  1.00374072  0.68521247  0.68890635  1.0
  O  O14  1  -0.00374072  0.31478753  0.31109365  1.0
  O  O15  1  -0.00374072  0.18521247  0.81109365  1.0
  O  O16  1  0.49028887  0.44472407  0.22449868  1.0
  O  O17  1  0.49028887  0.05527593  0.72449868  1.0
  O  O18  1  0.50971113  0.94472407  0.27550132  1.0
  O  O19  1  0.50971113  0.55527593  0.77550132  1.0
  O  O20  1  -0.00000000  0.50000000  0.50000000  1.0
  O  O21  1  0.00000000  0.00000000  0.00000000  1.0
