# generated using pymatgen
data_GaB2(PO6)2
_symmetry_space_group_name_H-M   'P 1'
_cell_length_a   10.07338609
_cell_length_b   10.07338609
_cell_length_c   7.08725777
_cell_angle_alpha   68.32952830
_cell_angle_beta   111.67047170
_cell_angle_gamma   138.51270797
_symmetry_Int_Tables_number   1
_chemical_formula_structural   GaB2(PO6)2
_chemical_formula_sum   'Ga2 B4 P4 O24'
_cell_volume   437.70050145
_cell_formula_units_Z   2
loop_
 _symmetry_equiv_pos_site_id
 _symmetry_equiv_pos_as_xyz
  1  'x, y, z'
loop_
 _atom_site_type_symbol
 _atom_site_label
 _atom_site_symmetry_multiplicity
 _atom_site_fract_x
 _atom_site_fract_y
 _atom_site_fract_z
 _atom_site_occupancy
  Ga  Ga0  1  1.50000000  0.00000000  0.50000000  1.0
  Ga  Ga1  1  1.00000000  -0.50000000  0.00000000  1.0
  O  O2  1  1.42735942  -0.38229794  0.87981277  1.0
  O  O3  1  1.38229794  -0.42735942  0.37981277  1.0
  O  O4  1  0.61770206  -0.57264058  0.62018723  1.0
  O  O5  1  1.57264058  0.38229794  0.12018723  1.0
  O  O6  1  1.70358169  0.25770181  0.93601814  1.0
  O  O7  1  0.74229819  -0.70358169  0.43601814  1.0
  O  O8  1  1.25770181  -0.29641831  0.56398186  1.0
  O  O9  1  1.29641831  -0.25770181  0.06398186  1.0
  O  O10  1  1.78062111  -0.12705713  0.89712859  1.0
  O  O11  1  1.12705713  -0.78062111  0.39712859  1.0
  O  O12  1  0.87294287  -0.21937889  0.60287141  1.0
  O  O13  1  1.21937889  0.12705713  0.10287141  1.0
  O  O14  1  1.65049711  -0.01270555  0.76763960  1.0
  O  O15  1  1.01270555  -0.65049711  0.26763960  1.0
  O  O16  1  0.98729445  -0.34950289  0.73236040  1.0
  O  O17  1  1.34950289  0.01270555  0.23236040  1.0
  O  O18  1  1.41746773  0.06403862  0.63736496  1.0
  O  O19  1  0.93596138  -0.41746773  0.13736496  1.0
  O  O20  1  1.06403862  -0.58253227  0.86263504  1.0
  O  O21  1  1.58253227  -0.06403862  0.36263504  1.0
  O  O22  1  1.37152926  0.15594728  0.87088265  1.0
  O  O23  1  0.84405272  -0.37152926  0.37088265  1.0
  O  O24  1  1.15594728  -0.62847074  0.62911735  1.0
  O  O25  1  1.62847074  -0.15594728  0.12911735  1.0
  P  P26  1  1.53403361  0.22451938  0.77151545  1.0
  P  P27  1  0.77548062  -0.53403361  0.27151545  1.0
  P  P28  1  1.22451938  -0.46596639  0.72848455  1.0
  P  P29  1  1.46596639  -0.22451938  0.22848455  1.0
  B  B30  1  1.61166809  -0.17228713  0.92284666  1.0
  B  B31  1  1.17228713  -0.61166809  0.42284666  1.0
  B  B32  1  0.82771287  -0.38833191  0.57715334  1.0
  B  B33  1  1.38833191  0.17228713  0.07715334  1.0
