# generated using pymatgen
data_Sr5B3ClO9
_symmetry_space_group_name_H-M   'P 1'
_cell_length_a   8.78993345
_cell_length_b   8.78993345
_cell_length_c   7.47225412
_cell_angle_alpha   90.00000000
_cell_angle_beta   90.00000000
_cell_angle_gamma   110.08842242
_symmetry_Int_Tables_number   1
_chemical_formula_structural   Sr5B3ClO9
_chemical_formula_sum   'Sr10 B6 Cl2 O18'
_cell_volume   542.20571820
_cell_formula_units_Z   2
loop_
 _symmetry_equiv_pos_site_id
 _symmetry_equiv_pos_as_xyz
  1  'x, y, z'
loop_
 _atom_site_type_symbol
 _atom_site_label
 _atom_site_symmetry_multiplicity
 _atom_site_fract_x
 _atom_site_fract_y
 _atom_site_fract_z
 _atom_site_occupancy
  Sr  Sr0  1  0.23788664  0.49580910  0.06447116  1.0
  Sr  Sr1  1  -0.50419090  1.23788664  0.93552884  1.0
  Sr  Sr2  1  0.50419090  0.76211336  0.43552884  1.0
  Sr  Sr3  1  -0.23788664  1.50419090  0.56447116  1.0
  Sr  Sr4  1  0.13715042  0.86284958  0.25000000  1.0
  Sr  Sr5  1  -0.13715042  1.13715042  0.75000000  1.0
  Sr  Sr6  1  -0.13502847  1.13502847  0.25000000  1.0
  Sr  Sr7  1  0.13502847  0.86497153  0.75000000  1.0
  Sr  Sr8  1  0.73866138  0.73866138  0.00000000  1.0
  Sr  Sr9  1  0.26133862  0.26133862  0.50000000  1.0
  B  B10  1  0.09017004  0.51418284  0.47118674  1.0
  B  B11  1  -0.48581716  1.09017004  0.52881326  1.0
  B  B12  1  0.48581716  0.90982996  0.02881326  1.0
  B  B13  1  -0.09017004  1.48581716  0.97118674  1.0
  B  B14  1  0.12982544  0.12982544  0.00000000  1.0
  B  B15  1  0.87017456  0.87017456  0.50000000  1.0
  Cl  Cl16  1  -0.44712332  1.44712332  0.25000000  1.0
  Cl  Cl17  1  0.44712332  0.55287668  0.75000000  1.0
  O  O18  1  0.23422948  0.52777390  0.38655177  1.0
  O  O19  1  -0.47222610  1.23422948  0.61344823  1.0
  O  O20  1  0.47222610  0.76577052  0.11344823  1.0
  O  O21  1  -0.23422948  1.47222610  0.88655177  1.0
  O  O22  1  0.02195119  0.63953654  0.01085645  1.0
  O  O23  1  -0.36046346  1.02195119  0.98914355  1.0
  O  O24  1  0.36046346  0.97804881  0.48914355  1.0
  O  O25  1  -0.02195119  1.36046346  0.51085645  1.0
  O  O26  1  0.19415239  0.19744816  0.16240993  1.0
  O  O27  1  -0.80255184  1.19415239  0.83759007  1.0
  O  O28  1  0.80255184  0.80584761  0.33759007  1.0
  O  O29  1  -0.19415239  1.80255184  0.66240993  1.0
  O  O30  1  -0.05478719  1.34736307  0.01220915  1.0
  O  O31  1  0.34736307  0.94521281  0.98779085  1.0
  O  O32  1  -0.34736307  1.05478719  0.48779085  1.0
  O  O33  1  0.05478719  0.65263693  0.51220915  1.0
  O  O34  1  0.99069115  0.99069115  0.00000000  1.0
  O  O35  1  0.00930885  0.00930885  0.50000000  1.0
