# generated using pymatgen
data_Ba(Si3N4)2
_symmetry_space_group_name_H-M   'P 1'
_cell_length_a   6.64190538
_cell_length_b   6.64190538
_cell_length_c   6.64190538
_cell_angle_alpha   105.96125864
_cell_angle_beta   89.66233624
_cell_angle_gamma   136.96240010
_symmetry_Int_Tables_number   1
_chemical_formula_structural   Ba(Si3N4)2
_chemical_formula_sum   'Ba1 Si6 N8'
_cell_volume   183.56666900
_cell_formula_units_Z   1
loop_
 _symmetry_equiv_pos_site_id
 _symmetry_equiv_pos_as_xyz
  1  'x, y, z'
loop_
 _atom_site_type_symbol
 _atom_site_label
 _atom_site_symmetry_multiplicity
 _atom_site_fract_x
 _atom_site_fract_y
 _atom_site_fract_z
 _atom_site_occupancy
  Ba  Ba0  1  -0.02202401  -0.02202401  0.00000000  1.0
  Si  Si1  1  1.30508451  1.16682408  1.54036080  1.0
  Si  Si2  1  0.62646328  1.16682408  0.86173956  1.0
  Si  Si3  1  1.30508451  0.76472371  1.13826044  1.0
  Si  Si4  1  0.62646328  0.76472371  0.45963920  1.0
  Si  Si5  1  1.08872361  1.46050751  0.62821610  1.0
  Si  Si6  1  1.83229141  1.46050751  1.37178390  1.0
  N  N7  1  0.91248883  0.79358232  1.47832433  1.0
  N  N8  1  0.31525799  0.79358232  0.88109349  1.0
  N  N9  1  0.91248883  0.43416450  1.11890651  1.0
  N  N10  1  0.31525799  0.43416450  0.52167567  1.0
  N  N11  1  0.79876632  1.11568190  0.68308442  1.0
  N  N12  1  1.43259749  1.11568190  1.31691558  1.0
  N  N13  1  0.52352798  1.30867494  0.78514695  1.0
  N  N14  1  0.52352798  0.73838103  0.21485305  1.0
