# generated using pymatgen
data_Li2H2SO5
_symmetry_space_group_name_H-M   'P 1'
_cell_length_a   5.54126592
_cell_length_b   4.89446093
_cell_length_c   8.26622370
_cell_angle_alpha   90.00000000
_cell_angle_beta   107.18844426
_cell_angle_gamma   90.00000000
_symmetry_Int_Tables_number   1
_chemical_formula_structural   Li2H2SO5
_chemical_formula_sum   'Li4 H4 S2 O10'
_cell_volume   214.17957720
_cell_formula_units_Z   2
loop_
 _symmetry_equiv_pos_site_id
 _symmetry_equiv_pos_as_xyz
  1  'x, y, z'
loop_
 _atom_site_type_symbol
 _atom_site_label
 _atom_site_symmetry_multiplicity
 _atom_site_fract_x
 _atom_site_fract_y
 _atom_site_fract_z
 _atom_site_occupancy
  Li  Li0  1  0.56073857  0.12887095  0.39554572  1.0
  Li  Li1  1  0.43926143  0.62887095  0.60445428  1.0
  Li  Li2  1  0.30323257  0.11481768  0.99384873  1.0
  Li  Li3  1  0.69676743  0.61481768  0.00615127  1.0
  H  H4  1  0.00887278  1.01537157  0.45249318  1.0
  H  H5  1  0.99112722  0.51537157  0.54750682  1.0
  H  H6  1  0.96846802  0.25825577  0.31730027  1.0
  H  H7  1  0.03153198  0.75825577  0.68269973  1.0
  S  S8  1  0.70546574  0.11191949  0.79125276  1.0
  S  S9  1  0.29453426  0.61191949  0.20874724  1.0
  O  O10  1  0.97791632  0.04113460  0.83059673  1.0
  O  O11  1  0.02208368  0.54113460  0.16940327  1.0
  O  O12  1  0.91262813  0.18306507  0.41065641  1.0
  O  O13  1  0.08737187  0.68306507  0.58934359  1.0
  O  O14  1  0.66848819  0.41524074  0.79022069  1.0
  O  O15  1  0.33151181  0.91524074  0.20977931  1.0
  O  O16  1  0.59766822  -0.01298797  0.92056383  1.0
  O  O17  1  0.40233178  0.48701203  0.07943617  1.0
  O  O18  1  0.56700067  0.00101211  0.61986715  1.0
  O  O19  1  0.43299933  0.50101211  0.38013285  1.0
