# generated using pymatgen
data_Rb2Na3InO4
_symmetry_space_group_name_H-M   'P 1'
_cell_length_a   9.78781464
_cell_length_b   9.90732407
_cell_length_c   7.55901219
_cell_angle_alpha   90.00000000
_cell_angle_beta   90.00000000
_cell_angle_gamma   90.00000000
_symmetry_Int_Tables_number   1
_chemical_formula_structural   Rb2Na3InO4
_chemical_formula_sum   'Rb8 Na12 In4 O16'
_cell_volume   733.00536178
_cell_formula_units_Z   4
loop_
 _symmetry_equiv_pos_site_id
 _symmetry_equiv_pos_as_xyz
  1  'x, y, z'
loop_
 _atom_site_type_symbol
 _atom_site_label
 _atom_site_symmetry_multiplicity
 _atom_site_fract_x
 _atom_site_fract_y
 _atom_site_fract_z
 _atom_site_occupancy
  Rb  Rb0  1  0.26990007  0.25714144  0.50000000  1.0
  Rb  Rb1  1  0.76990007  0.24285856  0.00000000  1.0
  Rb  Rb2  1  0.73009993  0.74285856  0.50000000  1.0
  Rb  Rb3  1  0.23009993  0.75714144  0.00000000  1.0
  Rb  Rb4  1  0.50000000  0.50000000  0.24487643  1.0
  Rb  Rb5  1  0.50000000  0.50000000  0.75512357  1.0
  Rb  Rb6  1  0.00000000  0.00000000  0.74487643  1.0
  Rb  Rb7  1  0.00000000  0.00000000  0.25512357  1.0
  Na  Na8  1  0.48147487  0.85340035  0.24632356  1.0
  Na  Na9  1  0.48147487  0.85340035  0.75367644  1.0
  Na  Na10  1  0.98147487  0.64659965  0.74632356  1.0
  Na  Na11  1  0.98147487  0.64659965  0.25367644  1.0
  Na  Na12  1  0.51852513  0.14659965  0.24632356  1.0
  Na  Na13  1  0.51852513  0.14659965  0.75367644  1.0
  Na  Na14  1  0.01852513  0.35340035  0.74632356  1.0
  Na  Na15  1  0.01852513  0.35340035  0.25367644  1.0
  Na  Na16  1  0.26598793  0.91806105  0.50000000  1.0
  Na  Na17  1  0.76598793  0.58193895  -0.00000000  1.0
  Na  Na18  1  0.73401207  0.08193895  0.50000000  1.0
  Na  Na19  1  0.23401207  0.41806105  -0.00000000  1.0
  In  In20  1  0.22474796  0.62695130  0.50000000  1.0
  In  In21  1  0.72474796  0.87304870  -0.00000000  1.0
  In  In22  1  0.77525204  0.37304870  0.50000000  1.0
  In  In23  1  0.27525204  0.12695130  0.00000000  1.0
  O  O24  1  0.19337191  0.51847292  0.26528452  1.0
  O  O25  1  0.19337191  0.51847292  0.73471548  1.0
  O  O26  1  0.69337191  0.98152708  0.76528452  1.0
  O  O27  1  0.69337191  0.98152708  0.23471548  1.0
  O  O28  1  0.80662809  0.48152708  0.26528452  1.0
  O  O29  1  0.80662809  0.48152708  0.73471548  1.0
  O  O30  1  0.30662809  0.01847292  0.76528452  1.0
  O  O31  1  0.30662809  0.01847292  0.23471548  1.0
  O  O32  1  0.41832785  0.72419292  0.50000000  1.0
  O  O33  1  0.91832785  0.77580708  0.00000000  1.0
  O  O34  1  0.58167215  0.27580708  0.50000000  1.0
  O  O35  1  0.08167215  0.22419292  0.00000000  1.0
  O  O36  1  0.06559032  0.77455153  0.50000000  1.0
  O  O37  1  0.56559032  0.72544847  0.00000000  1.0
  O  O38  1  0.93440968  0.22544847  0.50000000  1.0
  O  O39  1  0.43440968  0.27455153  0.00000000  1.0
