# generated using pymatgen
data_Na9Sn4
_symmetry_space_group_name_H-M   'P 1'
_cell_length_a   5.44069135
_cell_length_b   5.44069135
_cell_length_c   29.37705030
_cell_angle_alpha   90.00000000
_cell_angle_beta   90.00000000
_cell_angle_gamma   119.99441716
_symmetry_Int_Tables_number   1
_chemical_formula_structural   Na9Sn4
_chemical_formula_sum   'Na18 Sn8'
_cell_volume   753.13256316
_cell_formula_units_Z   2
loop_
 _symmetry_equiv_pos_site_id
 _symmetry_equiv_pos_as_xyz
  1  'x, y, z'
loop_
 _atom_site_type_symbol
 _atom_site_label
 _atom_site_symmetry_multiplicity
 _atom_site_fract_x
 _atom_site_fract_y
 _atom_site_fract_z
 _atom_site_occupancy
  Na  Na0  1  0.00039344  -0.00039344  0.81899941  1.0
  Na  Na1  1  0.00039344  -0.00039344  0.68100059  1.0
  Na  Na2  1  -0.00039344  1.00039344  0.31899941  1.0
  Na  Na3  1  -0.00039344  1.00039344  0.18100059  1.0
  Na  Na4  1  0.33294419  0.66705581  0.40772685  1.0
  Na  Na5  1  0.33294419  0.66705581  0.09227315  1.0
  Na  Na6  1  -0.33294419  0.33294419  0.90772685  1.0
  Na  Na7  1  -0.33294419  0.33294419  0.59227315  1.0
  Na  Na8  1  0.33337433  0.66662567  0.98080768  1.0
  Na  Na9  1  0.33337433  0.66662567  0.51919232  1.0
  Na  Na10  1  -0.33337433  0.33337433  0.48080768  1.0
  Na  Na11  1  -0.33337433  0.33337433  0.01919232  1.0
  Na  Na12  1  0.33362437  0.66637563  0.86480057  1.0
  Na  Na13  1  0.33362437  0.66637563  0.63519943  1.0
  Na  Na14  1  -0.33362437  0.33362437  0.36480057  1.0
  Na  Na15  1  -0.33362437  0.33362437  0.13519943  1.0
  Na  Na16  1  0.33378261  0.66621739  0.75000000  1.0
  Na  Na17  1  -0.33378261  0.33378261  0.25000000  1.0
  Sn  Sn18  1  0.00020465  -0.00020465  0.94910543  1.0
  Sn  Sn19  1  0.00020465  -0.00020465  0.55089457  1.0
  Sn  Sn20  1  -0.00020465  0.00020465  0.44910543  1.0
  Sn  Sn21  1  -0.00020465  0.00020465  0.05089457  1.0
  Sn  Sn22  1  -0.33288587  0.33288587  0.79863688  1.0
  Sn  Sn23  1  -0.33288587  0.33288587  0.70136312  1.0
  Sn  Sn24  1  0.33288587  0.66711413  0.29863688  1.0
  Sn  Sn25  1  0.33288587  0.66711413  0.20136312  1.0
