# generated using pymatgen
data_Ga3Pt5
_symmetry_space_group_name_H-M   'P 1'
_cell_length_a   5.53306107
_cell_length_b   5.53306107
_cell_length_c   3.99458856
_cell_angle_alpha   90.00000000
_cell_angle_beta   90.00000000
_cell_angle_gamma   93.89294430
_symmetry_Int_Tables_number   1
_chemical_formula_structural   Ga3Pt5
_chemical_formula_sum   'Ga3 Pt5'
_cell_volume   122.01121509
_cell_formula_units_Z   1
loop_
 _symmetry_equiv_pos_site_id
 _symmetry_equiv_pos_as_xyz
  1  'x, y, z'
loop_
 _atom_site_type_symbol
 _atom_site_label
 _atom_site_symmetry_multiplicity
 _atom_site_fract_x
 _atom_site_fract_y
 _atom_site_fract_z
 _atom_site_occupancy
  Ga  Ga0  1  0.28641841  0.71358159  0.50000000  1.0
  Ga  Ga1  1  -0.28641841  1.28641841  0.50000000  1.0
  Ga  Ga2  1  0.00000000  0.00000000  0.00000000  1.0
  Pt  Pt3  1  0.50000000  0.50000000  0.00000000  1.0
  Pt  Pt4  1  0.79229955  0.79229955  0.50000000  1.0
  Pt  Pt5  1  0.20770045  0.20770045  0.50000000  1.0
  Pt  Pt6  1  -0.00000000  1.50000000  0.00000000  1.0
  Pt  Pt7  1  0.50000000  1.00000000  0.00000000  1.0
