# generated using pymatgen
data_CsHSO4
_symmetry_space_group_name_H-M   'P 1'
_cell_length_a   5.63714971
_cell_length_b   5.98150908
_cell_length_c   7.30618363
_cell_angle_alpha   90.00000000
_cell_angle_beta   100.66895438
_cell_angle_gamma   90.00000000
_symmetry_Int_Tables_number   1
_chemical_formula_structural   CsHSO4
_chemical_formula_sum   'Cs2 H2 S2 O8'
_cell_volume   242.09606602
_cell_formula_units_Z   2
loop_
 _symmetry_equiv_pos_site_id
 _symmetry_equiv_pos_as_xyz
  1  'x, y, z'
loop_
 _atom_site_type_symbol
 _atom_site_label
 _atom_site_symmetry_multiplicity
 _atom_site_fract_x
 _atom_site_fract_y
 _atom_site_fract_z
 _atom_site_occupancy
  Cs  Cs0  1  0.50797682  0.75000000  0.21437590  1.0
  Cs  Cs1  1  0.49202318  0.25000000  0.78562410  1.0
  H  H2  1  -0.00000000  0.00000000  0.50000000  1.0
  H  H3  1  -0.00000000  0.50000000  0.50000000  1.0
  S  S4  1  0.93694725  0.75000000  0.73272886  1.0
  S  S5  1  0.06305275  0.25000000  0.26727114  1.0
  O  O6  1  0.86679180  0.95607433  0.60739255  1.0
  O  O7  1  0.86679180  0.54392567  0.60739255  1.0
  O  O8  1  0.13320820  0.45607433  0.39260745  1.0
  O  O9  1  0.13320820  0.04392567  0.39260745  1.0
  O  O10  1  0.78559094  0.75000000  0.87511249  1.0
  O  O11  1  0.21440906  0.25000000  0.12488751  1.0
  O  O12  1  0.19846603  0.75000000  0.80308271  1.0
  O  O13  1  0.80153397  0.25000000  0.19691729  1.0
