# generated using pymatgen
data_Mn3Cd2O8
_symmetry_space_group_name_H-M   'P 1'
_cell_length_a   6.19444684
_cell_length_b   6.19444684
_cell_length_c   4.97729520
_cell_angle_alpha   73.39479962
_cell_angle_beta   106.60520038
_cell_angle_gamma   123.51586405
_symmetry_Int_Tables_number   1
_chemical_formula_structural   Mn3Cd2O8
_chemical_formula_sum   'Mn3 Cd2 O8'
_cell_volume   150.61945412
_cell_formula_units_Z   1
loop_
 _symmetry_equiv_pos_site_id
 _symmetry_equiv_pos_as_xyz
  1  'x, y, z'
loop_
 _atom_site_type_symbol
 _atom_site_label
 _atom_site_symmetry_multiplicity
 _atom_site_fract_x
 _atom_site_fract_y
 _atom_site_fract_z
 _atom_site_occupancy
  Mn  Mn0  1  0.74136988  0.74136988  0.50000000  1.0
  Mn  Mn1  1  0.25863012  0.25863012  0.50000000  1.0
  Mn  Mn2  1  0.00000000  0.00000000  0.00000000  1.0
  Cd  Cd3  1  0.27924646  -0.27924646  0.83937536  1.0
  Cd  Cd4  1  0.72075354  0.27924646  0.16062464  1.0
  O  O5  1  0.32387301  0.11969114  0.88804738  1.0
  O  O6  1  0.88030886  0.67612699  0.88804738  1.0
  O  O7  1  1.11969114  0.32387301  0.11195262  1.0
  O  O8  1  0.67612699  -0.11969114  0.11195262  1.0
  O  O9  1  0.90361315  0.09638685  0.59970030  1.0
  O  O10  1  0.09638685  -0.09638685  0.40029970  1.0
  O  O11  1  0.60216638  0.39783362  0.45099013  1.0
  O  O12  1  0.39783362  -0.39783362  0.54900987  1.0
