# generated using pymatgen
data_Se(OF)2
_symmetry_space_group_name_H-M   'P 1'
_cell_length_a   5.91370246
_cell_length_b   5.91370246
_cell_length_c   11.95353600
_cell_angle_alpha   90.00000000
_cell_angle_beta   90.00000000
_cell_angle_gamma   90.00000000
_symmetry_Int_Tables_number   1
_chemical_formula_structural   Se(OF)2
_chemical_formula_sum   'Se4 O8 F8'
_cell_volume   418.03758839
_cell_formula_units_Z   4
loop_
 _symmetry_equiv_pos_site_id
 _symmetry_equiv_pos_as_xyz
  1  'x, y, z'
loop_
 _atom_site_type_symbol
 _atom_site_label
 _atom_site_symmetry_multiplicity
 _atom_site_fract_x
 _atom_site_fract_y
 _atom_site_fract_z
 _atom_site_occupancy
  Se  Se0  1  0.40630010  0.59369990  0.25000000  1.0
  Se  Se1  1  0.90630010  0.90630010  0.50000000  1.0
  Se  Se2  1  0.59369990  0.40630010  0.75000000  1.0
  Se  Se3  1  0.09369990  0.09369990  0.00000000  1.0
  O  O4  1  0.17448635  0.53392826  0.18726885  1.0
  O  O5  1  0.67448635  0.96607174  0.56273115  1.0
  O  O6  1  0.46607174  0.82551365  0.31273115  1.0
  O  O7  1  0.96607174  0.67448635  0.43726885  1.0
  O  O8  1  0.82551365  0.46607174  0.68726885  1.0
  O  O9  1  0.32551365  0.03392826  0.06273115  1.0
  O  O10  1  0.53392826  0.17448635  0.81273115  1.0
  O  O11  1  0.03392826  0.32551365  0.93726885  1.0
  F  F12  1  0.53168771  0.62785690  0.84119389  1.0
  F  F13  1  0.03168771  0.87214310  0.90880611  1.0
  F  F14  1  0.37214310  0.46831229  0.65880611  1.0
  F  F15  1  0.87214310  0.03168771  0.09119389  1.0
  F  F16  1  0.46831229  0.37214310  0.34119389  1.0
  F  F17  1  0.96831229  0.12785690  0.40880611  1.0
  F  F18  1  0.62785690  0.53168771  0.15880611  1.0
  F  F19  1  0.12785690  0.96831229  0.59119389  1.0
