# generated using pymatgen
data_Tl2SiSe3
_symmetry_space_group_name_H-M   'P 1'
_cell_length_a   9.07702492
_cell_length_b   7.15873108
_cell_length_c   7.06831819
_cell_angle_alpha   66.99774219
_cell_angle_beta   65.85658422
_cell_angle_gamma   72.60268389
_symmetry_Int_Tables_number   1
_chemical_formula_structural   Tl2SiSe3
_chemical_formula_sum   'Tl4 Si2 Se6'
_cell_volume   380.46546239
_cell_formula_units_Z   2
loop_
 _symmetry_equiv_pos_site_id
 _symmetry_equiv_pos_as_xyz
  1  'x, y, z'
loop_
 _atom_site_type_symbol
 _atom_site_label
 _atom_site_symmetry_multiplicity
 _atom_site_fract_x
 _atom_site_fract_y
 _atom_site_fract_z
 _atom_site_occupancy
  Tl  Tl0  1  -0.59771128  0.32127878  0.37095503  1.0
  Tl  Tl1  1  -0.40228872  0.67872122  -0.37095503  1.0
  Tl  Tl2  1  -0.16741894  0.04276590  -0.19806870  1.0
  Tl  Tl3  1  -0.83258106  0.95723410  0.19806870  1.0
  Si  Si4  1  -0.17723777  0.45207362  0.11040881  1.0
  Si  Si5  1  -0.82276223  0.54792638  -0.11040881  1.0
  Se  Se6  1  -0.40134263  0.69803244  0.14904019  1.0
  Se  Se7  1  -0.59865737  0.30196756  -0.14904019  1.0
  Se  Se8  1  -0.00730234  0.52973488  -0.25532415  1.0
  Se  Se9  1  -0.99269766  0.47026512  0.25532415  1.0
  Se  Se10  1  -0.22843629  0.12579872  -0.75436108  1.0
  Se  Se11  1  -0.77156371  0.87420128  0.75436108  1.0
