# generated using pymatgen
data_Zr(Al2Fe)4
_symmetry_space_group_name_H-M   'P 1'
_cell_length_a   6.56576511
_cell_length_b   6.56576511
_cell_length_c   6.56576511
_cell_angle_alpha   98.27573355
_cell_angle_beta   98.27573355
_cell_angle_gamma   135.40814138
_symmetry_Int_Tables_number   1
_chemical_formula_structural   Zr(Al2Fe)4
_chemical_formula_sum   'Zr1 Al8 Fe4'
_cell_volume   183.85610970
_cell_formula_units_Z   1
loop_
 _symmetry_equiv_pos_site_id
 _symmetry_equiv_pos_as_xyz
  1  'x, y, z'
loop_
 _atom_site_type_symbol
 _atom_site_label
 _atom_site_symmetry_multiplicity
 _atom_site_fract_x
 _atom_site_fract_y
 _atom_site_fract_z
 _atom_site_occupancy
  Al  Al0  1  1.33725083  1.00000000  1.33725083  1.0
  Al  Al1  1  0.66274917  1.00000000  0.66274917  1.0
  Al  Al2  1  0.00000000  0.66274917  0.66274917  1.0
  Al  Al3  1  0.00000000  0.33725083  0.33725083  1.0
  Al  Al4  1  0.28326022  0.50000000  0.78326022  1.0
  Al  Al5  1  0.71673978  0.50000000  1.21673978  1.0
  Al  Al6  1  0.50000000  0.71673978  0.21673978  1.0
  Al  Al7  1  0.50000000  1.28326022  0.78326022  1.0
  Fe  Fe8  1  1.00000000  1.00000000  0.50000000  1.0
  Fe  Fe9  1  0.50000000  0.50000000  0.50000000  1.0
  Fe  Fe10  1  1.00000000  0.50000000  1.00000000  1.0
  Fe  Fe11  1  1.50000000  1.00000000  1.00000000  1.0
  Zr  Zr12  1  0.00000000  0.00000000  0.00000000  1.0
