# generated using pymatgen
data_KAsO2
_symmetry_space_group_name_H-M   'P 1'
_cell_length_a   7.50718031
_cell_length_b   7.55252363
_cell_length_c   5.53507706
_cell_angle_alpha   90.00000000
_cell_angle_beta   90.00000000
_cell_angle_gamma   90.00000000
_symmetry_Int_Tables_number   1
_chemical_formula_structural   KAsO2
_chemical_formula_sum   'K4 As4 O8'
_cell_volume   313.82866669
_cell_formula_units_Z   4
loop_
 _symmetry_equiv_pos_site_id
 _symmetry_equiv_pos_as_xyz
  1  'x, y, z'
loop_
 _atom_site_type_symbol
 _atom_site_label
 _atom_site_symmetry_multiplicity
 _atom_site_fract_x
 _atom_site_fract_y
 _atom_site_fract_z
 _atom_site_occupancy
  K  K0  1  0.36672186  0.90843318  0.75000000  1.0
  K  K1  1  0.36672186  0.59156682  0.25000000  1.0
  K  K2  1  0.63327814  0.40843318  0.75000000  1.0
  K  K3  1  0.63327814  0.09156682  0.25000000  1.0
  As  As4  1  0.84596313  0.87691866  0.75000000  1.0
  As  As5  1  0.84596313  0.62308134  0.25000000  1.0
  As  As6  1  0.15403687  0.37691866  0.75000000  1.0
  As  As7  1  0.15403687  0.12308134  0.25000000  1.0
  O  O8  1  0.29241399  0.56119630  0.75000000  1.0
  O  O9  1  0.29241399  0.93880370  0.25000000  1.0
  O  O10  1  0.70758601  0.06119630  0.75000000  1.0
  O  O11  1  0.70758601  0.43880370  0.25000000  1.0
  O  O12  1  0.72978786  0.75000000  0.00000000  1.0
  O  O13  1  0.72978786  0.75000000  0.50000000  1.0
  O  O14  1  0.27021214  0.25000000  0.00000000  1.0
  O  O15  1  0.27021214  0.25000000  0.50000000  1.0
