# generated using pymatgen
data_Tl2CdTe4
_symmetry_space_group_name_H-M   'P 1'
_cell_length_a   7.90998360
_cell_length_b   7.90998360
_cell_length_c   7.90998360
_cell_angle_alpha   132.45580284
_cell_angle_beta   132.45580284
_cell_angle_gamma   69.51008154
_symmetry_Int_Tables_number   1
_chemical_formula_structural   Tl2CdTe4
_chemical_formula_sum   'Tl2 Cd1 Te4'
_cell_volume   264.28371320
_cell_formula_units_Z   1
loop_
 _symmetry_equiv_pos_site_id
 _symmetry_equiv_pos_as_xyz
  1  'x, y, z'
loop_
 _atom_site_type_symbol
 _atom_site_label
 _atom_site_symmetry_multiplicity
 _atom_site_fract_x
 _atom_site_fract_y
 _atom_site_fract_z
 _atom_site_occupancy
  Tl  Tl0  1  0.25000000  0.75000000  0.50000000  1.0
  Tl  Tl1  1  -0.00000000  -0.00000000  -0.00000000  1.0
  Cd  Cd2  1  0.50000000  0.50000000  1.00000000  1.0
  Te  Te3  1  0.42496636  0.91892475  1.06828583  1.0
  Te  Te4  1  1.08107525  1.14936108  1.50604161  1.0
  Te  Te5  1  0.85063892  0.35668054  0.93171417  1.0
  Te  Te6  1  0.64331946  0.57503364  0.49395839  1.0
