# generated using pymatgen
data_AuN2
_symmetry_space_group_name_H-M   'P 1'
_cell_length_a   4.98653957
_cell_length_b   6.16057527
_cell_length_c   2.93613383
_cell_angle_alpha   90.00000000
_cell_angle_beta   90.00000000
_cell_angle_gamma   90.00000000
_symmetry_Int_Tables_number   1
_chemical_formula_structural   AuN2
_chemical_formula_sum   'Au2 N4'
_cell_volume   90.19789136
_cell_formula_units_Z   2
loop_
 _symmetry_equiv_pos_site_id
 _symmetry_equiv_pos_as_xyz
  1  'x, y, z'
loop_
 _atom_site_type_symbol
 _atom_site_label
 _atom_site_symmetry_multiplicity
 _atom_site_fract_x
 _atom_site_fract_y
 _atom_site_fract_z
 _atom_site_occupancy
  Au  Au0  1  0.50000000  0.50000000  0.50000000  1.0
  Au  Au1  1  0.00000000  0.00000000  0.00000000  1.0
  N  N2  1  0.91581871  0.43458819  0.50000000  1.0
  N  N3  1  0.08418129  0.56541181  0.50000000  1.0
  N  N4  1  0.58418129  0.93458819  0.00000000  1.0
  N  N5  1  0.41581871  0.06541181  0.00000000  1.0
