# generated using pymatgen
data_Mg3MnH7
_symmetry_space_group_name_H-M   'P 1'
_cell_length_a   4.66890003
_cell_length_b   4.66890003
_cell_length_c   10.29097765
_cell_angle_alpha   90.00000000
_cell_angle_beta   90.00000000
_cell_angle_gamma   120.00000000
_symmetry_Int_Tables_number   1
_chemical_formula_structural   Mg3MnH7
_chemical_formula_sum   'Mg6 Mn2 H14'
_cell_volume   194.27477590
_cell_formula_units_Z   2
loop_
 _symmetry_equiv_pos_site_id
 _symmetry_equiv_pos_as_xyz
  1  'x, y, z'
loop_
 _atom_site_type_symbol
 _atom_site_label
 _atom_site_symmetry_multiplicity
 _atom_site_fract_x
 _atom_site_fract_y
 _atom_site_fract_z
 _atom_site_occupancy
  Mg  Mg0  1  0.00000000  0.00000000  0.25000000  1.0
  Mg  Mg1  1  0.00000000  0.00000000  0.75000000  1.0
  Mg  Mg2  1  0.33333333  0.66666667  0.43399153  1.0
  Mg  Mg3  1  0.33333333  0.66666667  0.06600847  1.0
  Mg  Mg4  1  0.66666667  0.33333333  0.93399153  1.0
  Mg  Mg5  1  0.66666667  0.33333333  0.56600847  1.0
  Mn  Mn6  1  0.00000000  0.00000000  0.50000000  1.0
  Mn  Mn7  1  0.00000000  0.00000000  0.00000000  1.0
  H  H8  1  0.33333333  0.66666667  0.25000000  1.0
  H  H9  1  0.66666667  0.33333333  0.75000000  1.0
  H  H10  1  0.16341082  0.83658918  0.90717144  1.0
  H  H11  1  0.16341082  0.83658918  0.59282856  1.0
  H  H12  1  0.16341082  0.32682165  0.90717144  1.0
  H  H13  1  0.16341082  0.32682165  0.59282856  1.0
  H  H14  1  0.83658918  0.16341082  0.40717144  1.0
  H  H15  1  0.83658918  0.16341082  0.09282856  1.0
  H  H16  1  0.83658918  0.67317835  0.40717144  1.0
  H  H17  1  0.83658918  0.67317835  0.09282856  1.0
  H  H18  1  0.67317835  0.83658918  0.90717144  1.0
  H  H19  1  0.67317835  0.83658918  0.59282856  1.0
  H  H20  1  0.32682165  0.16341082  0.40717144  1.0
  H  H21  1  0.32682165  0.16341082  0.09282856  1.0
