# generated using pymatgen
data_ZrGeO2
_symmetry_space_group_name_H-M   'P 1'
_cell_length_a   4.80191221
_cell_length_b   10.10006370
_cell_length_c   4.78691316
_cell_angle_alpha   90.00000000
_cell_angle_beta   85.45995118
_cell_angle_gamma   90.00000000
_symmetry_Int_Tables_number   1
_chemical_formula_structural   ZrGeO2
_chemical_formula_sum   'Zr4 Ge4 O8'
_cell_volume   231.43499399
_cell_formula_units_Z   4
loop_
 _symmetry_equiv_pos_site_id
 _symmetry_equiv_pos_as_xyz
  1  'x, y, z'
loop_
 _atom_site_type_symbol
 _atom_site_label
 _atom_site_symmetry_multiplicity
 _atom_site_fract_x
 _atom_site_fract_y
 _atom_site_fract_z
 _atom_site_occupancy
  Zr  Zr0  1  -0.00000000  0.38787865  0.25000000  1.0
  Zr  Zr1  1  0.00000000  0.61212135  0.75000000  1.0
  Zr  Zr2  1  0.50000000  0.12931678  0.25000000  1.0
  Zr  Zr3  1  0.50000000  0.87068322  0.75000000  1.0
  Ge  Ge4  1  -0.00000000  0.91559071  0.25000000  1.0
  Ge  Ge5  1  0.00000000  0.08440929  0.75000000  1.0
  Ge  Ge6  1  0.50000000  0.66013400  0.25000000  1.0
  Ge  Ge7  1  0.50000000  0.33986600  0.75000000  1.0
  O  O8  1  0.84860881  0.79424480  0.54308703  1.0
  O  O9  1  0.84860881  0.20575520  0.04308703  1.0
  O  O10  1  0.76043526  0.54511977  0.42393112  1.0
  O  O11  1  0.76043526  0.45488023  0.92393112  1.0
  O  O12  1  0.15139119  0.20575520  0.45691297  1.0
  O  O13  1  0.15139119  0.79424480  -0.04308703  1.0
  O  O14  1  0.23956474  0.54511977  0.07606888  1.0
  O  O15  1  0.23956474  0.45488023  0.57606888  1.0
