# generated using pymatgen
data_Fe2PClO4
_symmetry_space_group_name_H-M   'P 1'
_cell_length_a   8.18826932
_cell_length_b   8.18826932
_cell_length_c   9.40072831
_cell_angle_alpha   56.60067372
_cell_angle_beta   123.39932628
_cell_angle_gamma   110.81369575
_symmetry_Int_Tables_number   1
_chemical_formula_structural   Fe2PClO4
_chemical_formula_sum   'Fe8 P4 Cl4 O16'
_cell_volume   438.06689983
_cell_formula_units_Z   4
loop_
 _symmetry_equiv_pos_site_id
 _symmetry_equiv_pos_as_xyz
  1  'x, y, z'
loop_
 _atom_site_type_symbol
 _atom_site_label
 _atom_site_symmetry_multiplicity
 _atom_site_fract_x
 _atom_site_fract_y
 _atom_site_fract_z
 _atom_site_occupancy
  Fe  Fe0  1  0.57171052  -0.08555340  0.83273368  1.0
  Fe  Fe1  1  1.08555340  0.42828948  0.33273368  1.0
  Fe  Fe2  1  0.91444660  0.57171052  0.66726632  1.0
  Fe  Fe3  1  0.42828948  0.08555340  0.16726632  1.0
  Fe  Fe4  1  0.00000000  0.00000000  0.00000000  1.0
  Fe  Fe5  1  0.00000000  -0.00000000  0.50000000  1.0
  Fe  Fe6  1  0.74019043  -0.25980957  0.75000000  1.0
  Fe  Fe7  1  0.25980957  0.25980957  0.25000000  1.0
  O  O8  1  0.45157732  -0.22077495  0.65509932  1.0
  O  O9  1  1.22077495  -0.45157732  0.15509932  1.0
  O  O10  1  0.77922505  -0.54842268  0.84490068  1.0
  O  O11  1  0.54842268  0.22077495  0.34490068  1.0
  O  O12  1  0.41488594  -0.22171142  0.97152098  1.0
  O  O13  1  1.22171142  0.58511406  0.47152098  1.0
  O  O14  1  0.77828858  0.41488594  0.52847902  1.0
  O  O15  1  0.58511406  0.22171142  0.02847902  1.0
  O  O16  1  0.77567046  0.03976773  0.70585217  1.0
  O  O17  1  0.96023227  0.22432954  0.20585217  1.0
  O  O18  1  1.03976773  0.77567046  0.79414783  1.0
  O  O19  1  0.22432954  -0.03976773  0.29414783  1.0
  O  O20  1  1.77161517  0.08353503  0.97365200  1.0
  O  O21  1  0.91646497  0.22838483  0.47365200  1.0
  O  O22  1  1.08353503  0.77161517  0.52634800  1.0
  O  O23  1  1.22838483  -0.08353503  0.02634800  1.0
  Cl  Cl24  1  1.17782798  0.33835128  0.92153911  1.0
  Cl  Cl25  1  1.66164872  -0.17782798  0.42153911  1.0
  Cl  Cl26  1  1.33835128  0.17782798  0.57846089  1.0
  Cl  Cl27  1  0.82217202  0.66164872  0.07846089  1.0
  P  P28  1  0.75433666  0.23293023  0.51104293  1.0
  P  P29  1  0.76706977  0.24566334  0.01104293  1.0
  P  P30  1  1.23293023  0.75433666  0.98895707  1.0
  P  P31  1  0.24566334  -0.23293023  0.48895707  1.0
