# generated using pymatgen
data_SrNb4O6
_symmetry_space_group_name_H-M   'P 1'
_cell_length_a   4.19098176
_cell_length_b   4.19098176
_cell_length_c   16.34260770
_cell_angle_alpha   90.00000000
_cell_angle_beta   90.00000000
_cell_angle_gamma   90.00000000
_symmetry_Int_Tables_number   1
_chemical_formula_structural   SrNb4O6
_chemical_formula_sum   'Sr2 Nb8 O12'
_cell_volume   287.04692375
_cell_formula_units_Z   2
loop_
 _symmetry_equiv_pos_site_id
 _symmetry_equiv_pos_as_xyz
  1  'x, y, z'
loop_
 _atom_site_type_symbol
 _atom_site_label
 _atom_site_symmetry_multiplicity
 _atom_site_fract_x
 _atom_site_fract_y
 _atom_site_fract_z
 _atom_site_occupancy
  Sr  Sr0  1  0.50000000  0.50000000  0.87560286  1.0
  Sr  Sr1  1  0.50000000  0.50000000  0.12439714  1.0
  Nb  Nb2  1  0.00000000  0.50000000  0.63108469  1.0
  Nb  Nb3  1  0.00000000  0.50000000  0.36891531  1.0
  Nb  Nb4  1  0.50000000  0.00000000  0.63108469  1.0
  Nb  Nb5  1  0.50000000  0.00000000  0.36891531  1.0
  Nb  Nb6  1  0.00000000  0.00000000  0.75191541  1.0
  Nb  Nb7  1  0.00000000  0.00000000  0.24808459  1.0
  Nb  Nb8  1  0.00000000  0.00000000  0.00000000  1.0
  Nb  Nb9  1  0.00000000  0.00000000  0.50000000  1.0
  O  O10  1  0.00000000  0.50000000  0.50000000  1.0
  O  O11  1  0.50000000  0.00000000  0.50000000  1.0
  O  O12  1  0.00000000  0.50000000  0.76142013  1.0
  O  O13  1  0.00000000  0.50000000  0.23857987  1.0
  O  O14  1  0.50000000  0.00000000  0.76142013  1.0
  O  O15  1  0.50000000  0.00000000  0.23857987  1.0
  O  O16  1  0.50000000  0.50000000  0.62619404  1.0
  O  O17  1  0.50000000  0.50000000  0.37380596  1.0
  O  O18  1  0.00000000  0.00000000  0.88062729  1.0
  O  O19  1  0.00000000  0.00000000  0.11937271  1.0
  O  O20  1  0.00000000  0.50000000  0.00000000  1.0
  O  O21  1  0.50000000  0.00000000  0.00000000  1.0
