# generated using pymatgen
data_CsCoH24(C7N4)2
_symmetry_space_group_name_H-M   'P 1'
_cell_length_a   9.16609829
_cell_length_b   9.16609829
_cell_length_c   9.13374713
_cell_angle_alpha   59.96098741
_cell_angle_beta   120.03901259
_cell_angle_gamma   119.98233812
_symmetry_Int_Tables_number   1
_chemical_formula_structural   CsCoH24(C7N4)2
_chemical_formula_sum   'Cs1 Co1 H24 C14 N8'
_cell_volume   542.38107683
_cell_formula_units_Z   1
loop_
 _symmetry_equiv_pos_site_id
 _symmetry_equiv_pos_as_xyz
  1  'x, y, z'
loop_
 _atom_site_type_symbol
 _atom_site_label
 _atom_site_symmetry_multiplicity
 _atom_site_fract_x
 _atom_site_fract_y
 _atom_site_fract_z
 _atom_site_occupancy
  Cs  Cs0  1  0.50000000  -0.50000000  0.50000000  1.0
  Co  Co1  1  0.00000000  0.00000000  0.00000000  1.0
  H  H2  1  0.24445591  -0.24445591  0.97820734  1.0
  H  H3  1  0.75554409  -0.75554409  0.02179266  1.0
  H  H4  1  1.25336101  0.55081708  1.00731761  1.0
  H  H5  1  1.55081708  0.25336101  -0.00731761  1.0
  H  H6  1  0.74663899  -0.55081708  -0.00731761  1.0
  H  H7  1  0.44918292  -0.25336101  1.00731761  1.0
  H  H8  1  0.28948445  -0.28948445  0.56565181  1.0
  H  H9  1  0.71051555  -0.71051555  0.43434819  1.0
  H  H10  1  1.27924174  0.52476681  0.77004738  1.0
  H  H11  1  1.52476681  0.27924174  0.22995262  1.0
  H  H12  1  0.72075826  -0.52476681  0.22995262  1.0
  H  H13  1  0.47523319  -0.27924174  0.77004738  1.0
  H  H14  1  0.99390209  0.73772452  0.70581616  1.0
  H  H15  1  1.73772452  -0.00609791  0.29418384  1.0
  H  H16  1  1.00609791  -0.73772452  0.29418384  1.0
  H  H17  1  0.26227548  0.00609791  0.70581616  1.0
  H  H18  1  1.01295926  0.72597995  0.52584050  1.0
  H  H19  1  1.72597995  0.01295926  0.47415950  1.0
  H  H20  1  0.98704074  -0.72597995  0.47415950  1.0
  H  H21  1  0.27402005  -0.01295926  0.52584050  1.0
  H  H22  1  1.00290998  0.53635093  0.72742961  1.0
  H  H23  1  1.53635093  0.00290998  0.27257039  1.0
  H  H24  1  0.99709002  -0.53635093  0.27257039  1.0
  H  H25  1  0.46364907  -0.00290998  0.72742961  1.0
  C  C26  1  0.14526914  -0.14526914  0.15919284  1.0
  C  C27  1  0.85473086  -0.85473086  0.84080716  1.0
  C  C28  1  0.86109621  -0.15211573  0.86102990  1.0
  C  C29  1  0.84788427  -0.13890379  0.13897010  1.0
  C  C30  1  1.13890379  0.15211573  0.13897010  1.0
  C  C31  1  1.15211573  0.13890379  0.86102990  1.0
  C  C32  1  0.30301638  -0.30301638  0.95061785  1.0
  C  C33  1  0.69698362  -0.69698362  0.04938215  1.0
  C  C34  1  0.32943148  -0.32943148  0.71166631  1.0
  C  C35  1  0.67056852  -0.67056852  0.28833369  1.0
  C  C36  1  1.05045478  0.68259448  0.67173681  1.0
  C  C37  1  1.68259448  0.05045478  0.32826319  1.0
  C  C38  1  0.94954522  -0.68259448  0.32826319  1.0
  C  C39  1  0.31740552  -0.05045478  0.67173681  1.0
  N  N40  1  0.23582100  -0.23582100  0.25753997  1.0
  N  N41  1  0.76417900  -0.76417900  0.74246003  1.0
  N  N42  1  0.77405438  -0.24658705  0.77410754  1.0
  N  N43  1  0.75341295  -0.22594562  0.22589246  1.0
  N  N44  1  1.22594562  0.24658705  0.22589246  1.0
  N  N45  1  1.24658705  0.22594562  0.77410754  1.0
  N  N46  1  0.25011474  -0.25011474  0.75149299  1.0
  N  N47  1  0.74988526  -0.74988526  0.24850701  1.0
