# generated using pymatgen
data_Sr6V9(S11O)2
_symmetry_space_group_name_H-M   'P 1'
_cell_length_a   12.95004359
_cell_length_b   12.95004359
_cell_length_c   12.95004359
_cell_angle_alpha   39.30804553
_cell_angle_beta   39.30804553
_cell_angle_gamma   39.30804553
_symmetry_Int_Tables_number   1
_chemical_formula_structural   Sr6V9(S11O)2
_chemical_formula_sum   'Sr6 V9 S22 O2'
_cell_volume   784.25476843
_cell_formula_units_Z   1
loop_
 _symmetry_equiv_pos_site_id
 _symmetry_equiv_pos_as_xyz
  1  'x, y, z'
loop_
 _atom_site_type_symbol
 _atom_site_label
 _atom_site_symmetry_multiplicity
 _atom_site_fract_x
 _atom_site_fract_y
 _atom_site_fract_z
 _atom_site_occupancy
  Sr  Sr0  1  0.26518976  0.91342972  -0.51147575  1.0
  Sr  Sr1  1  0.51147575  -0.26518976  0.08657028  1.0
  Sr  Sr2  1  1.08657028  -0.48852425  -0.26518976  1.0
  Sr  Sr3  1  0.73481024  0.08657028  -0.48852425  1.0
  Sr  Sr4  1  0.48852425  0.26518976  -0.08657028  1.0
  Sr  Sr5  1  0.91342972  0.48852425  -0.73481024  1.0
  V  V6  1  0.55318608  0.28284614  -0.83639871  1.0
  V  V7  1  0.83639871  0.44681392  -0.28284614  1.0
  V  V8  1  0.71715386  0.83639871  -0.55318608  1.0
  V  V9  1  0.44681392  0.71715386  -0.16360129  1.0
  V  V10  1  0.16360129  0.55318608  -0.71715386  1.0
  V  V11  1  0.28284614  0.16360129  -0.44681392  1.0
  V  V12  1  0.15438489  0.15438489  0.15438489  1.0
  V  V13  1  0.84561511  -0.15438489  -0.15438489  1.0
  V  V14  1  0.00000000  0.00000000  0.00000000  1.0
  S  S15  1  0.15034170  0.89364208  -0.63925550  1.0
  S  S16  1  0.63925550  -0.15034170  0.10635792  1.0
  S  S17  1  1.10635792  -0.36074450  -0.15034170  1.0
  S  S18  1  0.84965830  0.10635792  -0.36074450  1.0
  S  S19  1  0.36074450  0.15034170  -0.10635792  1.0
  S  S20  1  0.89364208  0.36074450  -0.84965830  1.0
  S  S21  1  0.23302530  0.79855264  -0.91572685  1.0
  S  S22  1  0.91572685  -0.23302530  0.20144736  1.0
  S  S23  1  1.20144736  -0.08427315  -0.23302530  1.0
  S  S24  1  0.76697470  0.20144736  -0.08427315  1.0
  S  S25  1  0.08427315  0.23302530  -0.20144736  1.0
  S  S26  1  0.79855264  0.08427315  -0.76697470  1.0
  S  S27  1  0.48571653  1.05194421  -0.65852981  1.0
  S  S28  1  0.65852981  -0.48571653  -0.05194421  1.0
  S  S29  1  0.94805579  -0.34147019  -0.48571653  1.0
  S  S30  1  0.51428347  -0.05194421  -0.34147019  1.0
  S  S31  1  0.34147019  0.48571653  0.05194421  1.0
  S  S32  1  1.05194421  0.34147019  -0.51428347  1.0
  S  S33  1  0.37664488  0.37664488  -0.62335512  1.0
  S  S34  1  0.62335512  0.62335512  -0.37664488  1.0
  S  S35  1  0.47043711  0.47043711  -0.52956289  1.0
  S  S36  1  0.52956289  0.52956289  -0.47043711  1.0
  O  O37  1  0.20251919  0.20251919  0.20251919  1.0
  O  O38  1  0.79748081  -0.20251919  -0.20251919  1.0
