# generated using pymatgen
data_W3(I2Cl)2
_symmetry_space_group_name_H-M   'P 1'
_cell_length_a   10.10629766
_cell_length_b   10.10629766
_cell_length_c   12.23551606
_cell_angle_alpha   90.00000000
_cell_angle_beta   90.00000000
_cell_angle_gamma   74.53418336
_symmetry_Int_Tables_number   1
_chemical_formula_structural   W3(I2Cl)2
_chemical_formula_sum   'W12 I16 Cl8'
_cell_volume   1204.44993280
_cell_formula_units_Z   4
loop_
 _symmetry_equiv_pos_site_id
 _symmetry_equiv_pos_as_xyz
  1  'x, y, z'
loop_
 _atom_site_type_symbol
 _atom_site_label
 _atom_site_symmetry_multiplicity
 _atom_site_fract_x
 _atom_site_fract_y
 _atom_site_fract_z
 _atom_site_occupancy
  W  W0  1  -0.11768119  0.88231881  0.50000000  1.0
  W  W1  1  0.38231881  1.38231881  0.00000000  1.0
  W  W2  1  0.11768119  1.11768119  0.50000000  1.0
  W  W3  1  -0.38231881  0.61768119  0.00000000  1.0
  W  W4  1  0.08704218  0.91295782  0.62708774  1.0
  W  W5  1  -0.08704218  1.08704218  0.37291226  1.0
  W  W6  1  0.41295782  0.58704218  0.12708774  1.0
  W  W7  1  -0.41295782  1.41295782  0.87291226  1.0
  W  W8  1  0.12723741  0.87276259  0.41291286  1.0
  W  W9  1  -0.12723741  1.12723741  0.58708714  1.0
  W  W10  1  0.37276259  0.62723741  0.91291286  1.0
  W  W11  1  -0.37276259  1.37276259  0.08708714  1.0
  I  I12  1  -0.08066288  0.83353853  0.27161292  1.0
  I  I13  1  -0.16646147  0.91933712  0.72838708  1.0
  I  I14  1  0.33353853  1.41933712  0.77161292  1.0
  I  I15  1  0.41933712  1.33353853  0.22838708  1.0
  I  I16  1  0.08066288  1.16646147  0.72838708  1.0
  I  I17  1  0.16646147  1.08066288  0.27161292  1.0
  I  I18  1  -0.33353853  0.58066288  0.22838708  1.0
  I  I19  1  -0.41933712  0.66646147  0.77161292  1.0
  I  I20  1  0.10429495  0.64797623  0.54287221  1.0
  I  I21  1  -0.35202377  1.10429495  0.45712779  1.0
  I  I22  1  0.14797623  0.60429495  0.04287221  1.0
  I  I23  1  -0.39570505  1.14797623  0.95712779  1.0
  I  I24  1  -0.10429495  1.35202377  0.45712779  1.0
  I  I25  1  0.35202377  0.89570505  0.54287221  1.0
  I  I26  1  -0.14797623  1.39570505  0.95712779  1.0
  I  I27  1  0.39570505  0.85202377  0.04287221  1.0
  Cl  Cl28  1  -0.27019403  0.72980597  0.50000000  1.0
  Cl  Cl29  1  0.22980597  1.22980597  -0.00000000  1.0
  Cl  Cl30  1  0.27019403  1.27019403  0.50000000  1.0
  Cl  Cl31  1  -0.22980597  0.77019403  0.00000000  1.0
  Cl  Cl32  1  0.30779509  0.69220491  0.30771567  1.0
  Cl  Cl33  1  -0.30779509  1.30779509  0.69228433  1.0
  Cl  Cl34  1  0.19220491  0.80779509  0.80771567  1.0
  Cl  Cl35  1  -0.19220491  1.19220491  0.19228433  1.0
