# generated using pymatgen
data_Na2Zn(SO6)2
_symmetry_space_group_name_H-M   'P 1'
_cell_length_a   6.61219047
_cell_length_b   8.15067837
_cell_length_c   10.49292397
_cell_angle_alpha   90.00000000
_cell_angle_beta   92.76101917
_cell_angle_gamma   90.00000000
_symmetry_Int_Tables_number   1
_chemical_formula_structural   Na2Zn(SO6)2
_chemical_formula_sum   'Na4 Zn2 S4 O24'
_cell_volume   564.84747279
_cell_formula_units_Z   2
loop_
 _symmetry_equiv_pos_site_id
 _symmetry_equiv_pos_as_xyz
  1  'x, y, z'
loop_
 _atom_site_type_symbol
 _atom_site_label
 _atom_site_symmetry_multiplicity
 _atom_site_fract_x
 _atom_site_fract_y
 _atom_site_fract_z
 _atom_site_occupancy
  O  O0  1  0.86925360  0.21469486  1.00471479  1.0
  O  O1  1  0.86925360  0.28530514  0.50471479  1.0
  O  O2  1  0.13074640  0.71469486  0.49528521  1.0
  O  O3  1  0.13074640  0.78530514  -0.00471479  1.0
  O  O4  1  1.02779204  0.60373065  0.66899292  1.0
  O  O5  1  1.02779204  -0.10373065  0.16899292  1.0
  O  O6  1  -0.02779204  1.10373065  0.83100708  1.0
  O  O7  1  -0.02779204  0.39626935  0.33100708  1.0
  O  O8  1  0.49930515  0.66852268  0.86011804  1.0
  O  O9  1  0.49930515  0.83147732  0.36011804  1.0
  O  O10  1  0.50069485  0.16852268  0.63988196  1.0
  O  O11  1  0.50069485  0.33147732  0.13988196  1.0
  O  O12  1  0.76590985  0.76965507  0.72746485  1.0
  O  O13  1  0.76590985  0.73034493  0.22746485  1.0
  O  O14  1  0.23409015  0.26965507  0.77253515  1.0
  O  O15  1  0.23409015  0.23034493  0.27253515  1.0
  O  O16  1  0.70857502  0.89528696  0.93340141  1.0
  O  O17  1  0.70857502  0.60471304  0.43340141  1.0
  O  O18  1  0.29142498  0.39528696  0.56659859  1.0
  O  O19  1  0.29142498  0.10471304  0.06659859  1.0
  O  O20  1  0.85279442  0.61794240  0.92591464  1.0
  O  O21  1  0.85279442  0.88205760  0.42591464  1.0
  O  O22  1  0.14720558  0.11794240  0.57408536  1.0
  O  O23  1  0.14720558  0.38205760  0.07408536  1.0
  S  S24  1  0.70656915  0.73501669  0.86110820  1.0
  S  S25  1  0.70656915  0.76498331  0.36110820  1.0
  S  S26  1  0.29343085  0.23501669  0.63889180  1.0
  S  S27  1  0.29343085  0.26498331  0.13889180  1.0
  Zn  Zn28  1  0.00000000  0.00000000  0.00000000  1.0
  Zn  Zn29  1  0.00000000  0.50000000  0.50000000  1.0
  Na  Na30  1  0.80722515  1.02774721  0.62166315  1.0
  Na  Na31  1  0.80722515  0.47225279  0.12166315  1.0
  Na  Na32  1  0.19277485  0.52774721  0.87833685  1.0
  Na  Na33  1  0.19277485  -0.02774721  0.37833685  1.0
