# generated using pymatgen
data_VO2
_symmetry_space_group_name_H-M   'P 1'
_cell_length_a   8.45925837
_cell_length_b   8.45925837
_cell_length_c   7.57447938
_cell_angle_alpha   90.00000000
_cell_angle_beta   90.00000000
_cell_angle_gamma   90.00000000
_symmetry_Int_Tables_number   1
_chemical_formula_structural   VO2
_chemical_formula_sum   'V16 O32'
_cell_volume   542.02256493
_cell_formula_units_Z   16
loop_
 _symmetry_equiv_pos_site_id
 _symmetry_equiv_pos_as_xyz
  1  'x, y, z'
loop_
 _atom_site_type_symbol
 _atom_site_label
 _atom_site_symmetry_multiplicity
 _atom_site_fract_x
 _atom_site_fract_y
 _atom_site_fract_z
 _atom_site_occupancy
  O  O0  1  0.50001369  0.34664243  0.87498884  1.0
  O  O1  1  0.50001369  0.65335757  0.37498884  1.0
  O  O2  1  0.00001369  0.15335757  0.12501116  1.0
  O  O3  1  0.00001369  0.84664243  0.62501116  1.0
  O  O4  1  0.49998631  0.65335757  0.87498884  1.0
  O  O5  1  0.49998631  0.34664243  0.37498884  1.0
  O  O6  1  0.99998631  0.84664243  0.12501116  1.0
  O  O7  1  0.99998631  0.15335757  0.62501116  1.0
  O  O8  1  0.34664243  0.49998631  0.12501116  1.0
  O  O9  1  0.65335757  0.49998631  0.62501116  1.0
  O  O10  1  0.15335757  0.99998631  0.87498884  1.0
  O  O11  1  0.84664243  0.99998631  0.37498884  1.0
  O  O12  1  0.65335757  0.50001369  0.12501116  1.0
  O  O13  1  0.34664243  0.50001369  0.62501116  1.0
  O  O14  1  0.84664243  0.00001369  0.87498884  1.0
  O  O15  1  0.15335757  0.00001369  0.37498884  1.0
  O  O16  1  0.15648387  0.34351613  0.87503916  1.0
  O  O17  1  0.15648387  0.65648387  0.37503916  1.0
  O  O18  1  0.65648387  0.15648387  0.12496084  1.0
  O  O19  1  0.65648387  0.84351613  0.62496084  1.0
  O  O20  1  0.84351613  0.65648387  0.87503916  1.0
  O  O21  1  0.84351613  0.34351613  0.37503916  1.0
  O  O22  1  0.34351613  0.84351613  0.12496084  1.0
  O  O23  1  0.34351613  0.15648387  0.62496084  1.0
  O  O24  1  0.15647726  0.34352274  0.37500847  1.0
  O  O25  1  0.15647726  0.65647726  0.87500847  1.0
  O  O26  1  0.65647726  0.15647726  0.62499153  1.0
  O  O27  1  0.65647726  0.84352274  0.12499153  1.0
  O  O28  1  0.84352274  0.65647726  0.37500847  1.0
  O  O29  1  0.84352274  0.34352274  0.87500847  1.0
  O  O30  1  0.34352274  0.84352274  0.62499153  1.0
  O  O31  1  0.34352274  0.15647726  0.12499153  1.0
  V  V32  1  0.50000191  0.29443164  0.62497340  1.0
  V  V33  1  0.50000191  0.70556836  0.12497340  1.0
  V  V34  1  0.00000191  0.20556836  0.37502660  1.0
  V  V35  1  0.00000191  0.79443164  0.87502660  1.0
  V  V36  1  0.49999809  0.70556836  0.62497340  1.0
  V  V37  1  0.49999809  0.29443164  0.12497340  1.0
  V  V38  1  0.99999809  0.79443164  0.37502660  1.0
  V  V39  1  0.99999809  0.20556836  0.87502660  1.0
  V  V40  1  0.29443164  0.49999809  0.37502660  1.0
  V  V41  1  0.70556836  0.49999809  0.87502660  1.0
  V  V42  1  0.20556836  0.99999809  0.62497340  1.0
  V  V43  1  0.79443164  0.99999809  0.12497340  1.0
  V  V44  1  0.70556836  0.50000191  0.37502660  1.0
  V  V45  1  0.29443164  0.50000191  0.87502660  1.0
  V  V46  1  0.79443164  0.00000191  0.62497340  1.0
  V  V47  1  0.20556836  0.00000191  0.12497340  1.0
