# generated using pymatgen
data_TaSiNi
_symmetry_space_group_name_H-M   'P 1'
_cell_length_a   6.21294570
_cell_length_b   3.69209518
_cell_length_c   7.06864469
_cell_angle_alpha   90.00000000
_cell_angle_beta   90.00000000
_cell_angle_gamma   90.00000000
_symmetry_Int_Tables_number   1
_chemical_formula_structural   TaSiNi
_chemical_formula_sum   'Ta4 Si4 Ni4'
_cell_volume   162.14613410
_cell_formula_units_Z   4
loop_
 _symmetry_equiv_pos_site_id
 _symmetry_equiv_pos_as_xyz
  1  'x, y, z'
loop_
 _atom_site_type_symbol
 _atom_site_label
 _atom_site_symmetry_multiplicity
 _atom_site_fract_x
 _atom_site_fract_y
 _atom_site_fract_z
 _atom_site_occupancy
  Ta  Ta0  1  0.98227935  0.75000000  0.67632815  1.0
  Ta  Ta1  1  0.48227935  0.75000000  0.82367185  1.0
  Ta  Ta2  1  0.01772065  0.25000000  0.32367185  1.0
  Ta  Ta3  1  0.51772065  0.25000000  0.17632815  1.0
  Si  Si4  1  0.71882801  0.75000000  0.38403601  1.0
  Si  Si5  1  0.21882801  0.75000000  0.11596399  1.0
  Si  Si6  1  0.28117199  0.25000000  0.61596399  1.0
  Si  Si7  1  0.78117199  0.25000000  0.88403601  1.0
  Ni  Ni8  1  0.84449130  0.75000000  0.06937109  1.0
  Ni  Ni9  1  0.34449130  0.75000000  0.43062891  1.0
  Ni  Ni10  1  0.15550870  0.25000000  0.93062891  1.0
  Ni  Ni11  1  0.65550870  0.25000000  0.56937109  1.0
