# generated using pymatgen
data_Bi12RuO20
_symmetry_space_group_name_H-M   'P 1'
_cell_length_a   8.98664023
_cell_length_b   8.98664023
_cell_length_c   8.98664023
_cell_angle_alpha   109.47122063
_cell_angle_beta   109.47122063
_cell_angle_gamma   109.47122063
_symmetry_Int_Tables_number   1
_chemical_formula_structural   Bi12RuO20
_chemical_formula_sum   'Bi12 Ru1 O20'
_cell_volume   558.68907141
_cell_formula_units_Z   1
loop_
 _symmetry_equiv_pos_site_id
 _symmetry_equiv_pos_as_xyz
  1  'x, y, z'
loop_
 _atom_site_type_symbol
 _atom_site_label
 _atom_site_symmetry_multiplicity
 _atom_site_fract_x
 _atom_site_fract_y
 _atom_site_fract_z
 _atom_site_occupancy
  Bi  Bi0  1  0.49687332  0.33741061  0.19472867  1.0
  Bi  Bi1  1  1.14268194  1.30214464  0.80527133  1.0
  Bi  Bi2  1  0.19472867  0.49687332  0.33741061  1.0
  Bi  Bi3  1  1.15946270  0.85731806  1.66258939  1.0
  Bi  Bi4  1  0.33741061  0.19472867  0.49687332  1.0
  Bi  Bi5  1  0.69785536  0.84053730  0.50312668  1.0
  Bi  Bi6  1  0.85731806  1.66258939  1.15946270  1.0
  Bi  Bi7  1  0.50312668  0.69785536  0.84053730  1.0
  Bi  Bi8  1  0.84053730  0.50312668  0.69785536  1.0
  Bi  Bi9  1  0.80527133  1.14268194  1.30214464  1.0
  Bi  Bi10  1  1.30214464  0.80527133  1.14268194  1.0
  Bi  Bi11  1  1.66258939  1.15946270  0.85731806  1.0
  Ru  Ru12  1  0.00000000  0.00000000  0.00000000  1.0
  O  O13  1  0.73389212  0.62264958  0.37554943  1.0
  O  O14  1  1.24710015  1.35834270  0.62445057  1.0
  O  O15  1  0.37554943  0.73389212  0.62264958  1.0
  O  O16  1  1.11124254  0.75289985  1.37735042  1.0
  O  O17  1  0.62264958  0.37554943  0.73389212  1.0
  O  O18  1  0.64165730  0.88875746  0.26610788  1.0
  O  O19  1  0.75289985  1.37735042  1.11124254  1.0
  O  O20  1  0.26610788  0.64165730  0.88875746  1.0
  O  O21  1  0.88875746  0.26610788  0.64165730  1.0
  O  O22  1  0.62445057  1.24710015  1.35834270  1.0
  O  O23  1  1.35834270  0.62445057  1.24710015  1.0
  O  O24  1  1.37735042  1.11124254  0.75289985  1.0
  O  O25  1  0.78972890  0.78972890  0.78972890  1.0
  O  O26  1  1.00000000  1.00000000  0.21027110  1.0
  O  O27  1  1.00000000  0.21027110  1.00000000  1.0
  O  O28  1  0.21027110  1.00000000  1.00000000  1.0
  O  O29  1  0.38676736  0.38676736  0.38676736  1.0
  O  O30  1  1.00000000  1.00000000  0.61323264  1.0
  O  O31  1  1.00000000  0.61323264  1.00000000  1.0
  O  O32  1  0.61323264  1.00000000  1.00000000  1.0
