# generated using pymatgen
data_LiYF2
_symmetry_space_group_name_H-M   'P 1'
_cell_length_a   7.88958281
_cell_length_b   7.88958281
_cell_length_c   7.88958281
_cell_angle_alpha   128.99048120
_cell_angle_beta   128.99048120
_cell_angle_gamma   75.02589039
_symmetry_Int_Tables_number   1
_chemical_formula_structural   LiYF2
_chemical_formula_sum   'Li4 Y4 F8'
_cell_volume   288.89059691
_cell_formula_units_Z   4
loop_
 _symmetry_equiv_pos_site_id
 _symmetry_equiv_pos_as_xyz
  1  'x, y, z'
loop_
 _atom_site_type_symbol
 _atom_site_label
 _atom_site_symmetry_multiplicity
 _atom_site_fract_x
 _atom_site_fract_y
 _atom_site_fract_z
 _atom_site_occupancy
  Li  Li0  1  0.87500000  0.12500000  0.75000000  1.0
  Li  Li1  1  0.37500000  0.12500000  0.25000000  1.0
  Li  Li2  1  0.87500000  0.62500000  0.75000000  1.0
  Li  Li3  1  0.87500000  1.12500000  1.25000000  1.0
  Y  Y4  1  0.37500000  0.62500000  0.75000000  1.0
  Y  Y5  1  0.87500000  0.62500000  1.25000000  1.0
  Y  Y6  1  0.37500000  1.12500000  0.75000000  1.0
  Y  Y7  1  0.37500000  0.62500000  0.25000000  1.0
  F  F8  1  1.18678133  0.89842131  1.71163584  1.0
  F  F9  1  0.56321453  0.77485451  1.21163584  1.0
  F  F10  1  1.10157869  0.81321453  1.28836002  1.0
  F  F11  1  1.22514549  1.43678133  1.78836002  1.0
  F  F12  1  0.18678547  0.47514549  0.28836416  1.0
  F  F13  1  0.56321867  0.35157869  0.78836416  1.0
  F  F14  1  0.52485451  0.81321867  0.71163998  1.0
  F  F15  1  0.64842131  0.43678547  0.21163998  1.0
