# generated using pymatgen
data_Li2CdSnS4
_symmetry_space_group_name_H-M   'P 1'
_cell_length_a   8.05637332
_cell_length_b   7.02851787
_cell_length_c   6.59017118
_cell_angle_alpha   90.00000000
_cell_angle_beta   90.00000000
_cell_angle_gamma   90.00000000
_symmetry_Int_Tables_number   1
_chemical_formula_structural   Li2CdSnS4
_chemical_formula_sum   'Li4 Cd2 Sn2 S8'
_cell_volume   373.16425045
_cell_formula_units_Z   2
loop_
 _symmetry_equiv_pos_site_id
 _symmetry_equiv_pos_as_xyz
  1  'x, y, z'
loop_
 _atom_site_type_symbol
 _atom_site_label
 _atom_site_symmetry_multiplicity
 _atom_site_fract_x
 _atom_site_fract_y
 _atom_site_fract_z
 _atom_site_occupancy
  Li  Li0  1  0.24834752  0.16925729  0.99781727  1.0
  Li  Li1  1  0.74834752  0.83074271  0.49781727  1.0
  Li  Li2  1  0.75165248  0.16925729  0.99781727  1.0
  Li  Li3  1  0.25165248  0.83074271  0.49781727  1.0
  Cd  Cd4  1  0.50000000  0.65784183  0.99744178  1.0
  Cd  Cd5  1  0.00000000  0.34215817  0.49744178  1.0
  Sn  Sn6  1  0.50000000  0.33024663  0.49936253  1.0
  Sn  Sn7  1  0.00000000  0.66975337  -0.00063747  1.0
  S  S8  1  0.25851816  0.16133009  0.37102857  1.0
  S  S9  1  0.75851816  0.83866991  0.87102857  1.0
  S  S10  1  0.74148184  0.16133009  0.37102857  1.0
  S  S11  1  0.24148184  0.83866991  0.87102857  1.0
  S  S12  1  0.50000000  0.31472711  0.86793519  1.0
  S  S13  1  0.00000000  0.68527289  0.36793519  1.0
  S  S14  1  0.50000000  0.65915743  0.38806883  1.0
  S  S15  1  0.00000000  0.34084257  0.88806883  1.0
