# generated using pymatgen
data_Al2O3
_symmetry_space_group_name_H-M   'P 1'
_cell_length_a   6.15002369
_cell_length_b   6.15002369
_cell_length_c   5.67739648
_cell_angle_alpha   76.37331742
_cell_angle_beta   103.62668258
_cell_angle_gamma   152.30548619
_symmetry_Int_Tables_number   1
_chemical_formula_structural   Al2O3
_chemical_formula_sum   'Al4 O6'
_cell_volume   96.81710311
_cell_formula_units_Z   2
loop_
 _symmetry_equiv_pos_site_id
 _symmetry_equiv_pos_as_xyz
  1  'x, y, z'
loop_
 _atom_site_type_symbol
 _atom_site_label
 _atom_site_symmetry_multiplicity
 _atom_site_fract_x
 _atom_site_fract_y
 _atom_site_fract_z
 _atom_site_occupancy
  Al  Al0  1  0.90981957  -0.90981957  0.70429699  1.0
  Al  Al1  1  1.09018043  -0.09018043  0.29570301  1.0
  Al  Al2  1  0.65788352  -0.65788352  0.81704344  1.0
  Al  Al3  1  1.34211648  -0.34211648  0.18295656  1.0
  O  O4  1  0.83972703  -0.83972703  0.39080084  1.0
  O  O5  1  1.16027297  -0.16027297  0.60919916  1.0
  O  O6  1  0.82633878  -0.82633878  0.93266549  1.0
  O  O7  1  1.17366122  -0.17366122  0.06733451  1.0
  O  O8  1  1.49507828  -0.49507828  0.75758461  1.0
  O  O9  1  0.50492172  -0.50492172  0.24241539  1.0
