# generated using pymatgen
data_B3Rh7
_symmetry_space_group_name_H-M   'P 1'
_cell_length_a   7.50105974
_cell_length_b   7.50105974
_cell_length_c   4.84055426
_cell_angle_alpha   90.00000000
_cell_angle_beta   90.00000000
_cell_angle_gamma   120.00000000
_symmetry_Int_Tables_number   1
_chemical_formula_structural   B3Rh7
_chemical_formula_sum   'B6 Rh14'
_cell_volume   235.86905796
_cell_formula_units_Z   2
loop_
 _symmetry_equiv_pos_site_id
 _symmetry_equiv_pos_as_xyz
  1  'x, y, z'
loop_
 _atom_site_type_symbol
 _atom_site_label
 _atom_site_symmetry_multiplicity
 _atom_site_fract_x
 _atom_site_fract_y
 _atom_site_fract_z
 _atom_site_occupancy
  B  B0  1  0.62217897  0.81108948  0.23462503  1.0
  B  B1  1  0.81108948  0.62217897  0.73462503  1.0
  B  B2  1  0.81108948  0.18891052  0.73462503  1.0
  B  B3  1  0.18891052  0.81108948  0.23462503  1.0
  B  B4  1  0.18891052  0.37782103  0.23462503  1.0
  B  B5  1  0.37782103  0.18891052  0.73462503  1.0
  Rh  Rh6  1  0.91199300  0.45599650  -0.01662719  1.0
  Rh  Rh7  1  0.45599650  0.91199300  0.48337281  1.0
  Rh  Rh8  1  0.45599650  0.54400350  0.48337281  1.0
  Rh  Rh9  1  0.54400350  0.45599650  -0.01662719  1.0
  Rh  Rh10  1  0.54400350  0.08800700  -0.01662719  1.0
  Rh  Rh11  1  0.08800700  0.54400350  0.48337281  1.0
  Rh  Rh12  1  0.24585403  0.12292701  0.34092850  1.0
  Rh  Rh13  1  0.12292701  0.24585403  0.84092850  1.0
  Rh  Rh14  1  0.12292701  0.87707299  0.84092850  1.0
  Rh  Rh15  1  0.87707299  0.12292701  0.34092850  1.0
  Rh  Rh16  1  0.87707299  0.75414597  0.34092850  1.0
  Rh  Rh17  1  0.75414597  0.87707299  0.84092850  1.0
  Rh  Rh18  1  0.33333333  0.66666667  -0.00877902  1.0
  Rh  Rh19  1  0.66666667  0.33333333  0.49122098  1.0
