# generated using pymatgen
data_Y6Ni20P13
_symmetry_space_group_name_H-M   'P 1'
_cell_length_a   12.67140961
_cell_length_b   12.67140961
_cell_length_c   3.76272723
_cell_angle_alpha   90.00000000
_cell_angle_beta   90.00000000
_cell_angle_gamma   120.00000000
_symmetry_Int_Tables_number   1
_chemical_formula_structural   Y6Ni20P13
_chemical_formula_sum   'Y6 Ni20 P13'
_cell_volume   523.21866448
_cell_formula_units_Z   1
loop_
 _symmetry_equiv_pos_site_id
 _symmetry_equiv_pos_as_xyz
  1  'x, y, z'
loop_
 _atom_site_type_symbol
 _atom_site_label
 _atom_site_symmetry_multiplicity
 _atom_site_fract_x
 _atom_site_fract_y
 _atom_site_fract_z
 _atom_site_occupancy
  Y  Y0  1  0.28186850  0.81226584  0.50000000  1.0
  Y  Y1  1  0.53039734  0.71813150  0.50000000  1.0
  Y  Y2  1  0.18773416  0.46960266  0.50000000  1.0
  Y  Y3  1  0.81173459  0.52988269  0.00000000  1.0
  Y  Y4  1  0.71814811  0.18826541  0.00000000  1.0
  Y  Y5  1  0.47011731  0.28185189  0.00000000  1.0
  Ni  Ni6  1  0.56568467  0.97801092  0.50000000  1.0
  Ni  Ni7  1  0.41232625  0.43431533  0.50000000  1.0
  Ni  Ni8  1  0.02198908  0.58767375  0.50000000  1.0
  Ni  Ni9  1  0.07759148  0.92790959  0.50000000  1.0
  Ni  Ni10  1  0.85031811  0.92240852  0.50000000  1.0
  Ni  Ni11  1  0.07209041  0.14968189  0.50000000  1.0
  Ni  Ni12  1  0.75358487  0.68329408  0.50000000  1.0
  Ni  Ni13  1  0.92970921  0.24641513  0.50000000  1.0
  Ni  Ni14  1  0.31670592  0.07029079  0.50000000  1.0
  Ni  Ni15  1  0.90885443  0.80428045  0.00000000  1.0
  Ni  Ni16  1  0.89542601  0.09114557  0.00000000  1.0
  Ni  Ni17  1  0.19571955  0.10457399  0.00000000  1.0
  Ni  Ni18  1  0.07836200  0.75873449  0.00000000  1.0
  Ni  Ni19  1  0.68037249  0.92163800  0.00000000  1.0
  Ni  Ni20  1  0.24126551  0.31962751  0.00000000  1.0
  Ni  Ni21  1  0.58296937  0.56153710  0.00000000  1.0
  Ni  Ni22  1  0.97856773  0.41703063  0.00000000  1.0
  Ni  Ni23  1  0.43846290  0.02143227  0.00000000  1.0
  Ni  Ni24  1  0.66666667  0.33333333  0.50000000  1.0
  Ni  Ni25  1  0.33333333  0.66666667  0.00000000  1.0
  P  P26  1  0.95368369  0.72166188  0.50000000  1.0
  P  P27  1  0.76797819  0.04631631  0.50000000  1.0
  P  P28  1  0.27833812  0.23202181  0.50000000  1.0
  P  P29  1  0.61311748  0.47612626  0.50000000  1.0
  P  P30  1  0.86300878  0.38688252  0.50000000  1.0
  P  P31  1  0.52387374  0.13699122  0.50000000  1.0
  P  P32  1  0.23517480  0.95232309  0.00000000  1.0
  P  P33  1  0.71714830  0.76482520  0.00000000  1.0
  P  P34  1  0.04767691  0.28285170  0.00000000  1.0
  P  P35  1  0.47719448  0.86240146  0.00000000  1.0
  P  P36  1  0.38520698  0.52280552  0.00000000  1.0
  P  P37  1  0.13759854  0.61479302  0.00000000  1.0
  P  P38  1  0.00000000  0.00000000  0.00000000  1.0
