# generated using pymatgen
data_CsFeCo(CN)6
_symmetry_space_group_name_H-M   'P 1'
_cell_length_a   7.24860030
_cell_length_b   7.24860030
_cell_length_c   7.24860030
_cell_angle_alpha   60.00000000
_cell_angle_beta   60.00000000
_cell_angle_gamma   60.00000000
_symmetry_Int_Tables_number   1
_chemical_formula_structural   CsFeCo(CN)6
_chemical_formula_sum   'Cs1 Fe1 Co1 C6 N6'
_cell_volume   269.30688732
_cell_formula_units_Z   1
loop_
 _symmetry_equiv_pos_site_id
 _symmetry_equiv_pos_as_xyz
  1  'x, y, z'
loop_
 _atom_site_type_symbol
 _atom_site_label
 _atom_site_symmetry_multiplicity
 _atom_site_fract_x
 _atom_site_fract_y
 _atom_site_fract_z
 _atom_site_occupancy
  Cs  Cs0  1  0.75000000  0.75000000  -0.25000000  1.0
  Fe  Fe1  1  0.00000000  0.00000000  0.00000000  1.0
  Co  Co2  1  -0.50000000  0.50000000  0.50000000  1.0
  C  C3  1  -0.81501259  0.81501259  0.81501259  1.0
  C  C4  1  -0.18498741  0.81501259  0.18498741  1.0
  C  C5  1  -0.18498741  0.18498741  0.81501259  1.0
  C  C6  1  0.18498741  1.18498741  -0.18498741  1.0
  C  C7  1  0.18498741  -0.18498741  0.18498741  1.0
  C  C8  1  -0.18498741  0.18498741  0.18498741  1.0
  N  N9  1  -0.70051622  0.70051622  0.70051622  1.0
  N  N10  1  -0.29948378  0.70051622  0.29948378  1.0
  N  N11  1  -0.29948378  0.29948378  0.70051622  1.0
  N  N12  1  0.29948378  1.29948378  -0.29948378  1.0
  N  N13  1  0.29948378  -0.29948378  0.29948378  1.0
  N  N14  1  -0.29948378  0.29948378  0.29948378  1.0
