# generated using pymatgen
data_Ba3B3Pb2ClO9
_symmetry_space_group_name_H-M   'P 1'
_cell_length_a   9.03311756
_cell_length_b   9.03311756
_cell_length_c   7.99333705
_cell_angle_alpha   90.00000000
_cell_angle_beta   90.00000000
_cell_angle_gamma   108.24206097
_symmetry_Int_Tables_number   1
_chemical_formula_structural   Ba3B3Pb2ClO9
_chemical_formula_sum   'Ba6 B6 Pb4 Cl2 O18'
_cell_volume   619.45437935
_cell_formula_units_Z   2
loop_
 _symmetry_equiv_pos_site_id
 _symmetry_equiv_pos_as_xyz
  1  'x, y, z'
loop_
 _atom_site_type_symbol
 _atom_site_label
 _atom_site_symmetry_multiplicity
 _atom_site_fract_x
 _atom_site_fract_y
 _atom_site_fract_z
 _atom_site_occupancy
  Ba  Ba0  1  0.15143243  0.84856757  0.25000000  1.0
  Ba  Ba1  1  -0.15143243  1.15143243  0.75000000  1.0
  Ba  Ba2  1  -0.14218739  1.14218739  0.25000000  1.0
  Ba  Ba3  1  0.14218739  0.85781261  0.75000000  1.0
  Ba  Ba4  1  0.73438695  0.73438695  0.00000000  1.0
  Ba  Ba5  1  0.26561305  0.26561305  0.50000000  1.0
  B  B6  1  0.07525524  0.50662973  0.45828217  1.0
  B  B7  1  -0.49337027  1.07525524  0.54171783  1.0
  B  B8  1  0.49337027  0.92474476  0.04171783  1.0
  B  B9  1  -0.07525524  1.49337027  0.95828217  1.0
  B  B10  1  0.12414505  0.12414505  0.00000000  1.0
  B  B11  1  0.87585495  0.87585495  0.50000000  1.0
  Pb  Pb12  1  0.23218922  0.47534048  0.07656667  1.0
  Pb  Pb13  1  -0.52465952  1.23218922  0.92343333  1.0
  Pb  Pb14  1  0.52465952  0.76781078  0.42343333  1.0
  Pb  Pb15  1  -0.23218922  1.52465952  0.57656667  1.0
  Cl  Cl16  1  -0.44542634  1.44542634  0.25000000  1.0
  Cl  Cl17  1  0.44542634  0.55457366  0.75000000  1.0
  O  O18  1  0.20736375  0.52853650  0.35959419  1.0
  O  O19  1  -0.47146350  1.20736375  0.64040581  1.0
  O  O20  1  0.47146350  0.79263625  0.14040581  1.0
  O  O21  1  -0.20736375  1.47146350  0.85959419  1.0
  O  O22  1  0.01640731  0.64167555  0.00440570  1.0
  O  O23  1  -0.35832445  1.01640731  0.99559430  1.0
  O  O24  1  0.35832445  0.98359269  0.49559430  1.0
  O  O25  1  -0.01640731  1.35832445  0.50440570  1.0
  O  O26  1  0.17909911  0.19704029  0.15217509  1.0
  O  O27  1  -0.80295971  1.17909911  0.84782491  1.0
  O  O28  1  0.80295971  0.82090089  0.34782491  1.0
  O  O29  1  -0.17909911  1.80295971  0.65217509  1.0
  O  O30  1  -0.03760260  1.36250433  0.01037867  1.0
  O  O31  1  0.36250433  0.96239740  0.98962133  1.0
  O  O32  1  -0.36250433  1.03760260  0.48962133  1.0
  O  O33  1  0.03760260  0.63749567  0.51037867  1.0
  O  O34  1  0.99298289  0.99298289  0.00000000  1.0
  O  O35  1  0.00701711  0.00701711  0.50000000  1.0
