# generated using pymatgen
data_EuC10
_symmetry_space_group_name_H-M   'P 1'
_cell_length_a   9.48871243
_cell_length_b   9.48871243
_cell_length_c   9.48871243
_cell_angle_alpha   109.47122063
_cell_angle_beta   109.47122063
_cell_angle_gamma   109.47122063
_symmetry_Int_Tables_number   1
_chemical_formula_structural   EuC10
_chemical_formula_sum   'Eu6 C60'
_cell_volume   657.65778222
_cell_formula_units_Z   6
loop_
 _symmetry_equiv_pos_site_id
 _symmetry_equiv_pos_as_xyz
  1  'x, y, z'
loop_
 _atom_site_type_symbol
 _atom_site_label
 _atom_site_symmetry_multiplicity
 _atom_site_fract_x
 _atom_site_fract_y
 _atom_site_fract_z
 _atom_site_occupancy
  Eu  Eu0  1  0.76524279  0.26524279  0.50000000  1.0
  Eu  Eu1  1  0.50000000  0.23475721  0.73475721  1.0
  Eu  Eu2  1  0.50000000  0.76524279  0.26524279  1.0
  Eu  Eu3  1  0.26524279  0.50000000  0.76524279  1.0
  Eu  Eu4  1  0.73475721  0.50000000  0.23475721  1.0
  Eu  Eu5  1  0.23475721  0.73475721  0.50000000  1.0
  C  C6  1  1.69756106  1.14710475  0.97543139  1.0
  C  C7  1  0.69756106  0.72212967  0.55045631  1.0
  C  C8  1  1.17167336  1.14710475  0.44954369  1.0
  C  C9  1  1.17167336  0.72212967  1.02456861  1.0
  C  C10  1  0.55045631  0.82832664  0.85289525  1.0
  C  C11  1  0.55045631  0.69756106  0.72212967  1.0
  C  C12  1  0.97543139  0.82832664  0.27787033  1.0
  C  C13  1  0.97543139  1.69756106  1.14710475  1.0
  C  C14  1  0.72212967  1.02456861  1.17167336  1.0
  C  C15  1  0.72212967  0.55045631  0.69756106  1.0
  C  C16  1  0.85289525  1.02456861  1.30243894  1.0
  C  C17  1  0.85289525  0.55045631  0.82832664  1.0
  C  C18  1  0.82832664  0.27787033  0.97543139  1.0
  C  C19  1  0.82832664  0.85289525  0.55045631  1.0
  C  C20  1  0.30243894  0.27787033  0.44954369  1.0
  C  C21  1  1.30243894  0.85289525  1.02456861  1.0
  C  C22  1  1.02456861  1.30243894  0.85289525  1.0
  C  C23  1  1.02456861  1.17167336  0.72212967  1.0
  C  C24  1  0.44954369  0.30243894  0.27787033  1.0
  C  C25  1  0.44954369  1.17167336  1.14710475  1.0
  C  C26  1  1.14710475  0.44954369  1.17167336  1.0
  C  C27  1  1.14710475  0.97543139  1.69756106  1.0
  C  C28  1  0.27787033  0.44954369  0.30243894  1.0
  C  C29  1  0.27787033  0.97543139  0.82832664  1.0
  C  C30  1  0.76134192  1.17332349  1.14861127  1.0
  C  C31  1  0.76134192  0.61273065  0.58801843  1.0
  C  C32  1  1.02471222  1.17332349  0.41198157  1.0
  C  C33  1  1.02471222  1.61273065  0.85138873  1.0
  C  C34  1  0.58801843  0.97528778  0.82667651  1.0
  C  C35  1  0.58801843  0.76134192  0.61273065  1.0
  C  C36  1  1.14861127  0.97528778  1.38726935  1.0
  C  C37  1  1.14861127  0.76134192  1.17332349  1.0
  C  C38  1  1.61273065  0.85138873  1.02471222  1.0
  C  C39  1  0.61273065  0.58801843  0.76134192  1.0
  C  C40  1  0.82667651  0.85138873  0.23865808  1.0
  C  C41  1  0.82667651  0.58801843  0.97528778  1.0
  C  C42  1  0.97528778  1.38726935  1.14861127  1.0
  C  C43  1  0.97528778  0.82667651  0.58801843  1.0
  C  C44  1  0.23865808  0.38726935  0.41198157  1.0
  C  C45  1  0.23865808  0.82667651  0.85138873  1.0
  C  C46  1  0.85138873  0.23865808  0.82667651  1.0
  C  C47  1  0.85138873  1.02471222  1.61273065  1.0
  C  C48  1  0.41198157  0.23865808  0.38726935  1.0
  C  C49  1  0.41198157  1.02471222  1.17332349  1.0
  C  C50  1  1.17332349  0.41198157  1.02471222  1.0
  C  C51  1  1.17332349  1.14861127  0.76134192  1.0
  C  C52  1  0.38726935  0.41198157  0.23865808  1.0
  C  C53  1  1.38726935  1.14861127  0.97528778  1.0
  C  C54  1  0.93395624  1.32098886  1.25494510  1.0
  C  C55  1  0.93395624  0.67901114  0.61296739  1.0
  C  C56  1  0.06604376  0.32098886  0.38703261  1.0
  C  C57  1  0.06604376  0.67901114  0.74505490  1.0
  C  C58  1  0.61296739  0.93395624  0.67901114  1.0
  C  C59  1  1.25494510  0.93395624  1.32098886  1.0
  C  C60  1  0.67901114  0.74505490  0.06604376  1.0
  C  C61  1  0.67901114  0.61296739  0.93395624  1.0
  C  C62  1  0.74505490  0.06604376  0.67901114  1.0
  C  C63  1  0.38703261  0.06604376  0.32098886  1.0
  C  C64  1  0.32098886  0.38703261  0.06604376  1.0
  C  C65  1  1.32098886  1.25494510  0.93395624  1.0
