# generated using pymatgen
data_Yb2Si2O7
_symmetry_space_group_name_H-M   'P 1'
_cell_length_a   6.67766878
_cell_length_b   6.67766878
_cell_length_c   12.12108617
_cell_angle_alpha   90.00000000
_cell_angle_beta   90.00000000
_cell_angle_gamma   90.00000000
_symmetry_Int_Tables_number   1
_chemical_formula_structural   Yb2Si2O7
_chemical_formula_sum   'Yb8 Si8 O28'
_cell_volume   540.49450853
_cell_formula_units_Z   4
loop_
 _symmetry_equiv_pos_site_id
 _symmetry_equiv_pos_as_xyz
  1  'x, y, z'
loop_
 _atom_site_type_symbol
 _atom_site_label
 _atom_site_symmetry_multiplicity
 _atom_site_fract_x
 _atom_site_fract_y
 _atom_site_fract_z
 _atom_site_occupancy
  Yb  Yb0  1  0.14532906  0.62389298  0.86589206  1.0
  Yb  Yb1  1  0.64532906  0.87610702  0.88410794  1.0
  Yb  Yb2  1  0.37610702  0.85467094  0.63410794  1.0
  Yb  Yb3  1  0.87610702  0.64532906  0.11589206  1.0
  Yb  Yb4  1  0.85467094  0.37610702  0.36589206  1.0
  Yb  Yb5  1  0.35467094  0.12389298  0.38410794  1.0
  Yb  Yb6  1  0.62389298  0.14532906  0.13410794  1.0
  Yb  Yb7  1  0.12389298  0.35467094  0.61589206  1.0
  Si  Si8  1  0.40268879  0.65183840  0.12244922  1.0
  Si  Si9  1  0.90268879  0.84816160  0.62755078  1.0
  Si  Si10  1  0.34816160  0.59731121  0.37755078  1.0
  Si  Si11  1  0.84816160  0.90268879  0.37244922  1.0
  Si  Si12  1  0.59731121  0.34816160  0.62244922  1.0
  Si  Si13  1  0.09731121  0.15183840  0.12755078  1.0
  Si  Si14  1  0.65183840  0.40268879  0.87755078  1.0
  Si  Si15  1  0.15183840  0.09731121  0.87244922  1.0
  O  O16  1  0.19704396  0.63816543  0.04896376  1.0
  O  O17  1  0.69704396  0.86183457  0.70103624  1.0
  O  O18  1  0.36183457  0.80295604  0.45103624  1.0
  O  O19  1  0.86183457  0.69704396  0.29896376  1.0
  O  O20  1  0.80295604  0.36183457  0.54896376  1.0
  O  O21  1  0.30295604  0.13816543  0.20103624  1.0
  O  O22  1  0.63816543  0.19704396  0.95103624  1.0
  O  O23  1  0.13816543  0.30295604  0.79896376  1.0
  O  O24  1  0.31688972  0.68311028  0.25000000  1.0
  O  O25  1  0.81688972  0.81688972  0.50000000  1.0
  O  O26  1  0.68311028  0.31688972  0.75000000  1.0
  O  O27  1  0.18311028  0.18311028  0.00000000  1.0
  O  O28  1  0.47171122  0.56838848  0.87461520  1.0
  O  O29  1  0.97171122  0.93161152  0.87538480  1.0
  O  O30  1  0.43161152  0.52828878  0.62538480  1.0
  O  O31  1  0.93161152  0.97171122  0.12461520  1.0
  O  O32  1  0.52828878  0.43161152  0.37461520  1.0
  O  O33  1  0.02828878  0.06838848  0.37538480  1.0
  O  O34  1  0.56838848  0.47171122  0.12538480  1.0
  O  O35  1  0.06838848  0.02828878  0.62461520  1.0
  O  O36  1  0.33360688  0.94771505  0.82463396  1.0
  O  O37  1  0.83360688  0.55228495  0.92536604  1.0
  O  O38  1  0.05228495  0.66639312  0.67536604  1.0
  O  O39  1  0.55228495  0.83360688  0.07463396  1.0
  O  O40  1  0.66639312  0.05228495  0.32463396  1.0
  O  O41  1  0.16639312  0.44771505  0.42536604  1.0
  O  O42  1  0.94771505  0.33360688  0.17536604  1.0
  O  O43  1  0.44771505  0.16639312  0.57463396  1.0
