# generated using pymatgen
data_Gd2InGe2
_symmetry_space_group_name_H-M   'P 1'
_cell_length_a   7.48171642
_cell_length_b   7.48171642
_cell_length_c   4.24301743
_cell_angle_alpha   90.00000000
_cell_angle_beta   90.00000000
_cell_angle_gamma   90.00000000
_symmetry_Int_Tables_number   1
_chemical_formula_structural   Gd2InGe2
_chemical_formula_sum   'Gd4 In2 Ge4'
_cell_volume   237.50748573
_cell_formula_units_Z   2
loop_
 _symmetry_equiv_pos_site_id
 _symmetry_equiv_pos_as_xyz
  1  'x, y, z'
loop_
 _atom_site_type_symbol
 _atom_site_label
 _atom_site_symmetry_multiplicity
 _atom_site_fract_x
 _atom_site_fract_y
 _atom_site_fract_z
 _atom_site_occupancy
  Gd  Gd0  1  0.32127630  0.17872370  0.50000000  1.0
  Gd  Gd1  1  0.82127630  0.32127630  0.50000000  1.0
  Gd  Gd2  1  0.67872370  0.82127630  0.50000000  1.0
  Gd  Gd3  1  0.17872370  0.67872370  0.50000000  1.0
  In  In4  1  0.50000000  0.50000000  0.00000000  1.0
  In  In5  1  0.00000000  0.00000000  0.00000000  1.0
  Ge  Ge6  1  0.87985902  0.62014098  0.00000000  1.0
  Ge  Ge7  1  0.37985902  0.87985902  0.00000000  1.0
  Ge  Ge8  1  0.12014098  0.37985902  0.00000000  1.0
  Ge  Ge9  1  0.62014098  0.12014098  0.00000000  1.0
