# generated using pymatgen
data_K2SnO3
_symmetry_space_group_name_H-M   'P 1'
_cell_length_a   5.84015835
_cell_length_b   10.52819971
_cell_length_c   7.11152971
_cell_angle_alpha   90.00000000
_cell_angle_beta   90.00000000
_cell_angle_gamma   90.00000000
_symmetry_Int_Tables_number   1
_chemical_formula_structural   K2SnO3
_chemical_formula_sum   'K8 Sn4 O12'
_cell_volume   437.26202918
_cell_formula_units_Z   4
loop_
 _symmetry_equiv_pos_site_id
 _symmetry_equiv_pos_as_xyz
  1  'x, y, z'
loop_
 _atom_site_type_symbol
 _atom_site_label
 _atom_site_symmetry_multiplicity
 _atom_site_fract_x
 _atom_site_fract_y
 _atom_site_fract_z
 _atom_site_occupancy
  K  K0  1  0.23458096  0.41208396  0.61540982  1.0
  K  K1  1  0.23458096  0.08791604  0.61540982  1.0
  K  K2  1  0.73458096  0.41208396  0.88459018  1.0
  K  K3  1  0.73458096  0.08791604  0.88459018  1.0
  K  K4  1  0.76541904  0.91208396  0.38459018  1.0
  K  K5  1  0.76541904  0.58791604  0.38459018  1.0
  K  K6  1  0.26541904  0.91208396  0.11540982  1.0
  K  K7  1  0.26541904  0.58791604  0.11540982  1.0
  Sn  Sn8  1  0.27183034  0.25000000  0.15971003  1.0
  Sn  Sn9  1  0.77183034  0.25000000  0.34028997  1.0
  Sn  Sn10  1  0.72816966  0.75000000  0.84028997  1.0
  Sn  Sn11  1  0.22816966  0.75000000  0.65971003  1.0
  O  O12  1  0.49014372  0.87913483  0.72372399  1.0
  O  O13  1  0.49014372  0.62086517  0.72372399  1.0
  O  O14  1  0.99014372  0.87913483  0.77627601  1.0
  O  O15  1  0.99014372  0.62086517  0.77627601  1.0
  O  O16  1  0.50985628  0.37913483  0.27627601  1.0
  O  O17  1  0.50985628  0.12086517  0.27627601  1.0
  O  O18  1  0.00985628  0.37913483  0.22372399  1.0
  O  O19  1  0.00985628  0.12086517  0.22372399  1.0
  O  O20  1  0.34800539  0.25000000  0.89174281  1.0
  O  O21  1  -0.15199461  0.25000000  0.60825719  1.0
  O  O22  1  0.65199461  0.75000000  0.10825719  1.0
  O  O23  1  1.15199461  0.75000000  0.39174281  1.0
