# generated using pymatgen
data_Yb(ClO4)3
_symmetry_space_group_name_H-M   'P 1'
_cell_length_a   9.54870227
_cell_length_b   9.54870227
_cell_length_c   9.54870227
_cell_angle_alpha   52.79410111
_cell_angle_beta   52.79410111
_cell_angle_gamma   52.79410111
_symmetry_Int_Tables_number   1
_chemical_formula_structural   Yb(ClO4)3
_chemical_formula_sum   'Yb2 Cl6 O24'
_cell_volume   511.58061330
_cell_formula_units_Z   2
loop_
 _symmetry_equiv_pos_site_id
 _symmetry_equiv_pos_as_xyz
  1  'x, y, z'
loop_
 _atom_site_type_symbol
 _atom_site_label
 _atom_site_symmetry_multiplicity
 _atom_site_fract_x
 _atom_site_fract_y
 _atom_site_fract_z
 _atom_site_occupancy
  Yb  Yb0  1  -0.00179893  -0.00179893  -0.00179893  1.0
  Yb  Yb1  1  0.49820107  0.49820107  -0.50179893  1.0
  Cl  Cl2  1  0.64327633  0.89585374  -0.71850922  1.0
  Cl  Cl3  1  0.14327633  0.78149078  -0.60414626  1.0
  Cl  Cl4  1  0.78149078  0.39585374  -0.85672367  1.0
  Cl  Cl5  1  0.28149078  0.64327633  -0.10414626  1.0
  Cl  Cl6  1  0.39585374  0.14327633  -0.21850922  1.0
  Cl  Cl7  1  0.89585374  0.28149078  -0.35672367  1.0
  O  O8  1  0.79609566  0.85228265  -0.67768363  1.0
  O  O9  1  0.29609566  0.82231637  -0.64771735  1.0
  O  O10  1  0.82231637  0.35228265  -0.70390434  1.0
  O  O11  1  0.32231637  0.79609566  -0.14771735  1.0
  O  O12  1  0.35228265  0.29609566  -0.17768363  1.0
  O  O13  1  0.85228265  0.32231637  -0.20390434  1.0
  O  O14  1  0.65269583  0.71461551  -0.67657907  1.0
  O  O15  1  0.15269583  0.82342093  -0.78538449  1.0
  O  O16  1  0.82342093  0.21461551  -0.84730417  1.0
  O  O17  1  0.32342093  0.65269583  -0.28538449  1.0
  O  O18  1  0.21461551  0.15269583  -0.17657907  1.0
  O  O19  1  0.71461551  0.32342093  -0.34730417  1.0
  O  O20  1  0.88592370  -0.49930299  -0.04034095  1.0
  O  O21  1  0.38592370  0.45965905  0.00069701  1.0
  O  O22  1  0.45965905  1.00069701  -0.61407630  1.0
  O  O23  1  0.95965905  -0.11407630  -0.49930299  1.0
  O  O24  1  1.00069701  0.38592370  -0.54034095  1.0
  O  O25  1  0.50069701  -0.04034095  -0.11407630  1.0
  O  O26  1  1.07292827  -0.30113656  0.00547967  1.0
  O  O27  1  0.57292827  0.50547967  -0.80113656  1.0
  O  O28  1  0.50547967  0.19886344  -0.42707173  1.0
  O  O29  1  1.00547967  0.07292827  -0.30113656  1.0
  O  O30  1  0.19886344  0.57292827  -0.49452033  1.0
  O  O31  1  0.69886344  0.00547967  0.07292827  1.0
