# generated using pymatgen
data_Na3LiTi2F12
_symmetry_space_group_name_H-M   'P 1'
_cell_length_a   5.22293899
_cell_length_b   5.22293899
_cell_length_c   18.38675992
_cell_angle_alpha   90.00000000
_cell_angle_beta   90.00000000
_cell_angle_gamma   90.00000000
_symmetry_Int_Tables_number   1
_chemical_formula_structural   Na3LiTi2F12
_chemical_formula_sum   'Na6 Li2 Ti4 F24'
_cell_volume   501.57411030
_cell_formula_units_Z   2
loop_
 _symmetry_equiv_pos_site_id
 _symmetry_equiv_pos_as_xyz
  1  'x, y, z'
loop_
 _atom_site_type_symbol
 _atom_site_label
 _atom_site_symmetry_multiplicity
 _atom_site_fract_x
 _atom_site_fract_y
 _atom_site_fract_z
 _atom_site_occupancy
  Na  Na0  1  0.00000000  0.50000000  0.19005075  1.0
  Na  Na1  1  0.50000000  0.00000000  0.30994925  1.0
  Na  Na2  1  0.50000000  0.00000000  0.80994925  1.0
  Na  Na3  1  0.00000000  0.50000000  0.69005075  1.0
  Na  Na4  1  0.50000000  0.50000000  0.00000000  1.0
  Na  Na5  1  0.00000000  0.00000000  0.50000000  1.0
  Li  Li6  1  0.50000000  0.50000000  0.50000000  1.0
  Li  Li7  1  0.00000000  0.00000000  0.00000000  1.0
  Ti  Ti8  1  0.00000000  0.50000000  0.37560210  1.0
  Ti  Ti9  1  0.50000000  0.00000000  0.12439790  1.0
  Ti  Ti10  1  0.50000000  0.00000000  0.62439790  1.0
  Ti  Ti11  1  0.00000000  0.50000000  0.87560210  1.0
  F  F12  1  0.20105830  0.35191096  0.30256162  1.0
  F  F13  1  0.29894170  0.85191096  0.19743838  1.0
  F  F14  1  0.64808904  0.20105830  0.69743838  1.0
  F  F15  1  0.85191096  0.70105830  0.80256162  1.0
  F  F16  1  0.79894170  0.64808904  0.30256162  1.0
  F  F17  1  0.70105830  0.14808904  0.19743838  1.0
  F  F18  1  0.35191096  0.79894170  0.69743838  1.0
  F  F19  1  0.14808904  0.29894170  0.80256162  1.0
  F  F20  1  0.21542894  0.35150886  0.44939810  1.0
  F  F21  1  0.28457106  0.85150886  0.05060190  1.0
  F  F22  1  0.64849114  0.21542894  0.55060190  1.0
  F  F23  1  0.85150886  0.71542894  0.94939810  1.0
  F  F24  1  0.78457106  0.64849114  0.44939810  1.0
  F  F25  1  0.71542894  0.14849114  0.05060190  1.0
  F  F26  1  0.35150886  0.78457106  0.55060190  1.0
  F  F27  1  0.14849114  0.28457106  0.94939810  1.0
  F  F28  1  0.29196311  0.29135162  0.11638945  1.0
  F  F29  1  0.20803689  0.79135162  0.38361055  1.0
  F  F30  1  0.70864838  0.29196311  0.88361055  1.0
  F  F31  1  0.79135162  0.79196311  0.61638945  1.0
  F  F32  1  0.70803689  0.70864838  0.11638945  1.0
  F  F33  1  0.79196311  0.20864838  0.38361055  1.0
  F  F34  1  0.29135162  0.70803689  0.88361055  1.0
  F  F35  1  0.20864838  0.20803689  0.61638945  1.0
