# generated using pymatgen
data_LiY(MoO4)2
_symmetry_space_group_name_H-M   'P 1'
_cell_length_a   5.24548361
_cell_length_b   10.41578843
_cell_length_c   6.79951920
_cell_angle_alpha   71.74177300
_cell_angle_beta   67.14811737
_cell_angle_gamma   82.05840419
_symmetry_Int_Tables_number   1
_chemical_formula_structural   LiY(MoO4)2
_chemical_formula_sum   'Li2 Y2 Mo4 O16'
_cell_volume   325.04623898
_cell_formula_units_Z   2
loop_
 _symmetry_equiv_pos_site_id
 _symmetry_equiv_pos_as_xyz
  1  'x, y, z'
loop_
 _atom_site_type_symbol
 _atom_site_label
 _atom_site_symmetry_multiplicity
 _atom_site_fract_x
 _atom_site_fract_y
 _atom_site_fract_z
 _atom_site_occupancy
  Li  Li0  1  -0.54555902  -0.62166846  0.84367353  1.0
  Li  Li1  1  0.54555902  -0.37833154  0.15632647  1.0
  Y  Y2  1  0.35743717  -0.93798679  0.26979282  1.0
  Y  Y3  1  -0.35743717  -0.06201321  0.73020718  1.0
  Mo  Mo4  1  0.22578996  -0.29560956  0.65476435  1.0
  Mo  Mo5  1  -0.22578996  -0.70439044  0.34523565  1.0
  Mo  Mo6  1  0.04810159  -0.82124154  0.79784293  1.0
  Mo  Mo7  1  -0.04810159  -0.17875846  0.20215707  1.0
  O  O8  1  0.42505868  -0.13648883  0.54774684  1.0
  O  O9  1  -0.42505868  -0.86351117  0.45225316  1.0
  O  O10  1  0.22143458  -0.67078710  0.67593753  1.0
  O  O11  1  -0.22143458  -0.32921290  0.32406247  1.0
  O  O12  1  0.64095976  -0.56835255  0.18717575  1.0
  O  O13  1  -0.64095976  -0.43164745  0.81282425  1.0
  O  O14  1  -0.12850030  -0.26347998  0.82175998  1.0
  O  O15  1  0.12850030  -0.73652002  0.17824002  1.0
  O  O16  1  -0.27958891  -0.79515543  0.99957224  1.0
  O  O17  1  0.27958891  -0.20484457  0.00042776  1.0
  O  O18  1  0.22562923  -0.34066261  0.42743881  1.0
  O  O19  1  -0.22562923  -0.65933739  0.57256119  1.0
  O  O20  1  0.01362123  -0.91428722  0.61814888  1.0
  O  O21  1  -0.01362123  -0.08571278  0.38185112  1.0
  O  O22  1  -0.72766761  -0.93140397  0.93456373  1.0
  O  O23  1  0.72766761  -0.06859603  0.06543627  1.0
