# generated using pymatgen
data_WO3
_symmetry_space_group_name_H-M   'P 1'
_cell_length_a   7.45277303
_cell_length_b   7.45277303
_cell_length_c   7.74904488
_cell_angle_alpha   90.00000000
_cell_angle_beta   90.00000000
_cell_angle_gamma   120.00000000
_symmetry_Int_Tables_number   1
_chemical_formula_structural   WO3
_chemical_formula_sum   'W6 O18'
_cell_volume   372.74737884
_cell_formula_units_Z   6
loop_
 _symmetry_equiv_pos_site_id
 _symmetry_equiv_pos_as_xyz
  1  'x, y, z'
loop_
 _atom_site_type_symbol
 _atom_site_label
 _atom_site_symmetry_multiplicity
 _atom_site_fract_x
 _atom_site_fract_y
 _atom_site_fract_z
 _atom_site_occupancy
  W  W0  1  0.47365532  0.47365532  0.72851451  1.0
  W  W1  1  0.52634468  -0.00000000  0.72851451  1.0
  W  W2  1  0.00000000  0.52634468  0.72851451  1.0
  W  W3  1  0.52634468  0.52634468  0.22851451  1.0
  W  W4  1  0.47365532  -0.00000000  0.22851451  1.0
  W  W5  1  -0.00000000  0.47365532  0.22851451  1.0
  O  O6  1  0.42606532  0.20931489  0.74998814  1.0
  O  O7  1  0.79068511  0.21675043  0.74998814  1.0
  O  O8  1  0.78324957  0.57393468  0.74998814  1.0
  O  O9  1  0.20931489  0.42606532  0.74998814  1.0
  O  O10  1  0.21675043  0.79068511  0.74998814  1.0
  O  O11  1  0.57393468  0.78324957  0.74998814  1.0
  O  O12  1  0.57393468  0.79068511  0.24998814  1.0
  O  O13  1  0.20931489  0.78324957  0.24998814  1.0
  O  O14  1  0.21675043  0.42606532  0.24998814  1.0
  O  O15  1  0.79068511  0.57393468  0.24998814  1.0
  O  O16  1  0.78324957  0.20931489  0.24998814  1.0
  O  O17  1  0.42606532  0.21675043  0.24998814  1.0
  O  O18  1  0.49726883  0.49726883  0.49750920  1.0
  O  O19  1  0.50273117  -0.00000000  0.49750920  1.0
  O  O20  1  -0.00000000  0.50273117  0.49750920  1.0
  O  O21  1  0.50273117  0.50273117  0.99750920  1.0
  O  O22  1  0.49726883  0.00000000  0.99750920  1.0
  O  O23  1  0.00000000  0.49726883  0.99750920  1.0
