# generated using pymatgen
data_Sr6HfCd(BO3)6
_symmetry_space_group_name_H-M   'P 1'
_cell_length_a   7.82294185
_cell_length_b   7.82294185
_cell_length_c   7.82294185
_cell_angle_alpha   104.98273914
_cell_angle_beta   104.98273914
_cell_angle_gamma   104.98273914
_symmetry_Int_Tables_number   1
_chemical_formula_structural   Sr6HfCd(BO3)6
_chemical_formula_sum   'Sr6 Hf1 Cd1 B6 O18'
_cell_volume   418.71792536
_cell_formula_units_Z   1
loop_
 _symmetry_equiv_pos_site_id
 _symmetry_equiv_pos_as_xyz
  1  'x, y, z'
loop_
 _atom_site_type_symbol
 _atom_site_label
 _atom_site_symmetry_multiplicity
 _atom_site_fract_x
 _atom_site_fract_y
 _atom_site_fract_z
 _atom_site_occupancy
  Sr  Sr0  1  0.75744936  0.64812249  0.14852462  1.0
  Sr  Sr1  1  1.35187751  -0.14852462  0.24255064  1.0
  Sr  Sr2  1  0.85147538  0.24255064  0.35187751  1.0
  Sr  Sr3  1  1.24255064  0.35187751  -0.14852462  1.0
  Sr  Sr4  1  0.64812249  1.14852462  -0.24255064  1.0
  Sr  Sr5  1  1.14852462  0.75744936  -0.35187751  1.0
  Hf  Hf6  1  -0.00000000  -0.00000000  -0.00000000  1.0
  Cd  Cd7  1  0.50000000  0.50000000  0.50000000  1.0
  B  B8  1  1.54346305  0.79332421  -0.12219105  1.0
  B  B9  1  1.20667579  0.12219105  -0.54346305  1.0
  B  B10  1  1.12219105  -0.54346305  0.20667579  1.0
  B  B11  1  0.45653695  0.20667579  0.12219105  1.0
  B  B12  1  0.79332421  0.87780895  0.54346305  1.0
  B  B13  1  0.87780895  1.54346305  -0.20667579  1.0
  O  O14  1  0.72488165  0.92476400  -0.00320107  1.0
  O  O15  1  1.07523600  0.00320107  -0.72488165  1.0
  O  O16  1  1.00320107  -0.72488165  0.07523600  1.0
  O  O17  1  0.27511835  0.07523600  0.00320107  1.0
  O  O18  1  0.92476400  0.99679893  -0.27511835  1.0
  O  O19  1  0.99679893  0.72488165  -0.07523600  1.0
  O  O20  1  1.48206076  0.78109406  -0.30783121  1.0
  O  O21  1  1.21890594  0.30783121  -0.48206076  1.0
  O  O22  1  1.30783121  -0.48206076  0.21890594  1.0
  O  O23  1  0.51793924  0.21890594  0.30783121  1.0
  O  O24  1  0.78109406  0.69216879  0.48206076  1.0
  O  O25  1  0.69216879  1.48206076  -0.21890594  1.0
  O  O26  1  0.56420929  0.30532273  0.04251088  1.0
  O  O27  1  0.69467727  0.95748912  0.43579071  1.0
  O  O28  1  0.95748912  1.43579071  -0.30532273  1.0
  O  O29  1  1.43579071  0.69467727  -0.04251088  1.0
  O  O30  1  1.30532273  0.04251088  -0.43579071  1.0
  O  O31  1  1.04251088  -0.43579071  0.30532273  1.0
