# generated using pymatgen
data_Ga2O3
_symmetry_space_group_name_H-M   'P 1'
_cell_length_a   6.40796586
_cell_length_b   6.40796586
_cell_length_c   5.87238033
_cell_angle_alpha   76.71309519
_cell_angle_beta   103.28690481
_cell_angle_gamma   152.17527701
_symmetry_Int_Tables_number   1
_chemical_formula_structural   Ga2O3
_chemical_formula_sum   'Ga4 O6'
_cell_volume   109.35225577
_cell_formula_units_Z   2
loop_
 _symmetry_equiv_pos_site_id
 _symmetry_equiv_pos_as_xyz
  1  'x, y, z'
loop_
 _atom_site_type_symbol
 _atom_site_label
 _atom_site_symmetry_multiplicity
 _atom_site_fract_x
 _atom_site_fract_y
 _atom_site_fract_z
 _atom_site_occupancy
  Ga  Ga0  1  0.91000281  -0.91000281  0.70530652  1.0
  Ga  Ga1  1  1.08999719  -0.08999719  0.29469348  1.0
  Ga  Ga2  1  0.65859866  -0.65859866  0.81400892  1.0
  Ga  Ga3  1  1.34140134  -0.34140134  0.18599108  1.0
  O  O4  1  0.83599877  -0.83599877  0.39090003  1.0
  O  O5  1  1.16400123  -0.16400123  0.60909997  1.0
  O  O6  1  0.82637497  -0.82637497  0.93604864  1.0
  O  O7  1  1.17362503  -0.17362503  0.06395136  1.0
  O  O8  1  1.49616030  -0.49616030  0.75647874  1.0
  O  O9  1  0.50383970  -0.50383970  0.24352126  1.0
