# generated using pymatgen
data_K6Co2O7
_symmetry_space_group_name_H-M   'P 1'
_cell_length_a   6.63055587
_cell_length_b   9.17997578
_cell_length_c   11.23276934
_cell_angle_alpha   90.00000000
_cell_angle_beta   123.83226016
_cell_angle_gamma   90.00000000
_symmetry_Int_Tables_number   1
_chemical_formula_structural   K6Co2O7
_chemical_formula_sum   'K12 Co4 O14'
_cell_volume   567.94649741
_cell_formula_units_Z   2
loop_
 _symmetry_equiv_pos_site_id
 _symmetry_equiv_pos_as_xyz
  1  'x, y, z'
loop_
 _atom_site_type_symbol
 _atom_site_label
 _atom_site_symmetry_multiplicity
 _atom_site_fract_x
 _atom_site_fract_y
 _atom_site_fract_z
 _atom_site_occupancy
  K  K0  1  0.92301262  0.70103755  0.28694844  1.0
  K  K1  1  0.92301262  0.79896245  0.78694844  1.0
  K  K2  1  0.07698738  0.20103755  0.21305156  1.0
  K  K3  1  0.07698738  0.29896245  0.71305156  1.0
  K  K4  1  0.69617692  0.02773171  0.44298965  1.0
  K  K5  1  0.69617692  0.47226829  0.94298965  1.0
  K  K6  1  0.30382308  0.52773171  0.05701035  1.0
  K  K7  1  0.30382308  0.97226829  0.55701035  1.0
  K  K8  1  0.42921433  0.15056279  0.06619191  1.0
  K  K9  1  0.42921433  0.34943721  0.56619191  1.0
  K  K10  1  0.57078567  0.65056279  0.43380809  1.0
  K  K11  1  0.57078567  0.84943721  0.93380809  1.0
  Co  Co12  1  0.80851709  0.35575981  0.36362740  1.0
  Co  Co13  1  0.80851709  0.14424019  0.86362740  1.0
  Co  Co14  1  0.19148291  0.85575981  0.13637260  1.0
  Co  Co15  1  0.19148291  0.64424019  0.63637260  1.0
  O  O16  1  1.00183589  0.19753215  0.42877924  1.0
  O  O17  1  1.00183589  0.30246785  0.92877924  1.0
  O  O18  1  -0.00183589  0.69753215  0.07122076  1.0
  O  O19  1  -0.00183589  0.80246785  0.57122076  1.0
  O  O20  1  0.74204460  0.40276117  0.18990070  1.0
  O  O21  1  0.74204460  0.09723883  0.68990070  1.0
  O  O22  1  0.25795540  0.90276117  0.31009930  1.0
  O  O23  1  0.25795540  0.59723883  0.81009930  1.0
  O  O24  1  0.53243571  0.33317452  0.35802157  1.0
  O  O25  1  0.53243571  0.16682548  0.85802157  1.0
  O  O26  1  0.46756429  0.83317452  0.14197843  1.0
  O  O27  1  0.46756429  0.66682548  0.64197843  1.0
  O  O28  1  -0.00000000  0.50000000  0.50000000  1.0
  O  O29  1  0.00000000  0.00000000  0.00000000  1.0
