# generated using pymatgen
data_Gd11(AlGe4)2
_symmetry_space_group_name_H-M   'P 1'
_cell_length_a   11.36793617
_cell_length_b   11.36793617
_cell_length_c   11.36793617
_cell_angle_alpha   120.86875660
_cell_angle_beta   120.86875660
_cell_angle_gamma   88.50174255
_symmetry_Int_Tables_number   1
_chemical_formula_structural   Gd11(AlGe4)2
_chemical_formula_sum   'Gd22 Al4 Ge16'
_cell_volume   1024.77420275
_cell_formula_units_Z   2
loop_
 _symmetry_equiv_pos_site_id
 _symmetry_equiv_pos_as_xyz
  1  'x, y, z'
loop_
 _atom_site_type_symbol
 _atom_site_label
 _atom_site_symmetry_multiplicity
 _atom_site_fract_x
 _atom_site_fract_y
 _atom_site_fract_z
 _atom_site_occupancy
  Gd  Gd0  1  0.43935893  0.69111220  0.74824673  1.0
  Gd  Gd1  1  1.05713452  0.30888780  0.74824673  1.0
  Gd  Gd2  1  0.94286548  0.69111220  1.25175327  1.0
  Gd  Gd3  1  0.56064107  0.30888780  0.25175327  1.0
  Gd  Gd4  1  0.69111220  0.43935893  0.74824673  1.0
  Gd  Gd5  1  0.30888780  1.05713452  0.74824673  1.0
  Gd  Gd6  1  0.69111220  0.94286548  1.25175327  1.0
  Gd  Gd7  1  0.30888780  0.56064107  0.25175327  1.0
  Gd  Gd8  1  0.56460065  0.89820441  0.66639624  1.0
  Gd  Gd9  1  0.76819183  0.10179559  0.66639624  1.0
  Gd  Gd10  1  1.23180817  0.89820441  1.33360376  1.0
  Gd  Gd11  1  0.43539935  0.10179559  0.33360376  1.0
  Gd  Gd12  1  0.89820441  0.56460065  0.66639624  1.0
  Gd  Gd13  1  0.10179559  0.76819183  0.66639624  1.0
  Gd  Gd14  1  0.89820441  1.23180817  1.33360376  1.0
  Gd  Gd15  1  0.10179559  0.43539935  0.33360376  1.0
  Gd  Gd16  1  0.67367145  0.67367145  1.34734290  1.0
  Gd  Gd17  1  0.32632855  0.67367145  1.00000000  1.0
  Gd  Gd18  1  0.67367145  0.32632855  1.00000000  1.0
  Gd  Gd19  1  0.32632855  0.32632855  0.65265710  1.0
  Gd  Gd20  1  0.83460493  0.83460493  1.00000000  1.0
  Gd  Gd21  1  0.16539507  0.16539507  -0.00000000  1.0
  Al  Al22  1  0.87855822  0.87855822  1.75711643  1.0
  Al  Al23  1  0.12144178  0.87855822  1.00000000  1.0
  Al  Al24  1  0.87855822  0.12144178  1.00000000  1.0
  Al  Al25  1  0.12144178  0.12144178  0.24288357  1.0
  Ge  Ge26  1  0.61974906  0.61974906  0.58657848  1.0
  Ge  Ge27  1  0.96682943  0.96682943  1.58657848  1.0
  Ge  Ge28  1  1.03317057  0.61974906  1.00000000  1.0
  Ge  Ge29  1  0.38025094  0.96682943  1.00000000  1.0
  Ge  Ge30  1  0.61974906  1.03317057  1.00000000  1.0
  Ge  Ge31  1  0.96682943  0.38025094  1.00000000  1.0
  Ge  Ge32  1  1.03317057  1.03317057  1.41342152  1.0
  Ge  Ge33  1  0.38025094  0.38025094  0.41342152  1.0
  Ge  Ge34  1  0.50000000  0.85352554  1.35352554  1.0
  Ge  Ge35  1  0.85352554  0.50000000  1.35352554  1.0
  Ge  Ge36  1  0.14647446  0.50000000  0.64647446  1.0
  Ge  Ge37  1  0.50000000  0.14647446  0.64647446  1.0
  Ge  Ge38  1  0.61777605  0.61777605  1.00000000  1.0
  Ge  Ge39  1  0.38222395  0.38222395  0.00000000  1.0
  Ge  Ge40  1  0.25000000  0.75000000  0.50000000  1.0
  Ge  Ge41  1  0.75000000  0.25000000  0.50000000  1.0
