# generated using pymatgen
data_Pd7Se2
_symmetry_space_group_name_H-M   'P 1'
_cell_length_a   5.59980282
_cell_length_b   5.42127691
_cell_length_c   9.54306883
_cell_angle_alpha   90.00000000
_cell_angle_beta   93.56094504
_cell_angle_gamma   90.00000000
_symmetry_Int_Tables_number   1
_chemical_formula_structural   Pd7Se2
_chemical_formula_sum   'Pd14 Se4'
_cell_volume   289.14992090
_cell_formula_units_Z   2
loop_
 _symmetry_equiv_pos_site_id
 _symmetry_equiv_pos_as_xyz
  1  'x, y, z'
loop_
 _atom_site_type_symbol
 _atom_site_label
 _atom_site_symmetry_multiplicity
 _atom_site_fract_x
 _atom_site_fract_y
 _atom_site_fract_z
 _atom_site_occupancy
  Pd  Pd0  1  0.92716490  0.34262007  0.20808477  1.0
  Pd  Pd1  1  0.92716490  0.15737993  0.70808477  1.0
  Pd  Pd2  1  0.07283510  0.84262007  0.29191523  1.0
  Pd  Pd3  1  0.07283510  0.65737993  0.79191523  1.0
  Pd  Pd4  1  0.70607884  0.08176877  0.42733643  1.0
  Pd  Pd5  1  0.70607884  0.41823123  0.92733643  1.0
  Pd  Pd6  1  0.29392116  0.58176877  0.07266357  1.0
  Pd  Pd7  1  0.29392116  0.91823123  0.57266357  1.0
  Pd  Pd8  1  0.46815637  0.09867219  0.14869568  1.0
  Pd  Pd9  1  0.46815637  0.40132781  0.64869568  1.0
  Pd  Pd10  1  0.53184363  0.59867219  0.35130432  1.0
  Pd  Pd11  1  0.53184363  0.90132781  0.85130432  1.0
  Pd  Pd12  1  0.00000000  0.50000000  0.50000000  1.0
  Pd  Pd13  1  0.00000000  0.00000000  0.00000000  1.0
  Se  Se14  1  0.27394295  0.22744400  0.37807506  1.0
  Se  Se15  1  0.27394295  0.27255600  0.87807506  1.0
  Se  Se16  1  0.72605705  0.72744400  0.12192494  1.0
  Se  Se17  1  0.72605705  0.77255600  0.62192494  1.0
