# generated using pymatgen
data_SrTbO3
_symmetry_space_group_name_H-M   'P 1'
_cell_length_a   6.08391177
_cell_length_b   8.48276080
_cell_length_c   5.95122909
_cell_angle_alpha   90.00000000
_cell_angle_beta   90.00000000
_cell_angle_gamma   90.00000000
_symmetry_Int_Tables_number   1
_chemical_formula_structural   SrTbO3
_chemical_formula_sum   'Sr4 Tb4 O12'
_cell_volume   307.13322249
_cell_formula_units_Z   4
loop_
 _symmetry_equiv_pos_site_id
 _symmetry_equiv_pos_as_xyz
  1  'x, y, z'
loop_
 _atom_site_type_symbol
 _atom_site_label
 _atom_site_symmetry_multiplicity
 _atom_site_fract_x
 _atom_site_fract_y
 _atom_site_fract_z
 _atom_site_occupancy
  Sr  Sr0  1  0.04376018  0.75000000  0.51156245  1.0
  Sr  Sr1  1  0.54376018  0.75000000  0.98843755  1.0
  Sr  Sr2  1  0.95623982  0.25000000  0.48843755  1.0
  Sr  Sr3  1  0.45623982  0.25000000  0.01156245  1.0
  Tb  Tb4  1  0.50000000  0.00000000  0.50000000  1.0
  Tb  Tb5  1  0.50000000  0.50000000  0.50000000  1.0
  Tb  Tb6  1  0.00000000  0.00000000  0.00000000  1.0
  Tb  Tb7  1  0.00000000  0.50000000  0.00000000  1.0
  O  O8  1  0.29417685  0.94779654  0.79505777  1.0
  O  O9  1  0.29417685  0.55220346  0.79505777  1.0
  O  O10  1  0.79417685  0.94779654  0.70494223  1.0
  O  O11  1  0.79417685  0.55220346  0.70494223  1.0
  O  O12  1  0.70582315  0.44779654  0.20494223  1.0
  O  O13  1  0.70582315  0.05220346  0.20494223  1.0
  O  O14  1  0.20582315  0.44779654  0.29505777  1.0
  O  O15  1  0.20582315  0.05220346  0.29505777  1.0
  O  O16  1  0.96369644  0.75000000  0.09725499  1.0
  O  O17  1  0.46369644  0.75000000  0.40274501  1.0
  O  O18  1  0.03630356  0.25000000  0.90274501  1.0
  O  O19  1  0.53630356  0.25000000  0.59725499  1.0
