# generated using pymatgen
data_PSN9
_symmetry_space_group_name_H-M   'P 1'
_cell_length_a   6.38575440
_cell_length_b   16.65221702
_cell_length_c   8.20700275
_cell_angle_alpha   90.00000000
_cell_angle_beta   98.37328150
_cell_angle_gamma   90.00000000
_symmetry_Int_Tables_number   1
_chemical_formula_structural   PSN9
_chemical_formula_sum   'P4 S4 N36'
_cell_volume   863.40502813
_cell_formula_units_Z   4
loop_
 _symmetry_equiv_pos_site_id
 _symmetry_equiv_pos_as_xyz
  1  'x, y, z'
loop_
 _atom_site_type_symbol
 _atom_site_label
 _atom_site_symmetry_multiplicity
 _atom_site_fract_x
 _atom_site_fract_y
 _atom_site_fract_z
 _atom_site_occupancy
  P  P0  1  0.92221300  0.85091780  0.11581781  1.0
  P  P1  1  0.92221300  0.64908220  0.61581781  1.0
  P  P2  1  0.07778700  0.35091780  0.38418219  1.0
  P  P3  1  0.07778700  0.14908220  0.88418219  1.0
  S  S4  1  0.72789899  0.92549651  0.99627125  1.0
  S  S5  1  0.72789899  0.57450349  0.49627125  1.0
  S  S6  1  0.27210101  0.42549651  0.50372875  1.0
  S  S7  1  0.27210101  0.07450349  0.00372875  1.0
  N  N8  1  0.87552542  0.42696581  0.14095907  1.0
  N  N9  1  0.87552542  0.07303419  0.64095907  1.0
  N  N10  1  0.12447458  0.92696581  0.35904093  1.0
  N  N11  1  0.12447458  0.57303419  0.85904093  1.0
  N  N12  1  0.84831413  0.33271486  0.46358396  1.0
  N  N13  1  0.84831413  0.16728514  0.96358396  1.0
  N  N14  1  0.15168587  0.83271486  0.03641604  1.0
  N  N15  1  0.15168587  0.66728514  0.53641604  1.0
  N  N16  1  0.82819138  0.75777465  0.15266476  1.0
  N  N17  1  0.82819138  0.74222535  0.65266476  1.0
  N  N18  1  0.17180862  0.25777465  0.34733524  1.0
  N  N19  1  0.17180862  0.24222535  0.84733524  1.0
  N  N20  1  0.83100254  0.14504694  0.10424712  1.0
  N  N21  1  0.83100254  0.35495306  0.60424712  1.0
  N  N22  1  0.16899746  0.64504694  0.39575288  1.0
  N  N23  1  0.16899746  0.85495306  0.89575288  1.0
  N  N24  1  0.79836158  0.12632983  0.23131106  1.0
  N  N25  1  0.79836158  0.37367017  0.73131106  1.0
  N  N26  1  0.20163842  0.62632983  0.26868894  1.0
  N  N27  1  0.20163842  0.87367017  0.76868894  1.0
  N  N28  1  0.78077045  0.48099935  0.08750106  1.0
  N  N29  1  0.78077045  0.01900065  0.58750106  1.0
  N  N30  1  0.21922955  0.98099935  0.41249894  1.0
  N  N31  1  0.21922955  0.51900065  0.91249894  1.0
  N  N32  1  0.44578930  0.30602012  0.02618560  1.0
  N  N33  1  0.44578930  0.19397988  0.52618560  1.0
  N  N34  1  0.55421070  0.80602012  0.47381440  1.0
  N  N35  1  0.55421070  0.69397988  0.97381440  1.0
  N  N36  1  0.31422378  0.22733996  0.44539879  1.0
  N  N37  1  0.31422378  0.27266004  0.94539879  1.0
  N  N38  1  0.68577622  0.72733996  0.05460121  1.0
  N  N39  1  0.68577622  0.77266004  0.55460121  1.0
  N  N40  1  0.97759711  0.36557680  0.18318018  1.0
  N  N41  1  0.97759711  0.13442320  0.68318018  1.0
  N  N42  1  0.02240289  0.86557680  0.31681982  1.0
  N  N43  1  0.02240289  0.63442320  0.81681982  1.0
