# generated using pymatgen
data_BaNiP2O7
_symmetry_space_group_name_H-M   'P 1'
_cell_length_a   5.33232293
_cell_length_b   7.69811893
_cell_length_c   7.54695944
_cell_angle_alpha   102.50348203
_cell_angle_beta   95.08039215
_cell_angle_gamma   92.13625959
_symmetry_Int_Tables_number   1
_chemical_formula_structural   BaNiP2O7
_chemical_formula_sum   'Ba2 Ni2 P4 O14'
_cell_volume   300.75046760
_cell_formula_units_Z   2
loop_
 _symmetry_equiv_pos_site_id
 _symmetry_equiv_pos_as_xyz
  1  'x, y, z'
loop_
 _atom_site_type_symbol
 _atom_site_label
 _atom_site_symmetry_multiplicity
 _atom_site_fract_x
 _atom_site_fract_y
 _atom_site_fract_z
 _atom_site_occupancy
  P  P0  1  -0.81416016  -0.77942040  -0.77087219  1.0
  P  P1  1  -0.18583984  -0.22057960  -0.22912781  1.0
  P  P2  1  -0.79451244  -0.39609915  -0.70221080  1.0
  P  P3  1  -0.20548756  -0.60390085  -0.29778920  1.0
  Ba  Ba4  1  -0.69157303  -0.93628876  -0.27930987  1.0
  Ba  Ba5  1  -0.30842697  -0.06371124  -0.72069013  1.0
  Ni  Ni6  1  -0.32216869  -0.59638809  -0.87885515  1.0
  Ni  Ni7  1  -0.67783131  -0.40361191  -0.12114485  1.0
  O  O8  1  -0.92983527  -0.61009146  -0.21895963  1.0
  O  O9  1  -0.07016473  -0.38990854  -0.78104037  1.0
  O  O10  1  -0.80169545  -0.91693168  -0.65225947  1.0
  O  O11  1  -0.19830455  -0.08306832  -0.34774053  1.0
  O  O12  1  -0.77006873  -0.58219130  -0.63374469  1.0
  O  O13  1  -0.22993127  -0.41780870  -0.36625531  1.0
  O  O14  1  -0.59641743  -0.79666366  -0.89632042  1.0
  O  O15  1  -0.40358257  -0.20333634  -0.10367958  1.0
  O  O16  1  -0.29560286  -0.75417306  -0.45718846  1.0
  O  O17  1  -0.70439714  -0.24582694  -0.54281154  1.0
  O  O18  1  -0.07746685  -0.78882440  -0.87725152  1.0
  O  O19  1  -0.92253315  -0.21117560  -0.12274848  1.0
  O  O20  1  -0.60664483  -0.40927837  -0.85525619  1.0
  O  O21  1  -0.39335517  -0.59072163  -0.14474381  1.0
