# generated using pymatgen
data_SnH7C2SeClO3
_symmetry_space_group_name_H-M   'P 1'
_cell_length_a   7.11817730
_cell_length_b   8.10112652
_cell_length_c   7.91702902
_cell_angle_alpha   111.31223028
_cell_angle_beta   102.42130918
_cell_angle_gamma   84.54006373
_symmetry_Int_Tables_number   1
_chemical_formula_structural   SnH7C2SeClO3
_chemical_formula_sum   'Sn2 H14 C4 Se2 Cl2 O6'
_cell_volume   415.28863100
_cell_formula_units_Z   2
loop_
 _symmetry_equiv_pos_site_id
 _symmetry_equiv_pos_as_xyz
  1  'x, y, z'
loop_
 _atom_site_type_symbol
 _atom_site_label
 _atom_site_symmetry_multiplicity
 _atom_site_fract_x
 _atom_site_fract_y
 _atom_site_fract_z
 _atom_site_occupancy
  Sn  Sn0  1  -0.21767428  -0.82612878  0.08441990  1.0
  Sn  Sn1  1  -0.78232572  -0.17387122  0.91558010  1.0
  H  H2  1  -0.71403432  -0.62728056  0.49743569  1.0
  H  H3  1  -0.28596568  -0.37271944  0.50256431  1.0
  H  H4  1  -0.23560923  -0.03890374  0.27183191  1.0
  H  H5  1  -0.76439077  -0.96109626  0.72816809  1.0
  H  H6  1  -0.03415446  -0.89255526  0.38603131  1.0
  H  H7  1  -0.96584554  -0.10744474  0.61396869  1.0
  H  H8  1  -0.27656648  -0.81218714  0.41084882  1.0
  H  H9  1  -0.72343352  -0.18781286  0.58915118  1.0
  H  H10  1  -0.41152856  -0.71923605  0.81363304  1.0
  H  H11  1  -0.58847144  -0.28076395  0.18636696  1.0
  H  H12  1  -0.16985123  -0.78784249  0.77555979  1.0
  H  H13  1  -0.83014877  -0.21215751  0.22444021  1.0
  H  H14  1  -0.35086374  -0.95128272  0.71631597  1.0
  H  H15  1  -0.64913626  -0.04871728  0.28368403  1.0
  C  C16  1  -0.18635801  -0.90274534  0.31975060  1.0
  C  C17  1  -0.81364199  -0.09725466  0.68024940  1.0
  C  C18  1  -0.29834521  -0.82093934  0.81091631  1.0
  C  C19  1  -0.70165479  -0.17906066  0.18908369  1.0
  Se  Se20  1  -0.72834780  -0.68475845  0.18171877  1.0
  Se  Se21  1  -0.27165220  -0.31524155  0.81828123  1.0
  Cl  Cl22  1  -0.16837223  -0.49617032  0.24976291  1.0
  Cl  Cl23  1  -0.83162777  -0.50382968  0.75023709  1.0
  O  O24  1  -0.89950582  -0.84807380  0.08153660  1.0
  O  O25  1  -0.10049418  -0.15192620  0.91846340  1.0
  O  O26  1  -0.63956363  -0.70669303  0.40508362  1.0
  O  O27  1  -0.36043637  -0.29330697  0.59491638  1.0
  O  O28  1  -0.54922968  -0.79422618  0.07793763  1.0
  O  O29  1  -0.45077032  -0.20577382  0.92206237  1.0
