# generated using pymatgen
data_B13P2
_symmetry_space_group_name_H-M   'P 1'
_cell_length_a   8.41186003
_cell_length_b   8.41186003
_cell_length_c   8.41186003
_cell_angle_alpha   33.36820592
_cell_angle_beta   33.36820592
_cell_angle_gamma   33.36820592
_symmetry_Int_Tables_number   1
_chemical_formula_structural   B13P2
_chemical_formula_sum   'B13 P2'
_cell_volume   160.33826334
_cell_formula_units_Z   1
loop_
 _symmetry_equiv_pos_site_id
 _symmetry_equiv_pos_as_xyz
  1  'x, y, z'
loop_
 _atom_site_type_symbol
 _atom_site_label
 _atom_site_symmetry_multiplicity
 _atom_site_fract_x
 _atom_site_fract_y
 _atom_site_fract_z
 _atom_site_occupancy
  B  B0  1  0.22094084  0.22094084  -0.40233987  1.0
  B  B1  1  0.22094084  0.59766013  -0.77905916  1.0
  B  B2  1  0.40233987  0.77905916  -0.22094084  1.0
  B  B3  1  0.77905916  0.40233987  -0.22094084  1.0
  B  B4  1  0.77905916  0.77905916  -0.59766013  1.0
  B  B5  1  0.59766013  0.22094084  -0.77905916  1.0
  B  B6  1  1.06624264  1.06624264  0.68156361  1.0
  B  B7  1  1.06624264  1.68156361  0.06624264  1.0
  B  B8  1  0.31843639  0.93375736  -0.06624264  1.0
  B  B9  1  0.93375736  0.31843639  -0.06624264  1.0
  B  B10  1  0.93375736  -0.06624264  0.31843639  1.0
  B  B11  1  1.68156361  1.06624264  0.06624264  1.0
  B  B12  1  -0.00000000  0.00000000  -0.00000000  1.0
  P  P13  1  0.77380407  0.77380407  -0.22619593  1.0
  P  P14  1  1.22619593  1.22619593  0.22619593  1.0
