# generated using pymatgen
data_Cu2HgGeS4
_symmetry_space_group_name_H-M   'P 1'
_cell_length_a   7.77953961
_cell_length_b   6.62033058
_cell_length_c   6.36970373
_cell_angle_alpha   90.00000000
_cell_angle_beta   90.00000000
_cell_angle_gamma   90.00000000
_symmetry_Int_Tables_number   1
_chemical_formula_structural   Cu2HgGeS4
_chemical_formula_sum   'Cu4 Hg2 Ge2 S8'
_cell_volume   328.05964114
_cell_formula_units_Z   2
loop_
 _symmetry_equiv_pos_site_id
 _symmetry_equiv_pos_as_xyz
  1  'x, y, z'
loop_
 _atom_site_type_symbol
 _atom_site_label
 _atom_site_symmetry_multiplicity
 _atom_site_fract_x
 _atom_site_fract_y
 _atom_site_fract_z
 _atom_site_occupancy
  Cu  Cu0  1  0.24921642  0.16921462  0.00437437  1.0
  Cu  Cu1  1  0.74921642  0.83078538  0.50437437  1.0
  Cu  Cu2  1  0.75078358  0.16921462  0.00437437  1.0
  Cu  Cu3  1  0.25078358  0.83078538  0.50437437  1.0
  Hg  Hg4  1  0.50000000  0.65367535  0.00897982  1.0
  Hg  Hg5  1  0.00000000  0.34632465  0.50897982  1.0
  Ge  Ge6  1  0.50000000  0.32279291  0.50161350  1.0
  Ge  Ge7  1  0.00000000  0.67720709  1.00161350  1.0
  S  S8  1  0.26929044  0.15463864  0.36687930  1.0
  S  S9  1  0.76929044  0.84536136  0.86687930  1.0
  S  S10  1  0.73070956  0.15463864  0.36687930  1.0
  S  S11  1  0.23070956  0.84536136  0.86687930  1.0
  S  S12  1  0.50000000  0.29072016  0.85955658  1.0
  S  S13  1  0.00000000  0.70927984  0.35955658  1.0
  S  S14  1  0.50000000  0.65845675  0.41334277  1.0
  S  S15  1  0.00000000  0.34154325  0.91334277  1.0
