# generated using pymatgen
data_CaTaAlO5
_symmetry_space_group_name_H-M   'P 1'
_cell_length_a   6.82272115
_cell_length_b   9.00082685
_cell_length_c   7.71246271
_cell_angle_alpha   90.00000000
_cell_angle_beta   118.59543341
_cell_angle_gamma   90.00000000
_symmetry_Int_Tables_number   1
_chemical_formula_structural   CaTaAlO5
_chemical_formula_sum   'Ca4 Ta4 Al4 O20'
_cell_volume   415.85130773
_cell_formula_units_Z   4
loop_
 _symmetry_equiv_pos_site_id
 _symmetry_equiv_pos_as_xyz
  1  'x, y, z'
loop_
 _atom_site_type_symbol
 _atom_site_label
 _atom_site_symmetry_multiplicity
 _atom_site_fract_x
 _atom_site_fract_y
 _atom_site_fract_z
 _atom_site_occupancy
  Ca  Ca0  1  0.75003149  0.66920910  0.25002335  1.0
  Ca  Ca1  1  0.75003149  0.83079090  0.75002335  1.0
  Ca  Ca2  1  0.24996851  0.16920910  0.24997665  1.0
  Ca  Ca3  1  0.24996851  0.33079090  0.74997665  1.0
  Ta  Ta4  1  0.00000000  0.50000000  0.00000000  1.0
  Ta  Ta5  1  -0.00000000  0.00000000  0.50000000  1.0
  Ta  Ta6  1  0.50000000  0.50000000  0.50000000  1.0
  Ta  Ta7  1  0.50000000  0.00000000  0.00000000  1.0
  Al  Al8  1  0.74999319  0.31715447  0.24999210  1.0
  Al  Al9  1  0.74999319  0.18284553  0.74999210  1.0
  Al  Al10  1  0.25000681  0.81715447  0.25000790  1.0
  Al  Al11  1  0.25000681  0.68284553  0.75000790  1.0
  O  O12  1  0.99003067  0.20487152  0.38926551  1.0
  O  O13  1  0.99003067  0.29512848  0.88926551  1.0
  O  O14  1  0.00996933  0.70487152  0.11073449  1.0
  O  O15  1  0.00996933  0.79512848  0.61073449  1.0
  O  O16  1  0.78277086  0.44393194  0.09040003  1.0
  O  O17  1  0.78277086  0.05606806  0.59040003  1.0
  O  O18  1  0.21722914  0.94393194  0.40959997  1.0
  O  O19  1  0.21722914  0.55606806  0.90959997  1.0
  O  O20  1  0.71723192  0.44392151  0.40960376  1.0
  O  O21  1  0.71723192  0.05607849  0.90960376  1.0
  O  O22  1  0.28276808  0.94392151  0.09039624  1.0
  O  O23  1  0.28276808  0.55607849  0.59039624  1.0
  O  O24  1  0.75000400  0.92714562  0.24999839  1.0
  O  O25  1  0.75000400  0.57285438  0.74999839  1.0
  O  O26  1  0.24999600  0.42714562  0.25000161  1.0
  O  O27  1  0.24999600  0.07285438  0.75000161  1.0
  O  O28  1  0.50996086  0.20486883  0.11073108  1.0
  O  O29  1  0.50996086  0.29513117  0.61073108  1.0
  O  O30  1  0.49003914  0.70486883  0.38926892  1.0
  O  O31  1  0.49003914  0.79513117  0.88926892  1.0
