# generated using pymatgen
data_K2MnH4(SO5)2
_symmetry_space_group_name_H-M   'P 1'
_cell_length_a   6.63989281
_cell_length_b   10.82193389
_cell_length_c   7.53022788
_cell_angle_alpha   72.62255565
_cell_angle_beta   69.08418563
_cell_angle_gamma   73.88476417
_symmetry_Int_Tables_number   1
_chemical_formula_structural   K2MnH4(SO5)2
_chemical_formula_sum   'K4 Mn2 H8 S4 O20'
_cell_volume   473.41951591
_cell_formula_units_Z   2
loop_
 _symmetry_equiv_pos_site_id
 _symmetry_equiv_pos_as_xyz
  1  'x, y, z'
loop_
 _atom_site_type_symbol
 _atom_site_label
 _atom_site_symmetry_multiplicity
 _atom_site_fract_x
 _atom_site_fract_y
 _atom_site_fract_z
 _atom_site_occupancy
  K  K0  1  -0.79448111  -0.89851617  -0.75210069  1.0
  K  K1  1  -0.20551889  -0.10148383  -0.24789931  1.0
  K  K2  1  -0.73225449  -0.56990774  -0.26378277  1.0
  K  K3  1  -0.26774551  -0.43009226  -0.73621723  1.0
  Mn  Mn4  1  -0.75377762  -0.25052122  -0.96668496  1.0
  Mn  Mn5  1  -0.24622238  -0.74947878  -0.03331504  1.0
  H  H6  1  -0.83833453  -0.28549140  -0.57400096  1.0
  H  H7  1  -0.16166547  -0.71450860  -0.42599904  1.0
  H  H8  1  -0.63628915  -0.20692168  -0.67162947  1.0
  H  H9  1  -0.36371085  -0.79307832  -0.32837053  1.0
  H  H10  1  -0.37784448  -0.71217942  -0.68038144  1.0
  H  H11  1  -0.62215552  -0.28782058  -0.31961856  1.0
  H  H12  1  -0.26280794  -0.86463146  -0.66798346  1.0
  H  H13  1  -0.73719206  -0.13536854  -0.33201654  1.0
  S  S14  1  -0.73877042  -0.92592535  -0.22133255  1.0
  S  S15  1  -0.26122958  -0.07407465  -0.77866745  1.0
  S  S16  1  -0.73669178  -0.58705252  -0.77095779  1.0
  S  S17  1  -0.26330822  -0.41294748  -0.22904221  1.0
  O  O18  1  -0.93369121  -0.64117853  -0.63712506  1.0
  O  O19  1  -0.06630879  -0.35882147  -0.36287494  1.0
  O  O20  1  -0.88998678  -0.81537658  -0.12604743  1.0
  O  O21  1  -0.11001322  -0.18462342  -0.87395257  1.0
  O  O22  1  -0.84097866  -0.96007693  -0.34270640  1.0
  O  O23  1  -0.15902134  -0.03992307  -0.65729360  1.0
  O  O24  1  -0.81087999  -0.45179099  -0.88528745  1.0
  O  O25  1  -0.18912001  -0.54820901  -0.11471255  1.0
  O  O26  1  -0.70869670  -0.27049552  -0.68748370  1.0
  O  O27  1  -0.29130330  -0.72950448  -0.31251630  1.0
  O  O28  1  -0.60823321  -0.67489680  -0.91410027  1.0
  O  O29  1  -0.39176679  -0.32510320  -0.08589973  1.0
  O  O30  1  -0.59235538  -0.58052600  -0.66165347  1.0
  O  O31  1  -0.40764462  -0.41947400  -0.33834653  1.0
  O  O32  1  -0.52663343  -0.88305984  -0.34287204  1.0
  O  O33  1  -0.47336657  -0.11694016  -0.65712796  1.0
  O  O34  1  -0.30543466  -0.95555829  -0.93737677  1.0
  O  O35  1  -0.69456534  -0.04444171  -0.06262323  1.0
  O  O36  1  -0.24100471  -0.77337899  -0.73492793  1.0
  O  O37  1  -0.75899529  -0.22662101  -0.26507207  1.0
