# generated using pymatgen
data_Y4MgIr
_symmetry_space_group_name_H-M   'P 1'
_cell_length_a   9.74038762
_cell_length_b   9.74038762
_cell_length_c   9.74038762
_cell_angle_alpha   60.00000000
_cell_angle_beta   60.00000000
_cell_angle_gamma   60.00000000
_symmetry_Int_Tables_number   1
_chemical_formula_structural   Y4MgIr
_chemical_formula_sum   'Y16 Mg4 Ir4'
_cell_volume   653.45204628
_cell_formula_units_Z   4
loop_
 _symmetry_equiv_pos_site_id
 _symmetry_equiv_pos_as_xyz
  1  'x, y, z'
loop_
 _atom_site_type_symbol
 _atom_site_label
 _atom_site_symmetry_multiplicity
 _atom_site_fract_x
 _atom_site_fract_y
 _atom_site_fract_z
 _atom_site_occupancy
  Y  Y0  1  0.06304835  0.43695165  0.43695165  1.0
  Y  Y1  1  0.43695165  0.43695165  0.06304835  1.0
  Y  Y2  1  0.43695165  0.06304835  0.43695165  1.0
  Y  Y3  1  0.06304835  0.06304835  0.43695165  1.0
  Y  Y4  1  0.06304835  0.43695165  0.06304835  1.0
  Y  Y5  1  0.43695165  0.06304835  0.06304835  1.0
  Y  Y6  1  -0.81168316  0.81168316  0.81168316  1.0
  Y  Y7  1  -0.18831684  0.81168316  0.18831684  1.0
  Y  Y8  1  -0.18831684  0.18831684  0.81168316  1.0
  Y  Y9  1  0.18831684  1.18831684  -0.18831684  1.0
  Y  Y10  1  0.18831684  -0.18831684  0.18831684  1.0
  Y  Y11  1  -0.18831684  0.18831684  0.18831684  1.0
  Y  Y12  1  -0.34614758  0.65385242  0.65385242  1.0
  Y  Y13  1  1.03844275  0.65385242  -0.34614758  1.0
  Y  Y14  1  -0.34614758  0.65385242  1.03844275  1.0
  Y  Y15  1  0.65385242  1.03844275  -0.34614758  1.0
  Mg  Mg16  1  0.42070343  1.42070343  0.42070343  1.0
  Mg  Mg17  1  -0.26211028  0.42070343  0.42070343  1.0
  Mg  Mg18  1  0.42070343  1.42070343  -0.26211028  1.0
  Mg  Mg19  1  0.42070343  -0.26211028  0.42070343  1.0
  Ir  Ir20  1  0.85899496  0.85899496  -0.14100504  1.0
  Ir  Ir21  1  0.42301511  0.85899496  -0.14100504  1.0
  Ir  Ir22  1  0.85899496  0.85899496  -0.57698489  1.0
  Ir  Ir23  1  0.85899496  0.42301511  -0.14100504  1.0
