# generated using pymatgen
data_TiSe
_symmetry_space_group_name_H-M   'P 1'
_cell_length_a   12.77702950
_cell_length_b   12.77702950
_cell_length_c   12.77702950
_cell_angle_alpha   16.24333155
_cell_angle_beta   16.24333155
_cell_angle_gamma   16.24333155
_symmetry_Int_Tables_number   1
_chemical_formula_structural   TiSe
_chemical_formula_sum   'Ti4 Se4'
_cell_volume   142.28450969
_cell_formula_units_Z   4
loop_
 _symmetry_equiv_pos_site_id
 _symmetry_equiv_pos_as_xyz
  1  'x, y, z'
loop_
 _atom_site_type_symbol
 _atom_site_label
 _atom_site_symmetry_multiplicity
 _atom_site_fract_x
 _atom_site_fract_y
 _atom_site_fract_z
 _atom_site_occupancy
  Ti  Ti0  1  0.00000000  0.00000000  -0.00000000  1.0
  Ti  Ti1  1  0.50000000  0.50000000  -0.50000000  1.0
  Ti  Ti2  1  0.91413108  -0.08586892  -0.08586892  1.0
  Ti  Ti3  1  0.08586892  0.08586892  0.08586892  1.0
  Se  Se4  1  0.79247265  -0.20752735  -0.20752735  1.0
  Se  Se5  1  0.20752735  0.20752735  0.20752735  1.0
  Se  Se6  1  0.62438857  0.62438857  -0.37561143  1.0
  Se  Se7  1  0.37561143  0.37561143  -0.62438857  1.0
