# generated using pymatgen
data_CsSnI3
_symmetry_space_group_name_H-M   'P 1'
_cell_length_a   8.75505754
_cell_length_b   8.75505754
_cell_length_c   6.34518963
_cell_angle_alpha   90.00000000
_cell_angle_beta   90.00000000
_cell_angle_gamma   90.00000000
_symmetry_Int_Tables_number   1
_chemical_formula_structural   CsSnI3
_chemical_formula_sum   'Cs2 Sn2 I6'
_cell_volume   486.36533673
_cell_formula_units_Z   2
loop_
 _symmetry_equiv_pos_site_id
 _symmetry_equiv_pos_as_xyz
  1  'x, y, z'
loop_
 _atom_site_type_symbol
 _atom_site_label
 _atom_site_symmetry_multiplicity
 _atom_site_fract_x
 _atom_site_fract_y
 _atom_site_fract_z
 _atom_site_occupancy
  Cs  Cs0  1  0.50000000  0.00000000  0.00000000  1.0
  Cs  Cs1  1  0.00000000  0.50000000  0.00000000  1.0
  Sn  Sn2  1  0.50000000  0.50000000  0.50000000  1.0
  Sn  Sn3  1  0.00000000  0.00000000  0.50000000  1.0
  I  I4  1  0.30144208  0.19855792  0.50000000  1.0
  I  I5  1  0.80144208  0.30144208  0.50000000  1.0
  I  I6  1  0.69855792  0.80144208  0.50000000  1.0
  I  I7  1  0.19855792  0.69855792  0.50000000  1.0
  I  I8  1  0.50000000  0.50000000  0.00000000  1.0
  I  I9  1  0.00000000  0.00000000  0.00000000  1.0
