# generated using pymatgen
data_ZrGeRu
_symmetry_space_group_name_H-M   'P 1'
_cell_length_a   7.75218917
_cell_length_b   7.75218917
_cell_length_c   7.75218917
_cell_angle_alpha   121.81558957
_cell_angle_beta   81.83773762
_cell_angle_gamma   127.93666060
_symmetry_Int_Tables_number   1
_chemical_formula_structural   ZrGeRu
_chemical_formula_sum   'Zr6 Ge6 Ru6'
_cell_volume   300.47631756
_cell_formula_units_Z   6
loop_
 _symmetry_equiv_pos_site_id
 _symmetry_equiv_pos_as_xyz
  1  'x, y, z'
loop_
 _atom_site_type_symbol
 _atom_site_label
 _atom_site_symmetry_multiplicity
 _atom_site_fract_x
 _atom_site_fract_y
 _atom_site_fract_z
 _atom_site_occupancy
  Zr  Zr0  1  0.75903116  1.23071742  1.02831375  1.0
  Zr  Zr1  1  1.20240367  1.73071742  0.97168625  1.0
  Zr  Zr2  1  0.33623447  1.08461861  0.75161585  1.0
  Zr  Zr3  1  1.33300276  1.58461861  1.24838415  1.0
  Zr  Zr4  1  1.14877487  1.20227186  0.44650300  1.0
  Zr  Zr5  1  0.75576886  0.70227186  0.55349700  1.0
  Ge  Ge6  1  0.71831897  0.99577519  1.22254379  1.0
  Ge  Ge7  1  0.77323140  1.49577519  0.77745621  1.0
  Ge  Ge8  1  0.42205848  0.26023762  0.17286478  1.0
  Ge  Ge9  1  1.08737284  0.76023762  0.33817914  1.0
  Ge  Ge10  1  0.42205848  0.74919370  0.66182086  1.0
  Ge  Ge11  1  1.08737284  1.24919370  0.82713522  1.0
  Ru  Ru12  1  -0.00270211  -0.00270211  -0.00000000  1.0
  Ru  Ru13  1  -0.00270211  0.49729789  0.50000000  1.0
  Ru  Ru14  1  0.50676706  0.15966547  0.40674482  1.0
  Ru  Ru15  1  0.75292066  0.65966547  0.15289842  1.0
  Ru  Ru16  1  0.50676706  0.60002224  0.84710158  1.0
  Ru  Ru17  1  0.75292066  1.10002224  0.59325518  1.0
