# generated using pymatgen
data_Sr4Mn3O10
_symmetry_space_group_name_H-M   'P 1'
_cell_length_a   6.82977473
_cell_length_b   6.82977473
_cell_length_c   12.72618114
_cell_angle_alpha   90.00000000
_cell_angle_beta   90.00000000
_cell_angle_gamma   132.42942915
_symmetry_Int_Tables_number   1
_chemical_formula_structural   Sr4Mn3O10
_chemical_formula_sum   'Sr8 Mn6 O20'
_cell_volume   438.15855977
_cell_formula_units_Z   2
loop_
 _symmetry_equiv_pos_site_id
 _symmetry_equiv_pos_as_xyz
  1  'x, y, z'
loop_
 _atom_site_type_symbol
 _atom_site_label
 _atom_site_symmetry_multiplicity
 _atom_site_fract_x
 _atom_site_fract_y
 _atom_site_fract_z
 _atom_site_occupancy
  Mn  Mn0  1  0.13278930  0.86721070  0.84731505  1.0
  Mn  Mn1  1  -0.36721070  0.36721070  0.65268495  1.0
  Mn  Mn2  1  -0.13278930  0.13278930  0.15268495  1.0
  Mn  Mn3  1  0.36721070  0.63278930  0.34731505  1.0
  Mn  Mn4  1  0.00000000  0.00000000  0.00000000  1.0
  Mn  Mn5  1  0.50000000  0.50000000  0.50000000  1.0
  O  O6  1  -0.11886035  0.66227677  0.96242070  1.0
  O  O7  1  0.38113965  1.16227677  0.53757930  1.0
  O  O8  1  0.66227677  0.88113965  0.03757930  1.0
  O  O9  1  0.16227677  0.38113965  0.46242070  1.0
  O  O10  1  0.33772323  1.11886035  0.96242070  1.0
  O  O11  1  -0.16227677  0.61886035  0.53757930  1.0
  O  O12  1  0.11886035  0.33772323  0.03757930  1.0
  O  O13  1  0.61886035  0.83772323  0.46242070  1.0
  O  O14  1  0.46205321  0.53794679  0.64489858  1.0
  O  O15  1  -0.03794679  0.03794679  0.85510142  1.0
  O  O16  1  -0.46205321  0.46205321  0.35510142  1.0
  O  O17  1  0.03794679  0.96205321  0.14489858  1.0
  O  O18  1  0.27547361  0.72452639  0.84437371  1.0
  O  O19  1  -0.22452639  0.22452639  0.65562629  1.0
  O  O20  1  -0.27547361  0.27547361  0.15562629  1.0
  O  O21  1  0.22452639  0.77547361  0.34437371  1.0
  O  O22  1  -0.13519133  0.63519133  0.75000000  1.0
  O  O23  1  0.36480867  1.13519133  0.75000000  1.0
  O  O24  1  0.63519133  0.86480867  0.25000000  1.0
  O  O25  1  0.13519133  0.36480867  0.25000000  1.0
  Sr  Sr26  1  0.26268314  0.73731686  0.61200112  1.0
  Sr  Sr27  1  -0.23731686  0.23731686  0.88799888  1.0
  Sr  Sr28  1  -0.26268314  0.26268314  0.38799888  1.0
  Sr  Sr29  1  0.23731686  0.76268314  0.11200112  1.0
  Sr  Sr30  1  0.47051493  0.52948507  0.85652931  1.0
  Sr  Sr31  1  -0.02948507  0.02948507  0.64347069  1.0
  Sr  Sr32  1  -0.47051493  0.47051493  0.14347069  1.0
  Sr  Sr33  1  0.02948507  0.97051493  0.35652931  1.0
