# generated using pymatgen
data_K2EuCl5
_symmetry_space_group_name_H-M   'P 1'
_cell_length_a   13.03182426
_cell_length_b   8.79772342
_cell_length_c   8.08526885
_cell_angle_alpha   90.00000000
_cell_angle_beta   90.00000000
_cell_angle_gamma   90.00000000
_symmetry_Int_Tables_number   1
_chemical_formula_structural   K2EuCl5
_chemical_formula_sum   'K8 Eu4 Cl20'
_cell_volume   926.97919054
_cell_formula_units_Z   4
loop_
 _symmetry_equiv_pos_site_id
 _symmetry_equiv_pos_as_xyz
  1  'x, y, z'
loop_
 _atom_site_type_symbol
 _atom_site_label
 _atom_site_symmetry_multiplicity
 _atom_site_fract_x
 _atom_site_fract_y
 _atom_site_fract_z
 _atom_site_occupancy
  Eu  Eu0  1  0.99757362  0.25000000  0.06426451  1.0
  Eu  Eu1  1  0.49757362  0.25000000  0.43573549  1.0
  Eu  Eu2  1  0.00242638  0.75000000  0.93573549  1.0
  Eu  Eu3  1  0.50242638  0.75000000  0.56426451  1.0
  Cl  Cl4  1  0.82257826  0.25000000  0.87399705  1.0
  Cl  Cl5  1  0.32257826  0.25000000  0.62600295  1.0
  Cl  Cl6  1  0.17742174  0.75000000  0.12600295  1.0
  Cl  Cl7  1  0.67742174  0.75000000  0.37399705  1.0
  Cl  Cl8  1  0.91994327  0.96097163  0.16038404  1.0
  Cl  Cl9  1  0.91994327  0.53902837  0.16038404  1.0
  Cl  Cl10  1  0.41994327  0.96097163  0.33961596  1.0
  Cl  Cl11  1  0.41994327  0.53902837  0.33961596  1.0
  Cl  Cl12  1  0.08005673  0.46097163  0.83961596  1.0
  Cl  Cl13  1  0.08005673  0.03902837  0.83961596  1.0
  Cl  Cl14  1  0.58005673  0.46097163  0.66038404  1.0
  Cl  Cl15  1  0.58005673  0.03902837  0.66038404  1.0
  Cl  Cl16  1  0.70126396  0.25000000  0.33918784  1.0
  Cl  Cl17  1  0.20126396  0.25000000  0.16081216  1.0
  Cl  Cl18  1  0.29873604  0.75000000  0.66081216  1.0
  Cl  Cl19  1  0.79873604  0.75000000  0.83918784  1.0
  Cl  Cl20  1  0.99070758  0.25000000  0.41417833  1.0
  Cl  Cl21  1  0.49070758  0.25000000  0.08582167  1.0
  Cl  Cl22  1  0.00929242  0.75000000  0.58582167  1.0
  Cl  Cl23  1  0.50929242  0.75000000  0.91417833  1.0
  K  K24  1  0.67110957  0.50299720  0.04891561  1.0
  K  K25  1  0.67110957  -0.00299720  0.04891561  1.0
  K  K26  1  0.17110957  0.50299720  0.45108439  1.0
  K  K27  1  0.17110957  -0.00299720  0.45108439  1.0
  K  K28  1  0.32889043  1.00299720  0.95108439  1.0
  K  K29  1  0.32889043  0.49700280  0.95108439  1.0
  K  K30  1  0.82889043  1.00299720  0.54891561  1.0
  K  K31  1  0.82889043  0.49700280  0.54891561  1.0
