# generated using pymatgen
data_CoCu2GeSe4
_symmetry_space_group_name_H-M   'P 1'
_cell_length_a   7.84262671
_cell_length_b   6.66426599
_cell_length_c   6.57613687
_cell_angle_alpha   90.00000000
_cell_angle_beta   90.00000000
_cell_angle_gamma   90.00000000
_symmetry_Int_Tables_number   1
_chemical_formula_structural   CoCu2GeSe4
_chemical_formula_sum   'Co2 Cu4 Ge2 Se8'
_cell_volume   343.70409823
_cell_formula_units_Z   2
loop_
 _symmetry_equiv_pos_site_id
 _symmetry_equiv_pos_as_xyz
  1  'x, y, z'
loop_
 _atom_site_type_symbol
 _atom_site_label
 _atom_site_symmetry_multiplicity
 _atom_site_fract_x
 _atom_site_fract_y
 _atom_site_fract_z
 _atom_site_occupancy
  Co  Co0  1  0.50000000  0.68046131  0.01353542  1.0
  Co  Co1  1  0.00000000  0.31953869  0.51353542  1.0
  Cu  Cu2  1  0.25271329  0.17309059  0.00820711  1.0
  Cu  Cu3  1  0.75271329  0.82690941  0.50820711  1.0
  Cu  Cu4  1  0.74728671  0.17309059  0.00820711  1.0
  Cu  Cu5  1  0.24728671  0.82690941  0.50820711  1.0
  Ge  Ge6  1  0.50000000  0.32958218  0.51091990  1.0
  Ge  Ge7  1  0.00000000  0.67041782  0.01091990  1.0
  Se  Se8  1  0.22935578  0.16455443  0.37490106  1.0
  Se  Se9  1  0.72935578  0.83544557  0.87490106  1.0
  Se  Se10  1  0.77064422  0.16455443  0.37490106  1.0
  Se  Se11  1  0.27064422  0.83544557  0.87490106  1.0
  Se  Se12  1  0.50000000  0.35840357  0.89867257  1.0
  Se  Se13  1  0.00000000  0.64159643  0.39867257  1.0
  Se  Se14  1  0.50000000  0.67499641  0.36315577  1.0
  Se  Se15  1  0.00000000  0.32500359  0.86315577  1.0
