# generated using pymatgen
data_CsZnFe(CN)6
_symmetry_space_group_name_H-M   'P 1'
_cell_length_a   7.74563545
_cell_length_b   7.74563545
_cell_length_c   7.74563545
_cell_angle_alpha   60.00000000
_cell_angle_beta   60.00000000
_cell_angle_gamma   60.00000000
_symmetry_Int_Tables_number   1
_chemical_formula_structural   CsZnFe(CN)6
_chemical_formula_sum   'Cs1 Zn1 Fe1 C6 N6'
_cell_volume   328.59137601
_cell_formula_units_Z   1
loop_
 _symmetry_equiv_pos_site_id
 _symmetry_equiv_pos_as_xyz
  1  'x, y, z'
loop_
 _atom_site_type_symbol
 _atom_site_label
 _atom_site_symmetry_multiplicity
 _atom_site_fract_x
 _atom_site_fract_y
 _atom_site_fract_z
 _atom_site_occupancy
  Cs  Cs0  1  0.75000000  0.75000000  -0.25000000  1.0
  Zn  Zn1  1  -0.00000000  0.00000000  -0.00000000  1.0
  Fe  Fe2  1  -0.50000000  0.50000000  0.50000000  1.0
  C  C3  1  -0.79700100  0.79700100  0.79700100  1.0
  C  C4  1  -0.20299900  0.79700100  0.20299900  1.0
  C  C5  1  -0.20299900  0.20299900  0.79700100  1.0
  C  C6  1  0.20299900  1.20299900  -0.20299900  1.0
  C  C7  1  0.20299900  -0.20299900  0.20299900  1.0
  C  C8  1  -0.20299900  0.20299900  0.20299900  1.0
  N  N9  1  -0.68991427  0.68991427  0.68991427  1.0
  N  N10  1  -0.31008573  0.68991427  0.31008573  1.0
  N  N11  1  -0.31008573  0.31008573  0.68991427  1.0
  N  N12  1  0.31008573  1.31008573  -0.31008573  1.0
  N  N13  1  0.31008573  -0.31008573  0.31008573  1.0
  N  N14  1  -0.31008573  0.31008573  0.31008573  1.0
