# generated using pymatgen
data_YbCO4
_symmetry_space_group_name_H-M   'P 1'
_cell_length_a   9.35304586
_cell_length_b   9.35304586
_cell_length_c   8.02101091
_cell_angle_alpha   90.00000000
_cell_angle_beta   90.00000000
_cell_angle_gamma   90.00000000
_symmetry_Int_Tables_number   1
_chemical_formula_structural   YbCO4
_chemical_formula_sum   'Yb8 C8 O32'
_cell_volume   701.67375875
_cell_formula_units_Z   8
loop_
 _symmetry_equiv_pos_site_id
 _symmetry_equiv_pos_as_xyz
  1  'x, y, z'
loop_
 _atom_site_type_symbol
 _atom_site_label
 _atom_site_symmetry_multiplicity
 _atom_site_fract_x
 _atom_site_fract_y
 _atom_site_fract_z
 _atom_site_occupancy
  Yb  Yb0  1  0.27462906  0.72537094  0.00000000  1.0
  Yb  Yb1  1  0.72537094  0.72537094  -0.00000000  1.0
  Yb  Yb2  1  0.27462906  0.27462906  -0.00000000  1.0
  Yb  Yb3  1  0.72537094  0.27462906  0.00000000  1.0
  Yb  Yb4  1  0.22537094  0.77462906  0.50000000  1.0
  Yb  Yb5  1  0.77462906  0.77462906  0.50000000  1.0
  Yb  Yb6  1  0.22537094  0.22537094  0.50000000  1.0
  Yb  Yb7  1  0.77462906  0.22537094  0.50000000  1.0
  O  O8  1  -0.00000000  0.72850068  1.00103013  1.0
  O  O9  1  0.00000000  0.27149932  1.00103013  1.0
  O  O10  1  0.22850068  0.50000000  0.50103013  1.0
  O  O11  1  0.77149932  0.50000000  0.50103013  1.0
  O  O12  1  0.50000000  0.77149932  0.49896987  1.0
  O  O13  1  0.50000000  0.22850068  0.49896987  1.0
  O  O14  1  0.27149932  -0.00000000  -0.00103013  1.0
  O  O15  1  0.72850068  0.00000000  -0.00103013  1.0
  O  O16  1  0.37887221  0.77615182  0.26195234  1.0
  O  O17  1  0.62112779  0.77615182  0.26195234  1.0
  O  O18  1  0.37887221  0.22384818  0.26195234  1.0
  O  O19  1  0.62112779  0.22384818  0.26195234  1.0
  O  O20  1  0.27615182  0.87887221  0.76195234  1.0
  O  O21  1  0.72384818  0.87887221  0.76195234  1.0
  O  O22  1  0.27615182  0.12112779  0.76195234  1.0
  O  O23  1  0.72384818  0.12112779  0.76195234  1.0
  O  O24  1  0.12112779  0.72384818  0.23804766  1.0
  O  O25  1  0.87887221  0.72384818  0.23804766  1.0
  O  O26  1  0.12112779  0.27615182  0.23804766  1.0
  O  O27  1  0.87887221  0.27615182  0.23804766  1.0
  O  O28  1  0.22384818  0.62112779  0.73804766  1.0
  O  O29  1  0.77615182  0.62112779  0.73804766  1.0
  O  O30  1  0.22384818  0.37887221  0.73804766  1.0
  O  O31  1  0.77615182  0.37887221  0.73804766  1.0
  O  O32  1  0.29794669  0.50000000  0.04767271  1.0
  O  O33  1  0.70205331  0.50000000  0.04767271  1.0
  O  O34  1  0.00000000  0.79794669  0.54767271  1.0
  O  O35  1  0.00000000  0.20205331  0.54767271  1.0
  O  O36  1  0.20205331  -0.00000000  0.45232729  1.0
  O  O37  1  0.79794669  0.00000000  0.45232729  1.0
  O  O38  1  0.50000000  0.70205331  0.95232729  1.0
  O  O39  1  0.50000000  0.29794669  0.95232729  1.0
  C  C40  1  0.00000000  0.72588939  0.16247286  1.0
  C  C41  1  0.00000000  0.27411061  0.16247286  1.0
  C  C42  1  0.22588939  0.50000000  0.66247286  1.0
  C  C43  1  0.77411061  0.50000000  0.66247286  1.0
  C  C44  1  0.50000000  0.77411061  0.33752714  1.0
  C  C45  1  0.50000000  0.22588939  0.33752714  1.0
  C  C46  1  0.27411061  0.00000000  0.83752714  1.0
  C  C47  1  0.72588939  0.00000000  0.83752714  1.0
