# generated using pymatgen
data_Gd2Si2O7
_symmetry_space_group_name_H-M   'P 1'
_cell_length_a   6.74509389
_cell_length_b   12.27331822
_cell_length_c   6.78155703
_cell_angle_alpha   94.13518484
_cell_angle_beta   91.65308463
_cell_angle_gamma   91.06702913
_symmetry_Int_Tables_number   1
_chemical_formula_structural   Gd2Si2O7
_chemical_formula_sum   'Gd8 Si8 O28'
_cell_volume   559.59380745
_cell_formula_units_Z   4
loop_
 _symmetry_equiv_pos_site_id
 _symmetry_equiv_pos_as_xyz
  1  'x, y, z'
loop_
 _atom_site_type_symbol
 _atom_site_label
 _atom_site_symmetry_multiplicity
 _atom_site_fract_x
 _atom_site_fract_y
 _atom_site_fract_z
 _atom_site_occupancy
  Gd  Gd0  1  -0.94841616  -0.88379078  -0.67296693  1.0
  Gd  Gd1  1  -0.05158384  -0.11620922  -0.32703307  1.0
  Gd  Gd2  1  -0.88111543  -0.64164175  -0.91286447  1.0
  Gd  Gd3  1  -0.11888457  -0.35835825  -0.08713553  1.0
  Gd  Gd4  1  -0.66806742  -0.89338929  -0.17516769  1.0
  Gd  Gd5  1  -0.33193258  -0.10661071  -0.82483231  1.0
  Gd  Gd6  1  -0.63616663  -0.36745173  -0.77072344  1.0
  Gd  Gd7  1  -0.36383337  -0.63254827  -0.22927656  1.0
  Si  Si8  1  -0.85126048  -0.61780297  -0.37555989  1.0
  Si  Si9  1  -0.14873952  -0.38219703  -0.62444011  1.0
  Si  Si10  1  -0.84783764  -0.11589136  -0.84996433  1.0
  Si  Si11  1  -0.15216236  -0.88410864  -0.15003567  1.0
  Si  Si12  1  -0.48781747  -0.82444773  -0.67049491  1.0
  Si  Si13  1  -0.51218253  -0.17555227  -0.32950509  1.0
  Si  Si14  1  -0.37535765  -0.59463428  -0.73043713  1.0
  Si  Si15  1  -0.62464235  -0.40536572  -0.26956287  1.0
  O  O16  1  -1.00211174  -0.81495302  -0.98865247  1.0
  O  O17  1  0.00211174  -0.18504698  -0.01134753  1.0
  O  O18  1  -0.96752348  -0.42312200  -0.76845353  1.0
  O  O19  1  -0.03247652  -0.57687800  -0.23154647  1.0
  O  O20  1  -0.99835657  -0.91832922  -0.33230090  1.0
  O  O21  1  -0.00164343  -0.08167078  -0.66769910  1.0
  O  O22  1  -0.91991280  -0.68516031  -0.58224800  1.0
  O  O23  1  -0.08008720  -0.31483969  -0.41775200  1.0
  O  O24  1  -0.76866766  -0.99759754  -0.91397278  1.0
  O  O25  1  -0.23133234  -0.00240246  -0.08602722  1.0
  O  O26  1  -0.70807885  -0.68465376  -0.22326688  1.0
  O  O27  1  -0.29192115  -0.31534624  -0.77673312  1.0
  O  O28  1  -0.71440669  -0.50725983  -0.42441750  1.0
  O  O29  1  -0.28559331  -0.49274017  -0.57558250  1.0
  O  O30  1  -0.65744254  -0.18608141  -0.78634018  1.0
  O  O31  1  -0.34255746  -0.81391859  -0.21365982  1.0
  O  O32  1  -0.64180891  -0.87183604  -0.51404898  1.0
  O  O33  1  -0.35819109  -0.12816396  -0.48595102  1.0
  O  O34  1  -0.61948551  -0.79104382  -0.86437099  1.0
  O  O35  1  -0.38051449  -0.20895618  -0.13562901  1.0
  O  O36  1  -0.58396275  -0.55354227  -0.82463101  1.0
  O  O37  1  -0.41603725  -0.44645773  -0.17536899  1.0
  O  O38  1  -0.39828881  -0.69616576  -0.57979406  1.0
  O  O39  1  -0.60171119  -0.30383424  -0.42020594  1.0
  O  O40  1  -0.30297723  -0.90583892  -0.70842287  1.0
  O  O41  1  -0.69702277  -0.09416108  -0.29157713  1.0
  O  O42  1  -0.22734125  -0.62088894  -0.90936113  1.0
  O  O43  1  -0.77265875  -0.37911106  -0.09063887  1.0
