# generated using pymatgen
data_SrH2Cl2O
_symmetry_space_group_name_H-M   'P 1'
_cell_length_a   10.81415446
_cell_length_b   4.19315149
_cell_length_c   9.14909020
_cell_angle_alpha   90.00000000
_cell_angle_beta   90.00000000
_cell_angle_gamma   90.00000000
_symmetry_Int_Tables_number   1
_chemical_formula_structural   SrH2Cl2O
_chemical_formula_sum   'Sr4 H8 Cl8 O4'
_cell_volume   414.86904378
_cell_formula_units_Z   4
loop_
 _symmetry_equiv_pos_site_id
 _symmetry_equiv_pos_as_xyz
  1  'x, y, z'
loop_
 _atom_site_type_symbol
 _atom_site_label
 _atom_site_symmetry_multiplicity
 _atom_site_fract_x
 _atom_site_fract_y
 _atom_site_fract_z
 _atom_site_occupancy
  Sr  Sr0  1  0.18665285  0.75000000  0.09663807  1.0
  Sr  Sr1  1  0.68665285  0.75000000  0.40336193  1.0
  Sr  Sr2  1  0.81334715  0.25000000  0.90336193  1.0
  Sr  Sr3  1  0.31334715  0.25000000  0.59663807  1.0
  H  H4  1  0.12584925  0.75000000  0.48831826  1.0
  H  H5  1  0.62584925  0.75000000  1.01168174  1.0
  H  H6  1  0.87415075  0.25000000  0.51168174  1.0
  H  H7  1  0.37415075  0.25000000  -0.01168174  1.0
  H  H8  1  0.08239116  0.75000000  0.64962948  1.0
  H  H9  1  0.58239116  0.75000000  0.85037052  1.0
  H  H10  1  0.91760884  0.25000000  0.35037052  1.0
  H  H11  1  0.41760884  0.25000000  0.14962948  1.0
  Cl  Cl12  1  0.37844861  0.75000000  0.82143932  1.0
  Cl  Cl13  1  0.87844861  0.75000000  0.67856068  1.0
  Cl  Cl14  1  0.62155139  0.25000000  0.17856068  1.0
  Cl  Cl15  1  0.12155139  0.25000000  0.32143932  1.0
  Cl  Cl16  1  0.89899868  0.75000000  0.11376266  1.0
  Cl  Cl17  1  0.39899868  0.75000000  0.38623734  1.0
  Cl  Cl18  1  0.10100132  0.25000000  0.88623734  1.0
  Cl  Cl19  1  0.60100132  0.25000000  0.61376266  1.0
  O  O20  1  0.15785302  0.75000000  0.58847628  1.0
  O  O21  1  0.65785302  0.75000000  0.91152372  1.0
  O  O22  1  0.84214698  0.25000000  0.41152372  1.0
  O  O23  1  0.34214698  0.25000000  0.08847628  1.0
