# generated using pymatgen
data_Lu5Sb3
_symmetry_space_group_name_H-M   'P 1'
_cell_length_a   7.92504132
_cell_length_b   9.14501653
_cell_length_c   11.54547572
_cell_angle_alpha   90.00000000
_cell_angle_beta   90.00000000
_cell_angle_gamma   90.00000000
_symmetry_Int_Tables_number   1
_chemical_formula_structural   Lu5Sb3
_chemical_formula_sum   'Lu20 Sb12'
_cell_volume   836.75412555
_cell_formula_units_Z   4
loop_
 _symmetry_equiv_pos_site_id
 _symmetry_equiv_pos_as_xyz
  1  'x, y, z'
loop_
 _atom_site_type_symbol
 _atom_site_label
 _atom_site_symmetry_multiplicity
 _atom_site_fract_x
 _atom_site_fract_y
 _atom_site_fract_z
 _atom_site_occupancy
  Lu  Lu0  1  0.30601419  0.93740671  0.56010558  1.0
  Lu  Lu1  1  0.30601419  0.56259329  0.56010558  1.0
  Lu  Lu2  1  0.80601419  0.93740671  0.93989442  1.0
  Lu  Lu3  1  0.80601419  0.56259329  0.93989442  1.0
  Lu  Lu4  1  0.69398581  0.43740671  0.43989442  1.0
  Lu  Lu5  1  0.69398581  0.06259329  0.43989442  1.0
  Lu  Lu6  1  0.19398581  0.43740671  0.06010558  1.0
  Lu  Lu7  1  0.19398581  0.06259329  0.06010558  1.0
  Lu  Lu8  1  0.47361574  0.75000000  0.01046182  1.0
  Lu  Lu9  1  0.97361574  0.75000000  0.48953818  1.0
  Lu  Lu10  1  0.52638426  0.25000000  0.98953818  1.0
  Lu  Lu11  1  0.02638426  0.25000000  0.51046182  1.0
  Lu  Lu12  1  0.31299816  0.75000000  0.28125056  1.0
  Lu  Lu13  1  0.81299816  0.75000000  0.21874944  1.0
  Lu  Lu14  1  0.68700184  0.25000000  0.71874944  1.0
  Lu  Lu15  1  0.18700184  0.25000000  0.78125056  1.0
  Lu  Lu16  1  0.14488459  0.75000000  0.78451387  1.0
  Lu  Lu17  1  0.64488459  0.75000000  0.71548613  1.0
  Lu  Lu18  1  0.85511541  0.25000000  0.21548613  1.0
  Lu  Lu19  1  0.35511541  0.25000000  0.28451387  1.0
  Sb  Sb20  1  0.43406795  0.99648326  0.82628454  1.0
  Sb  Sb21  1  0.43406795  0.50351674  0.82628454  1.0
  Sb  Sb22  1  0.93406795  0.99648326  0.67371546  1.0
  Sb  Sb23  1  0.93406795  0.50351674  0.67371546  1.0
  Sb  Sb24  1  0.56593205  0.49648326  0.17371546  1.0
  Sb  Sb25  1  0.56593205  0.00351674  0.17371546  1.0
  Sb  Sb26  1  0.06593205  0.49648326  0.32628454  1.0
  Sb  Sb27  1  0.06593205  0.00351674  0.32628454  1.0
  Sb  Sb28  1  0.09112412  0.75000000  0.04140797  1.0
  Sb  Sb29  1  0.59112412  0.75000000  0.45859203  1.0
  Sb  Sb30  1  0.90887588  0.25000000  0.95859203  1.0
  Sb  Sb31  1  0.40887588  0.25000000  0.54140797  1.0
