# generated using pymatgen
data_Na3La9B8O27
_symmetry_space_group_name_H-M   'P 1'
_cell_length_a   8.95507320
_cell_length_b   8.95507320
_cell_length_c   8.77389555
_cell_angle_alpha   90.00000000
_cell_angle_beta   90.00000000
_cell_angle_gamma   120.00000000
_symmetry_Int_Tables_number   1
_chemical_formula_structural   Na3La9B8O27
_chemical_formula_sum   'Na3 La9 B8 O27'
_cell_volume   609.34236263
_cell_formula_units_Z   1
loop_
 _symmetry_equiv_pos_site_id
 _symmetry_equiv_pos_as_xyz
  1  'x, y, z'
loop_
 _atom_site_type_symbol
 _atom_site_label
 _atom_site_symmetry_multiplicity
 _atom_site_fract_x
 _atom_site_fract_y
 _atom_site_fract_z
 _atom_site_occupancy
  Na  Na0  1  0.66818913  0.66818913  0.00000000  1.0
  Na  Na1  1  -0.00000000  0.33181087  0.00000000  1.0
  Na  Na2  1  0.33181087  0.00000000  0.00000000  1.0
  La  La3  1  0.34884978  0.34884978  0.76601783  1.0
  La  La4  1  0.34884978  0.34884978  0.23398217  1.0
  La  La5  1  -0.00000000  0.65115022  0.76601783  1.0
  La  La6  1  -0.00000000  0.65115022  0.23398217  1.0
  La  La7  1  0.65115022  0.00000000  0.76601783  1.0
  La  La8  1  0.65115022  0.00000000  0.23398217  1.0
  La  La9  1  0.71740949  0.71740949  0.50000000  1.0
  La  La10  1  -0.00000000  0.28259051  0.50000000  1.0
  La  La11  1  0.28259051  0.00000000  0.50000000  1.0
  B  B12  1  0.33333333  0.66666667  0.67634206  1.0
  B  B13  1  0.33333333  0.66666667  0.32365794  1.0
  B  B14  1  0.66666667  0.33333333  0.67634206  1.0
  B  B15  1  0.66666667  0.33333333  0.32365794  1.0
  B  B16  1  0.00000000  0.00000000  0.78972182  1.0
  B  B17  1  0.00000000  0.00000000  0.21027818  1.0
  B  B18  1  0.33333333  0.66666667  0.00000000  1.0
  B  B19  1  0.66666667  0.33333333  0.00000000  1.0
  O  O20  1  0.33421734  0.82074021  0.68200248  1.0
  O  O21  1  0.33421734  0.82074021  0.31799752  1.0
  O  O22  1  0.82074021  0.33421734  0.68200248  1.0
  O  O23  1  0.82074021  0.33421734  0.31799752  1.0
  O  O24  1  0.48652286  0.66578266  0.68200248  1.0
  O  O25  1  0.48652286  0.66578266  0.31799752  1.0
  O  O26  1  0.17925979  0.51347714  0.68200248  1.0
  O  O27  1  0.17925979  0.51347714  0.31799752  1.0
  O  O28  1  0.66578266  0.48652286  0.68200248  1.0
  O  O29  1  0.66578266  0.48652286  0.31799752  1.0
  O  O30  1  0.51347714  0.17925979  0.68200248  1.0
  O  O31  1  0.51347714  0.17925979  0.31799752  1.0
  O  O32  1  0.18299546  0.67797720  0.00000000  1.0
  O  O33  1  0.67797720  0.18299546  0.00000000  1.0
  O  O34  1  0.49498174  0.81700454  0.00000000  1.0
  O  O35  1  0.32202280  0.50501826  0.00000000  1.0
  O  O36  1  0.81700454  0.49498174  0.00000000  1.0
  O  O37  1  0.50501826  0.32202280  0.00000000  1.0
  O  O38  1  0.84488928  0.84488928  0.78750263  1.0
  O  O39  1  0.84488928  0.84488928  0.21249737  1.0
  O  O40  1  0.00000000  0.15511072  0.78750263  1.0
  O  O41  1  0.00000000  0.15511072  0.21249737  1.0
  O  O42  1  0.15511072  0.00000000  0.78750263  1.0
  O  O43  1  0.15511072  0.00000000  0.21249737  1.0
  O  O44  1  0.25712782  0.25712782  0.50000000  1.0
  O  O45  1  -0.00000000  0.74287218  0.50000000  1.0
  O  O46  1  0.74287218  0.00000000  0.50000000  1.0
