# generated using pymatgen
data_NaSb2(OF3)2
_symmetry_space_group_name_H-M   'P 1'
_cell_length_a   6.64338039
_cell_length_b   9.32381297
_cell_length_c   13.94657868
_cell_angle_alpha   90.00000000
_cell_angle_beta   108.72964445
_cell_angle_gamma   90.00000000
_symmetry_Int_Tables_number   1
_chemical_formula_structural   NaSb2(OF3)2
_chemical_formula_sum   'Na4 Sb8 O8 F24'
_cell_volume   818.12682939
_cell_formula_units_Z   4
loop_
 _symmetry_equiv_pos_site_id
 _symmetry_equiv_pos_as_xyz
  1  'x, y, z'
loop_
 _atom_site_type_symbol
 _atom_site_label
 _atom_site_symmetry_multiplicity
 _atom_site_fract_x
 _atom_site_fract_y
 _atom_site_fract_z
 _atom_site_occupancy
  Na  Na0  1  0.61964037  0.44665325  0.39962637  1.0
  Na  Na1  1  0.61964037  0.05334675  0.89962637  1.0
  Na  Na2  1  0.38035963  0.94665325  0.10037363  1.0
  Na  Na3  1  0.38035963  0.55334675  0.60037363  1.0
  Sb  Sb4  1  0.93510583  0.36065208  0.68857440  1.0
  Sb  Sb5  1  0.93510583  0.13934792  0.18857440  1.0
  Sb  Sb6  1  0.06489417  0.86065208  0.81142560  1.0
  Sb  Sb7  1  0.06489417  0.63934792  0.31142560  1.0
  Sb  Sb8  1  0.69057177  0.85343263  0.55571608  1.0
  Sb  Sb9  1  0.69057177  0.64656737  0.05571608  1.0
  Sb  Sb10  1  0.30942823  0.35343263  0.94428392  1.0
  Sb  Sb11  1  0.30942823  0.14656737  0.44428392  1.0
  O  O12  1  0.96961123  0.85563855  0.66000598  1.0
  O  O13  1  0.96961123  0.64436145  0.16000598  1.0
  O  O14  1  0.03038877  0.35563855  0.83999402  1.0
  O  O15  1  0.03038877  0.14436145  0.33999402  1.0
  O  O16  1  0.65486874  0.39531602  0.67587210  1.0
  O  O17  1  0.65486875  1.10468398  0.17587210  1.0
  O  O18  1  0.34513125  -0.10468398  0.82412790  1.0
  O  O19  1  0.34513125  0.60468398  0.32412790  1.0
  F  F20  1  0.89221191  0.35850721  0.54136120  1.0
  F  F21  1  0.89221191  0.14149279  0.04136120  1.0
  F  F22  1  0.10778809  0.85850721  0.95863880  1.0
  F  F23  1  0.10778809  0.64149279  0.45863880  1.0
  F  F24  1  0.84449751  1.00110261  0.80605953  1.0
  F  F25  1  0.84449751  0.49889739  0.30605953  1.0
  F  F26  1  0.15550249  0.50110261  0.69394047  1.0
  F  F27  1  0.15550249  -0.00110261  0.19394047  1.0
  F  F28  1  0.92150759  0.68145692  0.81136775  1.0
  F  F29  1  0.92150759  0.81854308  0.31136775  1.0
  F  F30  1  0.07849241  0.18145692  0.68863225  1.0
  F  F31  1  0.07849241  0.31854308  0.18863225  1.0
  F  F32  1  0.67349914  0.85450293  1.02103617  1.0
  F  F33  1  0.67349914  0.64549707  0.52103617  1.0
  F  F34  1  0.32650086  0.35450293  0.47896383  1.0
  F  F35  1  0.32650086  0.14549707  -0.02103617  1.0
  F  F36  1  0.50988123  0.80545405  0.63551402  1.0
  F  F37  1  0.50988123  0.69454595  0.13551402  1.0
  F  F38  1  0.49011877  0.30545405  0.86448598  1.0
  F  F39  1  0.49011877  0.19454595  0.36448598  1.0
  F  F40  1  0.39672501  0.58016981  0.93546470  1.0
  F  F41  1  0.39672501  0.91983019  0.43546470  1.0
  F  F42  1  0.60327499  0.08016981  0.56453530  1.0
  F  F43  1  0.60327499  0.41983019  0.06453530  1.0
