# generated using pymatgen
data_Na15Pb4
_symmetry_space_group_name_H-M   'P 1'
_cell_length_a   11.53179586
_cell_length_b   11.53179586
_cell_length_c   11.53179586
_cell_angle_alpha   109.47122063
_cell_angle_beta   109.47122063
_cell_angle_gamma   109.47122063
_symmetry_Int_Tables_number   1
_chemical_formula_structural   Na15Pb4
_chemical_formula_sum   'Na30 Pb8'
_cell_volume   1180.50803347
_cell_formula_units_Z   2
loop_
 _symmetry_equiv_pos_site_id
 _symmetry_equiv_pos_as_xyz
  1  'x, y, z'
loop_
 _atom_site_type_symbol
 _atom_site_label
 _atom_site_symmetry_multiplicity
 _atom_site_fract_x
 _atom_site_fract_y
 _atom_site_fract_z
 _atom_site_occupancy
  Na  Na0  1  1.08336529  0.30689795  0.96810486  1.0
  Na  Na1  1  0.83879309  1.11526043  0.53189514  1.0
  Na  Na2  1  0.80689795  0.58336529  0.46810486  1.0
  Na  Na3  1  1.61526043  1.33879309  1.03189514  1.0
  Na  Na4  1  0.96810486  1.08336529  0.30689795  1.0
  Na  Na5  1  1.27646734  0.66120691  1.19310205  1.0
  Na  Na6  1  1.58336529  1.46810486  1.80689795  1.0
  Na  Na7  1  0.16120691  0.77646734  0.69310205  1.0
  Na  Na8  1  1.30689795  0.96810486  1.08336529  1.0
  Na  Na9  1  1.38473957  1.22353266  1.41663471  1.0
  Na  Na10  1  0.46810486  0.80689795  0.58336529  1.0
  Na  Na11  1  0.72353266  0.88473957  0.91663471  1.0
  Na  Na12  1  1.66120691  1.19310205  1.27646734  1.0
  Na  Na13  1  1.41663471  1.38473957  1.22353266  1.0
  Na  Na14  1  0.88473957  0.91663471  0.72353266  1.0
  Na  Na15  1  0.69310205  1.16120691  0.77646734  1.0
  Na  Na16  1  1.22353266  1.41663471  1.38473957  1.0
  Na  Na17  1  1.53189514  0.83879309  1.11526043  1.0
  Na  Na18  1  1.33879309  1.03189514  1.61526043  1.0
  Na  Na19  1  0.91663471  0.72353266  0.88473957  1.0
  Na  Na20  1  1.11526043  1.53189514  0.83879309  1.0
  Na  Na21  1  1.19310205  1.27646734  1.66120691  1.0
  Na  Na22  1  0.77646734  0.69310205  0.16120691  1.0
  Na  Na23  1  1.03189514  0.61526043  1.33879309  1.0
  Na  Na24  1  1.12500000  0.87500000  1.25000000  1.0
  Na  Na25  1  0.37500000  0.62500000  0.75000000  1.0
  Na  Na26  1  0.25000000  1.12500000  0.87500000  1.0
  Na  Na27  1  0.75000000  1.37500000  0.62500000  1.0
  Na  Na28  1  0.62500000  0.75000000  0.37500000  1.0
  Na  Na29  1  0.87500000  0.25000000  1.12500000  1.0
  Pb  Pb30  1  1.08264625  1.08264625  1.08264625  1.0
  Pb  Pb31  1  1.50000000  1.00000000  1.41735375  1.0
  Pb  Pb32  1  0.58264625  0.58264625  0.58264625  1.0
  Pb  Pb33  1  0.50000000  1.00000000  0.91735375  1.0
  Pb  Pb34  1  1.00000000  1.41735375  1.50000000  1.0
  Pb  Pb35  1  1.41735375  0.50000000  1.00000000  1.0
  Pb  Pb36  1  1.00000000  0.91735375  1.50000000  1.0
  Pb  Pb37  1  0.91735375  1.50000000  1.00000000  1.0
