# generated using pymatgen
data_RuN2
_symmetry_space_group_name_H-M   'P 1'
_cell_length_a   4.09688333
_cell_length_b   4.90568347
_cell_length_c   2.71199475
_cell_angle_alpha   90.00000000
_cell_angle_beta   90.00000000
_cell_angle_gamma   90.00000000
_symmetry_Int_Tables_number   1
_chemical_formula_structural   RuN2
_chemical_formula_sum   'Ru2 N4'
_cell_volume   54.50570519
_cell_formula_units_Z   2
loop_
 _symmetry_equiv_pos_site_id
 _symmetry_equiv_pos_as_xyz
  1  'x, y, z'
loop_
 _atom_site_type_symbol
 _atom_site_label
 _atom_site_symmetry_multiplicity
 _atom_site_fract_x
 _atom_site_fract_y
 _atom_site_fract_z
 _atom_site_occupancy
  Ru  Ru0  1  0.50000000  0.50000000  0.50000000  1.0
  Ru  Ru1  1  0.00000000  0.00000000  0.00000000  1.0
  N  N2  1  0.37873571  0.90868588  0.50000000  1.0
  N  N3  1  0.87873571  0.59131412  0.00000000  1.0
  N  N4  1  0.62126429  0.09131412  0.50000000  1.0
  N  N5  1  0.12126429  0.40868588  0.00000000  1.0
