# generated using pymatgen
data_Al15Ni3Ge4
_symmetry_space_group_name_H-M   'P 1'
_cell_length_a   9.90470699
_cell_length_b   9.90470699
_cell_length_c   9.90470699
_cell_angle_alpha   109.47122063
_cell_angle_beta   109.47122063
_cell_angle_gamma   109.47122063
_symmetry_Int_Tables_number   1
_chemical_formula_structural   Al15Ni3Ge4
_chemical_formula_sum   'Al30 Ni6 Ge8'
_cell_volume   748.00242650
_cell_formula_units_Z   2
loop_
 _symmetry_equiv_pos_site_id
 _symmetry_equiv_pos_as_xyz
  1  'x, y, z'
loop_
 _atom_site_type_symbol
 _atom_site_label
 _atom_site_symmetry_multiplicity
 _atom_site_fract_x
 _atom_site_fract_y
 _atom_site_fract_z
 _atom_site_occupancy
  Al  Al0  1  0.78343071  0.50888768  0.50888768  1.0
  Al  Al1  1  0.50888768  0.78343071  0.50888768  1.0
  Al  Al2  1  1.00000000  1.27454303  0.49111232  1.0
  Al  Al3  1  1.27454303  1.00000000  0.49111232  1.0
  Al  Al4  1  0.50888768  0.50888768  0.78343071  1.0
  Al  Al5  1  0.72545697  0.72545697  0.21656929  1.0
  Al  Al6  1  1.00000000  0.49111232  1.27454303  1.0
  Al  Al7  1  0.72545697  0.21656929  0.72545697  1.0
  Al  Al8  1  0.21656929  0.72545697  0.72545697  1.0
  Al  Al9  1  0.49111232  1.00000000  1.27454303  1.0
  Al  Al10  1  1.27454303  0.49111232  1.00000000  1.0
  Al  Al11  1  0.49111232  1.27454303  1.00000000  1.0
  Al  Al12  1  0.27730028  0.52187719  0.52187719  1.0
  Al  Al13  1  0.52187719  0.27730028  0.52187719  1.0
  Al  Al14  1  1.00000000  0.75542309  1.47812281  1.0
  Al  Al15  1  0.75542309  1.00000000  1.47812281  1.0
  Al  Al16  1  0.52187719  0.52187719  0.27730028  1.0
  Al  Al17  1  1.24457691  1.24457691  0.72269972  1.0
  Al  Al18  1  1.00000000  1.47812281  0.75542309  1.0
  Al  Al19  1  1.24457691  0.72269972  1.24457691  1.0
  Al  Al20  1  0.72269972  1.24457691  1.24457691  1.0
  Al  Al21  1  1.47812281  1.00000000  0.75542309  1.0
  Al  Al22  1  0.75542309  1.47812281  1.00000000  1.0
  Al  Al23  1  1.47812281  0.75542309  1.00000000  1.0
  Al  Al24  1  0.80723982  0.80723982  0.00000000  1.0
  Al  Al25  1  0.80723982  -0.00000000  0.80723982  1.0
  Al  Al26  1  0.00000000  0.80723982  0.80723982  1.0
  Al  Al27  1  0.19276018  -0.00000000  0.19276018  1.0
  Al  Al28  1  0.00000000  0.19276018  0.19276018  1.0
  Al  Al29  1  0.19276018  0.19276018  0.00000000  1.0
  Ni  Ni30  1  0.25000000  0.75000000  0.50000000  1.0
  Ni  Ni31  1  0.75000000  0.25000000  0.50000000  1.0
  Ni  Ni32  1  0.25000000  0.50000000  0.75000000  1.0
  Ni  Ni33  1  0.50000000  0.25000000  0.75000000  1.0
  Ni  Ni34  1  0.75000000  0.50000000  0.25000000  1.0
  Ni  Ni35  1  0.50000000  0.75000000  0.25000000  1.0
  Ge  Ge36  1  0.66160341  0.66160341  0.66160341  1.0
  Ge  Ge37  1  1.00000000  1.00000000  0.33839659  1.0
  Ge  Ge38  1  1.00000000  0.33839659  1.00000000  1.0
  Ge  Ge39  1  0.33839659  1.00000000  1.00000000  1.0
  Ge  Ge40  1  0.32677934  0.32677934  0.32677934  1.0
  Ge  Ge41  1  1.00000000  1.00000000  0.67322066  1.0
  Ge  Ge42  1  1.00000000  0.67322066  1.00000000  1.0
  Ge  Ge43  1  0.67322066  1.00000000  1.00000000  1.0
