# generated using pymatgen
data_Ga3Te3Cl
_symmetry_space_group_name_H-M   'P 1'
_cell_length_a   11.30504000
_cell_length_b   4.14096650
_cell_length_c   19.87854394
_cell_angle_alpha   90.00000000
_cell_angle_beta   90.00000000
_cell_angle_gamma   90.00000000
_symmetry_Int_Tables_number   1
_chemical_formula_structural   Ga3Te3Cl
_chemical_formula_sum   'Ga12 Te12 Cl4'
_cell_volume   930.59002071
_cell_formula_units_Z   4
loop_
 _symmetry_equiv_pos_site_id
 _symmetry_equiv_pos_as_xyz
  1  'x, y, z'
loop_
 _atom_site_type_symbol
 _atom_site_label
 _atom_site_symmetry_multiplicity
 _atom_site_fract_x
 _atom_site_fract_y
 _atom_site_fract_z
 _atom_site_occupancy
  Ga  Ga0  1  0.83685769  0.75000000  0.13592880  1.0
  Ga  Ga1  1  0.33685769  0.75000000  0.36407120  1.0
  Ga  Ga2  1  0.16314231  0.25000000  0.86407120  1.0
  Ga  Ga3  1  0.66314231  0.25000000  0.63592880  1.0
  Ga  Ga4  1  0.82605326  0.75000000  0.49571265  1.0
  Ga  Ga5  1  0.32605326  0.75000000  0.00428735  1.0
  Ga  Ga6  1  0.17394674  0.25000000  0.50428735  1.0
  Ga  Ga7  1  0.67394674  0.25000000  0.99571265  1.0
  Ga  Ga8  1  0.94413174  0.75000000  0.59988519  1.0
  Ga  Ga9  1  0.44413174  0.75000000  0.90011481  1.0
  Ga  Ga10  1  0.05586826  0.25000000  0.40011481  1.0
  Ga  Ga11  1  0.55586826  0.25000000  0.09988519  1.0
  Te  Te12  1  0.91169858  0.75000000  0.36991323  1.0
  Te  Te13  1  0.41169858  0.75000000  0.13008677  1.0
  Te  Te14  1  0.08830142  0.25000000  0.63008677  1.0
  Te  Te15  1  0.58830142  0.25000000  0.86991323  1.0
  Te  Te16  1  0.82898782  0.75000000  0.00164875  1.0
  Te  Te17  1  0.32898782  0.75000000  0.49835125  1.0
  Te  Te18  1  0.17101218  0.25000000  -0.00164875  1.0
  Te  Te19  1  0.67101218  0.25000000  0.50164875  1.0
  Te  Te20  1  0.77312933  0.75000000  0.69500129  1.0
  Te  Te21  1  0.27312933  0.75000000  0.80499871  1.0
  Te  Te22  1  0.22687067  0.25000000  0.30499871  1.0
  Te  Te23  1  0.72687067  0.25000000  0.19500129  1.0
  Cl  Cl24  1  0.52462157  0.75000000  0.33290699  1.0
  Cl  Cl25  1  0.02462157  0.75000000  0.16709301  1.0
  Cl  Cl26  1  0.47537843  0.25000000  0.66709301  1.0
  Cl  Cl27  1  0.97537843  0.25000000  0.83290699  1.0
