# generated using pymatgen
data_Ca(HO)2
_symmetry_space_group_name_H-M   'P 1'
_cell_length_a   5.99496405
_cell_length_b   5.99496405
_cell_length_c   6.25744554
_cell_angle_alpha   73.41682807
_cell_angle_beta   106.58317193
_cell_angle_gamma   107.21375950
_symmetry_Int_Tables_number   1
_chemical_formula_structural   Ca(HO)2
_chemical_formula_sum   'Ca4 H8 O8'
_cell_volume   200.86084276
_cell_formula_units_Z   4
loop_
 _symmetry_equiv_pos_site_id
 _symmetry_equiv_pos_as_xyz
  1  'x, y, z'
loop_
 _atom_site_type_symbol
 _atom_site_label
 _atom_site_symmetry_multiplicity
 _atom_site_fract_x
 _atom_site_fract_y
 _atom_site_fract_z
 _atom_site_occupancy
  Ca  Ca0  1  0.69721045  0.32246073  0.97059387  1.0
  Ca  Ca1  1  1.32246073  -0.30278955  0.02940613  1.0
  Ca  Ca2  1  0.95325132  0.57859093  0.47058275  1.0
  Ca  Ca3  1  1.57859093  -0.04674868  0.52941725  1.0
  H  H4  1  1.05682358  -0.78149304  0.32178670  1.0
  H  H5  1  0.21850696  0.05682358  0.67821330  1.0
  H  H6  1  1.35381993  -0.57144179  0.67190591  1.0
  H  H7  1  0.42855821  0.35381993  0.32809409  1.0
  H  H8  1  1.05738308  -0.78136564  0.82158957  1.0
  H  H9  1  0.21863436  0.05738308  0.17841043  1.0
  H  H10  1  0.92199479  0.84731692  0.82807162  1.0
  H  H11  1  1.84731692  -0.07800521  0.17192838  1.0
  O  O12  1  1.36603366  -0.42730085  0.72238939  1.0
  O  O13  1  0.57269915  0.36603366  0.27761061  1.0
  O  O14  1  0.88865034  0.19965241  0.74819259  1.0
  O  O15  1  1.19965241  -0.11134966  0.25180741  1.0
  O  O16  1  1.07611509  -0.61278036  0.24823753  1.0
  O  O17  1  0.38721964  0.07611509  0.75176247  1.0
  O  O18  1  0.90990920  0.70316927  0.77765300  1.0
  O  O19  1  1.70316927  -0.09009080  0.22234700  1.0
