# generated using pymatgen
data_YMnO3
_symmetry_space_group_name_H-M   'P 1'
_cell_length_a   6.18159091
_cell_length_b   6.18159091
_cell_length_c   11.46784417
_cell_angle_alpha   90.00000000
_cell_angle_beta   90.00000000
_cell_angle_gamma   120.00000000
_symmetry_Int_Tables_number   1
_chemical_formula_structural   YMnO3
_chemical_formula_sum   'Y6 Mn6 O18'
_cell_volume   379.50100989
_cell_formula_units_Z   6
loop_
 _symmetry_equiv_pos_site_id
 _symmetry_equiv_pos_as_xyz
  1  'x, y, z'
loop_
 _atom_site_type_symbol
 _atom_site_label
 _atom_site_symmetry_multiplicity
 _atom_site_fract_x
 _atom_site_fract_y
 _atom_site_fract_z
 _atom_site_occupancy
  Y  Y0  1  0.33333333  0.66666667  0.03900449  1.0
  Y  Y1  1  0.33333333  0.66666667  0.53900449  1.0
  Y  Y2  1  0.66666667  0.33333333  0.03900449  1.0
  Y  Y3  1  0.66666667  0.33333333  0.53900449  1.0
  Y  Y4  1  0.00000000  0.00000000  -0.00502876  1.0
  Y  Y5  1  0.00000000  0.00000000  0.49497124  1.0
  Mn  Mn6  1  0.66618386  0.66618386  0.27037673  1.0
  Mn  Mn7  1  0.66618386  0.00000000  0.77037673  1.0
  Mn  Mn8  1  -0.00000000  0.66618386  0.77037673  1.0
  Mn  Mn9  1  -0.00000000  0.33381614  0.27037673  1.0
  Mn  Mn10  1  0.33381614  0.33381614  0.77037673  1.0
  Mn  Mn11  1  0.33381614  0.00000000  0.27037673  1.0
  O  O12  1  0.69233554  0.69233554  0.10670728  1.0
  O  O13  1  0.69233554  0.00000000  0.60670728  1.0
  O  O14  1  -0.00000000  0.69233554  0.60670728  1.0
  O  O15  1  0.00000000  0.30766446  0.10670728  1.0
  O  O16  1  0.30766446  0.30766446  0.60670728  1.0
  O  O17  1  0.30766446  0.00000000  0.10670728  1.0
  O  O18  1  0.64144286  0.64144286  0.43372587  1.0
  O  O19  1  0.64144286  0.00000000  0.93372587  1.0
  O  O20  1  0.00000000  0.64144286  0.93372587  1.0
  O  O21  1  0.00000000  0.35855714  0.43372587  1.0
  O  O22  1  0.35855714  0.35855714  0.93372587  1.0
  O  O23  1  0.35855714  0.00000000  0.43372587  1.0
  O  O24  1  0.33333333  0.66666667  0.25192370  1.0
  O  O25  1  0.33333333  0.66666667  0.75192370  1.0
  O  O26  1  0.66666667  0.33333333  0.25192370  1.0
  O  O27  1  0.66666667  0.33333333  0.75192370  1.0
  O  O28  1  0.00000000  0.00000000  0.29264274  1.0
  O  O29  1  0.00000000  0.00000000  0.79264274  1.0
