# generated using pymatgen
data_Ba(Ag3O2)2
_symmetry_space_group_name_H-M   'P 1'
_cell_length_a   6.75595768
_cell_length_b   12.93474827
_cell_length_c   9.21087122
_cell_angle_alpha   90.00000000
_cell_angle_beta   90.00000000
_cell_angle_gamma   90.00000000
_symmetry_Int_Tables_number   1
_chemical_formula_structural   Ba(Ag3O2)2
_chemical_formula_sum   'Ba4 Ag24 O16'
_cell_volume   804.90682872
_cell_formula_units_Z   4
loop_
 _symmetry_equiv_pos_site_id
 _symmetry_equiv_pos_as_xyz
  1  'x, y, z'
loop_
 _atom_site_type_symbol
 _atom_site_label
 _atom_site_symmetry_multiplicity
 _atom_site_fract_x
 _atom_site_fract_y
 _atom_site_fract_z
 _atom_site_occupancy
  Ba  Ba0  1  0.75000000  0.50000000  0.87518687  1.0
  Ba  Ba1  1  0.75000000  0.00000000  0.62481313  1.0
  Ba  Ba2  1  0.25000000  0.50000000  0.12481313  1.0
  Ba  Ba3  1  0.25000000  0.00000000  0.37518687  1.0
  Ag  Ag4  1  0.92793504  0.26360577  0.53767510  1.0
  Ag  Ag5  1  0.92793504  0.23639423  0.96232490  1.0
  Ag  Ag6  1  0.42793504  0.26360577  0.46232490  1.0
  Ag  Ag7  1  0.42793504  0.23639423  0.03767510  1.0
  Ag  Ag8  1  0.07206496  0.76360577  0.03767510  1.0
  Ag  Ag9  1  0.07206496  0.73639423  0.46232490  1.0
  Ag  Ag10  1  0.57206496  0.76360577  0.96232490  1.0
  Ag  Ag11  1  0.57206496  0.73639423  0.53767510  1.0
  Ag  Ag12  1  0.71134115  0.37339703  0.23472255  1.0
  Ag  Ag13  1  0.71134115  0.12660297  0.26527745  1.0
  Ag  Ag14  1  0.21134115  0.37339703  0.76527745  1.0
  Ag  Ag15  1  0.21134115  0.12660297  0.73472255  1.0
  Ag  Ag16  1  0.28865885  0.87339703  0.73472255  1.0
  Ag  Ag17  1  0.28865885  0.62660297  0.76527745  1.0
  Ag  Ag18  1  0.78865885  0.87339703  0.26527745  1.0
  Ag  Ag19  1  0.78865885  0.62660297  0.23472255  1.0
  Ag  Ag20  1  0.59466867  0.25000000  0.75000000  1.0
  Ag  Ag21  1  0.09466867  0.25000000  0.25000000  1.0
  Ag  Ag22  1  0.40533133  0.75000000  0.25000000  1.0
  Ag  Ag23  1  0.90533133  0.75000000  0.75000000  1.0
  Ag  Ag24  1  0.00000000  0.50000000  0.50000000  1.0
  Ag  Ag25  1  0.00000000  0.00000000  0.00000000  1.0
  Ag  Ag26  1  0.50000000  0.50000000  0.50000000  1.0
  Ag  Ag27  1  0.50000000  0.00000000  0.00000000  1.0
  O  O28  1  0.95259416  0.37085375  0.08881226  1.0
  O  O29  1  0.95259416  0.12914625  0.41118774  1.0
  O  O30  1  0.45259416  0.37085375  0.91118774  1.0
  O  O31  1  0.45259416  0.12914625  0.58881226  1.0
  O  O32  1  0.04740584  0.87085375  0.58881226  1.0
  O  O33  1  0.04740584  0.62914625  0.91118774  1.0
  O  O34  1  0.54740584  0.87085375  0.41118774  1.0
  O  O35  1  0.54740584  0.62914625  0.08881226  1.0
  O  O36  1  0.92973482  0.39575196  0.66722964  1.0
  O  O37  1  0.92973482  0.10424804  0.83277036  1.0
  O  O38  1  0.42973482  0.39575196  0.33277036  1.0
  O  O39  1  0.42973482  0.10424804  0.16722964  1.0
  O  O40  1  0.07026518  0.89575196  0.16722964  1.0
  O  O41  1  0.07026518  0.60424804  0.33277036  1.0
  O  O42  1  0.57026518  0.89575196  0.83277036  1.0
  O  O43  1  0.57026518  0.60424804  0.66722964  1.0
