# generated using pymatgen
data_HfTl2Se3
_symmetry_space_group_name_H-M   'P 1'
_cell_length_a   8.24064278
_cell_length_b   3.93756149
_cell_length_c   10.97889661
_cell_angle_alpha   90.00000000
_cell_angle_beta   97.17850780
_cell_angle_gamma   90.00000000
_symmetry_Int_Tables_number   1
_chemical_formula_structural   HfTl2Se3
_chemical_formula_sum   'Hf2 Tl4 Se6'
_cell_volume   353.45128697
_cell_formula_units_Z   2
loop_
 _symmetry_equiv_pos_site_id
 _symmetry_equiv_pos_as_xyz
  1  'x, y, z'
loop_
 _atom_site_type_symbol
 _atom_site_label
 _atom_site_symmetry_multiplicity
 _atom_site_fract_x
 _atom_site_fract_y
 _atom_site_fract_z
 _atom_site_occupancy
  Hf  Hf0  1  0.58916746  0.25000000  0.66260015  1.0
  Hf  Hf1  1  0.41083254  0.75000000  0.33739985  1.0
  Tl  Tl2  1  0.93825849  0.25000000  0.34272113  1.0
  Tl  Tl3  1  0.06174151  0.75000000  0.65727887  1.0
  Tl  Tl4  1  0.25654982  0.25000000  1.01096313  1.0
  Tl  Tl5  1  0.74345018  0.75000000  -0.01096313  1.0
  Se  Se6  1  0.86610587  0.25000000  0.80393822  1.0
  Se  Se7  1  0.13389413  0.75000000  0.19606178  1.0
  Se  Se8  1  0.55003819  0.25000000  0.21863652  1.0
  Se  Se9  1  0.44996181  0.75000000  0.78136348  1.0
  Se  Se10  1  0.31099320  0.25000000  0.48502820  1.0
  Se  Se11  1  0.68900680  0.75000000  0.51497180  1.0
