# generated using pymatgen
data_BaCu13
_symmetry_space_group_name_H-M   'P 1'
_cell_length_a   8.30896030
_cell_length_b   8.30896030
_cell_length_c   8.30896030
_cell_angle_alpha   60.00000000
_cell_angle_beta   60.00000000
_cell_angle_gamma   60.00000000
_symmetry_Int_Tables_number   1
_chemical_formula_structural   BaCu13
_chemical_formula_sum   'Ba2 Cu26'
_cell_volume   405.62531793
_cell_formula_units_Z   2
loop_
 _symmetry_equiv_pos_site_id
 _symmetry_equiv_pos_as_xyz
  1  'x, y, z'
loop_
 _atom_site_type_symbol
 _atom_site_label
 _atom_site_symmetry_multiplicity
 _atom_site_fract_x
 _atom_site_fract_y
 _atom_site_fract_z
 _atom_site_occupancy
  Ba  Ba0  1  0.25000000  0.25000000  0.25000000  1.0
  Ba  Ba1  1  0.75000000  -0.25000000  0.75000000  1.0
  Cu  Cu2  1  1.20586145  -0.56465603  0.56465603  1.0
  Cu  Cu3  1  0.56465603  -0.20586145  1.20586145  1.0
  Cu  Cu4  1  0.70586145  0.06465603  0.93534397  1.0
  Cu  Cu5  1  0.93534397  -0.70586145  0.70586145  1.0
  Cu  Cu6  1  0.43534397  0.20586145  -0.20586145  1.0
  Cu  Cu7  1  -0.20586145  0.56465603  0.43534397  1.0
  Cu  Cu8  1  0.06465603  0.70586145  0.29413855  1.0
  Cu  Cu9  1  0.29413855  -0.06465603  0.06465603  1.0
  Cu  Cu10  1  -0.06465603  0.70586145  0.06465603  1.0
  Cu  Cu11  1  -0.70586145  1.06465603  0.70586145  1.0
  Cu  Cu12  1  0.43534397  0.56465603  0.20586145  1.0
  Cu  Cu13  1  0.79413855  0.20586145  0.56465603  1.0
  Cu  Cu14  1  -0.43534397  1.20586145  0.43534397  1.0
  Cu  Cu15  1  -0.20586145  0.43534397  0.20586145  1.0
  Cu  Cu16  1  1.06465603  -0.06465603  0.70586145  1.0
  Cu  Cu17  1  0.29413855  0.70586145  -0.06465603  1.0
  Cu  Cu18  1  -0.29413855  0.93534397  0.29413855  1.0
  Cu  Cu19  1  0.06465603  0.29413855  -0.06465603  1.0
  Cu  Cu20  1  0.20586145  0.79413855  0.43534397  1.0
  Cu  Cu21  1  0.56465603  0.43534397  0.79413855  1.0
  Cu  Cu22  1  0.20586145  0.56465603  -0.20586145  1.0
  Cu  Cu23  1  -0.56465603  0.79413855  0.56465603  1.0
  Cu  Cu24  1  0.70586145  0.29413855  1.06465603  1.0
  Cu  Cu25  1  -0.06465603  1.06465603  0.29413855  1.0
  Cu  Cu26  1  0.50000000  0.50000000  -0.50000000  1.0
  Cu  Cu27  1  -0.00000000  1.00000000  0.00000000  1.0
