# generated using pymatgen
data_Cu3BiSe2BrO8
_symmetry_space_group_name_H-M   'P 1'
_cell_length_a   6.42814245
_cell_length_b   9.80953619
_cell_length_c   7.40254746
_cell_angle_alpha   90.00000000
_cell_angle_beta   90.00000000
_cell_angle_gamma   90.00000000
_symmetry_Int_Tables_number   1
_chemical_formula_structural   Cu3BiSe2BrO8
_chemical_formula_sum   'Cu6 Bi2 Se4 Br2 O16'
_cell_volume   466.78314569
_cell_formula_units_Z   2
loop_
 _symmetry_equiv_pos_site_id
 _symmetry_equiv_pos_as_xyz
  1  'x, y, z'
loop_
 _atom_site_type_symbol
 _atom_site_label
 _atom_site_symmetry_multiplicity
 _atom_site_fract_x
 _atom_site_fract_y
 _atom_site_fract_z
 _atom_site_occupancy
  O  O0  1  0.78913548  0.33360401  0.24330480  1.0
  O  O1  1  0.21086452  0.33360401  0.24330480  1.0
  O  O2  1  0.78913548  0.66639599  0.24330480  1.0
  O  O3  1  0.21086452  0.66639599  0.24330480  1.0
  O  O4  1  0.71086452  0.16639599  0.75669520  1.0
  O  O5  1  0.28913548  0.16639599  0.75669520  1.0
  O  O6  1  0.71086452  0.83360401  0.75669520  1.0
  O  O7  1  0.28913548  0.83360401  0.75669520  1.0
  O  O8  1  0.00000000  0.86769866  0.40847412  1.0
  O  O9  1  0.00000000  0.13230134  0.40847412  1.0
  O  O10  1  0.50000000  0.63230134  0.59152588  1.0
  O  O11  1  0.50000000  0.36769866  0.59152588  1.0
  O  O12  1  0.00000000  0.86437362  0.00829311  1.0
  O  O13  1  0.00000000  0.13562638  0.00829311  1.0
  O  O14  1  0.50000000  0.63562638  0.99170689  1.0
  O  O15  1  0.50000000  0.36437362  0.99170689  1.0
  Cu  Cu16  1  0.75000000  0.75000000  0.00000000  1.0
  Cu  Cu17  1  0.25000000  0.75000000  0.00000000  1.0
  Cu  Cu18  1  0.75000000  0.25000000  0.00000000  1.0
  Cu  Cu19  1  0.25000000  0.25000000  0.00000000  1.0
  Cu  Cu20  1  0.00000000  0.00000000  0.20482136  1.0
  Cu  Cu21  1  0.50000000  0.50000000  0.79517864  1.0
  Se  Se22  1  0.00000000  0.30574903  0.38691204  1.0
  Se  Se23  1  0.00000000  0.69425097  0.38691204  1.0
  Se  Se24  1  0.50000000  0.19425097  0.61308796  1.0
  Se  Se25  1  0.50000000  0.80574903  0.61308796  1.0
  Bi  Bi26  1  0.00000000  0.00000000  0.75560340  1.0
  Bi  Bi27  1  0.50000000  0.50000000  0.24439660  1.0
  Br  Br28  1  0.00000000  0.50000000  0.83798782  1.0
  Br  Br29  1  0.50000000  0.00000000  0.16201218  1.0
