# generated using pymatgen
data_CuSe2Br
_symmetry_space_group_name_H-M   'P 1'
_cell_length_a   7.84208315
_cell_length_b   5.01923497
_cell_length_c   13.01674327
_cell_angle_alpha   90.00000000
_cell_angle_beta   113.67096409
_cell_angle_gamma   90.00000000
_symmetry_Int_Tables_number   1
_chemical_formula_structural   CuSe2Br
_chemical_formula_sum   'Cu4 Se8 Br4'
_cell_volume   469.24896953
_cell_formula_units_Z   4
loop_
 _symmetry_equiv_pos_site_id
 _symmetry_equiv_pos_as_xyz
  1  'x, y, z'
loop_
 _atom_site_type_symbol
 _atom_site_label
 _atom_site_symmetry_multiplicity
 _atom_site_fract_x
 _atom_site_fract_y
 _atom_site_fract_z
 _atom_site_occupancy
  Cu  Cu0  1  0.81990466  0.13693793  0.25162607  1.0
  Cu  Cu1  1  0.81990466  0.36306207  0.75162607  1.0
  Cu  Cu2  1  0.18009534  0.63693793  0.24837393  1.0
  Cu  Cu3  1  0.18009534  0.86306207  0.74837393  1.0
  Se  Se4  1  0.69214842  0.46463727  0.33367879  1.0
  Se  Se5  1  0.69214842  0.03536273  0.83367879  1.0
  Se  Se6  1  0.30785158  0.96463727  0.16632121  1.0
  Se  Se7  1  0.30785158  0.53536273  0.66632121  1.0
  Se  Se8  1  0.41442824  0.30564944  0.32995735  1.0
  Se  Se9  1  0.41442824  0.19435056  0.82995735  1.0
  Se  Se10  1  0.58557176  0.80564944  0.17004265  1.0
  Se  Se11  1  0.58557176  0.69435056  0.67004265  1.0
  Br  Br12  1  0.91193475  0.38291048  0.11934953  1.0
  Br  Br13  1  0.91193475  0.11708952  0.61934953  1.0
  Br  Br14  1  0.08806525  0.88291048  0.38065047  1.0
  Br  Br15  1  0.08806525  0.61708952  0.88065047  1.0
