# generated using pymatgen
data_Zr3Tl2(CuS4)2
_symmetry_space_group_name_H-M   'P 1'
_cell_length_a   7.54330301
_cell_length_b   7.54330301
_cell_length_c   13.97832292
_cell_angle_alpha   66.55536791
_cell_angle_beta   113.44463209
_cell_angle_gamma   151.45826855
_symmetry_Int_Tables_number   1
_chemical_formula_structural   Zr3Tl2(CuS4)2
_chemical_formula_sum   'Zr3 Tl2 Cu2 S8'
_cell_volume   346.53325953
_cell_formula_units_Z   1
loop_
 _symmetry_equiv_pos_site_id
 _symmetry_equiv_pos_as_xyz
  1  'x, y, z'
loop_
 _atom_site_type_symbol
 _atom_site_label
 _atom_site_symmetry_multiplicity
 _atom_site_fract_x
 _atom_site_fract_y
 _atom_site_fract_z
 _atom_site_occupancy
  Zr  Zr0  1  0.84044714  -0.84044714  0.62106164  1.0
  Zr  Zr1  1  0.15955286  -0.15955286  0.37893836  1.0
  Zr  Zr2  1  0.00000000  0.00000000  0.00000000  1.0
  Tl  Tl3  1  0.83654676  -0.83654676  0.20764927  1.0
  Tl  Tl4  1  0.16345324  -0.16345324  0.79235073  1.0
  Cu  Cu5  1  1.45070035  -0.45070035  0.80433624  1.0
  Cu  Cu6  1  0.54929965  0.45070035  0.19566376  1.0
  S  S7  1  0.85524258  0.14475742  0.81140838  1.0
  S  S8  1  1.14475742  -0.14475742  0.18859162  1.0
  S  S9  1  0.79497254  -0.79497254  0.42109313  1.0
  S  S10  1  0.20502746  -0.20502746  0.57890687  1.0
  S  S11  1  0.59757815  0.40242185  0.95252219  1.0
  S  S12  1  1.40242185  -0.40242185  0.04747781  1.0
  S  S13  1  1.47063194  -0.47063194  0.64971156  1.0
  S  S14  1  0.52936806  0.47063194  0.35028844  1.0
