# generated using pymatgen
data_AlCu
_symmetry_space_group_name_H-M   'P 1'
_cell_length_a   6.38693350
_cell_length_b   6.38693350
_cell_length_c   6.93628371
_cell_angle_alpha   57.11345244
_cell_angle_beta   122.88654756
_cell_angle_gamma   142.55421298
_symmetry_Int_Tables_number   1
_chemical_formula_structural   AlCu
_chemical_formula_sum   'Al5 Cu5'
_cell_volume   140.95609987
_cell_formula_units_Z   5
loop_
 _symmetry_equiv_pos_site_id
 _symmetry_equiv_pos_as_xyz
  1  'x, y, z'
loop_
 _atom_site_type_symbol
 _atom_site_label
 _atom_site_symmetry_multiplicity
 _atom_site_fract_x
 _atom_site_fract_y
 _atom_site_fract_z
 _atom_site_occupancy
  Al  Al0  1  0.87827938  -0.87827938  0.26056181  1.0
  Al  Al1  1  0.12172062  -0.12172062  0.73943819  1.0
  Al  Al2  1  0.65574561  0.34425439  0.35032898  1.0
  Al  Al3  1  1.34425439  -0.34425439  0.64967102  1.0
  Al  Al4  1  0.00000000  0.00000000  0.00000000  1.0
  Cu  Cu5  1  0.75794985  0.24205015  0.77460618  1.0
  Cu  Cu6  1  1.24205015  -0.24205015  0.22539382  1.0
  Cu  Cu7  1  0.60913684  0.39086316  0.94607559  1.0
  Cu  Cu8  1  1.39086316  -0.39086316  0.05392441  1.0
  Cu  Cu9  1  0.50000000  0.50000000  0.50000000  1.0
