# generated using pymatgen
data_Rb(FeAs)2
_symmetry_space_group_name_H-M   'P 1'
_cell_length_a   7.93188087
_cell_length_b   7.93188087
_cell_length_c   7.93188087
_cell_angle_alpha   152.70479449
_cell_angle_beta   152.70479449
_cell_angle_gamma   38.98495193
_symmetry_Int_Tables_number   1
_chemical_formula_structural   Rb(FeAs)2
_chemical_formula_sum   'Rb1 Fe2 As2'
_cell_volume   104.75955154
_cell_formula_units_Z   1
loop_
 _symmetry_equiv_pos_site_id
 _symmetry_equiv_pos_as_xyz
  1  'x, y, z'
loop_
 _atom_site_type_symbol
 _atom_site_label
 _atom_site_symmetry_multiplicity
 _atom_site_fract_x
 _atom_site_fract_y
 _atom_site_fract_z
 _atom_site_occupancy
  Rb  Rb0  1  0.00000000  0.00000000  0.00000000  1.0
  Fe  Fe1  1  0.25000000  0.75000000  0.50000000  1.0
  Fe  Fe2  1  0.75000000  0.25000000  0.50000000  1.0
  As  As3  1  0.65459495  0.65459495  1.00000000  1.0
  As  As4  1  0.34540505  0.34540505  -0.00000000  1.0
