# generated using pymatgen
data_Y6Pb8OF32
_symmetry_space_group_name_H-M   'P 1'
_cell_length_a   9.28525299
_cell_length_b   9.28525299
_cell_length_c   9.28525299
_cell_angle_alpha   73.44953259
_cell_angle_beta   73.44953259
_cell_angle_gamma   73.44953259
_symmetry_Int_Tables_number   1
_chemical_formula_structural   Y6Pb8OF32
_chemical_formula_sum   'Y6 Pb8 O1 F32'
_cell_volume   717.27131204
_cell_formula_units_Z   1
loop_
 _symmetry_equiv_pos_site_id
 _symmetry_equiv_pos_as_xyz
  1  'x, y, z'
loop_
 _atom_site_type_symbol
 _atom_site_label
 _atom_site_symmetry_multiplicity
 _atom_site_fract_x
 _atom_site_fract_y
 _atom_site_fract_z
 _atom_site_occupancy
  Y  Y0  1  0.52759180  0.39304500  -0.16174652  1.0
  Y  Y1  1  0.60695500  0.16174652  -0.52759180  1.0
  Y  Y2  1  0.16174652  0.47240820  -0.39304500  1.0
  Y  Y3  1  0.47240820  0.60695500  -0.83825348  1.0
  Y  Y4  1  0.39304500  0.83825348  -0.47240820  1.0
  Y  Y5  1  0.83825348  0.52759180  -0.60695500  1.0
  Pb  Pb6  1  0.70842709  -0.03507510  0.09215458  1.0
  Pb  Pb7  1  1.03507510  -0.09215458  -0.70842709  1.0
  Pb  Pb8  1  0.90784542  -0.70842709  0.03507510  1.0
  Pb  Pb9  1  0.29157291  0.03507510  -0.09215458  1.0
  Pb  Pb10  1  0.96492490  0.09215458  -0.29157291  1.0
  Pb  Pb11  1  1.09215458  -0.29157291  -0.03507510  1.0
  Pb  Pb12  1  0.73288384  0.73288384  -0.26711616  1.0
  Pb  Pb13  1  1.26711616  1.26711616  0.26711616  1.0
  O  O14  1  0.00000000  0.00000000  0.00000000  1.0
  F  F15  1  0.90844701  -0.25648160  0.21537054  1.0
  F  F16  1  0.25648160  0.78462946  -0.90844701  1.0
  F  F17  1  0.78462946  0.09155299  -0.74351840  1.0
  F  F18  1  0.09155299  0.25648160  -0.21537054  1.0
  F  F19  1  0.74351840  0.21537054  -0.09155299  1.0
  F  F20  1  1.21537054  -0.09155299  -0.25648160  1.0
  F  F21  1  0.64445564  0.50537378  -0.04203927  1.0
  F  F22  1  1.49462622  1.04203927  0.35554436  1.0
  F  F23  1  1.04203927  1.35554436  0.49462622  1.0
  F  F24  1  1.35554436  1.49462622  0.04203927  1.0
  F  F25  1  0.50537378  0.95796073  -0.35554436  1.0
  F  F26  1  0.95796073  0.64445564  -0.49462622  1.0
  F  F27  1  0.69451135  0.58451209  -0.78100907  1.0
  F  F28  1  0.41548791  0.78100907  -0.69451135  1.0
  F  F29  1  0.78100907  0.30548865  -0.58451209  1.0
  F  F30  1  0.30548865  0.41548791  -0.21899093  1.0
  F  F31  1  0.58451209  0.21899093  -0.30548865  1.0
  F  F32  1  0.21899093  0.69451135  -0.41548791  1.0
  F  F33  1  0.45833710  0.64983981  -0.26719406  1.0
  F  F34  1  0.35016019  0.26719406  -0.45833710  1.0
  F  F35  1  0.26719406  0.54166290  -0.64983981  1.0
  F  F36  1  0.54166290  0.35016019  -0.73280594  1.0
  F  F37  1  0.64983981  0.73280594  -0.54166290  1.0
  F  F38  1  0.73280594  0.45833710  -0.35016019  1.0
  F  F39  1  0.54705147  0.81301606  -0.02224111  1.0
  F  F40  1  1.18698394  1.02224111  0.45294853  1.0
  F  F41  1  1.02224111  1.45294853  0.18698394  1.0
  F  F42  1  1.45294853  1.18698394  0.02224111  1.0
  F  F43  1  0.81301606  0.97775889  -0.45294853  1.0
  F  F44  1  0.97775889  0.54705147  -0.18698394  1.0
  F  F45  1  0.85805517  0.85805517  -0.14194483  1.0
  F  F46  1  1.14194483  1.14194483  0.14194483  1.0
