# generated using pymatgen
data_Ba2LaTaO6
_symmetry_space_group_name_H-M   'P 1'
_cell_length_a   6.12536769
_cell_length_b   6.12536769
_cell_length_c   6.20328095
_cell_angle_alpha   60.18215465
_cell_angle_beta   119.81784535
_cell_angle_gamma   119.84074689
_symmetry_Int_Tables_number   1
_chemical_formula_structural   Ba2LaTaO6
_chemical_formula_sum   'Ba2 La1 Ta1 O6'
_cell_volume   165.22808778
_cell_formula_units_Z   1
loop_
 _symmetry_equiv_pos_site_id
 _symmetry_equiv_pos_as_xyz
  1  'x, y, z'
loop_
 _atom_site_type_symbol
 _atom_site_label
 _atom_site_symmetry_multiplicity
 _atom_site_fract_x
 _atom_site_fract_y
 _atom_site_fract_z
 _atom_site_occupancy
  Ba  Ba0  1  0.75218927  0.24781073  0.25995187  1.0
  Ba  Ba1  1  0.24781073  -0.24781073  0.74004813  1.0
  La  La2  1  0.00000000  0.00000000  0.00000000  1.0
  Ta  Ta3  1  0.50000000  -0.50000000  0.50000000  1.0
  O  O4  1  1.69140134  -0.22890602  0.68551814  1.0
  O  O5  1  1.22890602  0.30859866  0.68551814  1.0
  O  O6  1  0.77109398  0.69140134  0.31448186  1.0
  O  O7  1  1.30859866  0.22890602  0.31448186  1.0
  O  O8  1  0.72640149  -0.72640149  0.79839000  1.0
  O  O9  1  1.27359851  -0.27359851  0.20161000  1.0
