# generated using pymatgen
data_K4Zr6CBr18
_symmetry_space_group_name_H-M   'P 1'
_cell_length_a   10.52534770
_cell_length_b   10.64894791
_cell_length_c   10.80611332
_cell_angle_alpha   59.23548218
_cell_angle_beta   66.24891607
_cell_angle_gamma   77.73272848
_symmetry_Int_Tables_number   1
_chemical_formula_structural   K4Zr6CBr18
_chemical_formula_sum   'K4 Zr6 C1 Br18'
_cell_volume   952.56899926
_cell_formula_units_Z   1
loop_
 _symmetry_equiv_pos_site_id
 _symmetry_equiv_pos_as_xyz
  1  'x, y, z'
loop_
 _atom_site_type_symbol
 _atom_site_label
 _atom_site_symmetry_multiplicity
 _atom_site_fract_x
 _atom_site_fract_y
 _atom_site_fract_z
 _atom_site_occupancy
  K  K0  1  0.34743616  0.31133028  -0.77082084  1.0
  K  K1  1  0.65256384  -0.31133028  -0.22917916  1.0
  K  K2  1  0.32253389  -0.33661335  -0.43601322  1.0
  K  K3  1  0.67746611  0.33661335  -0.56398678  1.0
  Zr  Zr4  1  0.85874647  0.18388780  -0.95866183  1.0
  Zr  Zr5  1  0.14125353  -0.18388780  -0.04133817  1.0
  Zr  Zr6  1  0.85115575  -0.17454796  -0.77500758  1.0
  Zr  Zr7  1  0.14884425  0.17454796  -0.22499242  1.0
  Zr  Zr8  1  0.12602165  -0.00390072  -0.86313142  1.0
  Zr  Zr9  1  0.87397835  0.00390072  -0.13686858  1.0
  C  C10  1  0.00000000  0.00000000  0.00000000  1.0
  Br  Br11  1  0.99172637  0.58672125  -0.78781863  1.0
  Br  Br12  1  0.00827363  -0.58672125  -0.21218137  1.0
  Br  Br13  1  0.98196703  0.20921059  -0.79724484  1.0
  Br  Br14  1  0.01803297  -0.20921059  -0.20275516  1.0
  Br  Br15  1  0.97249705  -0.20673422  -0.58335619  1.0
  Br  Br16  1  0.02750295  0.20673422  -0.41664381  1.0
  Br  Br17  1  0.67854472  0.40932072  -0.90444464  1.0
  Br  Br18  1  0.32145528  -0.40932072  -0.09555536  1.0
  Br  Br19  1  0.69357186  -0.78443563  -0.10762568  1.0
  Br  Br20  1  0.30642814  0.78443563  -0.89237432  1.0
  Br  Br21  1  0.68487059  0.80467720  -0.89679303  1.0
  Br  Br22  1  0.31512941  -0.80467720  -0.10320697  1.0
  Br  Br23  1  0.66279808  -0.38917973  -0.49566150  1.0
  Br  Br24  1  0.33720192  0.38917973  -0.50433850  1.0
  Br  Br25  1  0.66756613  0.01074981  -0.69132690  1.0
  Br  Br26  1  0.33243387  -0.01074981  -0.30867310  1.0
  Br  Br27  1  0.27846252  -0.00914593  -0.69711165  1.0
  Br  Br28  1  0.72153748  0.00914593  -0.30288835  1.0
