# generated using pymatgen
data_GdPtF7
_symmetry_space_group_name_H-M   'P 1'
_cell_length_a   9.02446002
_cell_length_b   5.62532206
_cell_length_c   12.12774496
_cell_angle_alpha   90.00000000
_cell_angle_beta   117.74665613
_cell_angle_gamma   90.00000000
_symmetry_Int_Tables_number   1
_chemical_formula_structural   GdPtF7
_chemical_formula_sum   'Gd4 Pt4 F28'
_cell_volume   544.87792099
_cell_formula_units_Z   4
loop_
 _symmetry_equiv_pos_site_id
 _symmetry_equiv_pos_as_xyz
  1  'x, y, z'
loop_
 _atom_site_type_symbol
 _atom_site_label
 _atom_site_symmetry_multiplicity
 _atom_site_fract_x
 _atom_site_fract_y
 _atom_site_fract_z
 _atom_site_occupancy
  Gd  Gd0  1  0.81256978  0.76071220  0.23557215  1.0
  Gd  Gd1  1  0.81256978  0.73928780  0.73557215  1.0
  Gd  Gd2  1  0.18743022  0.26071220  0.26442785  1.0
  Gd  Gd3  1  0.18743022  0.23928780  0.76442785  1.0
  Pt  Pt4  1  0.72705416  0.25803477  0.45692234  1.0
  Pt  Pt5  1  0.72705416  0.24196523  0.95692234  1.0
  Pt  Pt6  1  0.27294584  0.75803477  0.04307766  1.0
  Pt  Pt7  1  0.27294584  0.74196523  0.54307766  1.0
  F  F8  1  0.96936446  0.08696971  0.26806920  1.0
  F  F9  1  0.96936446  0.41303029  0.76806920  1.0
  F  F10  1  0.03063554  0.58696971  0.23193080  1.0
  F  F11  1  0.03063554  0.91303029  0.73193080  1.0
  F  F12  1  0.97180995  0.24413138  0.04961702  1.0
  F  F13  1  0.97180995  0.25586862  0.54961702  1.0
  F  F14  1  0.02819005  0.74413138  0.45038298  1.0
  F  F15  1  0.02819005  0.75586862  0.95038298  1.0
  F  F16  1  0.74461358  0.44639837  0.32712532  1.0
  F  F17  1  0.74461358  0.05360163  0.82712532  1.0
  F  F18  1  0.25538642  0.94639837  0.17287468  1.0
  F  F19  1  0.25538642  0.55360163  0.67287468  1.0
  F  F20  1  0.72739918  0.96988047  0.36631475  1.0
  F  F21  1  0.72739918  0.53011953  0.86631475  1.0
  F  F22  1  0.27260082  0.46988047  0.13368525  1.0
  F  F23  1  0.27260082  0.03011953  0.63368525  1.0
  F  F24  1  0.70469176  0.43488974  0.08284033  1.0
  F  F25  1  0.70469176  0.06511026  0.58284033  1.0
  F  F26  1  0.29530824  0.93488974  0.41715967  1.0
  F  F27  1  0.29530824  0.56511026  0.91715967  1.0
  F  F28  1  0.48218012  0.26987036  0.35945786  1.0
  F  F29  1  0.48218012  0.23012964  0.85945786  1.0
  F  F30  1  0.51781988  0.76987036  0.14054214  1.0
  F  F31  1  0.51781988  0.73012964  0.64054214  1.0
  F  F32  1  0.28052552  0.44763139  0.45852796  1.0
  F  F33  1  0.28052552  0.05236861  0.95852796  1.0
  F  F34  1  0.71947448  0.94763139  0.04147204  1.0
  F  F35  1  0.71947448  0.55236861  0.54147204  1.0
