# generated using pymatgen
data_CaCr2O4
_symmetry_space_group_name_H-M   'P 1'
_cell_length_a   9.10937635
_cell_length_b   3.01357767
_cell_length_c   10.67702916
_cell_angle_alpha   90.00000000
_cell_angle_beta   90.00000000
_cell_angle_gamma   90.00000000
_symmetry_Int_Tables_number   1
_chemical_formula_structural   CaCr2O4
_chemical_formula_sum   'Ca4 Cr8 O16'
_cell_volume   293.10380999
_cell_formula_units_Z   4
loop_
 _symmetry_equiv_pos_site_id
 _symmetry_equiv_pos_as_xyz
  1  'x, y, z'
loop_
 _atom_site_type_symbol
 _atom_site_label
 _atom_site_symmetry_multiplicity
 _atom_site_fract_x
 _atom_site_fract_y
 _atom_site_fract_z
 _atom_site_occupancy
  Ca  Ca0  1  0.75983295  0.75000000  0.65908937  1.0
  Ca  Ca1  1  0.25983295  0.75000000  0.84091063  1.0
  Ca  Ca2  1  0.24016705  0.25000000  0.34091063  1.0
  Ca  Ca3  1  0.74016705  0.25000000  0.15908937  1.0
  Cr  Cr4  1  0.44019763  0.75000000  0.61296276  1.0
  Cr  Cr5  1  0.94019763  0.75000000  0.88703724  1.0
  Cr  Cr6  1  0.55980237  0.25000000  0.38703724  1.0
  Cr  Cr7  1  0.05980237  0.25000000  0.11296276  1.0
  Cr  Cr8  1  0.91612826  0.75000000  0.39886563  1.0
  Cr  Cr9  1  0.41612826  0.75000000  0.10113437  1.0
  Cr  Cr10  1  0.08387174  0.25000000  0.60113437  1.0
  Cr  Cr11  1  0.58387174  0.25000000  0.89886563  1.0
  O  O12  1  0.91942976  0.75000000  0.07325564  1.0
  O  O13  1  0.41942976  0.75000000  0.42674436  1.0
  O  O14  1  0.08057024  0.25000000  0.92674436  1.0
  O  O15  1  0.58057024  0.25000000  0.57325564  1.0
  O  O16  1  0.52922709  0.75000000  0.78587972  1.0
  O  O17  1  0.02922709  0.75000000  0.71412028  1.0
  O  O18  1  0.47077291  0.25000000  0.21412028  1.0
  O  O19  1  0.97077291  0.25000000  0.28587972  1.0
  O  O20  1  0.70109377  0.75000000  0.33850392  1.0
  O  O21  1  0.20109377  0.75000000  0.16149608  1.0
  O  O22  1  0.29890623  0.25000000  0.66149608  1.0
  O  O23  1  0.79890623  0.25000000  0.83850392  1.0
  O  O24  1  0.61662215  0.75000000  0.02406941  1.0
  O  O25  1  0.11662215  0.75000000  0.47593059  1.0
  O  O26  1  0.38337785  0.25000000  0.97593059  1.0
  O  O27  1  0.88337785  0.25000000  0.52406941  1.0
