# generated using pymatgen
data_BC2N
_symmetry_space_group_name_H-M   'P 1'
_cell_length_a   3.63613004
_cell_length_b   3.63613004
_cell_length_c   4.18128712
_cell_angle_alpha   78.11752200
_cell_angle_beta   101.88247800
_cell_angle_gamma   90.26850531
_symmetry_Int_Tables_number   1
_chemical_formula_structural   BC2N
_chemical_formula_sum   'B2 C4 N2'
_cell_volume   52.89776974
_cell_formula_units_Z   2
loop_
 _symmetry_equiv_pos_site_id
 _symmetry_equiv_pos_as_xyz
  1  'x, y, z'
loop_
 _atom_site_type_symbol
 _atom_site_label
 _atom_site_symmetry_multiplicity
 _atom_site_fract_x
 _atom_site_fract_y
 _atom_site_fract_z
 _atom_site_occupancy
  B  B0  1  0.80053474  0.19946526  0.16233931  1.0
  B  B1  1  1.19946526  -0.19946526  0.83766069  1.0
  C  C2  1  0.40825662  0.10700686  0.61540366  1.0
  C  C3  1  0.59174338  -0.10700686  0.38459634  1.0
  C  C4  1  0.89299314  -0.40825662  0.61540366  1.0
  C  C5  1  1.10700686  0.40825662  0.38459634  1.0
  N  N6  1  0.29439497  -0.29439497  0.19109076  1.0
  N  N7  1  0.70560503  0.29439497  0.80890924  1.0
