# generated using pymatgen
data_TiCdO3
_symmetry_space_group_name_H-M   'P 1'
_cell_length_a   7.67103267
_cell_length_b   5.38927073
_cell_length_c   5.51056546
_cell_angle_alpha   90.00000000
_cell_angle_beta   90.00000000
_cell_angle_gamma   90.00000000
_symmetry_Int_Tables_number   1
_chemical_formula_structural   TiCdO3
_chemical_formula_sum   'Ti4 Cd4 O12'
_cell_volume   227.81378498
_cell_formula_units_Z   4
loop_
 _symmetry_equiv_pos_site_id
 _symmetry_equiv_pos_as_xyz
  1  'x, y, z'
loop_
 _atom_site_type_symbol
 _atom_site_label
 _atom_site_symmetry_multiplicity
 _atom_site_fract_x
 _atom_site_fract_y
 _atom_site_fract_z
 _atom_site_occupancy
  Ti  Ti0  1  0.75080669  0.74284286  0.52794121  1.0
  Ti  Ti1  1  0.75080669  0.25715714  0.02794121  1.0
  Ti  Ti2  1  0.24919331  0.74284286  0.52794121  1.0
  Ti  Ti3  1  0.24919331  0.25715714  0.02794121  1.0
  Cd  Cd4  1  0.00000000  0.76234681  0.05332118  1.0
  Cd  Cd5  1  0.00000000  0.23765319  0.55332118  1.0
  Cd  Cd6  1  0.50000000  0.75040988  0.97692311  1.0
  Cd  Cd7  1  0.50000000  0.24959012  0.47692311  1.0
  O  O8  1  0.79807221  0.94547611  0.79701947  1.0
  O  O9  1  0.79807221  0.05452389  0.29701947  1.0
  O  O10  1  0.20192779  0.94547611  0.79701947  1.0
  O  O11  1  0.20192779  0.05452389  0.29701947  1.0
  O  O12  1  0.70387236  0.45101683  0.70145845  1.0
  O  O13  1  0.70387236  0.54898317  0.20145845  1.0
  O  O14  1  0.29612764  0.45101683  0.70145845  1.0
  O  O15  1  0.29612764  0.54898317  0.20145845  1.0
  O  O16  1  0.50000000  0.83742379  0.52879156  1.0
  O  O17  1  0.50000000  0.16257621  1.02879156  1.0
  O  O18  1  0.00000000  0.65984786  0.47002591  1.0
  O  O19  1  0.00000000  0.34015214  -0.02997409  1.0
