# generated using pymatgen
data_Sr2PBr
_symmetry_space_group_name_H-M   'P 1'
_cell_length_a   7.91511786
_cell_length_b   7.91511786
_cell_length_c   7.91511786
_cell_angle_alpha   32.78584180
_cell_angle_beta   32.78584180
_cell_angle_gamma   32.78584180
_symmetry_Int_Tables_number   1
_chemical_formula_structural   Sr2PBr
_chemical_formula_sum   'Sr2 P1 Br1'
_cell_volume   129.35035180
_cell_formula_units_Z   1
loop_
 _symmetry_equiv_pos_site_id
 _symmetry_equiv_pos_as_xyz
  1  'x, y, z'
loop_
 _atom_site_type_symbol
 _atom_site_label
 _atom_site_symmetry_multiplicity
 _atom_site_fract_x
 _atom_site_fract_y
 _atom_site_fract_z
 _atom_site_occupancy
  Sr  Sr0  1  0.76440413  0.76440413  0.76440413  1.0
  Sr  Sr1  1  1.23559587  1.23559587  0.23559587  1.0
  P  P2  1  1.50000000  0.50000000  0.50000000  1.0
  Br  Br3  1  0.00000000  0.00000000  0.00000000  1.0
