# generated using pymatgen
data_LiC2IO2
_symmetry_space_group_name_H-M   'P 1'
_cell_length_a   11.16052898
_cell_length_b   5.05087367
_cell_length_c   9.05005206
_cell_angle_alpha   90.00000000
_cell_angle_beta   96.05632214
_cell_angle_gamma   90.00000000
_symmetry_Int_Tables_number   1
_chemical_formula_structural   LiC2IO2
_chemical_formula_sum   'Li4 C8 I4 O8'
_cell_volume   507.30790524
_cell_formula_units_Z   4
loop_
 _symmetry_equiv_pos_site_id
 _symmetry_equiv_pos_as_xyz
  1  'x, y, z'
loop_
 _atom_site_type_symbol
 _atom_site_label
 _atom_site_symmetry_multiplicity
 _atom_site_fract_x
 _atom_site_fract_y
 _atom_site_fract_z
 _atom_site_occupancy
  O  O0  1  0.09733526  0.32873993  0.97124613  1.0
  O  O1  1  0.90266474  0.82873993  0.52875387  1.0
  O  O2  1  0.90266474  0.67126007  0.02875387  1.0
  O  O3  1  0.09733526  0.17126007  0.47124613  1.0
  O  O4  1  0.07078422  0.96015037  0.82873291  1.0
  O  O5  1  0.92921578  0.46015037  0.67126709  1.0
  O  O6  1  0.92921578  0.03984963  0.17126709  1.0
  O  O7  1  0.07078422  0.53984963  0.32873291  1.0
  C  C8  1  0.12754169  0.09757174  0.93282063  1.0
  C  C9  1  0.87245831  0.59757174  0.56717937  1.0
  C  C10  1  0.87245831  0.90242826  0.06717937  1.0
  C  C11  1  0.12754169  0.40242826  0.43282063  1.0
  C  C12  1  0.23416757  0.97331751  0.00902796  1.0
  C  C13  1  0.76583243  0.47331751  0.49097204  1.0
  C  C14  1  0.76583243  0.02668249  0.99097204  1.0
  C  C15  1  0.23416757  0.52668249  0.50902796  1.0
  Li  Li16  1  0.00469849  0.60491811  0.85820485  1.0
  Li  Li17  1  0.99530151  0.10491811  0.64179515  1.0
  Li  Li18  1  0.99530151  0.39508189  0.14179515  1.0
  Li  Li19  1  0.00469849  0.89508189  0.35820485  1.0
  I  I20  1  0.36401960  0.10831295  0.16495824  1.0
  I  I21  1  0.63598040  0.60831295  0.33504176  1.0
  I  I22  1  0.63598040  0.89168705  0.83504176  1.0
  I  I23  1  0.36401960  0.39168705  0.66495824  1.0
