# generated using pymatgen
data_Sr6CoC2N7
_symmetry_space_group_name_H-M   'P 1'
_cell_length_a   9.88281368
_cell_length_b   14.73416616
_cell_length_c   3.87677913
_cell_angle_alpha   90.00000000
_cell_angle_beta   90.00000000
_cell_angle_gamma   90.00000000
_symmetry_Int_Tables_number   1
_chemical_formula_structural   Sr6CoC2N7
_chemical_formula_sum   'Sr12 Co2 C4 N14'
_cell_volume   564.51726550
_cell_formula_units_Z   2
loop_
 _symmetry_equiv_pos_site_id
 _symmetry_equiv_pos_as_xyz
  1  'x, y, z'
loop_
 _atom_site_type_symbol
 _atom_site_label
 _atom_site_symmetry_multiplicity
 _atom_site_fract_x
 _atom_site_fract_y
 _atom_site_fract_z
 _atom_site_occupancy
  C  C0  1  0.27124591  0.72106897  0.80969839  1.0
  C  C1  1  0.77124591  0.77893103  0.19030161  1.0
  C  C2  1  0.72875409  0.27893103  0.80969839  1.0
  C  C3  1  0.22875409  0.22106897  0.19030161  1.0
  Sr  Sr4  1  0.24579922  0.55834817  0.43452614  1.0
  Sr  Sr5  1  0.74579922  0.94165183  0.56547386  1.0
  Sr  Sr6  1  0.75420078  0.44165183  0.43452614  1.0
  Sr  Sr7  1  0.25420078  0.05834817  0.56547386  1.0
  Sr  Sr8  1  0.09224224  0.83850568  0.49759368  1.0
  Sr  Sr9  1  0.59224224  0.66149432  0.50240632  1.0
  Sr  Sr10  1  0.90775776  0.16149432  0.49759368  1.0
  Sr  Sr11  1  0.40775776  0.33850568  0.50240632  1.0
  Sr  Sr12  1  0.92887341  0.61017576  0.93749191  1.0
  Sr  Sr13  1  0.42887341  0.88982424  0.06250809  1.0
  Sr  Sr14  1  0.07112659  0.38982424  0.93749191  1.0
  Sr  Sr15  1  0.57112659  0.11017576  0.06250809  1.0
  N  N16  1  0.36564691  0.75062068  0.63163228  1.0
  N  N17  1  0.86564691  0.74937932  0.36836772  1.0
  N  N18  1  0.63435309  0.24937932  0.63163228  1.0
  N  N19  1  0.13435309  0.25062068  0.36836772  1.0
  N  N20  1  0.16887315  0.69311728  0.96168874  1.0
  N  N21  1  0.66887315  0.80688272  0.03831126  1.0
  N  N22  1  0.83112685  0.30688272  0.96168874  1.0
  N  N23  1  0.33112685  0.19311728  0.03831126  1.0
  N  N24  1  0.50000000  0.00000000  0.56904419  1.0
  N  N25  1  0.00000000  0.50000000  0.43095581  1.0
  N  N26  1  0.66538441  0.55265821  0.96860957  1.0
  N  N27  1  0.16538441  0.94734179  0.03139043  1.0
  N  N28  1  0.33461559  0.44734179  0.96860957  1.0
  N  N29  1  0.83461559  0.05265821  0.03139043  1.0
  Co  Co30  1  0.50000000  0.50000000  0.97330387  1.0
  Co  Co31  1  0.00000000  0.00000000  0.02669613  1.0
