# generated using pymatgen
data_LaSbO4
_symmetry_space_group_name_H-M   'P 1'
_cell_length_a   5.46999008
_cell_length_b   5.21350312
_cell_length_c   14.18822643
_cell_angle_alpha   90.00000000
_cell_angle_beta   112.65522812
_cell_angle_gamma   90.00000000
_symmetry_Int_Tables_number   1
_chemical_formula_structural   LaSbO4
_chemical_formula_sum   'La4 Sb4 O16'
_cell_volume   373.39663270
_cell_formula_units_Z   4
loop_
 _symmetry_equiv_pos_site_id
 _symmetry_equiv_pos_as_xyz
  1  'x, y, z'
loop_
 _atom_site_type_symbol
 _atom_site_label
 _atom_site_symmetry_multiplicity
 _atom_site_fract_x
 _atom_site_fract_y
 _atom_site_fract_z
 _atom_site_occupancy
  La  La0  1  0.33401942  0.24976948  0.33395989  1.0
  La  La1  1  0.33401942  0.25023052  0.83395989  1.0
  La  La2  1  0.66598058  0.75023052  0.66604011  1.0
  La  La3  1  0.66598058  0.74976948  0.16604011  1.0
  Sb  Sb4  1  0.06896861  0.25001507  0.06892961  1.0
  Sb  Sb5  1  0.06896861  0.24998493  0.56892961  1.0
  Sb  Sb6  1  0.93103139  0.74998493  0.93107039  1.0
  Sb  Sb7  1  0.93103139  0.75001507  0.43107039  1.0
  O  O8  1  0.24868776  0.56676650  0.04330744  1.0
  O  O9  1  0.24868776  0.93323350  0.54330744  1.0
  O  O10  1  0.75131224  0.43323350  0.95669256  1.0
  O  O11  1  0.75131224  0.06676650  0.45669256  1.0
  O  O12  1  -0.03617427  0.38787688  0.17707203  1.0
  O  O13  1  -0.03617427  0.11212312  0.67707203  1.0
  O  O14  1  1.03617427  0.61212312  0.82292797  1.0
  O  O15  1  1.03617427  0.88787688  0.32292797  1.0
  O  O16  1  0.83825667  0.93316740  0.04346578  1.0
  O  O17  1  0.83825667  0.56683260  0.54346578  1.0
  O  O18  1  0.16174333  0.06683260  0.95653422  1.0
  O  O19  1  0.16174333  0.43316740  0.45653422  1.0
  O  O20  1  0.39051503  0.11241760  0.17700137  1.0
  O  O21  1  0.39051503  0.38758240  0.67700137  1.0
  O  O22  1  0.60948497  0.88758240  0.82299863  1.0
  O  O23  1  0.60948497  0.61241760  0.32299863  1.0
