# generated using pymatgen
data_Gd(C2N3)3
_symmetry_space_group_name_H-M   'P 1'
_cell_length_a   7.08233352
_cell_length_b   7.08233352
_cell_length_c   11.19026581
_cell_angle_alpha   90.00000000
_cell_angle_beta   90.00000000
_cell_angle_gamma   114.66308456
_symmetry_Int_Tables_number   1
_chemical_formula_structural   Gd(C2N3)3
_chemical_formula_sum   'Gd2 C12 N18'
_cell_volume   510.09443299
_cell_formula_units_Z   2
loop_
 _symmetry_equiv_pos_site_id
 _symmetry_equiv_pos_as_xyz
  1  'x, y, z'
loop_
 _atom_site_type_symbol
 _atom_site_label
 _atom_site_symmetry_multiplicity
 _atom_site_fract_x
 _atom_site_fract_y
 _atom_site_fract_z
 _atom_site_occupancy
  Gd  Gd0  1  0.28314955  0.71685045  0.25000000  1.0
  Gd  Gd1  1  -0.28314955  1.28314955  0.75000000  1.0
  C  C2  1  0.00430346  1.29294928  0.43477792  1.0
  C  C3  1  0.00430346  1.29294928  0.06522208  1.0
  C  C4  1  0.29294928  1.00430346  0.93477792  1.0
  C  C5  1  0.29294928  1.00430346  0.56522208  1.0
  C  C6  1  -0.29294928  0.99569654  0.43477792  1.0
  C  C7  1  -0.29294928  0.99569654  0.06522208  1.0
  C  C8  1  -0.00430346  0.70705072  0.93477792  1.0
  C  C9  1  -0.00430346  0.70705072  0.56522208  1.0
  C  C10  1  -0.26380297  1.56028725  0.25000000  1.0
  C  C11  1  0.56028725  0.73619703  0.75000000  1.0
  C  C12  1  -0.56028725  1.26380297  0.25000000  1.0
  C  C13  1  0.26380297  0.43971275  0.75000000  1.0
  N  N14  1  0.14236720  0.43626831  0.39223812  1.0
  N  N15  1  0.14236720  0.43626831  0.10776188  1.0
  N  N16  1  -0.56373169  1.14236720  0.89223812  1.0
  N  N17  1  -0.56373169  1.14236720  0.60776188  1.0
  N  N18  1  0.56373169  0.85763280  0.39223812  1.0
  N  N19  1  0.56373169  0.85763280  0.10776188  1.0
  N  N20  1  -0.14236720  1.56373169  0.89223812  1.0
  N  N21  1  -0.14236720  1.56373169  0.60776188  1.0
  N  N22  1  -0.08247073  1.65655543  0.25000000  1.0
  N  N23  1  0.65655543  0.91752927  0.75000000  1.0
  N  N24  1  -0.65655543  1.08247073  0.25000000  1.0
  N  N25  1  0.08247073  0.34344457  0.75000000  1.0
  N  N26  1  0.14286510  0.85713490  0.51032348  1.0
  N  N27  1  0.14286510  0.85713490  -0.01032348  1.0
  N  N28  1  -0.14286510  1.14286510  1.01032348  1.0
  N  N29  1  -0.14286510  1.14286510  0.48967652  1.0
  N  N30  1  -0.46524816  1.46524816  0.25000000  1.0
  N  N31  1  0.46524816  0.53475184  0.75000000  1.0
