# generated using pymatgen
data_CsHSO4
_symmetry_space_group_name_H-M   'P 1'
_cell_length_a   8.39852658
_cell_length_b   5.95097262
_cell_length_c   11.32123484
_cell_angle_alpha   90.00000000
_cell_angle_beta   119.94712056
_cell_angle_gamma   90.00000000
_symmetry_Int_Tables_number   1
_chemical_formula_structural   CsHSO4
_chemical_formula_sum   'Cs4 H4 S4 O16'
_cell_volume   490.28279219
_cell_formula_units_Z   4
loop_
 _symmetry_equiv_pos_site_id
 _symmetry_equiv_pos_as_xyz
  1  'x, y, z'
loop_
 _atom_site_type_symbol
 _atom_site_label
 _atom_site_symmetry_multiplicity
 _atom_site_fract_x
 _atom_site_fract_y
 _atom_site_fract_z
 _atom_site_occupancy
  Cs  Cs0  1  0.21418159  0.26022526  0.34822813  1.0
  Cs  Cs1  1  0.21418159  0.23977474  0.84822813  1.0
  Cs  Cs2  1  0.78581841  0.76022526  0.15177187  1.0
  Cs  Cs3  1  0.78581841  0.73977474  0.65177187  1.0
  H  H4  1  0.53153542  0.00742231  0.28349392  1.0
  H  H5  1  0.53153542  0.49257769  0.78349392  1.0
  H  H6  1  0.46846458  0.50742231  0.21650608  1.0
  H  H7  1  0.46846458  0.99257769  0.71650608  1.0
  S  S8  1  0.74050874  0.26246021  0.40248760  1.0
  S  S9  1  0.74050874  0.23753979  0.90248760  1.0
  S  S10  1  0.25949126  0.76246021  0.09751240  1.0
  S  S11  1  0.25949126  0.73753979  0.59751240  1.0
  O  O12  1  0.87958716  0.23891721  0.04699387  1.0
  O  O13  1  0.87958716  0.26108279  0.54699387  1.0
  O  O14  1  0.12041284  0.73891721  0.45300613  1.0
  O  O15  1  0.12041284  0.76108279  0.95300613  1.0
  O  O16  1  0.80959529  0.24657228  0.30651705  1.0
  O  O17  1  0.80959529  0.25342772  0.80651705  1.0
  O  O18  1  0.19040471  0.74657228  0.19348295  1.0
  O  O19  1  0.19040471  0.75342772  0.69348295  1.0
  O  O20  1  0.62303404  0.03906368  0.38449861  1.0
  O  O21  1  0.62303404  0.46093632  0.88449861  1.0
  O  O22  1  0.37696596  0.53906368  0.11550139  1.0
  O  O23  1  0.37696596  0.96093632  0.61550139  1.0
  O  O24  1  0.60874886  0.45402545  0.36836186  1.0
  O  O25  1  0.60874886  0.04597455  0.86836186  1.0
  O  O26  1  0.39125114  0.95402545  0.13163814  1.0
  O  O27  1  0.39125114  0.54597455  0.63163814  1.0
