# generated using pymatgen
data_BaGe3
_symmetry_space_group_name_H-M   'P 1'
_cell_length_a   8.52691833
_cell_length_b   8.52691833
_cell_length_c   8.52691833
_cell_angle_alpha   124.87406597
_cell_angle_beta   124.87406597
_cell_angle_gamma   81.74672602
_symmetry_Int_Tables_number   1
_chemical_formula_structural   BaGe3
_chemical_formula_sum   'Ba4 Ge12'
_cell_volume   401.50519438
_cell_formula_units_Z   4
loop_
 _symmetry_equiv_pos_site_id
 _symmetry_equiv_pos_as_xyz
  1  'x, y, z'
loop_
 _atom_site_type_symbol
 _atom_site_label
 _atom_site_symmetry_multiplicity
 _atom_site_fract_x
 _atom_site_fract_y
 _atom_site_fract_z
 _atom_site_occupancy
  Ba  Ba0  1  0.82728891  0.82728891  1.00000000  1.0
  Ba  Ba1  1  0.17271109  0.17271109  0.00000000  1.0
  Ba  Ba2  1  0.25000000  0.75000000  0.50000000  1.0
  Ba  Ba3  1  0.75000000  0.25000000  0.50000000  1.0
  Ge  Ge4  1  0.57993243  0.57993243  0.35890810  1.0
  Ge  Ge5  1  0.77897567  0.77897567  1.35890810  1.0
  Ge  Ge6  1  1.22102433  0.57993243  1.00000000  1.0
  Ge  Ge7  1  0.42006757  0.77897567  1.00000000  1.0
  Ge  Ge8  1  0.57993243  1.22102433  1.00000000  1.0
  Ge  Ge9  1  0.77897567  0.42006757  1.00000000  1.0
  Ge  Ge10  1  1.22102433  1.22102433  1.64109190  1.0
  Ge  Ge11  1  0.42006757  0.42006757  0.64109190  1.0
  Ge  Ge12  1  -0.00000000  0.65986081  0.65986081  1.0
  Ge  Ge13  1  0.65986081  0.00000000  0.65986081  1.0
  Ge  Ge14  1  0.34013919  0.00000000  0.34013919  1.0
  Ge  Ge15  1  -0.00000000  0.34013919  0.34013919  1.0
