# generated using pymatgen
data_LuPO2
_symmetry_space_group_name_H-M   'P 1'
_cell_length_a   7.15995124
_cell_length_b   7.15995124
_cell_length_c   7.15995124
_cell_angle_alpha   127.86003185
_cell_angle_beta   127.86003185
_cell_angle_gamma   76.85188083
_symmetry_Int_Tables_number   1
_chemical_formula_structural   LuPO2
_chemical_formula_sum   'Lu4 P4 O8'
_cell_volume   222.14487511
_cell_formula_units_Z   4
loop_
 _symmetry_equiv_pos_site_id
 _symmetry_equiv_pos_as_xyz
  1  'x, y, z'
loop_
 _atom_site_type_symbol
 _atom_site_label
 _atom_site_symmetry_multiplicity
 _atom_site_fract_x
 _atom_site_fract_y
 _atom_site_fract_z
 _atom_site_occupancy
  Lu  Lu0  1  0.37500000  0.62500000  0.75000000  1.0
  Lu  Lu1  1  0.87500000  0.62500000  1.25000000  1.0
  Lu  Lu2  1  0.37500000  1.12500000  0.75000000  1.0
  Lu  Lu3  1  0.37500000  0.62500000  0.25000000  1.0
  P  P4  1  0.87500000  0.12500000  0.75000000  1.0
  P  P5  1  0.37500000  0.12500000  0.25000000  1.0
  P  P6  1  0.87500000  0.62500000  0.75000000  1.0
  P  P7  1  0.87500000  1.12500000  1.25000000  1.0
  O  O8  1  1.16987621  0.91739399  1.74752201  1.0
  O  O9  1  0.58012802  0.82764581  1.24752201  1.0
  O  O10  1  1.08260601  0.83012802  1.25248222  1.0
  O  O11  1  1.17235419  1.41987621  1.75248222  1.0
  O  O12  1  0.16987198  0.42235419  0.25247799  1.0
  O  O13  1  0.58012379  0.33260601  0.75247799  1.0
  O  O14  1  0.57764581  0.83012379  0.74751778  1.0
  O  O15  1  0.66739399  0.41987198  0.24751778  1.0
