# generated using pymatgen
data_Li(Mo4O5)2
_symmetry_space_group_name_H-M   'P 1'
_cell_length_a   13.14025618
_cell_length_b   13.14025618
_cell_length_c   13.14025618
_cell_angle_alpha   154.11696257
_cell_angle_beta   154.11696257
_cell_angle_gamma   36.92962407
_symmetry_Int_Tables_number   1
_chemical_formula_structural   Li(Mo4O5)2
_chemical_formula_sum   'Li2 Mo16 O20'
_cell_volume   431.76178918
_cell_formula_units_Z   2
loop_
 _symmetry_equiv_pos_site_id
 _symmetry_equiv_pos_as_xyz
  1  'x, y, z'
loop_
 _atom_site_type_symbol
 _atom_site_label
 _atom_site_symmetry_multiplicity
 _atom_site_fract_x
 _atom_site_fract_y
 _atom_site_fract_z
 _atom_site_occupancy
  Li  Li0  1  -0.00923981  -0.00923981  0.00000000  1.0
  Li  Li1  1  0.74076019  0.24076019  0.50000000  1.0
  Mo  Mo2  1  1.13143642  0.37233740  0.75909902  1.0
  Mo  Mo3  1  0.61323838  0.37233740  0.24090098  1.0
  Mo  Mo4  1  0.12233740  0.38143642  0.25909902  1.0
  Mo  Mo5  1  0.12233740  0.86323838  0.74090098  1.0
  Mo  Mo6  1  0.42828198  0.69659303  0.73168895  1.0
  Mo  Mo7  1  0.96490408  0.69659303  1.26831105  1.0
  Mo  Mo8  1  0.44659303  0.67828198  0.23168895  1.0
  Mo  Mo9  1  0.44659303  1.21490408  0.76831105  1.0
  Mo  Mo10  1  0.58926364  0.86898355  0.72028009  1.0
  Mo  Mo11  1  1.14870346  0.86898355  1.27971991  1.0
  Mo  Mo12  1  0.61898355  0.83926364  1.22028009  1.0
  Mo  Mo13  1  0.61898355  0.39870346  0.77971991  1.0
  Mo  Mo14  1  0.26720993  0.54504836  0.72216157  1.0
  Mo  Mo15  1  0.82288679  0.54504836  1.27783843  1.0
  Mo  Mo16  1  0.29504836  0.51720993  0.22216157  1.0
  Mo  Mo17  1  0.29504836  1.07288679  0.77783843  1.0
  O  O18  1  1.19233189  0.45639936  0.73593253  1.0
  O  O19  1  0.72046683  0.45639936  0.26406747  1.0
  O  O20  1  0.20639936  0.44233189  0.23593253  1.0
  O  O21  1  0.20639936  0.97046683  0.76406747  1.0
  O  O22  1  0.86479298  0.12118831  0.74360467  1.0
  O  O23  1  0.37758364  0.12118831  0.25639533  1.0
  O  O24  1  0.87118831  1.11479298  1.24360467  1.0
  O  O25  1  0.87118831  0.62758364  0.75639533  1.0
  O  O26  1  0.67692847  0.94999755  0.72693093  1.0
  O  O27  1  1.22306662  0.94999755  1.27306907  1.0
  O  O28  1  0.69999755  0.92692847  1.22693093  1.0
  O  O29  1  0.69999755  0.47306662  0.77306907  1.0
  O  O30  1  0.50872153  0.78468762  0.72403391  1.0
  O  O31  1  1.06065371  0.78468762  1.27596609  1.0
  O  O32  1  0.53468762  0.75872153  1.22403391  1.0
  O  O33  1  0.53468762  0.31065371  0.77596609  1.0
  O  O34  1  1.02765564  0.29118473  0.73647090  1.0
  O  O35  1  0.55471383  0.29118473  0.26352910  1.0
  O  O36  1  0.04118473  0.27765564  0.23647090  1.0
  O  O37  1  0.04118473  0.80471383  0.76352910  1.0
