# generated using pymatgen
data_Rb4Zr3Se14
_symmetry_space_group_name_H-M   'P 1'
_cell_length_a   12.27762907
_cell_length_b   12.27762907
_cell_length_c   14.65911549
_cell_angle_alpha   69.90084312
_cell_angle_beta   110.09915688
_cell_angle_gamma   138.08592938
_symmetry_Int_Tables_number   1
_chemical_formula_structural   Rb4Zr3Se14
_chemical_formula_sum   'Rb8 Zr6 Se28'
_cell_volume   1372.54590153
_cell_formula_units_Z   2
loop_
 _symmetry_equiv_pos_site_id
 _symmetry_equiv_pos_as_xyz
  1  'x, y, z'
loop_
 _atom_site_type_symbol
 _atom_site_label
 _atom_site_symmetry_multiplicity
 _atom_site_fract_x
 _atom_site_fract_y
 _atom_site_fract_z
 _atom_site_occupancy
  Rb  Rb0  1  0.62455874  0.01558029  0.39866947  1.0
  Rb  Rb1  1  0.98441971  0.37544126  0.89866947  1.0
  Rb  Rb2  1  1.01558029  0.62455874  0.10133053  1.0
  Rb  Rb3  1  0.37544126  -0.01558029  0.60133053  1.0
  Rb  Rb4  1  0.32000739  0.17948071  0.14812637  1.0
  Rb  Rb5  1  0.82051929  0.67999261  0.64812637  1.0
  Rb  Rb6  1  1.17948071  0.32000739  0.35187363  1.0
  Rb  Rb7  1  0.67999261  -0.17948071  0.85187363  1.0
  Zr  Zr8  1  0.58923725  -0.07481207  0.08691684  1.0
  Zr  Zr9  1  1.07481207  0.41076275  0.58691684  1.0
  Zr  Zr10  1  0.92518793  0.58923725  0.41308316  1.0
  Zr  Zr11  1  0.41076275  0.07481207  0.91308316  1.0
  Zr  Zr12  1  0.76194700  0.76194700  0.25000000  1.0
  Zr  Zr13  1  0.23805300  0.23805300  0.75000000  1.0
  Se  Se14  1  0.80046412  -0.12726119  0.40188434  1.0
  Se  Se15  1  1.12726119  0.19953588  0.90188434  1.0
  Se  Se16  1  0.87273881  0.80046412  0.09811566  1.0
  Se  Se17  1  0.19953588  0.12726119  0.59811566  1.0
  Se  Se18  1  0.53296108  -0.33802518  0.07995720  1.0
  Se  Se19  1  1.33802518  0.46703892  0.57995720  1.0
  Se  Se20  1  0.66197482  0.53296108  0.42004280  1.0
  Se  Se21  1  0.46703892  0.33802518  0.92004280  1.0
  Se  Se22  1  0.90917261  0.07362096  0.13492275  1.0
  Se  Se23  1  0.92637904  0.09082739  0.63492275  1.0
  Se  Se24  1  1.07362096  0.90917261  0.36507725  1.0
  Se  Se25  1  0.09082739  -0.07362096  0.86507725  1.0
  Se  Se26  1  0.54360686  -0.25684019  0.28282670  1.0
  Se  Se27  1  1.25684019  0.45639314  0.78282670  1.0
  Se  Se28  1  0.74315981  0.54360686  0.21717330  1.0
  Se  Se29  1  0.45639314  0.25684019  0.71717330  1.0
  Se  Se30  1  0.42921250  -0.00717099  0.10149999  1.0
  Se  Se31  1  1.00717099  0.57078750  0.60149999  1.0
  Se  Se32  1  0.99282901  0.42921250  0.39850001  1.0
  Se  Se33  1  0.57078750  0.00717099  0.89850001  1.0
  Se  Se34  1  0.19723178  -0.15465904  0.32866717  1.0
  Se  Se35  1  1.15465904  0.80276822  0.82866717  1.0
  Se  Se36  1  0.84534096  0.19723178  0.17133283  1.0
  Se  Se37  1  0.80276822  0.15465904  0.67133283  1.0
  Se  Se38  1  0.59687513  0.30458351  0.38943810  1.0
  Se  Se39  1  0.69541649  0.40312487  0.88943810  1.0
  Se  Se40  1  1.30458351  0.59687513  0.11056190  1.0
  Se  Se41  1  0.40312487  -0.30458351  0.61056190  1.0
