# generated using pymatgen
data_Ba2EuCl7
_symmetry_space_group_name_H-M   'P 1'
_cell_length_a   7.03077885
_cell_length_b   15.73262947
_cell_length_c   10.71945607
_cell_angle_alpha   90.00000000
_cell_angle_beta   90.93600494
_cell_angle_gamma   90.00000000
_symmetry_Int_Tables_number   1
_chemical_formula_structural   Ba2EuCl7
_chemical_formula_sum   'Ba8 Eu4 Cl28'
_cell_volume   1185.54910462
_cell_formula_units_Z   4
loop_
 _symmetry_equiv_pos_site_id
 _symmetry_equiv_pos_as_xyz
  1  'x, y, z'
loop_
 _atom_site_type_symbol
 _atom_site_label
 _atom_site_symmetry_multiplicity
 _atom_site_fract_x
 _atom_site_fract_y
 _atom_site_fract_z
 _atom_site_occupancy
  Ba  Ba0  1  0.77190320  0.43944432  0.17401224  1.0
  Ba  Ba1  1  0.77190320  0.06055568  0.67401224  1.0
  Ba  Ba2  1  0.22809680  0.93944432  0.32598776  1.0
  Ba  Ba3  1  0.22809680  0.56055568  0.82598776  1.0
  Ba  Ba4  1  0.22651835  0.27796130  0.45030466  1.0
  Ba  Ba5  1  0.22651835  0.22203870  0.95030466  1.0
  Ba  Ba6  1  0.77348165  0.77796130  0.04969534  1.0
  Ba  Ba7  1  0.77348165  0.72203870  0.54969534  1.0
  Eu  Eu8  1  0.71290355  0.12691411  0.21611940  1.0
  Eu  Eu9  1  0.71290355  0.37308589  0.71611940  1.0
  Eu  Eu10  1  0.28709645  0.62691411  0.28388060  1.0
  Eu  Eu11  1  0.28709645  0.87308589  0.78388060  1.0
  Cl  Cl12  1  0.99087223  0.25940038  0.19654580  1.0
  Cl  Cl13  1  0.99087223  0.24059962  0.69654580  1.0
  Cl  Cl14  1  0.00912777  0.75940038  0.30345420  1.0
  Cl  Cl15  1  0.00912777  0.74059962  0.80345420  1.0
  Cl  Cl16  1  0.98877129  0.10420968  0.41741763  1.0
  Cl  Cl17  1  0.98877129  0.39579032  0.91741763  1.0
  Cl  Cl18  1  0.01122871  0.60420968  0.08258237  1.0
  Cl  Cl19  1  0.01122871  0.89579032  0.58258237  1.0
  Cl  Cl20  1  0.80596921  0.95776610  0.20907538  1.0
  Cl  Cl21  1  0.80596921  0.54223390  0.70907538  1.0
  Cl  Cl22  1  0.19403079  0.45776610  0.29092462  1.0
  Cl  Cl23  1  0.19403079  0.04223390  0.79092462  1.0
  Cl  Cl24  1  0.79849203  0.35972065  0.46776398  1.0
  Cl  Cl25  1  0.79849203  0.14027935  0.96776398  1.0
  Cl  Cl26  1  0.20150797  0.85972065  0.03223602  1.0
  Cl  Cl27  1  0.20150797  0.64027935  0.53223602  1.0
  Cl  Cl28  1  0.49795706  0.27645002  0.20771116  1.0
  Cl  Cl29  1  0.49795706  0.22354998  0.70771116  1.0
  Cl  Cl30  1  0.50204294  0.77645002  0.29228884  1.0
  Cl  Cl31  1  0.50204294  0.72354998  0.79228884  1.0
  Cl  Cl32  1  0.49793259  0.10384742  0.43117686  1.0
  Cl  Cl33  1  0.49793259  0.39615258  0.93117686  1.0
  Cl  Cl34  1  0.50206741  0.60384742  0.06882314  1.0
  Cl  Cl35  1  0.50206741  0.89615258  0.56882314  1.0
  Cl  Cl36  1  0.36278478  0.07103333  0.12336741  1.0
  Cl  Cl37  1  0.36278478  0.42896667  0.62336741  1.0
  Cl  Cl38  1  0.63721522  0.57103333  0.37663259  1.0
  Cl  Cl39  1  0.63721522  0.92896667  0.87663259  1.0
