# generated using pymatgen
data_K2Cd3Te4
_symmetry_space_group_name_H-M   'P 1'
_cell_length_a   15.30995413
_cell_length_b   11.60295687
_cell_length_c   7.44748123
_cell_angle_alpha   90.00000000
_cell_angle_beta   90.00000000
_cell_angle_gamma   90.00000000
_symmetry_Int_Tables_number   1
_chemical_formula_structural   K2Cd3Te4
_chemical_formula_sum   'K8 Cd12 Te16'
_cell_volume   1322.97605804
_cell_formula_units_Z   4
loop_
 _symmetry_equiv_pos_site_id
 _symmetry_equiv_pos_as_xyz
  1  'x, y, z'
loop_
 _atom_site_type_symbol
 _atom_site_label
 _atom_site_symmetry_multiplicity
 _atom_site_fract_x
 _atom_site_fract_y
 _atom_site_fract_z
 _atom_site_occupancy
  K  K0  1  0.96422549  0.25000000  0.52164283  1.0
  K  K1  1  0.46422549  0.25000000  0.97835717  1.0
  K  K2  1  0.03577451  0.75000000  0.47835717  1.0
  K  K3  1  0.53577451  0.75000000  0.02164283  1.0
  K  K4  1  0.00000000  0.50000000  0.00000000  1.0
  K  K5  1  0.00000000  0.00000000  -0.00000000  1.0
  K  K6  1  0.50000000  0.50000000  0.50000000  1.0
  K  K7  1  0.50000000  0.00000000  0.50000000  1.0
  Cd  Cd8  1  0.74357791  0.90220593  0.33977344  1.0
  Cd  Cd9  1  0.74357791  0.59779407  0.33977344  1.0
  Cd  Cd10  1  0.24357791  0.90220593  0.16022656  1.0
  Cd  Cd11  1  0.24357791  0.59779407  0.16022656  1.0
  Cd  Cd12  1  0.25642209  0.40220593  0.66022656  1.0
  Cd  Cd13  1  0.25642209  0.09779407  0.66022656  1.0
  Cd  Cd14  1  0.75642209  0.40220593  0.83977344  1.0
  Cd  Cd15  1  0.75642209  0.09779407  0.83977344  1.0
  Cd  Cd16  1  0.70194385  0.25000000  0.26980726  1.0
  Cd  Cd17  1  0.20194385  0.25000000  0.23019274  1.0
  Cd  Cd18  1  0.29805615  0.75000000  0.73019274  1.0
  Cd  Cd19  1  0.79805615  0.75000000  0.76980726  1.0
  Te  Te20  1  0.63341771  0.46669481  0.11342491  1.0
  Te  Te21  1  0.63341771  0.03330519  0.11342491  1.0
  Te  Te22  1  0.13341771  0.46669481  0.38657509  1.0
  Te  Te23  1  0.13341771  0.03330519  0.38657509  1.0
  Te  Te24  1  0.36658229  0.96669481  0.88657509  1.0
  Te  Te25  1  0.36658229  0.53330519  0.88657509  1.0
  Te  Te26  1  0.86658229  0.96669481  0.61342491  1.0
  Te  Te27  1  0.86658229  0.53330519  0.61342491  1.0
  Te  Te28  1  0.86482183  0.25000000  0.07380743  1.0
  Te  Te29  1  0.36482183  0.25000000  0.42619257  1.0
  Te  Te30  1  0.13517817  0.75000000  0.92619257  1.0
  Te  Te31  1  0.63517817  0.75000000  0.57380743  1.0
  Te  Te32  1  0.64503265  0.25000000  0.63135791  1.0
  Te  Te33  1  0.14503265  0.25000000  0.86864209  1.0
  Te  Te34  1  0.35496735  0.75000000  0.36864209  1.0
  Te  Te35  1  0.85496735  0.75000000  0.13135791  1.0
