# generated using pymatgen
data_Hf9SiMo4
_symmetry_space_group_name_H-M   'P 1'
_cell_length_a   8.64119401
_cell_length_b   8.64119401
_cell_length_c   8.69270515
_cell_angle_alpha   90.00000000
_cell_angle_beta   90.00000000
_cell_angle_gamma   120.00000000
_symmetry_Int_Tables_number   1
_chemical_formula_structural   Hf9SiMo4
_chemical_formula_sum   'Hf18 Si2 Mo8'
_cell_volume   562.12524815
_cell_formula_units_Z   2
loop_
 _symmetry_equiv_pos_site_id
 _symmetry_equiv_pos_as_xyz
  1  'x, y, z'
loop_
 _atom_site_type_symbol
 _atom_site_label
 _atom_site_symmetry_multiplicity
 _atom_site_fract_x
 _atom_site_fract_y
 _atom_site_fract_z
 _atom_site_occupancy
  Hf  Hf0  1  0.19767557  0.80232443  0.45517372  1.0
  Hf  Hf1  1  0.19767557  0.80232443  0.04482628  1.0
  Hf  Hf2  1  0.19767557  0.39535114  0.45517372  1.0
  Hf  Hf3  1  0.19767557  0.39535114  0.04482628  1.0
  Hf  Hf4  1  0.80232443  0.19767557  0.95517372  1.0
  Hf  Hf5  1  0.80232443  0.19767557  0.54482628  1.0
  Hf  Hf6  1  0.80232443  0.60464886  0.95517372  1.0
  Hf  Hf7  1  0.80232443  0.60464886  0.54482628  1.0
  Hf  Hf8  1  0.60464886  0.80232443  0.45517372  1.0
  Hf  Hf9  1  0.60464886  0.80232443  0.04482628  1.0
  Hf  Hf10  1  0.39535114  0.19767557  0.95517372  1.0
  Hf  Hf11  1  0.39535114  0.19767557  0.54482628  1.0
  Hf  Hf12  1  0.53759814  0.46240186  0.25000000  1.0
  Hf  Hf13  1  0.53759814  0.07519629  0.25000000  1.0
  Hf  Hf14  1  0.46240186  0.53759814  0.75000000  1.0
  Hf  Hf15  1  0.46240186  0.92480371  0.75000000  1.0
  Hf  Hf16  1  0.92480371  0.46240186  0.25000000  1.0
  Hf  Hf17  1  0.07519629  0.53759814  0.75000000  1.0
  Si  Si18  1  0.33333333  0.66666667  0.25000000  1.0
  Si  Si19  1  0.66666667  0.33333333  0.75000000  1.0
  Mo  Mo20  1  0.89018714  0.10981286  0.25000000  1.0
  Mo  Mo21  1  0.89018714  0.78037429  0.25000000  1.0
  Mo  Mo22  1  0.10981286  0.89018714  0.75000000  1.0
  Mo  Mo23  1  0.10981286  0.21962571  0.75000000  1.0
  Mo  Mo24  1  0.21962571  0.10981286  0.25000000  1.0
  Mo  Mo25  1  0.78037429  0.89018714  0.75000000  1.0
  Mo  Mo26  1  0.00000000  0.00000000  0.50000000  1.0
  Mo  Mo27  1  0.00000000  0.00000000  0.00000000  1.0
