# generated using pymatgen
data_LiAg3O2
_symmetry_space_group_name_H-M   'P 1'
_cell_length_a   6.51841127
_cell_length_b   6.51841127
_cell_length_c   6.51841127
_cell_angle_alpha   124.64152596
_cell_angle_beta   79.50292052
_cell_angle_gamma   127.86080294
_symmetry_Int_Tables_number   1
_chemical_formula_structural   LiAg3O2
_chemical_formula_sum   'Li2 Ag6 O4'
_cell_volume   173.87634409
_cell_formula_units_Z   2
loop_
 _symmetry_equiv_pos_site_id
 _symmetry_equiv_pos_as_xyz
  1  'x, y, z'
loop_
 _atom_site_type_symbol
 _atom_site_label
 _atom_site_symmetry_multiplicity
 _atom_site_fract_x
 _atom_site_fract_y
 _atom_site_fract_z
 _atom_site_occupancy
  Li  Li0  1  0.25000000  0.75000000  0.50000000  1.0
  Li  Li1  1  0.75000000  1.25000000  0.50000000  1.0
  Ag  Ag2  1  1.00000000  1.00000000  0.50000000  1.0
  Ag  Ag3  1  0.50000000  0.50000000  0.50000000  1.0
  Ag  Ag4  1  1.00000000  1.50000000  1.00000000  1.0
  Ag  Ag5  1  0.50000000  1.00000000  1.00000000  1.0
  Ag  Ag6  1  0.50000000  0.50000000  -0.00000000  1.0
  Ag  Ag7  1  0.00000000  0.00000000  0.00000000  1.0
  O  O8  1  0.40446033  0.18216629  0.58662662  1.0
  O  O9  1  0.09553967  0.68216629  0.77770596  1.0
  O  O10  1  0.90446033  1.31783371  1.22229404  1.0
  O  O11  1  0.59553967  0.81783371  0.41337338  1.0
