# generated using pymatgen
data_CaFeSeO
_symmetry_space_group_name_H-M   'P 1'
_cell_length_a   6.87394468
_cell_length_b   6.87394468
_cell_length_c   5.97478298
_cell_angle_alpha   90.00000000
_cell_angle_beta   90.00000000
_cell_angle_gamma   147.09681291
_symmetry_Int_Tables_number   1
_chemical_formula_structural   CaFeSeO
_chemical_formula_sum   'Ca2 Fe2 Se2 O2'
_cell_volume   153.35956680
_cell_formula_units_Z   2
loop_
 _symmetry_equiv_pos_site_id
 _symmetry_equiv_pos_as_xyz
  1  'x, y, z'
loop_
 _atom_site_type_symbol
 _atom_site_label
 _atom_site_symmetry_multiplicity
 _atom_site_fract_x
 _atom_site_fract_y
 _atom_site_fract_z
 _atom_site_occupancy
  Ca  Ca0  1  -0.66485519  0.66485519  0.49548875  1.0
  Ca  Ca1  1  -0.33514481  1.33514481  0.99548875  1.0
  Fe  Fe2  1  -0.95232121  0.95232121  0.36622394  1.0
  Fe  Fe3  1  -0.04767879  1.04767879  0.86622394  1.0
  Se  Se4  1  -0.34473458  1.34473458  0.49908087  1.0
  Se  Se5  1  -0.65526542  0.65526542  -0.00091913  1.0
  O  O6  1  -0.92668368  0.92668368  0.04390645  1.0
  O  O7  1  -0.07331632  1.07331632  0.54390645  1.0
