# generated using pymatgen
data_Rb(TeMo)3
_symmetry_space_group_name_H-M   'P 1'
_cell_length_a   10.13380142
_cell_length_b   10.13380142
_cell_length_c   4.61696568
_cell_angle_alpha   90.00000000
_cell_angle_beta   90.00000000
_cell_angle_gamma   120.00000000
_symmetry_Int_Tables_number   1
_chemical_formula_structural   Rb(TeMo)3
_chemical_formula_sum   'Rb2 Te6 Mo6'
_cell_volume   410.61239740
_cell_formula_units_Z   2
loop_
 _symmetry_equiv_pos_site_id
 _symmetry_equiv_pos_as_xyz
  1  'x, y, z'
loop_
 _atom_site_type_symbol
 _atom_site_label
 _atom_site_symmetry_multiplicity
 _atom_site_fract_x
 _atom_site_fract_y
 _atom_site_fract_z
 _atom_site_occupancy
  Rb  Rb0  1  0.33333333  0.66666667  0.25000000  1.0
  Rb  Rb1  1  0.66666667  0.33333333  0.75000000  1.0
  Te  Te2  1  0.70471028  0.65287663  0.25000000  1.0
  Te  Te3  1  0.65287663  0.94816635  0.75000000  1.0
  Te  Te4  1  0.94816635  0.29528972  0.25000000  1.0
  Te  Te5  1  0.34712337  0.05183365  0.25000000  1.0
  Te  Te6  1  0.29528972  0.34712337  0.75000000  1.0
  Te  Te7  1  0.05183365  0.70471028  0.75000000  1.0
  Mo  Mo8  1  0.02444119  0.86267665  0.25000000  1.0
  Mo  Mo9  1  0.86267665  0.83823546  0.75000000  1.0
  Mo  Mo10  1  0.83823546  0.97555881  0.25000000  1.0
  Mo  Mo11  1  0.13732335  0.16176454  0.25000000  1.0
  Mo  Mo12  1  0.97555881  0.13732335  0.75000000  1.0
  Mo  Mo13  1  0.16176454  0.02444119  0.75000000  1.0
