# generated using pymatgen
data_Y6Si7Ni16
_symmetry_space_group_name_H-M   'P 1'
_cell_length_a   8.33022332
_cell_length_b   8.33022332
_cell_length_c   8.33022332
_cell_angle_alpha   60.00000000
_cell_angle_beta   60.00000000
_cell_angle_gamma   60.00000000
_symmetry_Int_Tables_number   1
_chemical_formula_structural   Y6Si7Ni16
_chemical_formula_sum   'Y6 Si7 Ni16'
_cell_volume   408.74733604
_cell_formula_units_Z   1
loop_
 _symmetry_equiv_pos_site_id
 _symmetry_equiv_pos_as_xyz
  1  'x, y, z'
loop_
 _atom_site_type_symbol
 _atom_site_label
 _atom_site_symmetry_multiplicity
 _atom_site_fract_x
 _atom_site_fract_y
 _atom_site_fract_z
 _atom_site_occupancy
  Y  Y0  1  -0.71057374  0.71057374  0.71057374  1.0
  Y  Y1  1  -0.28942626  0.28942626  0.71057374  1.0
  Y  Y2  1  0.71057374  0.71057374  -0.71057374  1.0
  Y  Y3  1  0.28942626  1.28942626  -0.28942626  1.0
  Y  Y4  1  0.28942626  -0.28942626  1.28942626  1.0
  Y  Y5  1  -0.28942626  0.28942626  0.28942626  1.0
  Si  Si6  1  1.50000000  0.00000000  -0.00000000  1.0
  Si  Si7  1  1.00000000  0.50000000  -0.50000000  1.0
  Si  Si8  1  0.00000000  1.50000000  -0.00000000  1.0
  Si  Si9  1  0.50000000  1.00000000  -0.50000000  1.0
  Si  Si10  1  0.00000000  0.00000000  0.50000000  1.0
  Si  Si11  1  0.50000000  -0.50000000  1.00000000  1.0
  Si  Si12  1  0.00000000  -0.00000000  -0.00000000  1.0
  Ni  Ni13  1  0.87904872  0.87904872  -0.12095128  1.0
  Ni  Ni14  1  1.12095128  0.12095128  0.63714615  1.0
  Ni  Ni15  1  1.12095128  0.63714615  0.12095128  1.0
  Ni  Ni16  1  0.36285385  0.87904872  -0.12095128  1.0
  Ni  Ni17  1  1.63714615  0.12095128  0.12095128  1.0
  Ni  Ni18  1  0.87904872  0.36285385  -0.12095128  1.0
  Ni  Ni19  1  0.87904872  0.87904872  -0.63714615  1.0
  Ni  Ni20  1  1.12095128  0.12095128  0.12095128  1.0
  Ni  Ni21  1  0.67183259  0.67183259  -0.32816741  1.0
  Ni  Ni22  1  1.32816741  0.32816741  0.01549778  1.0
  Ni  Ni23  1  1.32816741  0.01549778  0.32816741  1.0
  Ni  Ni24  1  0.98450222  0.67183259  -0.32816741  1.0
  Ni  Ni25  1  1.01549778  0.32816741  0.32816741  1.0
  Ni  Ni26  1  0.67183259  0.98450222  -0.32816741  1.0
  Ni  Ni27  1  0.67183259  0.67183259  -0.01549778  1.0
  Ni  Ni28  1  1.32816741  0.32816741  0.32816741  1.0
