# generated using pymatgen
data_CaSiO3
_symmetry_space_group_name_H-M   'P 1'
_cell_length_a   9.40689778
_cell_length_b   6.73580766
_cell_length_c   6.78199333
_cell_angle_alpha   75.83991672
_cell_angle_beta   69.25055822
_cell_angle_gamma   83.69564662
_symmetry_Int_Tables_number   1
_chemical_formula_structural   CaSiO3
_chemical_formula_sum   'Ca6 Si6 O18'
_cell_volume   389.51821088
_cell_formula_units_Z   6
loop_
 _symmetry_equiv_pos_site_id
 _symmetry_equiv_pos_as_xyz
  1  'x, y, z'
loop_
 _atom_site_type_symbol
 _atom_site_label
 _atom_site_symmetry_multiplicity
 _atom_site_fract_x
 _atom_site_fract_y
 _atom_site_fract_z
 _atom_site_occupancy
  Ca  Ca0  1  0.33726359  0.07813811  0.91542027  1.0
  Ca  Ca1  1  0.66273641  0.92186189  0.08457973  1.0
  Ca  Ca2  1  0.65107487  0.58844419  0.73888221  1.0
  Ca  Ca3  1  0.34892513  0.41155581  0.26111779  1.0
  Ca  Ca4  1  1.00063213  0.76385970  0.24266394  1.0
  Ca  Ca5  1  -0.00063213  0.23614030  0.75733606  1.0
  Si  Si6  1  0.70066695  0.03837411  0.52438912  1.0
  Si  Si7  1  0.29933305  0.96162589  0.47561088  1.0
  Si  Si8  1  0.98420056  0.27031437  0.27196114  1.0
  Si  Si9  1  0.01579944  0.72968563  0.72803886  1.0
  Si  Si10  1  0.29467359  0.61332963  0.83442268  1.0
  Si  Si11  1  0.70532641  0.38667037  0.16557732  1.0
  O  O12  1  0.40147068  0.04764522  0.22619568  1.0
  O  O13  1  0.59852932  0.95235478  0.77380432  1.0
  O  O14  1  0.06129613  0.12890771  0.09813567  1.0
  O  O15  1  0.93870387  0.87109229  0.90186433  1.0
  O  O16  1  0.86378810  0.13446783  0.50485799  1.0
  O  O17  1  0.13621190  0.86553217  0.49514201  1.0
  O  O18  1  0.61359977  0.23760966  0.40639667  1.0
  O  O19  1  0.38640023  0.76239034  0.59360333  1.0
  O  O20  1  0.74237049  0.26305930  0.97465287  1.0
  O  O21  1  0.25762951  0.73694070  0.02534713  1.0
  O  O22  1  0.40639155  0.41906513  0.87774865  1.0
  O  O23  1  0.59360845  0.58093487  0.12225135  1.0
  O  O24  1  0.86378715  0.45055593  0.19015125  1.0
  O  O25  1  0.13621285  0.54944407  0.80984875  1.0
  O  O26  1  0.90690444  0.61141652  0.65999987  1.0
  O  O27  1  0.09309556  0.38858348  0.34000013  1.0
  O  O28  1  0.73775700  0.85578124  0.39248175  1.0
  O  O29  1  0.26224300  0.14421876  0.60751825  1.0
