# generated using pymatgen
data_Fe3W10C3
_symmetry_space_group_name_H-M   'P 1'
_cell_length_a   7.91084175
_cell_length_b   7.91084175
_cell_length_c   8.04687546
_cell_angle_alpha   90.00000000
_cell_angle_beta   90.00000000
_cell_angle_gamma   120.00000000
_symmetry_Int_Tables_number   1
_chemical_formula_structural   Fe3W10C3
_chemical_formula_sum   'Fe6 W20 C6'
_cell_volume   436.11729085
_cell_formula_units_Z   2
loop_
 _symmetry_equiv_pos_site_id
 _symmetry_equiv_pos_as_xyz
  1  'x, y, z'
loop_
 _atom_site_type_symbol
 _atom_site_label
 _atom_site_symmetry_multiplicity
 _atom_site_fract_x
 _atom_site_fract_y
 _atom_site_fract_z
 _atom_site_occupancy
  Fe  Fe0  1  0.45578276  0.54421724  0.25000000  1.0
  Fe  Fe1  1  0.45578276  0.91156552  0.25000000  1.0
  Fe  Fe2  1  0.08843448  0.54421724  0.25000000  1.0
  Fe  Fe3  1  0.54421724  0.45578276  0.75000000  1.0
  Fe  Fe4  1  0.54421724  0.08843448  0.75000000  1.0
  Fe  Fe5  1  0.91156552  0.45578276  0.75000000  1.0
  W  W6  1  0.11998245  0.88001755  0.25000000  1.0
  W  W7  1  0.11998245  0.23996490  0.25000000  1.0
  W  W8  1  0.76003510  0.88001755  0.25000000  1.0
  W  W9  1  0.88001755  0.11998245  0.75000000  1.0
  W  W10  1  0.88001755  0.76003510  0.75000000  1.0
  W  W11  1  0.23996490  0.11998245  0.75000000  1.0
  W  W12  1  0.20969936  0.79030064  0.93474290  1.0
  W  W13  1  0.20969936  0.41939872  0.93474290  1.0
  W  W14  1  0.58060128  0.79030064  0.93474290  1.0
  W  W15  1  0.79030064  0.20969936  0.06525710  1.0
  W  W16  1  0.79030064  0.58060128  0.06525710  1.0
  W  W17  1  0.41939872  0.20969936  0.06525710  1.0
  W  W18  1  0.79030064  0.20969936  0.43474290  1.0
  W  W19  1  0.79030064  0.58060128  0.43474290  1.0
  W  W20  1  0.41939872  0.20969936  0.43474290  1.0
  W  W21  1  0.20969936  0.79030064  0.56525710  1.0
  W  W22  1  0.20969936  0.41939872  0.56525710  1.0
  W  W23  1  0.58060128  0.79030064  0.56525710  1.0
  W  W24  1  0.00000000  -0.00000000  0.50000000  1.0
  W  W25  1  0.00000000  0.00000000  0.00000000  1.0
  C  C26  1  0.50000000  0.50000000  0.50000000  1.0
  C  C27  1  0.50000000  -0.00000000  0.50000000  1.0
  C  C28  1  -0.00000000  0.50000000  0.50000000  1.0
  C  C29  1  0.50000000  0.50000000  0.00000000  1.0
  C  C30  1  0.50000000  -0.00000000  0.00000000  1.0
  C  C31  1  -0.00000000  0.50000000  0.00000000  1.0
