# generated using pymatgen
data_Y(Ni2P)2
_symmetry_space_group_name_H-M   'P 1'
_cell_length_a   7.10611847
_cell_length_b   7.10611847
_cell_length_c   3.60826420
_cell_angle_alpha   90.00000000
_cell_angle_beta   90.00000000
_cell_angle_gamma   90.00000000
_symmetry_Int_Tables_number   1
_chemical_formula_structural   Y(Ni2P)2
_chemical_formula_sum   'Y2 Ni8 P4'
_cell_volume   182.20622794
_cell_formula_units_Z   2
loop_
 _symmetry_equiv_pos_site_id
 _symmetry_equiv_pos_as_xyz
  1  'x, y, z'
loop_
 _atom_site_type_symbol
 _atom_site_label
 _atom_site_symmetry_multiplicity
 _atom_site_fract_x
 _atom_site_fract_y
 _atom_site_fract_z
 _atom_site_occupancy
  Y  Y0  1  0.50000000  0.50000000  0.50000000  1.0
  Y  Y1  1  0.00000000  0.00000000  0.00000000  1.0
  Ni  Ni2  1  0.33674262  0.08467358  0.50000000  1.0
  Ni  Ni3  1  0.83674262  0.41532642  0.00000000  1.0
  Ni  Ni4  1  0.91532642  0.66325738  0.50000000  1.0
  Ni  Ni5  1  0.41532642  0.83674262  0.00000000  1.0
  Ni  Ni6  1  0.66325738  0.91532642  0.50000000  1.0
  Ni  Ni7  1  0.16325738  0.58467358  0.00000000  1.0
  Ni  Ni8  1  0.08467358  0.33674262  0.50000000  1.0
  Ni  Ni9  1  0.58467358  0.16325738  0.00000000  1.0
  P  P10  1  0.22042602  0.77957398  0.50000000  1.0
  P  P11  1  0.72042602  0.72042602  0.00000000  1.0
  P  P12  1  0.77957398  0.22042602  0.50000000  1.0
  P  P13  1  0.27957398  0.27957398  0.00000000  1.0
