# generated using pymatgen
data_Ti3W3C
_symmetry_space_group_name_H-M   'P 1'
_cell_length_a   8.27832063
_cell_length_b   8.27832063
_cell_length_c   8.27832063
_cell_angle_alpha   60.00000000
_cell_angle_beta   60.00000000
_cell_angle_gamma   60.00000000
_symmetry_Int_Tables_number   1
_chemical_formula_structural   Ti3W3C
_chemical_formula_sum   'Ti12 W12 C4'
_cell_volume   401.15455804
_cell_formula_units_Z   4
loop_
 _symmetry_equiv_pos_site_id
 _symmetry_equiv_pos_as_xyz
  1  'x, y, z'
loop_
 _atom_site_type_symbol
 _atom_site_label
 _atom_site_symmetry_multiplicity
 _atom_site_fract_x
 _atom_site_fract_y
 _atom_site_fract_z
 _atom_site_occupancy
  Ti  Ti0  1  0.62500000  1.12500000  0.12500000  1.0
  Ti  Ti1  1  0.12500000  1.62500000  0.12500000  1.0
  Ti  Ti2  1  0.12500000  0.12500000  1.62500000  1.0
  Ti  Ti3  1  0.12500000  0.12500000  0.12500000  1.0
  Ti  Ti4  1  -0.73721906  0.91240635  0.91240635  1.0
  Ti  Ti5  1  0.91240635  -0.73721906  0.91240635  1.0
  Ti  Ti6  1  0.91240635  0.91240635  -0.73721906  1.0
  Ti  Ti7  1  0.91240635  0.91240635  0.91240635  1.0
  Ti  Ti8  1  -0.01278094  1.33759365  0.33759365  1.0
  Ti  Ti9  1  0.33759365  0.98721906  0.33759365  1.0
  Ti  Ti10  1  0.33759365  1.33759365  -0.01278094  1.0
  Ti  Ti11  1  0.33759365  1.33759365  0.33759365  1.0
  W  W12  1  0.68836300  0.68836300  -0.68836300  1.0
  W  W13  1  0.31163700  1.31163700  -0.31163700  1.0
  W  W14  1  0.68836300  -0.68836300  0.68836300  1.0
  W  W15  1  0.31163700  -0.31163700  0.31163700  1.0
  W  W16  1  -0.68836300  0.68836300  0.68836300  1.0
  W  W17  1  -0.31163700  0.31163700  0.31163700  1.0
  W  W18  1  -0.43836300  0.56163700  0.93836300  1.0
  W  W19  1  0.93836300  0.93836300  -0.43836300  1.0
  W  W20  1  0.56163700  0.93836300  0.56163700  1.0
  W  W21  1  0.93836300  0.56163700  0.93836300  1.0
  W  W22  1  0.93836300  0.56163700  -0.43836300  1.0
  W  W23  1  0.56163700  0.93836300  -0.06163700  1.0
  C  C24  1  1.12500000  0.62500000  0.62500000  1.0
  C  C25  1  0.62500000  1.12500000  -0.37500000  1.0
  C  C26  1  -0.37500000  0.62500000  1.12500000  1.0
  C  C27  1  -0.37500000  0.62500000  0.62500000  1.0
