# generated using pymatgen
data_Ge3(BiO3)4
_symmetry_space_group_name_H-M   'P 1'
_cell_length_a   9.25993100
_cell_length_b   9.25993100
_cell_length_c   9.25993100
_cell_angle_alpha   109.47122063
_cell_angle_beta   109.47122063
_cell_angle_gamma   109.47122063
_symmetry_Int_Tables_number   1
_chemical_formula_structural   Ge3(BiO3)4
_chemical_formula_sum   'Ge6 Bi8 O24'
_cell_volume   611.22535433
_cell_formula_units_Z   2
loop_
 _symmetry_equiv_pos_site_id
 _symmetry_equiv_pos_as_xyz
  1  'x, y, z'
loop_
 _atom_site_type_symbol
 _atom_site_label
 _atom_site_symmetry_multiplicity
 _atom_site_fract_x
 _atom_site_fract_y
 _atom_site_fract_z
 _atom_site_occupancy
  Ge  Ge0  1  1.12500000  0.87500000  1.25000000  1.0
  Ge  Ge1  1  0.37500000  0.62500000  0.75000000  1.0
  Ge  Ge2  1  0.25000000  1.12500000  0.87500000  1.0
  Ge  Ge3  1  0.75000000  1.37500000  0.62500000  1.0
  Ge  Ge4  1  0.62500000  0.75000000  0.37500000  1.0
  Ge  Ge5  1  0.87500000  0.25000000  1.12500000  1.0
  Bi  Bi6  1  1.32342053  1.32342053  1.32342053  1.0
  Bi  Bi7  1  1.50000000  1.00000000  1.17657947  1.0
  Bi  Bi8  1  0.82342053  0.82342053  0.82342053  1.0
  Bi  Bi9  1  0.50000000  1.00000000  0.67657947  1.0
  Bi  Bi10  1  1.00000000  1.17657947  1.50000000  1.0
  Bi  Bi11  1  1.17657947  0.50000000  1.00000000  1.0
  Bi  Bi12  1  1.00000000  0.67657947  1.50000000  1.0
  Bi  Bi13  1  0.67657947  1.50000000  1.00000000  1.0
  O  O14  1  1.30414129  1.13965325  1.08431471  1.0
  O  O15  1  1.55533854  1.21982657  1.41568529  1.0
  O  O16  1  0.63965325  0.80414129  0.58431471  1.0
  O  O17  1  0.71982657  1.05533854  0.91568529  1.0
  O  O18  1  1.08431471  1.30414129  1.13965325  1.0
  O  O19  1  0.66448803  0.94466146  0.36034675  1.0
  O  O20  1  0.80414129  0.58431471  0.63965325  1.0
  O  O21  1  0.44466146  1.16448803  0.86034675  1.0
  O  O22  1  1.13965325  1.08431471  1.30414129  1.0
  O  O23  1  1.28017343  0.83551197  1.19585871  1.0
  O  O24  1  0.58431471  0.63965325  0.80414129  1.0
  O  O25  1  0.33551197  0.78017343  0.69585871  1.0
  O  O26  1  0.94466146  1.36034675  0.66448803  1.0
  O  O27  1  1.19585871  1.28017343  1.83551197  1.0
  O  O28  1  0.78017343  0.69585871  0.33551197  1.0
  O  O29  1  0.86034675  0.44466146  1.16448803  1.0
  O  O30  1  1.83551197  1.19585871  1.28017343  1.0
  O  O31  1  0.41568529  0.55533854  0.21982657  1.0
  O  O32  1  1.05533854  0.91568529  1.71982657  1.0
  O  O33  1  0.69585871  1.33551197  0.78017343  1.0
  O  O34  1  1.21982657  1.41568529  1.55533854  1.0
  O  O35  1  0.36034675  0.66448803  0.94466146  1.0
  O  O36  1  1.16448803  0.86034675  1.44466146  1.0
  O  O37  1  0.91568529  1.71982657  1.05533854  1.0
