# generated using pymatgen
data_LaAl5Ni2
_symmetry_space_group_name_H-M   'P 1'
_cell_length_a   6.33220227
_cell_length_b   6.33220227
_cell_length_c   6.33220227
_cell_angle_alpha   142.91249167
_cell_angle_beta   112.14693284
_cell_angle_gamma   79.93888636
_symmetry_Int_Tables_number   1
_chemical_formula_structural   LaAl5Ni2
_chemical_formula_sum   'La1 Al5 Ni2'
_cell_volume   138.15730364
_cell_formula_units_Z   1
loop_
 _symmetry_equiv_pos_site_id
 _symmetry_equiv_pos_as_xyz
  1  'x, y, z'
loop_
 _atom_site_type_symbol
 _atom_site_label
 _atom_site_symmetry_multiplicity
 _atom_site_fract_x
 _atom_site_fract_y
 _atom_site_fract_z
 _atom_site_occupancy
  La  La0  1  0.50000000  0.00000000  0.50000000  1.0
  Al  Al1  1  0.34893700  0.65948143  0.68945557  1.0
  Al  Al2  1  1.02997414  1.34051857  0.68945557  1.0
  Al  Al3  1  0.97002586  0.65948143  1.31054443  1.0
  Al  Al4  1  1.65106300  1.34051857  1.31054443  1.0
  Al  Al5  1  0.00000000  0.00000000  0.00000000  1.0
  Ni  Ni6  1  0.76354578  0.76354578  1.00000000  1.0
  Ni  Ni7  1  1.23645422  1.23645422  1.00000000  1.0
