# generated using pymatgen
data_CoSe2O5
_symmetry_space_group_name_H-M   'P 1'
_cell_length_a   6.97424086
_cell_length_b   10.38980244
_cell_length_c   6.13143184
_cell_angle_alpha   90.00000000
_cell_angle_beta   90.00000000
_cell_angle_gamma   90.00000000
_symmetry_Int_Tables_number   1
_chemical_formula_structural   CoSe2O5
_chemical_formula_sum   'Co4 Se8 O20'
_cell_volume   444.28958883
_cell_formula_units_Z   4
loop_
 _symmetry_equiv_pos_site_id
 _symmetry_equiv_pos_as_xyz
  1  'x, y, z'
loop_
 _atom_site_type_symbol
 _atom_site_label
 _atom_site_symmetry_multiplicity
 _atom_site_fract_x
 _atom_site_fract_y
 _atom_site_fract_z
 _atom_site_occupancy
  Co  Co0  1  0.50000000  0.06245320  0.75000000  1.0
  Co  Co1  1  0.50000000  0.93754680  0.25000000  1.0
  Co  Co2  1  -0.00000000  0.56245320  0.75000000  1.0
  Co  Co3  1  0.00000000  0.43754680  0.25000000  1.0
  Se  Se4  1  0.36258660  0.34660502  0.53594100  1.0
  Se  Se5  1  0.36258660  0.65339498  0.03594100  1.0
  Se  Se6  1  0.86258660  0.84660502  0.96405900  1.0
  Se  Se7  1  0.86258660  0.15339498  0.46405900  1.0
  Se  Se8  1  0.63741340  0.34660502  0.96405900  1.0
  Se  Se9  1  0.63741340  0.65339498  0.46405900  1.0
  Se  Se10  1  0.13741340  0.84660502  0.53594100  1.0
  Se  Se11  1  0.13741340  0.15339498  0.03594100  1.0
  O  O12  1  0.30609241  0.20824219  0.67050268  1.0
  O  O13  1  0.30609241  0.79175781  0.17050268  1.0
  O  O14  1  0.80609241  0.70824219  0.82949732  1.0
  O  O15  1  0.80609241  0.29175781  0.32949732  1.0
  O  O16  1  0.69390759  0.20824219  0.82949732  1.0
  O  O17  1  0.69390759  0.79175781  0.32949732  1.0
  O  O18  1  0.19390759  0.70824219  0.67050268  1.0
  O  O19  1  0.19390759  0.29175781  0.17050268  1.0
  O  O20  1  0.15197766  0.43297131  0.55573830  1.0
  O  O21  1  0.15197766  0.56702869  0.05573830  1.0
  O  O22  1  0.65197766  0.93297131  0.94426170  1.0
  O  O23  1  0.65197766  0.06702869  0.44426170  1.0
  O  O24  1  0.84802234  0.43297131  0.94426170  1.0
  O  O25  1  0.84802234  0.56702869  0.44426170  1.0
  O  O26  1  0.34802234  0.93297131  0.55573830  1.0
  O  O27  1  0.34802234  0.06702869  0.05573830  1.0
  O  O28  1  0.50000000  0.43591267  0.75000000  1.0
  O  O29  1  0.50000000  0.56408733  0.25000000  1.0
  O  O30  1  0.00000000  0.93591267  0.75000000  1.0
  O  O31  1  0.00000000  0.06408733  0.25000000  1.0
