# generated using pymatgen
data_CsHf2(AsO4)3
_symmetry_space_group_name_H-M   'P 1'
_cell_length_a   10.09808053
_cell_length_b   10.09808053
_cell_length_c   10.09808053
_cell_angle_alpha   53.12221300
_cell_angle_beta   53.12221300
_cell_angle_gamma   53.12221300
_symmetry_Int_Tables_number   1
_chemical_formula_structural   CsHf2(AsO4)3
_chemical_formula_sum   'Cs2 Hf4 As6 O24'
_cell_volume   610.78723734
_cell_formula_units_Z   2
loop_
 _symmetry_equiv_pos_site_id
 _symmetry_equiv_pos_as_xyz
  1  'x, y, z'
loop_
 _atom_site_type_symbol
 _atom_site_label
 _atom_site_symmetry_multiplicity
 _atom_site_fract_x
 _atom_site_fract_y
 _atom_site_fract_z
 _atom_site_occupancy
  Cs  Cs0  1  1.00000000  -0.00000000  0.00000000  1.0
  Cs  Cs1  1  0.50000000  0.50000000  0.50000000  1.0
  Hf  Hf2  1  0.84908253  -0.15091747  -0.15091747  1.0
  Hf  Hf3  1  0.34908253  0.34908253  0.34908253  1.0
  Hf  Hf4  1  0.65091747  0.65091747  -0.34908253  1.0
  Hf  Hf5  1  1.15091747  0.15091747  0.15091747  1.0
  As  As6  1  0.47364386  0.75000000  0.02635614  1.0
  As  As7  1  0.97364386  -0.47364386  0.25000000  1.0
  As  As8  1  0.25000000  0.97364386  -0.47364386  1.0
  As  As9  1  0.75000000  1.02635614  -0.52635614  1.0
  As  As10  1  0.52635614  0.25000000  -0.02635614  1.0
  As  As11  1  1.02635614  0.47364386  -0.25000000  1.0
  O  O12  1  0.72844175  1.01447292  -0.33699524  1.0
  O  O13  1  1.22844175  0.16300476  -0.48552708  1.0
  O  O14  1  0.83699524  0.48552708  -0.22844175  1.0
  O  O15  1  0.33699524  0.27155825  -0.01447292  1.0
  O  O16  1  0.98552708  0.33699524  -0.72844175  1.0
  O  O17  1  0.48552708  0.77155825  -0.16300476  1.0
  O  O18  1  0.27155825  0.98552708  -0.66300476  1.0
  O  O19  1  0.77155825  0.83699524  -0.51447292  1.0
  O  O20  1  0.66300476  0.72844175  0.01447292  1.0
  O  O21  1  1.16300476  -0.48552708  0.22844175  1.0
  O  O22  1  0.51447292  0.22844175  0.16300476  1.0
  O  O23  1  1.01447292  0.66300476  -0.27155825  1.0
  O  O24  1  0.70070087  0.06170661  -0.07074162  1.0
  O  O25  1  1.20070087  0.42925838  -0.43829339  1.0
  O  O26  1  0.57074162  0.43829339  -0.20070087  1.0
  O  O27  1  1.07074162  0.29929913  -0.06170661  1.0
  O  O28  1  0.93829339  0.07074162  0.29929913  1.0
  O  O29  1  0.43829339  0.79929913  -0.42925838  1.0
  O  O30  1  1.29929913  -0.06170661  0.07074162  1.0
  O  O31  1  0.79929913  0.57074162  -0.56170661  1.0
  O  O32  1  0.92925838  -0.29929913  0.06170661  1.0
  O  O33  1  0.42925838  0.56170661  0.20070087  1.0
  O  O34  1  0.56170661  1.20070087  -0.57074162  1.0
  O  O35  1  1.06170661  -0.07074162  -0.29929913  1.0
