# generated using pymatgen
data_CsAs3O8
_symmetry_space_group_name_H-M   'P 1'
_cell_length_a   7.44589942
_cell_length_b   7.44589942
_cell_length_c   7.82627105
_cell_angle_alpha   76.90948077
_cell_angle_beta   103.09051923
_cell_angle_gamma   72.44416321
_symmetry_Int_Tables_number   1
_chemical_formula_structural   CsAs3O8
_chemical_formula_sum   'Cs2 As6 O16'
_cell_volume   382.09637334
_cell_formula_units_Z   2
loop_
 _symmetry_equiv_pos_site_id
 _symmetry_equiv_pos_as_xyz
  1  'x, y, z'
loop_
 _atom_site_type_symbol
 _atom_site_label
 _atom_site_symmetry_multiplicity
 _atom_site_fract_x
 _atom_site_fract_y
 _atom_site_fract_z
 _atom_site_occupancy
  Cs  Cs0  1  0.91943620  -0.08056380  0.25000000  1.0
  Cs  Cs1  1  1.08056380  0.08056380  0.75000000  1.0
  As  As2  1  1.44816488  0.20469243  0.42730138  1.0
  As  As3  1  0.79530757  -0.44816488  0.92730138  1.0
  As  As4  1  1.20469243  0.44816488  0.07269862  1.0
  As  As5  1  0.55183512  -0.20469243  0.57269862  1.0
  As  As6  1  0.56831132  -0.43168868  0.25000000  1.0
  As  As7  1  1.43168868  0.43168868  0.75000000  1.0
  O  O8  1  0.54739015  -0.22712870  0.32876117  1.0
  O  O9  1  1.22712870  0.45260985  0.82876117  1.0
  O  O10  1  0.77287130  -0.45260985  0.17123883  1.0
  O  O11  1  1.45260985  0.22712870  0.67123883  1.0
  O  O12  1  1.32304900  0.02204778  0.47206722  1.0
  O  O13  1  0.97795222  -0.32304900  0.97206722  1.0
  O  O14  1  1.02204778  0.32304900  0.02793278  1.0
  O  O15  1  0.67695100  -0.02204778  0.52793278  1.0
  O  O16  1  1.63198387  0.34788393  0.42856007  1.0
  O  O17  1  0.65211607  -0.63198387  0.92856007  1.0
  O  O18  1  1.34788393  0.63198387  0.07143993  1.0
  O  O19  1  0.36801613  -0.34788393  0.57143993  1.0
  O  O20  1  1.42793505  0.21941831  0.17965647  1.0
  O  O21  1  0.78058169  -0.42793505  0.67965647  1.0
  O  O22  1  1.21941831  0.42793505  0.32034353  1.0
  O  O23  1  0.57206495  -0.21941831  0.82034353  1.0
