# generated using pymatgen
data_OsPbO3
_symmetry_space_group_name_H-M   'P 1'
_cell_length_a   7.35832444
_cell_length_b   7.35832444
_cell_length_c   7.35832444
_cell_angle_alpha   60.00000000
_cell_angle_beta   60.00000000
_cell_angle_gamma   60.00000000
_symmetry_Int_Tables_number   1
_chemical_formula_structural   OsPbO3
_chemical_formula_sum   'Os4 Pb4 O12'
_cell_volume   281.72267338
_cell_formula_units_Z   4
loop_
 _symmetry_equiv_pos_site_id
 _symmetry_equiv_pos_as_xyz
  1  'x, y, z'
loop_
 _atom_site_type_symbol
 _atom_site_label
 _atom_site_symmetry_multiplicity
 _atom_site_fract_x
 _atom_site_fract_y
 _atom_site_fract_z
 _atom_site_occupancy
  Os  Os0  1  1.12500000  0.62500000  0.62500000  1.0
  Os  Os1  1  0.62500000  1.12500000  -0.37500000  1.0
  Os  Os2  1  -0.37500000  0.62500000  1.12500000  1.0
  Os  Os3  1  -0.37500000  0.62500000  0.62500000  1.0
  Pb  Pb4  1  0.62500000  1.12500000  0.12500000  1.0
  Pb  Pb5  1  0.12500000  1.62500000  0.12500000  1.0
  Pb  Pb6  1  0.12500000  0.12500000  1.62500000  1.0
  Pb  Pb7  1  0.12500000  0.12500000  0.12500000  1.0
  O  O8  1  0.69284064  0.69284064  -0.69284064  1.0
  O  O9  1  0.30715936  1.30715936  -0.30715936  1.0
  O  O10  1  0.69284064  -0.69284064  0.69284064  1.0
  O  O11  1  0.30715936  -0.30715936  0.30715936  1.0
  O  O12  1  -0.69284064  0.69284064  0.69284064  1.0
  O  O13  1  -0.30715936  0.30715936  0.30715936  1.0
  O  O14  1  -0.44284064  0.55715936  0.94284064  1.0
  O  O15  1  0.94284064  0.94284064  -0.44284064  1.0
  O  O16  1  0.55715936  0.94284064  0.55715936  1.0
  O  O17  1  0.94284064  0.55715936  0.94284064  1.0
  O  O18  1  0.94284064  0.55715936  -0.44284064  1.0
  O  O19  1  0.55715936  0.94284064  -0.05715936  1.0
