# generated using pymatgen
data_Cs2LiScBr6
_symmetry_space_group_name_H-M   'P 1'
_cell_length_a   7.81287671
_cell_length_b   7.81287671
_cell_length_c   6.60945340
_cell_angle_alpha   90.00000000
_cell_angle_beta   90.00000000
_cell_angle_gamma   120.00000000
_symmetry_Int_Tables_number   1
_chemical_formula_structural   Cs2LiScBr6
_chemical_formula_sum   'Cs2 Li1 Sc1 Br6'
_cell_volume   349.39615321
_cell_formula_units_Z   1
loop_
 _symmetry_equiv_pos_site_id
 _symmetry_equiv_pos_as_xyz
  1  'x, y, z'
loop_
 _atom_site_type_symbol
 _atom_site_label
 _atom_site_symmetry_multiplicity
 _atom_site_fract_x
 _atom_site_fract_y
 _atom_site_fract_z
 _atom_site_occupancy
  Cs  Cs0  1  0.33333333  0.66666667  0.25958219  1.0
  Cs  Cs1  1  0.66666667  0.33333333  0.74041781  1.0
  Li  Li2  1  0.00000000  0.00000000  0.00000000  1.0
  Sc  Sc3  1  0.00000000  0.00000000  0.50000000  1.0
  Br  Br4  1  0.31695650  0.15847825  0.25995033  1.0
  Br  Br5  1  0.15847825  0.31695650  0.74004967  1.0
  Br  Br6  1  0.15847825  0.84152175  0.74004967  1.0
  Br  Br7  1  0.84152175  0.15847825  0.25995033  1.0
  Br  Br8  1  0.84152175  0.68304350  0.25995033  1.0
  Br  Br9  1  0.68304350  0.84152175  0.74004967  1.0
