# generated using pymatgen
data_ZrSc2
_symmetry_space_group_name_H-M   'P 1'
_cell_length_a   6.14065464
_cell_length_b   6.14065464
_cell_length_c   7.63010974
_cell_angle_alpha   77.32545835
_cell_angle_beta   102.67454165
_cell_angle_gamma   149.04755168
_symmetry_Int_Tables_number   1
_chemical_formula_structural   ZrSc2
_chemical_formula_sum   'Zr2 Sc4'
_cell_volume   144.09255875
_cell_formula_units_Z   2
loop_
 _symmetry_equiv_pos_site_id
 _symmetry_equiv_pos_as_xyz
  1  'x, y, z'
loop_
 _atom_site_type_symbol
 _atom_site_label
 _atom_site_symmetry_multiplicity
 _atom_site_fract_x
 _atom_site_fract_y
 _atom_site_fract_z
 _atom_site_occupancy
  Zr  Zr0  1  0.47439365  -0.47439365  0.19234749  1.0
  Zr  Zr1  1  0.52560635  0.47439365  0.80765251  1.0
  Sc  Sc2  1  0.80856861  0.19143139  0.86265997  1.0
  Sc  Sc3  1  0.19143139  -0.19143139  0.13734003  1.0
  Sc  Sc4  1  0.86687090  0.13312910  0.47362752  1.0
  Sc  Sc5  1  0.13312910  -0.13312910  0.52637248  1.0
