# generated using pymatgen
data_Na2Si2Se5
_symmetry_space_group_name_H-M   'P 1'
_cell_length_a   9.54508644
_cell_length_b   9.54508644
_cell_length_c   11.09016448
_cell_angle_alpha   90.00000000
_cell_angle_beta   90.00000000
_cell_angle_gamma   90.40154655
_symmetry_Int_Tables_number   1
_chemical_formula_structural   Na2Si2Se5
_chemical_formula_sum   'Na8 Si8 Se20'
_cell_volume   1010.38538045
_cell_formula_units_Z   4
loop_
 _symmetry_equiv_pos_site_id
 _symmetry_equiv_pos_as_xyz
  1  'x, y, z'
loop_
 _atom_site_type_symbol
 _atom_site_label
 _atom_site_symmetry_multiplicity
 _atom_site_fract_x
 _atom_site_fract_y
 _atom_site_fract_z
 _atom_site_occupancy
  Na  Na0  1  -0.08077528  1.42326109  0.25000000  1.0
  Na  Na1  1  0.42326109  0.91922472  0.75000000  1.0
  Na  Na2  1  -0.42326109  1.08077528  0.25000000  1.0
  Na  Na3  1  0.08077528  0.57673891  0.75000000  1.0
  Na  Na4  1  0.85110701  0.85110701  0.50000000  1.0
  Na  Na5  1  0.85110701  0.85110701  0.00000000  1.0
  Na  Na6  1  0.14889299  0.14889299  0.50000000  1.0
  Na  Na7  1  0.14889299  0.14889299  0.00000000  1.0
  Si  Si8  1  0.31167342  0.41679023  0.25000000  1.0
  Si  Si9  1  -0.58320977  1.31167342  0.75000000  1.0
  Si  Si10  1  0.58320977  0.68832658  0.25000000  1.0
  Si  Si11  1  -0.31167342  1.58320977  0.75000000  1.0
  Si  Si12  1  0.25318968  0.74681032  0.41595861  1.0
  Si  Si13  1  0.25318968  0.74681032  0.08404139  1.0
  Si  Si14  1  -0.25318968  1.25318968  0.91595861  1.0
  Si  Si15  1  -0.25318968  1.25318968  0.58404139  1.0
  Se  Se16  1  0.20547229  0.50809257  0.42096891  1.0
  Se  Se17  1  0.20547229  0.50809257  0.07903109  1.0
  Se  Se18  1  -0.49190743  1.20547229  0.92096891  1.0
  Se  Se19  1  -0.49190743  1.20547229  0.57903109  1.0
  Se  Se20  1  0.49190743  0.79452771  0.42096891  1.0
  Se  Se21  1  0.49190743  0.79452771  0.07903109  1.0
  Se  Se22  1  -0.20547229  1.49190743  0.92096891  1.0
  Se  Se23  1  -0.20547229  1.49190743  0.57903109  1.0
  Se  Se24  1  -0.18695806  1.72933202  0.25000000  1.0
  Se  Se25  1  0.72933202  0.81304194  0.75000000  1.0
  Se  Se26  1  -0.72933202  1.18695806  0.25000000  1.0
  Se  Se27  1  0.18695806  0.27066798  0.75000000  1.0
  Se  Se28  1  0.15839564  0.84160436  0.91915837  1.0
  Se  Se29  1  0.15839564  0.84160436  0.58084163  1.0
  Se  Se30  1  -0.15839564  1.15839564  0.41915837  1.0
  Se  Se31  1  -0.15839564  1.15839564  0.08084163  1.0
  Se  Se32  1  0.15038105  0.84961895  0.25000000  1.0
  Se  Se33  1  -0.15038105  1.15038105  0.75000000  1.0
  Se  Se34  1  -0.45010250  1.45010250  0.25000000  1.0
  Se  Se35  1  0.45010250  0.54989750  0.75000000  1.0
