# generated using pymatgen
data_Sr(CO2)3
_symmetry_space_group_name_H-M   'P 1'
_cell_length_a   8.18708646
_cell_length_b   9.33268879
_cell_length_c   7.53757758
_cell_angle_alpha   90.00000000
_cell_angle_beta   100.60044793
_cell_angle_gamma   90.00000000
_symmetry_Int_Tables_number   1
_chemical_formula_structural   Sr(CO2)3
_chemical_formula_sum   'Sr4 C12 O24'
_cell_volume   566.09885241
_cell_formula_units_Z   4
loop_
 _symmetry_equiv_pos_site_id
 _symmetry_equiv_pos_as_xyz
  1  'x, y, z'
loop_
 _atom_site_type_symbol
 _atom_site_label
 _atom_site_symmetry_multiplicity
 _atom_site_fract_x
 _atom_site_fract_y
 _atom_site_fract_z
 _atom_site_occupancy
  C  C0  1  0.51951076  0.40247135  0.33454122  1.0
  C  C1  1  0.48048924  0.90247135  0.16545878  1.0
  C  C2  1  0.48048924  0.59752865  0.66545878  1.0
  C  C3  1  0.51951076  0.09752865  0.83454122  1.0
  C  C4  1  0.72501148  0.29987650  0.46328967  1.0
  C  C5  1  0.27498852  0.79987650  0.03671033  1.0
  C  C6  1  0.27498852  0.70012350  0.53671033  1.0
  C  C7  1  0.72501148  0.20012350  0.96328967  1.0
  C  C8  1  0.99264194  0.50002966  0.10223504  1.0
  C  C9  1  0.00735806  0.00002966  0.39776496  1.0
  C  C10  1  0.00735806  0.49997034  0.89776496  1.0
  C  C11  1  0.99264194  0.99997034  0.60223504  1.0
  Sr  Sr12  1  0.83214377  0.67310185  0.45653623  1.0
  Sr  Sr13  1  0.16785623  0.17310185  0.04346377  1.0
  Sr  Sr14  1  0.16785623  0.32689815  0.54346377  1.0
  Sr  Sr15  1  0.83214377  0.82689815  0.95653623  1.0
  O  O16  1  0.84083199  0.38612991  0.48403291  1.0
  O  O17  1  0.15916801  0.88612991  0.01596709  1.0
  O  O18  1  0.15916801  0.61387009  0.51596709  1.0
  O  O19  1  0.84083199  0.11387009  0.98403291  1.0
  O  O20  1  0.91610531  0.60507407  0.15592077  1.0
  O  O21  1  0.08389469  0.10507407  0.34407923  1.0
  O  O22  1  0.08389469  0.39492593  0.84407923  1.0
  O  O23  1  0.91610531  0.89492593  0.65592077  1.0
  O  O24  1  0.68835795  0.17834393  0.49185965  1.0
  O  O25  1  0.31164205  0.67834393  0.00814035  1.0
  O  O26  1  0.31164205  0.82165607  0.50814035  1.0
  O  O27  1  0.68835795  0.32165607  0.99185965  1.0
  O  O28  1  0.56037751  0.52602799  0.31674228  1.0
  O  O29  1  0.43962249  0.02602799  0.18325772  1.0
  O  O30  1  0.43962249  0.47397201  0.68325772  1.0
  O  O31  1  0.56037751  0.97397201  0.81674228  1.0
  O  O32  1  0.05854724  0.39669416  0.19719822  1.0
  O  O33  1  0.94145276  0.89669416  0.30280178  1.0
  O  O34  1  0.94145276  0.60330584  0.80280178  1.0
  O  O35  1  0.05854724  0.10330584  0.69719822  1.0
  O  O36  1  0.39968942  0.32217331  0.30856754  1.0
  O  O37  1  0.60031058  0.82217331  0.19143246  1.0
  O  O38  1  0.60031058  0.67782669  0.69143246  1.0
  O  O39  1  0.39968942  0.17782669  0.80856754  1.0
