# generated using pymatgen
data_Mg9Sn5
_symmetry_space_group_name_H-M   'P 1'
_cell_length_a   8.87703521
_cell_length_b   8.87703521
_cell_length_c   8.87703521
_cell_angle_alpha   96.87878982
_cell_angle_beta   96.87878982
_cell_angle_gamma   96.87878982
_symmetry_Int_Tables_number   1
_chemical_formula_structural   Mg9Sn5
_chemical_formula_sum   'Mg18 Sn10'
_cell_volume   683.07905251
_cell_formula_units_Z   2
loop_
 _symmetry_equiv_pos_site_id
 _symmetry_equiv_pos_as_xyz
  1  'x, y, z'
loop_
 _atom_site_type_symbol
 _atom_site_label
 _atom_site_symmetry_multiplicity
 _atom_site_fract_x
 _atom_site_fract_y
 _atom_site_fract_z
 _atom_site_occupancy
  Mg  Mg0  1  0.44608109  1.14294572  -0.48467698  1.0
  Mg  Mg1  1  1.14294572  0.51532302  -0.55391891  1.0
  Mg  Mg2  1  0.51532302  0.44608109  0.14294572  1.0
  Mg  Mg3  1  1.11094646  -0.20695214  0.19399791  1.0
  Mg  Mg4  1  0.79304786  0.19399791  0.11094646  1.0
  Mg  Mg5  1  1.19399791  0.11094646  -0.20695214  1.0
  Mg  Mg6  1  1.46172075  -0.22693534  0.36945316  1.0
  Mg  Mg7  1  0.77306466  0.36945316  0.46172075  1.0
  Mg  Mg8  1  1.36945316  0.46172075  -0.22693534  1.0
  Mg  Mg9  1  1.03963061  0.12262730  -0.55960780  1.0
  Mg  Mg10  1  1.12262730  -0.55960780  0.03963061  1.0
  Mg  Mg11  1  0.44039220  0.03963061  0.12262730  1.0
  Mg  Mg12  1  0.86417608  0.77196782  0.46062485  1.0
  Mg  Mg13  1  0.77196782  1.46062485  -0.13582392  1.0
  Mg  Mg14  1  1.46062485  0.86417608  -0.22803218  1.0
  Mg  Mg15  1  0.78766025  1.09076506  -0.28154028  1.0
  Mg  Mg16  1  1.09076506  0.71845972  -0.21233975  1.0
  Mg  Mg17  1  0.71845972  0.78766025  0.09076506  1.0
  Sn  Sn18  1  1.20462256  -0.13316024  0.52847794  1.0
  Sn  Sn19  1  0.86683976  0.52847794  0.20462256  1.0
  Sn  Sn20  1  1.52847794  0.20462256  -0.13316024  1.0
  Sn  Sn21  1  0.70512431  0.02906267  0.36679404  1.0
  Sn  Sn22  1  1.02906267  0.36679404  -0.29487569  1.0
  Sn  Sn23  1  1.36679404  -0.29487569  0.02906267  1.0
  Sn  Sn24  1  -0.01521799  -0.01521799  -0.01521799  1.0
  Sn  Sn25  1  0.24902207  0.24902207  0.24902207  1.0
  Sn  Sn26  1  0.48495376  0.48495376  0.48495376  1.0
  Sn  Sn27  1  0.74873635  0.74873635  0.74873635  1.0
