# generated using pymatgen
data_CuSnO6
_symmetry_space_group_name_H-M   'P 1'
_cell_length_a   8.30932474
_cell_length_b   8.30932474
_cell_length_c   6.40574200
_cell_angle_alpha   90.00000000
_cell_angle_beta   90.00000000
_cell_angle_gamma   90.00000000
_symmetry_Int_Tables_number   1
_chemical_formula_structural   CuSnO6
_chemical_formula_sum   'Cu4 Sn4 O24'
_cell_volume   442.28367249
_cell_formula_units_Z   4
loop_
 _symmetry_equiv_pos_site_id
 _symmetry_equiv_pos_as_xyz
  1  'x, y, z'
loop_
 _atom_site_type_symbol
 _atom_site_label
 _atom_site_symmetry_multiplicity
 _atom_site_fract_x
 _atom_site_fract_y
 _atom_site_fract_z
 _atom_site_occupancy
  Cu  Cu0  1  0.25000000  0.75000000  0.75000000  1.0
  Cu  Cu1  1  0.75000000  0.75000000  0.25000000  1.0
  Cu  Cu2  1  0.25000000  0.25000000  0.25000000  1.0
  Cu  Cu3  1  0.75000000  0.25000000  0.75000000  1.0
  Sn  Sn4  1  0.75000000  0.25000000  0.25000000  1.0
  Sn  Sn5  1  0.25000000  0.25000000  0.75000000  1.0
  Sn  Sn6  1  0.75000000  0.75000000  0.75000000  1.0
  Sn  Sn7  1  0.25000000  0.75000000  0.25000000  1.0
  O  O8  1  0.49645025  0.75843788  0.89376416  1.0
  O  O9  1  0.99645025  0.74156212  0.39376416  1.0
  O  O10  1  0.00354975  0.25843788  0.39376416  1.0
  O  O11  1  0.50354975  0.24156212  0.89376416  1.0
  O  O12  1  0.00354975  0.74156212  0.60623584  1.0
  O  O13  1  0.50354975  0.75843788  0.10623584  1.0
  O  O14  1  0.49645025  0.24156212  0.10623584  1.0
  O  O15  1  0.99645025  0.25843788  0.60623584  1.0
  O  O16  1  0.75843788  0.49645025  0.89376416  1.0
  O  O17  1  0.74156212  0.99645025  0.39376416  1.0
  O  O18  1  0.25843788  0.00354975  0.39376416  1.0
  O  O19  1  0.24156212  0.50354975  0.89376416  1.0
  O  O20  1  0.74156212  0.00354975  0.60623584  1.0
  O  O21  1  0.75843788  0.50354975  0.10623584  1.0
  O  O22  1  0.24156212  0.49645025  0.10623584  1.0
  O  O23  1  0.25843788  0.99645025  0.60623584  1.0
  O  O24  1  0.33215773  0.66784227  0.51115139  1.0
  O  O25  1  0.83215773  0.83215773  1.01115139  1.0
  O  O26  1  0.16784227  0.16784227  1.01115139  1.0
  O  O27  1  0.66784227  0.33215773  0.51115139  1.0
  O  O28  1  0.16784227  0.83215773  -0.01115139  1.0
  O  O29  1  0.66784227  0.66784227  0.48884861  1.0
  O  O30  1  0.33215773  0.33215773  0.48884861  1.0
  O  O31  1  0.83215773  0.16784227  -0.01115139  1.0
