# generated using pymatgen
data_CsLi2Cl3
_symmetry_space_group_name_H-M   'P 1'
_cell_length_a   7.17629302
_cell_length_b   7.17629302
_cell_length_c   7.17629302
_cell_angle_alpha   143.15529744
_cell_angle_beta   136.68468182
_cell_angle_gamma   58.13948533
_symmetry_Int_Tables_number   1
_chemical_formula_structural   CsLi2Cl3
_chemical_formula_sum   'Cs1 Li2 Cl3'
_cell_volume   150.69427132
_cell_formula_units_Z   1
loop_
 _symmetry_equiv_pos_site_id
 _symmetry_equiv_pos_as_xyz
  1  'x, y, z'
loop_
 _atom_site_type_symbol
 _atom_site_label
 _atom_site_symmetry_multiplicity
 _atom_site_fract_x
 _atom_site_fract_y
 _atom_site_fract_z
 _atom_site_occupancy
  Cs  Cs0  1  0.50000000  0.50000000  1.00000000  1.0
  Li  Li1  1  1.19140638  1.19140638  1.00000000  1.0
  Li  Li2  1  0.80859362  0.80859362  -0.00000000  1.0
  Cl  Cl3  1  0.00000000  0.00000000  0.00000000  1.0
  Cl  Cl4  1  0.72896856  1.22896856  0.50000000  1.0
  Cl  Cl5  1  1.27103144  0.77103144  0.50000000  1.0
