# generated using pymatgen
data_La3CuSnS7
_symmetry_space_group_name_H-M   'P 1'
_cell_length_a   10.35672315
_cell_length_b   10.35672315
_cell_length_c   6.15766917
_cell_angle_alpha   90.00000000
_cell_angle_beta   90.00000000
_cell_angle_gamma   120.00000000
_symmetry_Int_Tables_number   1
_chemical_formula_structural   La3CuSnS7
_chemical_formula_sum   'La6 Cu2 Sn2 S14'
_cell_volume   571.99432213
_cell_formula_units_Z   2
loop_
 _symmetry_equiv_pos_site_id
 _symmetry_equiv_pos_as_xyz
  1  'x, y, z'
loop_
 _atom_site_type_symbol
 _atom_site_label
 _atom_site_symmetry_multiplicity
 _atom_site_fract_x
 _atom_site_fract_y
 _atom_site_fract_z
 _atom_site_occupancy
  La  La0  1  0.22210152  0.86570105  0.04170794  1.0
  La  La1  1  0.86570105  0.64359953  0.54170794  1.0
  La  La2  1  0.64359953  0.77789848  0.04170794  1.0
  La  La3  1  0.13429895  0.35640047  0.04170794  1.0
  La  La4  1  0.77789848  0.13429895  0.54170794  1.0
  La  La5  1  0.35640047  0.22210152  0.54170794  1.0
  Cu  Cu6  1  0.00000000  0.00000000  -0.00860036  1.0
  Cu  Cu7  1  0.00000000  0.00000000  0.49139964  1.0
  Sn  Sn8  1  0.33333333  0.66666667  0.61680337  1.0
  Sn  Sn9  1  0.66666667  0.33333333  0.11680337  1.0
  S  S10  1  0.90390511  0.75009021  0.00654259  1.0
  S  S11  1  0.75009021  0.84618510  0.50654259  1.0
  S  S12  1  0.84618510  0.09609489  0.00654259  1.0
  S  S13  1  0.24990979  0.15381490  0.00654259  1.0
  S  S14  1  0.09609489  0.24990979  0.50654259  1.0
  S  S15  1  0.15381490  0.90390511  0.50654259  1.0
  S  S16  1  0.57491453  0.48411222  0.28468544  1.0
  S  S17  1  0.48411222  0.90919769  0.78468544  1.0
  S  S18  1  0.90919769  0.42508547  0.28468544  1.0
  S  S19  1  0.51588778  0.09080231  0.28468544  1.0
  S  S20  1  0.42508547  0.51588778  0.78468544  1.0
  S  S21  1  0.09080231  0.57491453  0.78468544  1.0
  S  S22  1  0.33333333  0.66666667  0.22958908  1.0
  S  S23  1  0.66666667  0.33333333  0.72958908  1.0
