# generated using pymatgen
data_TbSiPt
_symmetry_space_group_name_H-M   'P 1'
_cell_length_a   7.05632324
_cell_length_b   4.30852492
_cell_length_c   7.43464885
_cell_angle_alpha   90.00000000
_cell_angle_beta   90.00000000
_cell_angle_gamma   90.00000000
_symmetry_Int_Tables_number   1
_chemical_formula_structural   TbSiPt
_chemical_formula_sum   'Tb4 Si4 Pt4'
_cell_volume   226.03075570
_cell_formula_units_Z   4
loop_
 _symmetry_equiv_pos_site_id
 _symmetry_equiv_pos_as_xyz
  1  'x, y, z'
loop_
 _atom_site_type_symbol
 _atom_site_label
 _atom_site_symmetry_multiplicity
 _atom_site_fract_x
 _atom_site_fract_y
 _atom_site_fract_z
 _atom_site_occupancy
  Tb  Tb0  1  0.99681872  0.75000000  0.70117307  1.0
  Tb  Tb1  1  0.49681872  0.75000000  0.79882693  1.0
  Tb  Tb2  1  0.00318128  0.25000000  0.29882693  1.0
  Tb  Tb3  1  0.50318128  0.25000000  0.20117307  1.0
  Si  Si4  1  0.81386165  0.75000000  0.08717827  1.0
  Si  Si5  1  0.31386165  0.75000000  0.41282173  1.0
  Si  Si6  1  0.18613835  0.25000000  0.91282173  1.0
  Si  Si7  1  0.68613835  0.25000000  0.58717827  1.0
  Pt  Pt8  1  0.70036765  0.75000000  0.41429735  1.0
  Pt  Pt9  1  0.20036765  0.75000000  0.08570265  1.0
  Pt  Pt10  1  0.29963235  0.25000000  0.58570265  1.0
  Pt  Pt11  1  0.79963235  0.25000000  0.91429735  1.0
