# generated using pymatgen
data_BaTaSe3
_symmetry_space_group_name_H-M   'P 1'
_cell_length_a   7.23920343
_cell_length_b   7.23920343
_cell_length_c   5.90521339
_cell_angle_alpha   90.00000000
_cell_angle_beta   90.00000000
_cell_angle_gamma   120.00000000
_symmetry_Int_Tables_number   1
_chemical_formula_structural   BaTaSe3
_chemical_formula_sum   'Ba2 Ta2 Se6'
_cell_volume   268.00801966
_cell_formula_units_Z   2
loop_
 _symmetry_equiv_pos_site_id
 _symmetry_equiv_pos_as_xyz
  1  'x, y, z'
loop_
 _atom_site_type_symbol
 _atom_site_label
 _atom_site_symmetry_multiplicity
 _atom_site_fract_x
 _atom_site_fract_y
 _atom_site_fract_z
 _atom_site_occupancy
  Ba  Ba0  1  0.33333333  0.66666667  0.75000000  1.0
  Ba  Ba1  1  0.66666667  0.33333333  0.25000000  1.0
  Ta  Ta2  1  0.00000000  0.00000000  0.50000000  1.0
  Ta  Ta3  1  0.00000000  0.00000000  0.00000000  1.0
  Se  Se4  1  0.17318133  0.82681867  0.25000000  1.0
  Se  Se5  1  0.17318133  0.34636265  0.25000000  1.0
  Se  Se6  1  0.82681867  0.17318133  0.75000000  1.0
  Se  Se7  1  0.82681867  0.65363735  0.75000000  1.0
  Se  Se8  1  0.65363735  0.82681867  0.25000000  1.0
  Se  Se9  1  0.34636265  0.17318133  0.75000000  1.0
