# generated using pymatgen
data_Sn3Pd
_symmetry_space_group_name_H-M   'P 1'
_cell_length_a   9.36168068
_cell_length_b   9.36168068
_cell_length_c   6.59391048
_cell_angle_alpha   90.00000000
_cell_angle_beta   90.00000000
_cell_angle_gamma   40.95047159
_symmetry_Int_Tables_number   1
_chemical_formula_structural   Sn3Pd
_chemical_formula_sum   'Sn12 Pd4'
_cell_volume   378.75760663
_cell_formula_units_Z   4
loop_
 _symmetry_equiv_pos_site_id
 _symmetry_equiv_pos_as_xyz
  1  'x, y, z'
loop_
 _atom_site_type_symbol
 _atom_site_label
 _atom_site_symmetry_multiplicity
 _atom_site_fract_x
 _atom_site_fract_y
 _atom_site_fract_z
 _atom_site_occupancy
  Sn  Sn0  1  0.66135638  1.00303139  0.32923083  1.0
  Sn  Sn1  1  0.16135638  1.50303139  0.17076917  1.0
  Sn  Sn2  1  0.00303139  1.66135638  0.67076917  1.0
  Sn  Sn3  1  0.50303139  1.16135638  0.82923083  1.0
  Sn  Sn4  1  -0.00303139  1.33864362  0.32923083  1.0
  Sn  Sn5  1  0.49696861  0.83864362  0.17076917  1.0
  Sn  Sn6  1  0.33864362  0.99696861  0.67076917  1.0
  Sn  Sn7  1  -0.16135638  1.49696861  0.82923083  1.0
  Sn  Sn8  1  -0.33942823  0.33942823  0.16153123  1.0
  Sn  Sn9  1  -0.83942823  0.83942823  0.33846877  1.0
  Sn  Sn10  1  -0.66057177  0.66057177  0.83846877  1.0
  Sn  Sn11  1  -0.16057177  0.16057177  0.66153123  1.0
  Pd  Pd12  1  0.41526678  1.41526678  0.50000000  1.0
  Pd  Pd13  1  0.91526678  0.91526678  0.00000000  1.0
  Pd  Pd14  1  0.58473322  0.58473322  0.50000000  1.0
  Pd  Pd15  1  0.08473322  1.08473322  0.00000000  1.0
