# generated using pymatgen
data_ZrGa3
_symmetry_space_group_name_H-M   'P 1'
_cell_length_a   9.22907503
_cell_length_b   9.22907503
_cell_length_c   9.22907503
_cell_angle_alpha   155.05355649
_cell_angle_beta   155.05355649
_cell_angle_gamma   35.57005836
_symmetry_Int_Tables_number   1
_chemical_formula_structural   ZrGa3
_chemical_formula_sum   'Zr2 Ga6'
_cell_volume   139.67132626
_cell_formula_units_Z   2
loop_
 _symmetry_equiv_pos_site_id
 _symmetry_equiv_pos_as_xyz
  1  'x, y, z'
loop_
 _atom_site_type_symbol
 _atom_site_label
 _atom_site_symmetry_multiplicity
 _atom_site_fract_x
 _atom_site_fract_y
 _atom_site_fract_z
 _atom_site_occupancy
  Zr  Zr0  1  0.88174514  0.88174514  1.00000000  1.0
  Zr  Zr1  1  0.11825486  0.11825486  0.00000000  1.0
  Ga  Ga2  1  0.62375494  0.62375494  1.00000000  1.0
  Ga  Ga3  1  0.37624506  0.37624506  0.00000000  1.0
  Ga  Ga4  1  0.25000000  0.75000000  0.50000000  1.0
  Ga  Ga5  1  0.75000000  0.25000000  0.50000000  1.0
  Ga  Ga6  1  0.50000000  0.00000000  0.50000000  1.0
  Ga  Ga7  1  0.00000000  0.50000000  0.50000000  1.0
