# generated using pymatgen
data_Y3CuSiSe7
_symmetry_space_group_name_H-M   'P 1'
_cell_length_a   10.34958832
_cell_length_b   10.34958832
_cell_length_c   6.02751650
_cell_angle_alpha   90.00000000
_cell_angle_beta   90.00000000
_cell_angle_gamma   120.00000000
_symmetry_Int_Tables_number   1
_chemical_formula_structural   Y3CuSiSe7
_chemical_formula_sum   'Y6 Cu2 Si2 Se14'
_cell_volume   559.13308327
_cell_formula_units_Z   2
loop_
 _symmetry_equiv_pos_site_id
 _symmetry_equiv_pos_as_xyz
  1  'x, y, z'
loop_
 _atom_site_type_symbol
 _atom_site_label
 _atom_site_symmetry_multiplicity
 _atom_site_fract_x
 _atom_site_fract_y
 _atom_site_fract_z
 _atom_site_occupancy
  Y  Y0  1  0.22297536  0.86733577  0.04914313  1.0
  Y  Y1  1  0.86733577  0.64436040  0.54914313  1.0
  Y  Y2  1  0.64436040  0.77702464  0.04914313  1.0
  Y  Y3  1  0.13266423  0.35563960  0.04914313  1.0
  Y  Y4  1  0.77702464  0.13266423  0.54914313  1.0
  Y  Y5  1  0.35563960  0.22297536  0.54914313  1.0
  Cu  Cu6  1  0.00000000  0.00000000  0.00278947  1.0
  Cu  Cu7  1  0.00000000  0.00000000  0.50278947  1.0
  Si  Si8  1  0.33333333  0.66666667  0.63918682  1.0
  Si  Si9  1  0.66666667  0.33333333  0.13918682  1.0
  Se  Se10  1  0.90065585  0.73850340  0.01853939  1.0
  Se  Se11  1  0.73850340  0.83784755  0.51853939  1.0
  Se  Se12  1  0.83784755  0.09934415  0.01853939  1.0
  Se  Se13  1  0.26149660  0.16215245  0.01853939  1.0
  Se  Se14  1  0.09934415  0.26149660  0.51853939  1.0
  Se  Se15  1  0.16215245  0.90065585  0.51853939  1.0
  Se  Se16  1  0.57930038  0.47880480  0.29455507  1.0
  Se  Se17  1  0.47880480  0.89950442  0.79455507  1.0
  Se  Se18  1  0.89950442  0.42069962  0.29455507  1.0
  Se  Se19  1  0.52119520  0.10049558  0.29455507  1.0
  Se  Se20  1  0.42069962  0.52119520  0.79455507  1.0
  Se  Se21  1  0.10049558  0.57930038  0.79455507  1.0
  Se  Se22  1  0.33333333  0.66666667  0.26181092  1.0
  Se  Se23  1  0.66666667  0.33333333  0.76181092  1.0
