# generated using pymatgen
data_KFe2Mo2H3O10
_symmetry_space_group_name_H-M   'P 1'
_cell_length_a   5.84295929
_cell_length_b   5.84295929
_cell_length_c   7.93801328
_cell_angle_alpha   68.71726836
_cell_angle_beta   111.28273164
_cell_angle_gamma   110.51013536
_symmetry_Int_Tables_number   1
_chemical_formula_structural   KFe2Mo2H3O10
_chemical_formula_sum   'K1 Fe2 Mo2 H3 O10'
_cell_volume   227.71936106
_cell_formula_units_Z   1
loop_
 _symmetry_equiv_pos_site_id
 _symmetry_equiv_pos_as_xyz
  1  'x, y, z'
loop_
 _atom_site_type_symbol
 _atom_site_label
 _atom_site_symmetry_multiplicity
 _atom_site_fract_x
 _atom_site_fract_y
 _atom_site_fract_z
 _atom_site_occupancy
  O  O0  1  1.67284266  -0.23893085  0.72895359  1.0
  O  O1  1  1.23893085  -0.67284266  0.72895359  1.0
  O  O2  1  0.76106915  0.67284266  0.27104641  1.0
  O  O3  1  0.32715734  0.23893085  0.27104641  1.0
  O  O4  1  0.68143672  0.31856328  0.62875070  1.0
  O  O5  1  1.31856328  -0.31856328  0.37124930  1.0
  O  O6  1  1.28475981  -0.28475981  0.98890346  1.0
  O  O7  1  0.71524019  0.28475981  0.01109654  1.0
  O  O8  1  0.85700960  0.14299040  0.42144635  1.0
  O  O9  1  1.14299040  -0.14299040  0.57855365  1.0
  H  H10  1  0.82203773  0.17796227  0.28484402  1.0
  H  H11  1  1.17796227  -0.17796227  0.71515598  1.0
  H  H12  1  0.00000000  -0.00000000  0.50000000  1.0
  Mo  Mo13  1  0.57779695  0.42220305  0.77596897  1.0
  Mo  Mo14  1  1.42220305  -0.42220305  0.22403103  1.0
  Fe  Fe15  1  1.50000000  0.00000000  0.50000000  1.0
  Fe  Fe16  1  1.00000000  0.50000000  0.50000000  1.0
  K  K17  1  0.00000000  0.00000000  0.00000000  1.0
