# generated using pymatgen
data_Y3Sb
_symmetry_space_group_name_H-M   'P 1'
_cell_length_a   12.42374805
_cell_length_b   12.42374805
_cell_length_c   6.20014671
_cell_angle_alpha   90.00000000
_cell_angle_beta   90.00000000
_cell_angle_gamma   90.00000000
_symmetry_Int_Tables_number   1
_chemical_formula_structural   Y3Sb
_chemical_formula_sum   'Y24 Sb8'
_cell_volume   956.98964231
_cell_formula_units_Z   8
loop_
 _symmetry_equiv_pos_site_id
 _symmetry_equiv_pos_as_xyz
  1  'x, y, z'
loop_
 _atom_site_type_symbol
 _atom_site_label
 _atom_site_symmetry_multiplicity
 _atom_site_fract_x
 _atom_site_fract_y
 _atom_site_fract_z
 _atom_site_occupancy
  Y  Y0  1  0.89027805  0.41649330  0.03722132  1.0
  Y  Y1  1  0.10972195  0.58350670  0.03722132  1.0
  Y  Y2  1  0.91649330  0.60972195  0.53722132  1.0
  Y  Y3  1  0.08350670  0.39027805  0.53722132  1.0
  Y  Y4  1  0.60972195  0.08350670  0.46277868  1.0
  Y  Y5  1  0.39027805  0.91649330  0.46277868  1.0
  Y  Y6  1  0.58350670  0.89027805  0.96277868  1.0
  Y  Y7  1  0.41649330  0.10972195  0.96277868  1.0
  Y  Y8  1  0.71434010  0.17302245  0.98183891  1.0
  Y  Y9  1  0.28565990  0.82697755  0.98183891  1.0
  Y  Y10  1  0.67302245  0.78565990  0.48183891  1.0
  Y  Y11  1  0.32697755  0.21434010  0.48183891  1.0
  Y  Y12  1  0.78565990  0.32697755  0.51816109  1.0
  Y  Y13  1  0.21434010  0.67302245  0.51816109  1.0
  Y  Y14  1  0.82697755  0.71434010  0.01816109  1.0
  Y  Y15  1  0.17302245  0.28565990  0.01816109  1.0
  Y  Y16  1  0.96795416  0.14271479  0.28378756  1.0
  Y  Y17  1  0.03204584  0.85728521  0.28378756  1.0
  Y  Y18  1  0.64271479  0.53204584  0.78378756  1.0
  Y  Y19  1  0.35728521  0.46795416  0.78378756  1.0
  Y  Y20  1  0.53204584  0.35728521  0.21621244  1.0
  Y  Y21  1  0.46795416  0.64271479  0.21621244  1.0
  Y  Y22  1  0.85728521  0.96795416  0.71621244  1.0
  Y  Y23  1  0.14271479  0.03204584  0.71621244  1.0
  Sb  Sb24  1  0.70063683  0.54379610  0.28968362  1.0
  Sb  Sb25  1  0.29936317  0.45620390  0.28968362  1.0
  Sb  Sb26  1  0.04379610  0.79936317  0.78968362  1.0
  Sb  Sb27  1  0.95620390  0.20063683  0.78968362  1.0
  Sb  Sb28  1  0.79936317  0.95620390  0.21031638  1.0
  Sb  Sb29  1  0.20063683  0.04379610  0.21031638  1.0
  Sb  Sb30  1  0.45620390  0.70063683  0.71031638  1.0
  Sb  Sb31  1  0.54379610  0.29936317  0.71031638  1.0
