# generated using pymatgen
data_BiMoO2
_symmetry_space_group_name_H-M   'P 1'
_cell_length_a   7.62819826
_cell_length_b   7.62819826
_cell_length_c   7.62819826
_cell_angle_alpha   131.33374898
_cell_angle_beta   131.33374898
_cell_angle_gamma   71.28335554
_symmetry_Int_Tables_number   1
_chemical_formula_structural   BiMoO2
_chemical_formula_sum   'Bi4 Mo4 O8'
_cell_volume   244.97696686
_cell_formula_units_Z   4
loop_
 _symmetry_equiv_pos_site_id
 _symmetry_equiv_pos_as_xyz
  1  'x, y, z'
loop_
 _atom_site_type_symbol
 _atom_site_label
 _atom_site_symmetry_multiplicity
 _atom_site_fract_x
 _atom_site_fract_y
 _atom_site_fract_z
 _atom_site_occupancy
  Bi  Bi0  1  0.87500000  0.62500000  1.25000000  1.0
  Bi  Bi1  1  0.37500000  0.62500000  0.75000000  1.0
  Bi  Bi2  1  0.37500000  0.62500000  0.25000000  1.0
  Bi  Bi3  1  0.37500000  1.12500000  0.75000000  1.0
  Mo  Mo4  1  0.37500000  0.12500000  0.25000000  1.0
  Mo  Mo5  1  0.87500000  0.12500000  0.75000000  1.0
  Mo  Mo6  1  0.87500000  1.12500000  1.25000000  1.0
  Mo  Mo7  1  0.87500000  0.62500000  0.75000000  1.0
  O  O8  1  0.18647065  0.37351830  0.18704785  1.0
  O  O9  1  1.18647045  0.99942280  1.81295215  1.0
  O  O10  1  1.12351830  1.43647045  1.68704766  1.0
  O  O11  1  0.74942280  0.43647065  0.31295234  1.0
  O  O12  1  0.56352935  0.87648170  1.31295215  1.0
  O  O13  1  0.56352955  0.25057720  0.68704785  1.0
  O  O14  1  0.62648170  0.81352955  0.81295234  1.0
  O  O15  1  1.00057720  0.81352935  1.18704766  1.0
