# generated using pymatgen
data_LaPRh
_symmetry_space_group_name_H-M   'P 1'
_cell_length_a   7.78159162
_cell_length_b   7.78159162
_cell_length_c   7.78159162
_cell_angle_alpha   149.08112884
_cell_angle_beta   149.08112884
_cell_angle_gamma   44.29190232
_symmetry_Int_Tables_number   1
_chemical_formula_structural   LaPRh
_chemical_formula_sum   'La2 P2 Rh2'
_cell_volume   124.03941771
_cell_formula_units_Z   2
loop_
 _symmetry_equiv_pos_site_id
 _symmetry_equiv_pos_as_xyz
  1  'x, y, z'
loop_
 _atom_site_type_symbol
 _atom_site_label
 _atom_site_symmetry_multiplicity
 _atom_site_fract_x
 _atom_site_fract_y
 _atom_site_fract_z
 _atom_site_occupancy
  La  La0  1  0.58042553  0.58042553  1.00000000  1.0
  La  La1  1  0.33042553  0.83042553  0.50000000  1.0
  P  P2  1  0.00078021  0.00078021  0.00000000  1.0
  P  P3  1  0.75078021  0.25078021  0.50000000  1.0
  Rh  Rh4  1  0.16749426  0.16749426  0.00000000  1.0
  Rh  Rh5  1  0.91749426  0.41749426  0.50000000  1.0
