# generated using pymatgen
data_Rb2ZnP4(HO2)8
_symmetry_space_group_name_H-M   'P 1'
_cell_length_a   7.52131521
_cell_length_b   7.08743688
_cell_length_c   7.80449252
_cell_angle_alpha   72.29953338
_cell_angle_beta   82.08985014
_cell_angle_gamma   86.66207044
_symmetry_Int_Tables_number   1
_chemical_formula_structural   Rb2ZnP4(HO2)8
_chemical_formula_sum   'Rb2 Zn1 P4 H8 O16'
_cell_volume   392.50719181
_cell_formula_units_Z   1
loop_
 _symmetry_equiv_pos_site_id
 _symmetry_equiv_pos_as_xyz
  1  'x, y, z'
loop_
 _atom_site_type_symbol
 _atom_site_label
 _atom_site_symmetry_multiplicity
 _atom_site_fract_x
 _atom_site_fract_y
 _atom_site_fract_z
 _atom_site_occupancy
  Rb  Rb0  1  -0.22309142  -0.60412793  -0.79232897  1.0
  Rb  Rb1  1  -0.77690858  -0.39587207  -0.20767103  1.0
  Zn  Zn2  1  0.00000000  0.00000000  0.00000000  1.0
  P  P3  1  -0.76105071  -0.83840869  -0.74535777  1.0
  P  P4  1  -0.23894929  -0.16159131  -0.25464223  1.0
  P  P5  1  -0.69617338  -0.25091732  -0.74789875  1.0
  P  P6  1  -0.30382662  -0.74908268  -0.25210125  1.0
  H  H7  1  -0.68083239  -0.88188667  -0.21011777  1.0
  H  H8  1  -0.31916761  -0.11811333  -0.78988223  1.0
  H  H9  1  -0.81332760  -0.87531115  -0.35417108  1.0
  H  H10  1  -0.18667240  -0.12468885  -0.64582892  1.0
  H  H11  1  -0.53676056  -0.76201091  -0.96850917  1.0
  H  H12  1  -0.46323944  -0.23798909  -0.03149083  1.0
  H  H13  1  -0.76264794  -0.56298966  -0.58723901  1.0
  H  H14  1  -0.23735206  -0.43701034  -0.41276099  1.0
  O  O15  1  -0.79029294  -0.94181226  -0.22751488  1.0
  O  O16  1  -0.20970706  -0.05818774  -0.77248512  1.0
  O  O17  1  -0.26932619  -0.92513219  -0.34876958  1.0
  O  O18  1  -0.73067381  -0.07486781  -0.65123042  1.0
  O  O19  1  -0.88736011  -0.80622363  -0.88870962  1.0
  O  O20  1  -0.11263989  -0.19377637  -0.11129038  1.0
  O  O21  1  -0.82440818  -0.75735270  -0.58757332  1.0
  O  O22  1  -0.17559182  -0.24264730  -0.41242668  1.0
  O  O23  1  -0.57029095  -0.75079674  -0.83752791  1.0
  O  O24  1  -0.42970905  -0.24920326  -0.16247209  1.0
  O  O25  1  -0.71952890  -0.43346257  -0.57082441  1.0
  O  O26  1  -0.28047110  -0.56653743  -0.42917559  1.0
  O  O27  1  -0.50174303  -0.23641295  -0.83956893  1.0
  O  O28  1  -0.49825697  -0.76358705  -0.16043107  1.0
  O  O29  1  -0.83791706  -0.24303375  -0.87114791  1.0
  O  O30  1  -0.16208294  -0.75696625  -0.12885209  1.0
