# generated using pymatgen
data_KZr2(AsO4)3
_symmetry_space_group_name_H-M   'P 1'
_cell_length_a   9.84416740
_cell_length_b   9.84416740
_cell_length_c   9.84416740
_cell_angle_alpha   56.11987628
_cell_angle_beta   56.11987628
_cell_angle_gamma   56.11987628
_symmetry_Int_Tables_number   1
_chemical_formula_structural   KZr2(AsO4)3
_chemical_formula_sum   'K2 Zr4 As6 O24'
_cell_volume   613.95804548
_cell_formula_units_Z   2
loop_
 _symmetry_equiv_pos_site_id
 _symmetry_equiv_pos_as_xyz
  1  'x, y, z'
loop_
 _atom_site_type_symbol
 _atom_site_label
 _atom_site_symmetry_multiplicity
 _atom_site_fract_x
 _atom_site_fract_y
 _atom_site_fract_z
 _atom_site_occupancy
  K  K0  1  1.00000000  0.00000000  0.00000000  1.0
  K  K1  1  0.50000000  0.50000000  0.50000000  1.0
  Zr  Zr2  1  0.85301412  -0.14698588  -0.14698588  1.0
  Zr  Zr3  1  0.35301412  0.35301412  0.35301412  1.0
  Zr  Zr4  1  0.64698588  0.64698588  -0.35301412  1.0
  Zr  Zr5  1  1.14698588  0.14698588  0.14698588  1.0
  As  As6  1  0.46583635  0.75000000  0.03416365  1.0
  As  As7  1  0.96583635  -0.46583635  0.25000000  1.0
  As  As8  1  0.25000000  0.96583635  -0.46583635  1.0
  As  As9  1  0.75000000  1.03416365  -0.53416365  1.0
  As  As10  1  0.53416365  0.25000000  -0.03416365  1.0
  As  As11  1  1.03416365  0.46583635  -0.25000000  1.0
  O  O12  1  0.76388094  1.00920647  -0.35406206  1.0
  O  O13  1  1.26388094  0.14593794  -0.49079353  1.0
  O  O14  1  0.85406206  0.49079353  -0.26388094  1.0
  O  O15  1  0.35406206  0.23611906  -0.00920647  1.0
  O  O16  1  0.99079353  0.35406206  -0.76388094  1.0
  O  O17  1  0.49079353  0.73611906  -0.14593794  1.0
  O  O18  1  0.23611906  0.99079353  -0.64593794  1.0
  O  O19  1  0.73611906  0.85406206  -0.50920647  1.0
  O  O20  1  0.64593794  0.76388094  0.00920647  1.0
  O  O21  1  1.14593794  -0.49079353  0.26388094  1.0
  O  O22  1  0.50920647  0.26388094  0.14593794  1.0
  O  O23  1  1.00920647  0.64593794  -0.23611906  1.0
  O  O24  1  0.71729652  0.06697240  -0.06510638  1.0
  O  O25  1  1.21729652  0.43489362  -0.43302760  1.0
  O  O26  1  0.56510638  0.43302760  -0.21729652  1.0
  O  O27  1  1.06510638  0.28270348  -0.06697240  1.0
  O  O28  1  0.93302760  0.06510638  0.28270348  1.0
  O  O29  1  0.43302760  0.78270348  -0.43489362  1.0
  O  O30  1  1.28270348  -0.06697240  0.06510638  1.0
  O  O31  1  0.78270348  0.56510638  -0.56697240  1.0
  O  O32  1  0.93489362  -0.28270348  0.06697240  1.0
  O  O33  1  0.43489362  0.56697240  0.21729652  1.0
  O  O34  1  0.56697240  1.21729652  -0.56510638  1.0
  O  O35  1  1.06697240  -0.06510638  -0.28270348  1.0
