# generated using pymatgen
data_Y2Zr3Ge4
_symmetry_space_group_name_H-M   'P 1'
_cell_length_a   7.45550704
_cell_length_b   7.45550704
_cell_length_c   13.64206950
_cell_angle_alpha   90.00000000
_cell_angle_beta   90.00000000
_cell_angle_gamma   90.00000000
_symmetry_Int_Tables_number   1
_chemical_formula_structural   Y2Zr3Ge4
_chemical_formula_sum   'Y8 Zr12 Ge16'
_cell_volume   758.28877478
_cell_formula_units_Z   4
loop_
 _symmetry_equiv_pos_site_id
 _symmetry_equiv_pos_as_xyz
  1  'x, y, z'
loop_
 _atom_site_type_symbol
 _atom_site_label
 _atom_site_symmetry_multiplicity
 _atom_site_fract_x
 _atom_site_fract_y
 _atom_site_fract_z
 _atom_site_occupancy
  Y  Y0  1  0.50100797  0.84216206  0.03285923  1.0
  Y  Y1  1  1.00100797  0.65783794  0.71714077  1.0
  Y  Y2  1  0.15783794  0.49899203  0.46714077  1.0
  Y  Y3  1  0.65783794  1.00100797  0.28285923  1.0
  Y  Y4  1  0.49899203  0.15783794  0.53285923  1.0
  Y  Y5  1  -0.00100797  0.34216206  0.21714077  1.0
  Y  Y6  1  0.84216206  0.50100797  0.96714077  1.0
  Y  Y7  1  0.34216206  -0.00100797  0.78285923  1.0
  Zr  Zr8  1  0.34463641  0.49624728  0.87472115  1.0
  Zr  Zr9  1  0.84463641  1.00375272  0.87527885  1.0
  Zr  Zr10  1  0.50375272  0.65536359  0.62527885  1.0
  Zr  Zr11  1  1.00375272  0.84463641  0.12472115  1.0
  Zr  Zr12  1  0.65536359  0.50375272  0.37472115  1.0
  Zr  Zr13  1  0.15536359  -0.00375272  0.37527885  1.0
  Zr  Zr14  1  0.49624728  0.34463641  0.12527885  1.0
  Zr  Zr15  1  -0.00375272  0.15536359  0.62472115  1.0
  Zr  Zr16  1  0.32842898  0.67157102  0.25000000  1.0
  Zr  Zr17  1  0.82842898  0.82842898  0.50000000  1.0
  Zr  Zr18  1  0.67157102  0.32842898  0.75000000  1.0
  Zr  Zr19  1  0.17157102  0.17157102  0.00000000  1.0
  Ge  Ge20  1  0.20240666  0.53766518  0.06739891  1.0
  Ge  Ge21  1  0.70240666  0.96233482  0.68260109  1.0
  Ge  Ge22  1  0.46233482  0.79759334  0.43260109  1.0
  Ge  Ge23  1  0.96233482  0.70240666  0.31739891  1.0
  Ge  Ge24  1  0.79759334  0.46233482  0.56739891  1.0
  Ge  Ge25  1  0.29759334  0.03766518  0.18260109  1.0
  Ge  Ge26  1  0.53766518  0.20240666  0.93260109  1.0
  Ge  Ge27  1  0.03766518  0.29759334  0.81739891  1.0
  Ge  Ge28  1  0.13506749  0.80016453  0.92720369  1.0
  Ge  Ge29  1  0.63506749  0.69983547  0.82279631  1.0
  Ge  Ge30  1  0.19983547  0.86493251  0.57279631  1.0
  Ge  Ge31  1  0.69983547  0.63506749  0.17720369  1.0
  Ge  Ge32  1  0.86493251  0.19983547  0.42720369  1.0
  Ge  Ge33  1  0.36493251  0.30016453  0.32279631  1.0
  Ge  Ge34  1  0.80016453  0.13506749  0.07279631  1.0
  Ge  Ge35  1  0.30016453  0.36493251  0.67720369  1.0
