# generated using pymatgen
data_Rb2W2O7
_symmetry_space_group_name_H-M   'P 1'
_cell_length_a   3.98393637
_cell_length_b   14.64390173
_cell_length_c   6.11489215
_cell_angle_alpha   90.00000000
_cell_angle_beta   90.35832552
_cell_angle_gamma   90.00000000
_symmetry_Int_Tables_number   1
_chemical_formula_structural   Rb2W2O7
_chemical_formula_sum   'Rb4 W4 O14'
_cell_volume   356.73811040
_cell_formula_units_Z   2
loop_
 _symmetry_equiv_pos_site_id
 _symmetry_equiv_pos_as_xyz
  1  'x, y, z'
loop_
 _atom_site_type_symbol
 _atom_site_label
 _atom_site_symmetry_multiplicity
 _atom_site_fract_x
 _atom_site_fract_y
 _atom_site_fract_z
 _atom_site_occupancy
  Rb  Rb0  1  0.48745316  0.17142103  0.17526544  1.0
  Rb  Rb1  1  0.48745316  0.32857897  0.67526544  1.0
  Rb  Rb2  1  0.51254684  0.67142103  0.32473456  1.0
  Rb  Rb3  1  0.51254684  0.82857897  0.82473456  1.0
  W  W4  1  0.94506991  0.43909436  0.21683226  1.0
  W  W5  1  0.94506991  0.06090564  0.71683226  1.0
  W  W6  1  0.05493009  0.93909436  0.28316774  1.0
  W  W7  1  0.05493009  0.56090564  0.78316774  1.0
  O  O8  1  0.49155488  0.44753334  0.22409318  1.0
  O  O9  1  0.49155488  0.05246666  0.72409318  1.0
  O  O10  1  0.50844512  0.94753334  0.27590682  1.0
  O  O11  1  0.50844512  0.55246666  0.77590682  1.0
  O  O12  1  0.00000000  0.50000000  0.50000000  1.0
  O  O13  1  -0.00000000  0.00000000  -0.00000000  1.0
  O  O14  1  0.99428869  0.07662374  0.41294802  1.0
  O  O15  1  0.99428869  0.42337626  0.91294802  1.0
  O  O16  1  0.00571131  0.57662374  0.08705198  1.0
  O  O17  1  0.00571131  0.92337626  0.58705198  1.0
  O  O18  1  0.00398538  0.82346848  0.19527163  1.0
  O  O19  1  0.00398538  0.67653152  0.69527163  1.0
  O  O20  1  0.99601462  0.32346848  0.30472837  1.0
  O  O21  1  0.99601462  0.17653152  0.80472837  1.0
