# generated using pymatgen
data_HfPd
_symmetry_space_group_name_H-M   'P 1'
_cell_length_a   3.32867905
_cell_length_b   4.38093766
_cell_length_c   5.39571837
_cell_angle_alpha   90.00000000
_cell_angle_beta   107.20677116
_cell_angle_gamma   90.00000000
_symmetry_Int_Tables_number   1
_chemical_formula_structural   HfPd
_chemical_formula_sum   'Hf2 Pd2'
_cell_volume   75.16269095
_cell_formula_units_Z   2
loop_
 _symmetry_equiv_pos_site_id
 _symmetry_equiv_pos_as_xyz
  1  'x, y, z'
loop_
 _atom_site_type_symbol
 _atom_site_label
 _atom_site_symmetry_multiplicity
 _atom_site_fract_x
 _atom_site_fract_y
 _atom_site_fract_z
 _atom_site_occupancy
  Hf  Hf0  1  0.36089920  0.25000000  0.21469829  1.0
  Hf  Hf1  1  0.63910080  0.75000000  0.78530171  1.0
  Pd  Pd2  1  0.08734950  0.25000000  0.67792101  1.0
  Pd  Pd3  1  0.91265050  0.75000000  0.32207899  1.0
