# generated using pymatgen
data_V3GeC
_symmetry_space_group_name_H-M   'P 1'
_cell_length_a   5.25540815
_cell_length_b   5.25540815
_cell_length_c   7.86236230
_cell_angle_alpha   90.00000000
_cell_angle_beta   90.00000000
_cell_angle_gamma   146.18856451
_symmetry_Int_Tables_number   1
_chemical_formula_structural   V3GeC
_chemical_formula_sum   'V6 Ge2 C2'
_cell_volume   120.83730825
_cell_formula_units_Z   2
loop_
 _symmetry_equiv_pos_site_id
 _symmetry_equiv_pos_as_xyz
  1  'x, y, z'
loop_
 _atom_site_type_symbol
 _atom_site_label
 _atom_site_symmetry_multiplicity
 _atom_site_fract_x
 _atom_site_fract_y
 _atom_site_fract_z
 _atom_site_occupancy
  V  V0  1  0.37130207  0.62869793  0.95292109  1.0
  V  V1  1  0.37130207  0.62869793  0.54707891  1.0
  V  V2  1  -0.37130207  0.37130207  0.45292109  1.0
  V  V3  1  -0.37130207  0.37130207  0.04707891  1.0
  V  V4  1  0.04050793  0.95949207  0.75000000  1.0
  V  V5  1  -0.04050793  0.04050793  0.25000000  1.0
  Ge  Ge6  1  -0.25573961  0.25573961  0.75000000  1.0
  Ge  Ge7  1  0.25573961  0.74426039  0.25000000  1.0
  C  C8  1  0.00000000  0.00000000  0.00000000  1.0
  C  C9  1  0.00000000  0.00000000  0.50000000  1.0
