# generated using pymatgen
data_La3CuSiSe7
_symmetry_space_group_name_H-M   'P 1'
_cell_length_a   10.80238467
_cell_length_b   10.80238467
_cell_length_c   6.14974347
_cell_angle_alpha   90.00000000
_cell_angle_beta   90.00000000
_cell_angle_gamma   120.00000000
_symmetry_Int_Tables_number   1
_chemical_formula_structural   La3CuSiSe7
_chemical_formula_sum   'La6 Cu2 Si2 Se14'
_cell_volume   621.47964458
_cell_formula_units_Z   2
loop_
 _symmetry_equiv_pos_site_id
 _symmetry_equiv_pos_as_xyz
  1  'x, y, z'
loop_
 _atom_site_type_symbol
 _atom_site_label
 _atom_site_symmetry_multiplicity
 _atom_site_fract_x
 _atom_site_fract_y
 _atom_site_fract_z
 _atom_site_occupancy
  La  La0  1  0.22906071  0.87376625  0.02748696  1.0
  La  La1  1  0.87376625  0.64470554  0.52748696  1.0
  La  La2  1  0.64470554  0.77093929  0.02748696  1.0
  La  La3  1  0.12623375  0.35529446  0.02748696  1.0
  La  La4  1  0.77093929  0.12623375  0.52748696  1.0
  La  La5  1  0.35529446  0.22906071  0.52748696  1.0
  Cu  Cu6  1  0.00000000  0.00000000  0.00330477  1.0
  Cu  Cu7  1  0.00000000  0.00000000  0.50330477  1.0
  Si  Si8  1  0.33333333  0.66666667  0.61523970  1.0
  Si  Si9  1  0.66666667  0.33333333  0.11523970  1.0
  Se  Se10  1  0.91107857  0.74808187  0.01338434  1.0
  Se  Se11  1  0.74808187  0.83700330  0.51338434  1.0
  Se  Se12  1  0.83700330  0.08892143  0.01338434  1.0
  Se  Se13  1  0.25191813  0.16299670  0.01338434  1.0
  Se  Se14  1  0.08892143  0.25191813  0.51338434  1.0
  Se  Se15  1  0.16299670  0.91107857  0.51338434  1.0
  Se  Se16  1  0.58538796  0.47672241  0.26031626  1.0
  Se  Se17  1  0.47672241  0.89133445  0.76031626  1.0
  Se  Se18  1  0.89133445  0.41461204  0.26031626  1.0
  Se  Se19  1  0.52327759  0.10866555  0.26031626  1.0
  Se  Se20  1  0.41461204  0.52327759  0.76031626  1.0
  Se  Se21  1  0.10866555  0.58538796  0.76031626  1.0
  Se  Se22  1  0.33333333  0.66666667  0.24589287  1.0
  Se  Se23  1  0.66666667  0.33333333  0.74589287  1.0
