# generated using pymatgen
data_SmTl(MoO4)2
_symmetry_space_group_name_H-M   'P 1'
_cell_length_a   5.17958868
_cell_length_b   19.25815048
_cell_length_c   8.34343787
_cell_angle_alpha   90.00000000
_cell_angle_beta   90.00000000
_cell_angle_gamma   90.00000000
_symmetry_Int_Tables_number   1
_chemical_formula_structural   SmTl(MoO4)2
_chemical_formula_sum   'Sm4 Tl4 Mo8 O32'
_cell_volume   832.25207115
_cell_formula_units_Z   4
loop_
 _symmetry_equiv_pos_site_id
 _symmetry_equiv_pos_as_xyz
  1  'x, y, z'
loop_
 _atom_site_type_symbol
 _atom_site_label
 _atom_site_symmetry_multiplicity
 _atom_site_fract_x
 _atom_site_fract_y
 _atom_site_fract_z
 _atom_site_occupancy
  Sm  Sm0  1  0.50000000  0.49361126  0.25000000  1.0
  Sm  Sm1  1  0.50000000  0.50638874  0.75000000  1.0
  Sm  Sm2  1  0.00000000  0.99361126  0.25000000  1.0
  Sm  Sm3  1  0.00000000  0.00638874  0.75000000  1.0
  Tl  Tl4  1  0.50000000  0.72788058  0.25000000  1.0
  Tl  Tl5  1  0.50000000  0.27211942  0.75000000  1.0
  Tl  Tl6  1  0.00000000  0.22788058  0.25000000  1.0
  Tl  Tl7  1  0.00000000  0.77211942  0.75000000  1.0
  Mo  Mo8  1  0.47785456  0.10004298  0.01322482  1.0
  Mo  Mo9  1  0.47785456  0.89995702  0.51322482  1.0
  Mo  Mo10  1  0.97785456  0.60004298  0.48677518  1.0
  Mo  Mo11  1  0.97785456  0.39995702  0.98677518  1.0
  Mo  Mo12  1  0.52214544  0.10004298  0.48677518  1.0
  Mo  Mo13  1  0.52214544  0.89995702  0.98677518  1.0
  Mo  Mo14  1  0.02214544  0.60004298  0.01322482  1.0
  Mo  Mo15  1  0.02214544  0.39995702  0.51322482  1.0
  O  O16  1  0.40142734  0.18449910  0.47909384  1.0
  O  O17  1  0.40142734  0.81550090  0.97909384  1.0
  O  O18  1  0.90142734  0.68449910  0.02090616  1.0
  O  O19  1  0.90142734  0.31550090  0.52090616  1.0
  O  O20  1  0.59857266  0.18449910  0.02090616  1.0
  O  O21  1  0.59857266  0.81550090  0.52090616  1.0
  O  O22  1  0.09857266  0.68449910  0.47909384  1.0
  O  O23  1  0.09857266  0.31550090  0.97909384  1.0
  O  O24  1  0.26278491  0.08969047  0.18077875  1.0
  O  O25  1  0.26278491  0.91030953  0.68077875  1.0
  O  O26  1  0.76278491  0.58969047  0.31922125  1.0
  O  O27  1  0.76278491  0.41030953  0.81922125  1.0
  O  O28  1  0.73721509  0.08969047  0.31922125  1.0
  O  O29  1  0.73721509  0.91030953  0.81922125  1.0
  O  O30  1  0.23721509  0.58969047  0.18077875  1.0
  O  O31  1  0.23721509  0.41030953  0.68077875  1.0
  O  O32  1  0.24727694  0.46179064  0.00155923  1.0
  O  O33  1  0.24727694  0.53820936  0.50155923  1.0
  O  O34  1  0.74727694  0.96179064  0.49844077  1.0
  O  O35  1  0.74727694  0.03820936  0.99844077  1.0
  O  O36  1  0.75272306  0.46179064  0.49844077  1.0
  O  O37  1  0.75272306  0.53820936  0.99844077  1.0
  O  O38  1  0.25272306  0.96179064  0.00155923  1.0
  O  O39  1  0.25272306  0.03820936  0.50155923  1.0
  O  O40  1  0.22490341  0.40412664  0.34152999  1.0
  O  O41  1  0.22490341  0.59587336  0.84152999  1.0
  O  O42  1  0.72490341  0.90412664  0.15847001  1.0
  O  O43  1  0.72490341  0.09587336  0.65847001  1.0
  O  O44  1  0.77509659  0.40412664  0.15847001  1.0
  O  O45  1  0.77509659  0.59587336  0.65847001  1.0
  O  O46  1  0.27509659  0.90412664  0.34152999  1.0
  O  O47  1  0.27509659  0.09587336  0.84152999  1.0
