# generated using pymatgen
data_HfSi2
_symmetry_space_group_name_H-M   'P 1'
_cell_length_a   7.81732869
_cell_length_b   7.81732869
_cell_length_c   3.59520859
_cell_angle_alpha   90.00000000
_cell_angle_beta   90.00000000
_cell_angle_gamma   153.55349198
_symmetry_Int_Tables_number   1
_chemical_formula_structural   HfSi2
_chemical_formula_sum   'Hf2 Si4'
_cell_volume   97.84848204
_cell_formula_units_Z   2
loop_
 _symmetry_equiv_pos_site_id
 _symmetry_equiv_pos_as_xyz
  1  'x, y, z'
loop_
 _atom_site_type_symbol
 _atom_site_label
 _atom_site_symmetry_multiplicity
 _atom_site_fract_x
 _atom_site_fract_y
 _atom_site_fract_z
 _atom_site_occupancy
  Hf  Hf0  1  -0.10782862  0.10782862  0.25000000  1.0
  Hf  Hf1  1  0.10782862  0.89217138  0.75000000  1.0
  Si  Si2  1  -0.28821146  0.28821146  0.25000000  1.0
  Si  Si3  1  0.28821146  0.71178854  0.75000000  1.0
  Si  Si4  1  -0.45002724  0.45002724  0.25000000  1.0
  Si  Si5  1  0.45002724  0.54997276  0.75000000  1.0
