# generated using pymatgen
data_YbAl2Pd5
_symmetry_space_group_name_H-M   'P 1'
_cell_length_a   7.98459809
_cell_length_b   7.98459809
_cell_length_c   7.98459809
_cell_angle_alpha   149.85819939
_cell_angle_beta   149.85819939
_cell_angle_gamma   43.14959047
_symmetry_Int_Tables_number   1
_chemical_formula_structural   YbAl2Pd5
_chemical_formula_sum   'Yb1 Al2 Pd5'
_cell_volume   128.01687138
_cell_formula_units_Z   1
loop_
 _symmetry_equiv_pos_site_id
 _symmetry_equiv_pos_as_xyz
  1  'x, y, z'
loop_
 _atom_site_type_symbol
 _atom_site_label
 _atom_site_symmetry_multiplicity
 _atom_site_fract_x
 _atom_site_fract_y
 _atom_site_fract_z
 _atom_site_occupancy
  Yb  Yb0  1  -0.00000000  -0.00000000  -0.00000000  1.0
  Al  Al1  1  0.74735872  0.74735872  1.00000000  1.0
  Al  Al2  1  0.25264128  0.25264128  -0.00000000  1.0
  Pd  Pd3  1  0.35464306  0.85464306  0.50000000  1.0
  Pd  Pd4  1  0.64535694  0.14535694  0.50000000  1.0
  Pd  Pd5  1  0.85464306  0.35464306  0.50000000  1.0
  Pd  Pd6  1  0.14535694  0.64535694  0.50000000  1.0
  Pd  Pd7  1  0.50000000  0.50000000  1.00000000  1.0
