# generated using pymatgen
data_KTiPSe5
_symmetry_space_group_name_H-M   'P 1'
_cell_length_a   10.11927397
_cell_length_b   10.11927397
_cell_length_c   6.93810236
_cell_angle_alpha   82.90839245
_cell_angle_beta   97.09160755
_cell_angle_gamma   136.79151573
_symmetry_Int_Tables_number   1
_chemical_formula_structural   KTiPSe5
_chemical_formula_sum   'K2 Ti2 P2 Se10'
_cell_volume   482.11250654
_cell_formula_units_Z   2
loop_
 _symmetry_equiv_pos_site_id
 _symmetry_equiv_pos_as_xyz
  1  'x, y, z'
loop_
 _atom_site_type_symbol
 _atom_site_label
 _atom_site_symmetry_multiplicity
 _atom_site_fract_x
 _atom_site_fract_y
 _atom_site_fract_z
 _atom_site_occupancy
  K  K0  1  0.26961042  -0.26961042  0.76474961  1.0
  K  K1  1  0.73038958  0.26961042  0.23525039  1.0
  Ti  Ti2  1  0.72381367  0.72381367  -0.00000000  1.0
  Ti  Ti3  1  0.27618633  0.27618633  -0.00000000  1.0
  P  P4  1  0.86475124  0.13524876  0.79201583  1.0
  P  P5  1  0.13524876  -0.13524876  0.20798417  1.0
  Se  Se6  1  0.67594500  -0.15766034  0.67747172  1.0
  Se  Se7  1  1.15766034  0.32405500  0.67747172  1.0
  Se  Se8  1  0.84233966  0.67594500  0.32252828  1.0
  Se  Se9  1  0.32405500  0.15766034  0.32252828  1.0
  Se  Se10  1  0.91567094  0.08432906  0.10666756  1.0
  Se  Se11  1  0.08432906  -0.08432906  0.89333244  1.0
  Se  Se12  1  0.74819914  0.25180086  0.74670511  1.0
  Se  Se13  1  0.25180086  -0.25180086  0.25329489  1.0
  Se  Se14  1  0.55928659  0.44071341  0.81770750  1.0
  Se  Se15  1  0.44071341  -0.44071341  0.18229250  1.0
