# generated using pymatgen
data_Eu(BO2)6
_symmetry_space_group_name_H-M   'P 1'
_cell_length_a   8.52562829
_cell_length_b   8.52562829
_cell_length_c   8.52562829
_cell_angle_alpha   61.99634592
_cell_angle_beta   61.99634592
_cell_angle_gamma   61.99634592
_symmetry_Int_Tables_number   1
_chemical_formula_structural   Eu(BO2)6
_chemical_formula_sum   'Eu2 B12 O24'
_cell_volume   457.75900779
_cell_formula_units_Z   2
loop_
 _symmetry_equiv_pos_site_id
 _symmetry_equiv_pos_as_xyz
  1  'x, y, z'
loop_
 _atom_site_type_symbol
 _atom_site_label
 _atom_site_symmetry_multiplicity
 _atom_site_fract_x
 _atom_site_fract_y
 _atom_site_fract_z
 _atom_site_occupancy
  Eu  Eu0  1  0.00562063  0.00562063  0.00562063  1.0
  Eu  Eu1  1  0.50562063  0.50562063  -0.49437937  1.0
  O  O2  1  0.82892581  -0.21635366  0.13432377  1.0
  O  O3  1  0.32892581  0.63432377  -0.71635366  1.0
  O  O4  1  0.63432377  0.28364634  -0.67107419  1.0
  O  O5  1  1.13432377  -0.17107419  -0.21635366  1.0
  O  O6  1  0.28364634  0.32892581  -0.36567623  1.0
  O  O7  1  0.78364634  0.13432377  -0.17107419  1.0
  O  O8  1  1.24437343  -0.32400874  0.03661655  1.0
  O  O9  1  0.74437343  0.53661655  -0.82400874  1.0
  O  O10  1  0.53661655  0.17599126  -0.25562657  1.0
  O  O11  1  1.03661655  0.24437343  -0.32400874  1.0
  O  O12  1  0.17599126  0.74437343  -0.46338345  1.0
  O  O13  1  0.67599126  0.03661655  0.24437343  1.0
  O  O14  1  1.06475775  -0.45965975  0.01023544  1.0
  O  O15  1  0.56475775  0.51023544  -0.95965975  1.0
  O  O16  1  0.51023544  0.04034025  -0.43524225  1.0
  O  O17  1  1.01023544  0.06475775  -0.45965975  1.0
  O  O18  1  0.04034025  0.56475775  -0.48976456  1.0
  O  O19  1  0.54034025  0.01023544  0.06475775  1.0
  O  O20  1  0.37503811  0.52491448  -0.19542702  1.0
  O  O21  1  0.87503811  -0.69542702  0.02491448  1.0
  O  O22  1  0.30457298  0.02491448  -0.12496189  1.0
  O  O23  1  0.80457298  0.37503811  -0.47508552  1.0
  O  O24  1  1.02491448  -0.12496189  -0.69542702  1.0
  O  O25  1  0.52491448  0.80457298  -0.62496189  1.0
  B  B26  1  0.88244524  -0.38325259  0.10444442  1.0
  B  B27  1  0.38244524  0.60444442  -0.88325259  1.0
  B  B28  1  0.60444442  0.11674741  -0.61755476  1.0
  B  B29  1  1.10444442  -0.11755476  -0.38325259  1.0
  B  B30  1  0.11674741  0.38244524  -0.39555558  1.0
  B  B31  1  0.61674741  0.10444442  -0.11755476  1.0
  B  B32  1  1.20576948  -0.36604979  -0.09141356  1.0
  B  B33  1  0.70576948  0.40858644  -0.86604979  1.0
  B  B34  1  0.40858644  0.13395021  -0.29423052  1.0
  B  B35  1  0.90858644  0.20576948  -0.36604979  1.0
  B  B36  1  0.13395021  0.70576948  -0.59141356  1.0
  B  B37  1  0.63395021  -0.09141356  0.20576948  1.0
