# generated using pymatgen
data_Nb3Te4
_symmetry_space_group_name_H-M   'P 1'
_cell_length_a   11.88347897
_cell_length_b   11.88347897
_cell_length_c   3.58845632
_cell_angle_alpha   90.00000000
_cell_angle_beta   90.00000000
_cell_angle_gamma   120.00000000
_symmetry_Int_Tables_number   1
_chemical_formula_structural   Nb3Te4
_chemical_formula_sum   'Nb6 Te8'
_cell_volume   438.85949604
_cell_formula_units_Z   2
loop_
 _symmetry_equiv_pos_site_id
 _symmetry_equiv_pos_as_xyz
  1  'x, y, z'
loop_
 _atom_site_type_symbol
 _atom_site_label
 _atom_site_symmetry_multiplicity
 _atom_site_fract_x
 _atom_site_fract_y
 _atom_site_fract_z
 _atom_site_occupancy
  Nb  Nb0  1  0.59980364  0.52583784  0.25000000  1.0
  Nb  Nb1  1  0.92603420  0.40019636  0.25000000  1.0
  Nb  Nb2  1  0.47416216  0.07396580  0.25000000  1.0
  Nb  Nb3  1  0.40019636  0.47416216  0.75000000  1.0
  Nb  Nb4  1  0.07396580  0.59980364  0.75000000  1.0
  Nb  Nb5  1  0.52583784  0.92603420  0.75000000  1.0
  Te  Te6  1  0.66666667  0.33333333  0.25000000  1.0
  Te  Te7  1  0.33333333  0.66666667  0.75000000  1.0
  Te  Te8  1  0.92271847  0.64449325  0.25000000  1.0
  Te  Te9  1  0.72177478  0.07728153  0.25000000  1.0
  Te  Te10  1  0.35550675  0.27822522  0.25000000  1.0
  Te  Te11  1  0.07728153  0.35550675  0.75000000  1.0
  Te  Te12  1  0.27822522  0.92271847  0.75000000  1.0
  Te  Te13  1  0.64449325  0.72177478  0.75000000  1.0
