# generated using pymatgen
data_ZnTe6O13
_symmetry_space_group_name_H-M   'P 1'
_cell_length_a   8.82765667
_cell_length_b   8.82765667
_cell_length_c   8.82765667
_cell_angle_alpha   71.67349586
_cell_angle_beta   71.67349586
_cell_angle_gamma   71.67349586
_symmetry_Int_Tables_number   1
_chemical_formula_structural   ZnTe6O13
_chemical_formula_sum   'Zn2 Te12 O26'
_cell_volume   601.90700009
_cell_formula_units_Z   2
loop_
 _symmetry_equiv_pos_site_id
 _symmetry_equiv_pos_as_xyz
  1  'x, y, z'
loop_
 _atom_site_type_symbol
 _atom_site_label
 _atom_site_symmetry_multiplicity
 _atom_site_fract_x
 _atom_site_fract_y
 _atom_site_fract_z
 _atom_site_occupancy
  Zn  Zn0  1  0.74385438  0.74385438  -0.25614562  1.0
  Zn  Zn1  1  1.25614562  1.25614562  0.25614562  1.0
  Te  Te2  1  0.52993280  0.41857357  -0.17106586  1.0
  Te  Te3  1  0.58142643  0.17106586  -0.52993280  1.0
  Te  Te4  1  0.17106586  0.47006720  -0.41857357  1.0
  Te  Te5  1  0.47006720  0.58142643  -0.82893414  1.0
  Te  Te6  1  0.41857357  0.82893414  -0.47006720  1.0
  Te  Te7  1  0.82893414  0.52993280  -0.58142643  1.0
  Te  Te8  1  0.66571477  -0.01255322  0.06464201  1.0
  Te  Te9  1  1.01255322  -0.06464201  -0.66571477  1.0
  Te  Te10  1  0.93535799  -0.66571477  0.01255322  1.0
  Te  Te11  1  0.33428523  0.01255322  -0.06464201  1.0
  Te  Te12  1  0.98744678  0.06464201  -0.33428523  1.0
  Te  Te13  1  1.06464201  -0.33428523  -0.01255322  1.0
  O  O14  1  0.63673133  0.54703464  -0.10987041  1.0
  O  O15  1  1.45296536  1.10987041  0.36326867  1.0
  O  O16  1  1.10987041  1.36326867  0.45296536  1.0
  O  O17  1  1.36326867  1.45296536  0.10987041  1.0
  O  O18  1  0.54703464  0.89012959  -0.36326867  1.0
  O  O19  1  0.89012959  0.63673133  -0.45296536  1.0
  O  O20  1  0.38114708  0.62541541  -0.29320561  1.0
  O  O21  1  0.37458459  0.29320561  -0.38114708  1.0
  O  O22  1  0.29320561  0.61885292  -0.62541541  1.0
  O  O23  1  0.61885292  0.37458459  -0.70679439  1.0
  O  O24  1  0.62541541  0.70679439  -0.61885292  1.0
  O  O25  1  0.70679439  0.38114708  -0.37458459  1.0
  O  O26  1  0.60310427  0.91788336  -0.10148452  1.0
  O  O27  1  1.08211664  1.10148452  0.39689573  1.0
  O  O28  1  1.10148452  1.39689573  0.08211664  1.0
  O  O29  1  1.39689573  1.08211664  0.10148452  1.0
  O  O30  1  0.91788336  0.89851548  -0.39689573  1.0
  O  O31  1  0.89851548  0.60310427  -0.08211664  1.0
  O  O32  1  0.70178663  0.20539976  -0.04983509  1.0
  O  O33  1  0.79460024  0.04983509  -0.70178663  1.0
  O  O34  1  1.04983509  -0.70178663  -0.20539976  1.0
  O  O35  1  0.29821337  -0.20539976  0.04983509  1.0
  O  O36  1  1.20539976  -0.04983509  -0.29821337  1.0
  O  O37  1  0.95016491  -0.29821337  0.20539976  1.0
  O  O38  1  0.91464530  0.91464530  -0.08535470  1.0
  O  O39  1  1.08535470  1.08535470  0.08535470  1.0
