# generated using pymatgen
data_TiTe3O8
_symmetry_space_group_name_H-M   'P 1'
_cell_length_a   9.73589410
_cell_length_b   9.73589410
_cell_length_c   9.73589410
_cell_angle_alpha   109.47122063
_cell_angle_beta   109.47122063
_cell_angle_gamma   109.47122063
_symmetry_Int_Tables_number   1
_chemical_formula_structural   TiTe3O8
_chemical_formula_sum   'Ti4 Te12 O32'
_cell_volume   710.40438554
_cell_formula_units_Z   4
loop_
 _symmetry_equiv_pos_site_id
 _symmetry_equiv_pos_as_xyz
  1  'x, y, z'
loop_
 _atom_site_type_symbol
 _atom_site_label
 _atom_site_symmetry_multiplicity
 _atom_site_fract_x
 _atom_site_fract_y
 _atom_site_fract_z
 _atom_site_occupancy
  Ti  Ti0  1  1.00000000  0.50000000  1.00000000  1.0
  Ti  Ti1  1  0.50000000  0.50000000  0.50000000  1.0
  Ti  Ti2  1  1.00000000  1.00000000  1.50000000  1.0
  Ti  Ti3  1  1.50000000  1.00000000  1.00000000  1.0
  Te  Te4  1  0.79122254  0.54122254  0.25000000  1.0
  Te  Te5  1  1.29122254  1.04122254  1.25000000  1.0
  Te  Te6  1  0.75000000  0.70877746  0.95877746  1.0
  Te  Te7  1  1.25000000  1.29122254  1.04122254  1.0
  Te  Te8  1  0.25000000  0.79122254  0.54122254  1.0
  Te  Te9  1  0.75000000  1.20877746  0.45877746  1.0
  Te  Te10  1  0.54122254  1.25000000  0.79122254  1.0
  Te  Te11  1  1.04122254  1.25000000  1.29122254  1.0
  Te  Te12  1  0.95877746  0.75000000  0.70877746  1.0
  Te  Te13  1  1.45877746  0.75000000  1.20877746  1.0
  Te  Te14  1  1.20877746  0.45877746  0.75000000  1.0
  Te  Te15  1  0.70877746  0.95877746  0.75000000  1.0
  O  O16  1  0.56569633  0.53651905  0.72965246  1.0
  O  O17  1  1.06569633  1.33604387  1.02917728  1.0
  O  O18  1  0.30686659  0.83604387  0.77034754  1.0
  O  O19  1  0.80686659  1.03651905  0.47082272  1.0
  O  O20  1  0.52917728  1.19313341  0.96348095  1.0
  O  O21  1  1.02917728  1.06569633  1.33604387  1.0
  O  O22  1  0.72965246  0.56569633  0.53651905  1.0
  O  O23  1  1.22965246  0.69313341  1.16395613  1.0
  O  O24  1  0.83604387  0.77034754  0.30686659  1.0
  O  O25  1  1.33604387  1.02917728  1.06569633  1.0
  O  O26  1  0.96348095  1.52917728  1.19313341  1.0
  O  O27  1  1.46348095  1.27034754  1.43430367  1.0
  O  O28  1  1.69313341  1.16395613  1.22965246  1.0
  O  O29  1  1.19313341  0.96348095  1.52917728  1.0
  O  O30  1  1.43430367  1.46348095  1.27034754  1.0
  O  O31  1  0.93430367  0.66395613  0.97082272  1.0
  O  O32  1  1.27034754  1.43430367  1.46348095  1.0
  O  O33  1  0.77034754  1.30686659  0.83604387  1.0
  O  O34  1  1.47082272  0.80686659  1.03651905  1.0
  O  O35  1  0.97082272  0.93430367  0.66395613  1.0
  O  O36  1  1.03651905  0.47082272  0.80686659  1.0
  O  O37  1  0.53651905  0.72965246  0.56569633  1.0
  O  O38  1  1.16395613  1.22965246  1.69313341  1.0
  O  O39  1  0.66395613  0.97082272  0.93430367  1.0
  O  O40  1  0.65171705  1.50000000  1.00000000  1.0
  O  O41  1  1.15171705  1.15171705  1.15171705  1.0
  O  O42  1  1.00000000  0.65171705  1.50000000  1.0
  O  O43  1  1.50000000  1.00000000  1.34828295  1.0
  O  O44  1  1.00000000  1.34828295  1.50000000  1.0
  O  O45  1  0.50000000  1.00000000  0.65171705  1.0
  O  O46  1  1.34828295  0.50000000  1.00000000  1.0
  O  O47  1  0.84828295  0.84828295  0.84828295  1.0
