# generated using pymatgen
data_NaSiAu3
_symmetry_space_group_name_H-M   'P 1'
_cell_length_a   9.02346687
_cell_length_b   9.02346687
_cell_length_c   9.02346687
_cell_angle_alpha   90.00000000
_cell_angle_beta   90.00000000
_cell_angle_gamma   90.00000000
_symmetry_Int_Tables_number   1
_chemical_formula_structural   NaSiAu3
_chemical_formula_sum   'Na8 Si8 Au24'
_cell_volume   734.71732996
_cell_formula_units_Z   8
loop_
 _symmetry_equiv_pos_site_id
 _symmetry_equiv_pos_as_xyz
  1  'x, y, z'
loop_
 _atom_site_type_symbol
 _atom_site_label
 _atom_site_symmetry_multiplicity
 _atom_site_fract_x
 _atom_site_fract_y
 _atom_site_fract_z
 _atom_site_occupancy
  Na  Na0  1  0.40320476  0.90320476  0.59679524  1.0
  Na  Na1  1  0.40320476  0.59679524  0.09679524  1.0
  Na  Na2  1  0.90320476  0.90320476  0.90320476  1.0
  Na  Na3  1  0.90320476  0.59679524  0.40320476  1.0
  Na  Na4  1  0.59679524  0.40320476  0.90320476  1.0
  Na  Na5  1  0.59679524  0.09679524  0.40320476  1.0
  Na  Na6  1  0.09679524  0.40320476  0.59679524  1.0
  Na  Na7  1  0.09679524  0.09679524  0.09679524  1.0
  Si  Si8  1  0.12347615  0.62347615  0.87652385  1.0
  Si  Si9  1  0.12347615  0.87652385  0.37652385  1.0
  Si  Si10  1  0.62347615  0.62347615  0.62347615  1.0
  Si  Si11  1  0.62347615  0.87652385  0.12347615  1.0
  Si  Si12  1  0.87652385  0.12347615  0.62347615  1.0
  Si  Si13  1  0.87652385  0.37652385  0.12347615  1.0
  Si  Si14  1  0.37652385  0.12347615  0.87652385  1.0
  Si  Si15  1  0.37652385  0.37652385  0.37652385  1.0
  Au  Au16  1  0.37087425  0.59315651  0.72651771  1.0
  Au  Au17  1  0.37087425  0.90684349  0.22651771  1.0
  Au  Au18  1  0.87087425  0.59315651  0.77348229  1.0
  Au  Au19  1  0.87087425  0.90684349  0.27348229  1.0
  Au  Au20  1  0.09315651  0.77348229  0.62912575  1.0
  Au  Au21  1  0.09315651  0.72651771  0.12912575  1.0
  Au  Au22  1  0.59315651  0.77348229  0.87087425  1.0
  Au  Au23  1  0.59315651  0.72651771  0.37087425  1.0
  Au  Au24  1  0.27348229  0.87087425  0.90684349  1.0
  Au  Au25  1  0.27348229  0.62912575  0.40684349  1.0
  Au  Au26  1  0.77348229  0.87087425  0.59315651  1.0
  Au  Au27  1  0.77348229  0.62912575  0.09315651  1.0
  Au  Au28  1  0.62912575  0.09315651  0.77348229  1.0
  Au  Au29  1  0.62912575  0.40684349  0.27348229  1.0
  Au  Au30  1  0.12912575  0.09315651  0.72651771  1.0
  Au  Au31  1  0.12912575  0.40684349  0.22651771  1.0
  Au  Au32  1  0.90684349  0.27348229  0.87087425  1.0
  Au  Au33  1  0.90684349  0.22651771  0.37087425  1.0
  Au  Au34  1  0.40684349  0.27348229  0.62912575  1.0
  Au  Au35  1  0.40684349  0.22651771  0.12912575  1.0
  Au  Au36  1  0.72651771  0.37087425  0.59315651  1.0
  Au  Au37  1  0.72651771  0.12912575  0.09315651  1.0
  Au  Au38  1  0.22651771  0.37087425  0.90684349  1.0
  Au  Au39  1  0.22651771  0.12912575  0.40684349  1.0
