# generated using pymatgen
data_Sc(BRu)2
_symmetry_space_group_name_H-M   'P 1'
_cell_length_a   14.29366098
_cell_length_b   14.29366098
_cell_length_c   14.29366098
_cell_angle_alpha   156.01722841
_cell_angle_beta   156.01722841
_cell_angle_gamma   34.17401188
_symmetry_Int_Tables_number   1
_chemical_formula_structural   Sc(BRu)2
_chemical_formula_sum   'Sc8 B16 Ru16'
_cell_volume   481.97863094
_cell_formula_units_Z   8
loop_
 _symmetry_equiv_pos_site_id
 _symmetry_equiv_pos_as_xyz
  1  'x, y, z'
loop_
 _atom_site_type_symbol
 _atom_site_label
 _atom_site_symmetry_multiplicity
 _atom_site_fract_x
 _atom_site_fract_y
 _atom_site_fract_z
 _atom_site_occupancy
  Sc  Sc0  1  0.87499779  0.12499985  0.74999795  1.0
  Sc  Sc1  1  0.37500190  0.12499985  0.25000205  1.0
  Sc  Sc2  1  0.87500208  0.62500004  1.25000204  1.0
  Sc  Sc3  1  0.37499799  0.62500004  0.74999796  1.0
  Sc  Sc4  1  0.37499996  1.12499792  0.74999796  1.0
  Sc  Sc5  1  0.37499996  0.62500201  0.25000204  1.0
  Sc  Sc6  1  0.87500015  0.62499810  0.74999795  1.0
  Sc  Sc7  1  0.87500015  1.12500221  1.25000205  1.0
  B  B8  1  1.27962056  1.02963464  1.75001380  1.0
  B  B9  1  1.47038316  0.72040714  1.25002371  1.0
  B  B10  1  0.77962019  0.52963267  0.75001275  1.0
  B  B11  1  0.97038410  1.22040683  1.25002301  1.0
  B  B12  1  0.97039256  1.22037981  1.75001248  1.0
  B  B13  1  0.27963890  1.02961590  1.25002273  1.0
  B  B14  1  0.97036536  0.72037917  1.24998592  1.0
  B  B15  1  0.27959286  0.52961657  0.74997602  1.0
  B  B16  1  0.77961992  1.02960744  1.24998725  1.0
  B  B17  1  0.97038383  0.72036110  0.74997699  1.0
  B  B18  1  0.27962083  0.52960676  0.24998620  1.0
  B  B19  1  0.47038343  1.22035945  0.74997629  1.0
  B  B20  1  0.47039324  0.72037944  0.75001408  1.0
  B  B21  1  0.77964055  0.52961684  1.25002398  1.0
  B  B22  1  0.47036733  0.22038008  0.24998752  1.0
  B  B23  1  0.77959317  0.02961617  0.74997727  1.0
  Ru  Ru24  1  1.19864116  0.94862279  1.74998195  1.0
  Ru  Ru25  1  0.55136131  0.80134088  1.24997989  1.0
  Ru  Ru26  1  0.69864039  0.44862287  0.74998216  1.0
  Ru  Ru27  1  0.05136159  0.30134138  0.24997947  1.0
  Ru  Ru28  1  1.05134177  1.30135961  1.74998248  1.0
  Ru  Ru29  1  1.19861788  0.94863841  1.24997979  1.0
  Ru  Ru30  1  1.05137721  0.80135916  1.25001837  1.0
  Ru  Ru31  1  1.19865912  1.44863902  1.75002043  1.0
  Ru  Ru32  1  0.69864071  0.94865823  1.25001784  1.0
  Ru  Ru33  1  1.05136191  0.80138212  1.75002053  1.0
  Ru  Ru34  1  0.19864084  0.44865921  0.25001805  1.0
  Ru  Ru35  1  0.55136098  0.30138141  0.75002011  1.0
  Ru  Ru36  1  0.55134079  0.80135884  0.74998163  1.0
  Ru  Ru37  1  0.69861859  0.44863869  0.24997957  1.0
  Ru  Ru38  1  0.55137713  0.30135929  0.25001752  1.0
  Ru  Ru39  1  0.69865862  0.94863809  0.75002021  1.0
