# generated using pymatgen
data_Zr6Ga2Fe
_symmetry_space_group_name_H-M   'P 1'
_cell_length_a   7.86875798
_cell_length_b   7.86875798
_cell_length_c   3.33600056
_cell_angle_alpha   90.00000000
_cell_angle_beta   90.00000000
_cell_angle_gamma   120.00000000
_symmetry_Int_Tables_number   1
_chemical_formula_structural   Zr6Ga2Fe
_chemical_formula_sum   'Zr6 Ga2 Fe1'
_cell_volume   178.88302158
_cell_formula_units_Z   1
loop_
 _symmetry_equiv_pos_site_id
 _symmetry_equiv_pos_as_xyz
  1  'x, y, z'
loop_
 _atom_site_type_symbol
 _atom_site_label
 _atom_site_symmetry_multiplicity
 _atom_site_fract_x
 _atom_site_fract_y
 _atom_site_fract_z
 _atom_site_occupancy
  Zr  Zr0  1  0.75144964  0.75144964  0.50000000  1.0
  Zr  Zr1  1  -0.00000000  0.24855036  0.50000000  1.0
  Zr  Zr2  1  0.24855036  0.00000000  0.50000000  1.0
  Zr  Zr3  1  0.40224348  0.40224348  0.00000000  1.0
  Zr  Zr4  1  -0.00000000  0.59775652  0.00000000  1.0
  Zr  Zr5  1  0.59775652  0.00000000  0.00000000  1.0
  Ga  Ga6  1  0.33333333  0.66666667  0.50000000  1.0
  Ga  Ga7  1  0.66666667  0.33333333  0.50000000  1.0
  Fe  Fe8  1  0.00000000  0.00000000  0.00000000  1.0
