# generated using pymatgen
data_Sr2ZrTiO6
_symmetry_space_group_name_H-M   'P 1'
_cell_length_a   5.72227306
_cell_length_b   5.72227306
_cell_length_c   5.72227306
_cell_angle_alpha   120.49122563
_cell_angle_beta   120.49122563
_cell_angle_gamma   89.15125739
_symmetry_Int_Tables_number   1
_chemical_formula_structural   Sr2ZrTiO6
_chemical_formula_sum   'Sr2 Zr1 Ti1 O6'
_cell_volume   131.49294807
_cell_formula_units_Z   1
loop_
 _symmetry_equiv_pos_site_id
 _symmetry_equiv_pos_as_xyz
  1  'x, y, z'
loop_
 _atom_site_type_symbol
 _atom_site_label
 _atom_site_symmetry_multiplicity
 _atom_site_fract_x
 _atom_site_fract_y
 _atom_site_fract_z
 _atom_site_occupancy
  Sr  Sr0  1  0.75000000  0.25000000  0.50000000  1.0
  Sr  Sr1  1  0.25000000  0.75000000  0.50000000  1.0
  Zr  Zr2  1  0.50000000  0.50000000  1.00000000  1.0
  Ti  Ti3  1  0.00000000  0.00000000  0.00000000  1.0
  O  O4  1  0.24311906  0.24311906  -0.00000000  1.0
  O  O5  1  0.75688094  0.75688094  1.00000000  1.0
  O  O6  1  0.28618081  0.19913249  0.48531331  1.0
  O  O7  1  0.71381919  0.80086751  1.51468669  1.0
  O  O8  1  0.80086751  0.28618081  1.08704832  1.0
  O  O9  1  0.19913249  0.71381919  0.91295168  1.0
