# generated using pymatgen
data_ScAg(PS3)2
_symmetry_space_group_name_H-M   'P 1'
_cell_length_a   6.22467086
_cell_length_b   6.22467086
_cell_length_c   14.73749022
_cell_angle_alpha   90.00000000
_cell_angle_beta   90.00000000
_cell_angle_gamma   120.00000000
_symmetry_Int_Tables_number   1
_chemical_formula_structural   ScAg(PS3)2
_chemical_formula_sum   'Sc2 Ag2 P4 S12'
_cell_volume   494.52351413
_cell_formula_units_Z   2
loop_
 _symmetry_equiv_pos_site_id
 _symmetry_equiv_pos_as_xyz
  1  'x, y, z'
loop_
 _atom_site_type_symbol
 _atom_site_label
 _atom_site_symmetry_multiplicity
 _atom_site_fract_x
 _atom_site_fract_y
 _atom_site_fract_z
 _atom_site_occupancy
  Sc  Sc0  1  0.00000000  0.00000000  0.25000000  1.0
  Sc  Sc1  1  0.00000000  0.00000000  0.75000000  1.0
  Ag  Ag2  1  0.66666667  0.33333333  0.25000000  1.0
  Ag  Ag3  1  0.33333333  0.66666667  0.75000000  1.0
  P  P4  1  0.33333333  0.66666667  0.17445674  1.0
  P  P5  1  0.33333333  0.66666667  0.32554326  1.0
  P  P6  1  0.66666667  0.33333333  0.67445674  1.0
  P  P7  1  0.66666667  0.33333333  0.82554326  1.0
  S  S8  1  0.30427470  0.96698372  0.13597200  1.0
  S  S9  1  0.30427470  0.33729098  0.36402800  1.0
  S  S10  1  0.96698372  0.30427470  0.63597200  1.0
  S  S11  1  0.96698372  0.66270902  0.86402800  1.0
  S  S12  1  0.66270902  0.96698372  0.36402800  1.0
  S  S13  1  0.66270902  0.69572530  0.13597200  1.0
  S  S14  1  0.03301628  0.69572530  0.36402800  1.0
  S  S15  1  0.03301628  0.33729098  0.13597200  1.0
  S  S16  1  0.69572530  0.66270902  0.63597200  1.0
  S  S17  1  0.69572530  0.03301628  0.86402800  1.0
  S  S18  1  0.33729098  0.30427470  0.86402800  1.0
  S  S19  1  0.33729098  0.03301628  0.63597200  1.0
