# generated using pymatgen
data_Na2CrCl4
_symmetry_space_group_name_H-M   'P 1'
_cell_length_a   4.04374153
_cell_length_b   11.60759570
_cell_length_c   7.03898592
_cell_angle_alpha   90.00000000
_cell_angle_beta   93.55340730
_cell_angle_gamma   90.00000000
_symmetry_Int_Tables_number   1
_chemical_formula_structural   Na2CrCl4
_chemical_formula_sum   'Na4 Cr2 Cl8'
_cell_volume   329.76154180
_cell_formula_units_Z   2
loop_
 _symmetry_equiv_pos_site_id
 _symmetry_equiv_pos_as_xyz
  1  'x, y, z'
loop_
 _atom_site_type_symbol
 _atom_site_label
 _atom_site_symmetry_multiplicity
 _atom_site_fract_x
 _atom_site_fract_y
 _atom_site_fract_z
 _atom_site_occupancy
  Na  Na0  1  0.47844216  0.31829125  0.09772702  1.0
  Na  Na1  1  0.47844216  0.18170875  0.59772702  1.0
  Na  Na2  1  0.52155784  0.81829125  0.40227298  1.0
  Na  Na3  1  0.52155784  0.68170875  0.90227298  1.0
  Cr  Cr4  1  0.00000000  0.50000000  0.50000000  1.0
  Cr  Cr5  1  0.00000000  0.00000000  0.00000000  1.0
  Cl  Cl6  1  0.98658813  0.30587784  0.38810724  1.0
  Cl  Cl7  1  0.98658813  0.19412216  0.88810724  1.0
  Cl  Cl8  1  0.01341187  0.80587784  0.11189276  1.0
  Cl  Cl9  1  0.01341187  0.69412216  0.61189276  1.0
  Cl  Cl10  1  0.42637593  0.04698306  0.24067831  1.0
  Cl  Cl11  1  0.42637593  0.45301694  0.74067831  1.0
  Cl  Cl12  1  0.57362407  0.54698306  0.25932169  1.0
  Cl  Cl13  1  0.57362407  0.95301694  0.75932169  1.0
