# generated using pymatgen
data_Lu6Mn23
_symmetry_space_group_name_H-M   'P 1'
_cell_length_a   8.45706757
_cell_length_b   8.45706757
_cell_length_c   8.45706757
_cell_angle_alpha   60.00000000
_cell_angle_beta   60.00000000
_cell_angle_gamma   60.00000000
_symmetry_Int_Tables_number   1
_chemical_formula_structural   Lu6Mn23
_chemical_formula_sum   'Lu6 Mn23'
_cell_volume   427.70507575
_cell_formula_units_Z   1
loop_
 _symmetry_equiv_pos_site_id
 _symmetry_equiv_pos_as_xyz
  1  'x, y, z'
loop_
 _atom_site_type_symbol
 _atom_site_label
 _atom_site_symmetry_multiplicity
 _atom_site_fract_x
 _atom_site_fract_y
 _atom_site_fract_z
 _atom_site_occupancy
  Mn  Mn0  1  0.67699767  0.67699767  -0.32300233  1.0
  Mn  Mn1  1  1.32300233  0.32300233  0.03099302  1.0
  Mn  Mn2  1  1.32300233  0.03099302  0.32300233  1.0
  Mn  Mn3  1  0.96900698  0.67699767  -0.32300233  1.0
  Mn  Mn4  1  1.03099302  0.32300233  0.32300233  1.0
  Mn  Mn5  1  0.67699767  0.96900698  -0.32300233  1.0
  Mn  Mn6  1  0.67699767  0.67699767  -0.03099302  1.0
  Mn  Mn7  1  1.32300233  0.32300233  0.32300233  1.0
  Mn  Mn8  1  0.88166532  0.88166532  -0.11833468  1.0
  Mn  Mn9  1  1.11833468  0.11833468  0.64499596  1.0
  Mn  Mn10  1  1.11833468  0.64499596  0.11833468  1.0
  Mn  Mn11  1  0.35500404  0.88166532  -0.11833468  1.0
  Mn  Mn12  1  1.64499596  0.11833468  0.11833468  1.0
  Mn  Mn13  1  0.88166532  0.35500404  -0.11833468  1.0
  Mn  Mn14  1  0.88166532  0.88166532  -0.64499596  1.0
  Mn  Mn15  1  1.11833468  0.11833468  0.11833468  1.0
  Mn  Mn16  1  1.50000000  -0.00000000  0.00000000  1.0
  Mn  Mn17  1  1.00000000  0.50000000  -0.50000000  1.0
  Mn  Mn18  1  -0.00000000  1.50000000  0.00000000  1.0
  Mn  Mn19  1  0.50000000  1.00000000  -0.50000000  1.0
  Mn  Mn20  1  -0.00000000  -0.00000000  0.50000000  1.0
  Mn  Mn21  1  0.50000000  -0.50000000  1.00000000  1.0
  Mn  Mn22  1  0.00000000  -0.00000000  -0.00000000  1.0
  Lu  Lu23  1  -0.70546120  0.70546120  0.70546120  1.0
  Lu  Lu24  1  -0.29453880  0.29453880  0.70546120  1.0
  Lu  Lu25  1  0.70546120  0.70546120  -0.70546120  1.0
  Lu  Lu26  1  0.29453880  1.29453880  -0.29453880  1.0
  Lu  Lu27  1  0.29453880  -0.29453880  1.29453880  1.0
  Lu  Lu28  1  -0.29453880  0.29453880  0.29453880  1.0
