# generated using pymatgen
data_Sr2Co(SeO3)3
_symmetry_space_group_name_H-M   'P 1'
_cell_length_a   7.77965434
_cell_length_b   7.43195451
_cell_length_c   8.82945647
_cell_angle_alpha   105.27364857
_cell_angle_beta   103.22211165
_cell_angle_gamma   96.00083146
_symmetry_Int_Tables_number   1
_chemical_formula_structural   Sr2Co(SeO3)3
_chemical_formula_sum   'Sr4 Co2 Se6 O18'
_cell_volume   471.97594017
_cell_formula_units_Z   2
loop_
 _symmetry_equiv_pos_site_id
 _symmetry_equiv_pos_as_xyz
  1  'x, y, z'
loop_
 _atom_site_type_symbol
 _atom_site_label
 _atom_site_symmetry_multiplicity
 _atom_site_fract_x
 _atom_site_fract_y
 _atom_site_fract_z
 _atom_site_occupancy
  Sr  Sr0  1  -0.51538826  -0.37182629  -0.69302946  1.0
  Sr  Sr1  1  -0.48461174  -0.62817371  -0.30697054  1.0
  Sr  Sr2  1  -0.90957049  -0.75460184  -0.11078070  1.0
  Sr  Sr3  1  -0.09042951  -0.24539816  -0.88921930  1.0
  Co  Co4  1  -0.65925392  -0.90211010  -0.74448031  1.0
  Co  Co5  1  -0.34074608  -0.09788990  -0.25551969  1.0
  Se  Se6  1  -0.91592808  -0.63716743  -0.70639892  1.0
  Se  Se7  1  -0.08407192  -0.36283257  -0.29360108  1.0
  Se  Se8  1  -0.21056217  -0.90366760  -0.53843997  1.0
  Se  Se9  1  -0.78943783  -0.09633240  -0.46156003  1.0
  Se  Se10  1  -0.36681466  -0.76518370  -0.91477807  1.0
  Se  Se11  1  -0.63318534  -0.23481630  -0.08522193  1.0
  O  O12  1  -0.81562926  -0.05872168  -0.64994876  1.0
  O  O13  1  -0.18437074  -0.94127832  -0.35005124  1.0
  O  O14  1  -0.69696932  -0.63881437  -0.60156993  1.0
  O  O15  1  -0.30303068  -0.36118563  -0.39843007  1.0
  O  O16  1  -0.30211304  -0.52417419  -0.85455461  1.0
  O  O17  1  -0.69788696  -0.47582581  -0.14544539  1.0
  O  O18  1  -0.87477411  -0.48612620  -0.81733555  1.0
  O  O19  1  -0.12522589  -0.51387380  -0.18266445  1.0
  O  O20  1  -0.62612149  -0.17362836  -0.88155883  1.0
  O  O21  1  -0.37387851  -0.82637164  -0.11844117  1.0
  O  O22  1  -0.75329886  -0.87332655  -0.33137550  1.0
  O  O23  1  -0.24670114  -0.12667345  -0.66862450  1.0
  O  O24  1  -0.95326552  -0.85239513  -0.85408785  1.0
  O  O25  1  -0.04673448  -0.14760487  -0.14591215  1.0
  O  O26  1  -0.41923541  -0.83433174  -0.56816822  1.0
  O  O27  1  -0.58076459  -0.16566826  -0.43183178  1.0
  O  O28  1  -0.59310896  -0.77465987  -0.90898630  1.0
  O  O29  1  -0.40689104  -0.22534013  -0.09101370  1.0
