# generated using pymatgen
data_Y4Si2S3O7
_symmetry_space_group_name_H-M   'P 1'
_cell_length_a   10.75861926
_cell_length_b   10.75861926
_cell_length_c   10.75861926
_cell_angle_alpha   113.86125418
_cell_angle_beta   113.86125418
_cell_angle_gamma   101.00843610
_symmetry_Int_Tables_number   1
_chemical_formula_structural   Y4Si2S3O7
_chemical_formula_sum   'Y16 Si8 S12 O28'
_cell_volume   943.27031368
_cell_formula_units_Z   4
loop_
 _symmetry_equiv_pos_site_id
 _symmetry_equiv_pos_as_xyz
  1  'x, y, z'
loop_
 _atom_site_type_symbol
 _atom_site_label
 _atom_site_symmetry_multiplicity
 _atom_site_fract_x
 _atom_site_fract_y
 _atom_site_fract_z
 _atom_site_occupancy
  Y  Y0  1  0.03353943  0.79790746  0.76436803  1.0
  Y  Y1  1  0.54790746  0.28353943  0.26436803  1.0
  Y  Y2  1  1.01917139  1.28353943  0.73563197  1.0
  Y  Y3  1  0.03353943  0.26917139  0.23563197  1.0
  Y  Y4  1  0.71646057  1.45209254  0.73563197  1.0
  Y  Y5  1  1.20209254  0.96646057  1.23563197  1.0
  Y  Y6  1  1.73082861  0.96646057  0.76436803  1.0
  Y  Y7  1  0.71646057  0.98082861  0.26436803  1.0
  Y  Y8  1  0.67200710  0.67200710  0.34401421  1.0
  Y  Y9  1  1.32799290  0.67200710  1.00000000  1.0
  Y  Y10  1  0.42200710  0.92200710  0.84401421  1.0
  Y  Y11  1  1.07799290  0.92200710  0.50000000  1.0
  Y  Y12  1  0.67200710  0.32799290  1.00000000  1.0
  Y  Y13  1  1.32799290  1.32799290  1.65598579  1.0
  Y  Y14  1  0.42200710  0.57799290  0.50000000  1.0
  Y  Y15  1  1.07799290  0.57799290  1.15598579  1.0
  Si  Si16  1  0.27907978  1.15409121  0.87501143  1.0
  Si  Si17  1  0.90409121  0.52907978  0.37501143  1.0
  Si  Si18  1  1.15406836  0.52907978  0.62498857  1.0
  Si  Si19  1  0.27907978  0.40406836  0.12498857  1.0
  Si  Si20  1  0.47092022  1.09590879  0.62498857  1.0
  Si  Si21  1  0.84590879  0.72092022  1.12498857  1.0
  Si  Si22  1  0.59593164  0.72092022  0.87501143  1.0
  Si  Si23  1  0.47092022  0.84593164  0.37501143  1.0
  S  S24  1  0.72885277  1.12500000  1.10385277  1.0
  S  S25  1  1.02114723  1.12500000  0.39614723  1.0
  S  S26  1  0.87500000  0.97885277  0.60385277  1.0
  S  S27  1  1.37500000  0.97885277  1.10385277  1.0
  S  S28  1  0.72885277  0.62500000  0.60385277  1.0
  S  S29  1  1.02114723  0.62500000  0.89614723  1.0
  S  S30  1  0.87500000  0.27114723  0.89614723  1.0
  S  S31  1  1.37500000  1.27114723  1.39614723  1.0
  S  S32  1  -0.00000000  -0.00000000  -0.00000000  1.0
  S  S33  1  0.75000000  1.25000000  0.50000000  1.0
  S  S34  1  0.25000000  0.75000000  0.50000000  1.0
  S  S35  1  0.50000000  0.50000000  -0.00000000  1.0
  O  O36  1  0.45684842  1.19231280  0.98210273  1.0
  O  O37  1  1.21021007  1.19231280  0.73546438  1.0
  O  O38  1  0.94231280  0.70684842  0.48210273  1.0
  O  O39  1  0.22474569  0.70684842  0.76453562  1.0
  O  O40  1  0.45684842  0.47474569  0.26453562  1.0
  O  O41  1  1.21021007  0.47474569  1.01789727  1.0
  O  O42  1  0.94231280  0.46021007  1.23546438  1.0
  O  O43  1  0.22474569  0.46021007  0.51789727  1.0
  O  O44  1  1.29315158  1.05768720  1.51789727  1.0
  O  O45  1  1.53978993  1.05768720  0.76453562  1.0
  O  O46  1  0.80768720  0.54315158  1.01789727  1.0
  O  O47  1  1.52525431  1.54315158  1.73546438  1.0
  O  O48  1  1.29315158  0.77525431  1.23546438  1.0
  O  O49  1  0.53978993  0.77525431  0.48210273  1.0
  O  O50  1  0.80768720  0.78978993  0.26453562  1.0
  O  O51  1  1.52525431  0.78978993  0.98210273  1.0
  O  O52  1  0.20084054  0.96831283  0.76747230  1.0
  O  O53  1  0.71831283  0.45084054  0.26747230  1.0
  O  O54  1  1.18336824  1.45084054  0.73252770  1.0
  O  O55  1  0.20084054  0.43336824  0.23252770  1.0
  O  O56  1  0.54915946  1.28168717  0.73252770  1.0
  O  O57  1  1.03168717  0.79915946  1.23252770  1.0
  O  O58  1  1.56663176  0.79915946  0.76747230  1.0
  O  O59  1  0.54915946  0.81663176  0.26747230  1.0
  O  O60  1  0.22559758  0.22559758  0.00000000  1.0
  O  O61  1  0.97559758  0.47559758  0.50000000  1.0
  O  O62  1  0.52440242  1.02440242  0.50000000  1.0
  O  O63  1  0.77440242  0.77440242  1.00000000  1.0
