# generated using pymatgen
data_Cs2GeSe3
_symmetry_space_group_name_H-M   'P 1'
_cell_length_a   8.26468374
_cell_length_b   8.26468374
_cell_length_c   10.71099860
_cell_angle_alpha   59.14446470
_cell_angle_beta   120.85553530
_cell_angle_gamma   125.73848274
_symmetry_Int_Tables_number   1
_chemical_formula_structural   Cs2GeSe3
_chemical_formula_sum   'Cs4 Ge2 Se6'
_cell_volume   485.31947313
_cell_formula_units_Z   2
loop_
 _symmetry_equiv_pos_site_id
 _symmetry_equiv_pos_as_xyz
  1  'x, y, z'
loop_
 _atom_site_type_symbol
 _atom_site_label
 _atom_site_symmetry_multiplicity
 _atom_site_fract_x
 _atom_site_fract_y
 _atom_site_fract_z
 _atom_site_occupancy
  Cs  Cs0  1  1.41437287  -0.41437287  0.63229353  1.0
  Cs  Cs1  1  0.58562713  0.41437287  0.36770647  1.0
  Cs  Cs2  1  0.19376275  -0.19376275  0.82183313  1.0
  Cs  Cs3  1  0.80623725  -0.80623725  0.17816687  1.0
  Ge  Ge4  1  0.88389974  0.11610026  0.82082169  1.0
  Ge  Ge5  1  1.11610026  -0.11610026  0.17917831  1.0
  Se  Se6  1  0.88993959  -0.88993959  0.60826785  1.0
  Se  Se7  1  0.11006041  -0.11006041  0.39173215  1.0
  Se  Se8  1  0.70833295  0.29166705  0.77533967  1.0
  Se  Se9  1  1.29166705  -0.29166705  0.22466033  1.0
  Se  Se10  1  0.75954582  0.75954582  -0.00000000  1.0
  Se  Se11  1  0.24045418  0.24045418  -0.00000000  1.0
