# generated using pymatgen
data_YPO4
_symmetry_space_group_name_H-M   'P 1'
_cell_length_a   6.35085797
_cell_length_b   6.83940415
_cell_length_c   7.97765098
_cell_angle_alpha   90.00000000
_cell_angle_beta   125.98135588
_cell_angle_gamma   90.00000000
_symmetry_Int_Tables_number   1
_chemical_formula_structural   YPO4
_chemical_formula_sum   'Y4 P4 O16'
_cell_volume   280.40514940
_cell_formula_units_Z   4
loop_
 _symmetry_equiv_pos_site_id
 _symmetry_equiv_pos_as_xyz
  1  'x, y, z'
loop_
 _atom_site_type_symbol
 _atom_site_label
 _atom_site_symmetry_multiplicity
 _atom_site_fract_x
 _atom_site_fract_y
 _atom_site_fract_z
 _atom_site_occupancy
  Y  Y0  1  0.80685858  0.84917598  0.21690814  1.0
  Y  Y1  1  0.80685858  0.65082402  0.71690814  1.0
  Y  Y2  1  0.19314142  0.34917598  0.28309186  1.0
  Y  Y3  1  0.19314142  0.15082402  0.78309186  1.0
  P  P4  1  0.69037273  0.34058741  0.30177028  1.0
  P  P5  1  0.69037273  0.15941259  0.80177028  1.0
  P  P6  1  0.30962727  0.84058741  0.19822972  1.0
  P  P7  1  0.30962727  0.65941259  0.69822972  1.0
  O  O8  1  0.87936321  0.16143503  0.38623683  1.0
  O  O9  1  0.87936321  0.33856497  0.88623683  1.0
  O  O10  1  0.12063679  0.66143503  0.11376317  1.0
  O  O11  1  0.12063679  0.83856497  0.61376317  1.0
  O  O12  1  0.82314374  0.49920239  0.25336412  1.0
  O  O13  1  0.82314374  0.00079761  0.75336412  1.0
  O  O14  1  0.17685626  0.99920239  0.24663588  1.0
  O  O15  1  0.17685626  0.50079761  0.74663588  1.0
  O  O16  1  0.65275961  0.40298628  0.47033496  1.0
  O  O17  1  0.65275961  0.09701372  0.97033496  1.0
  O  O18  1  0.34724039  0.90298628  0.02966504  1.0
  O  O19  1  0.34724039  0.59701372  0.52966504  1.0
  O  O20  1  0.40636392  0.29294457  0.11734562  1.0
  O  O21  1  0.40636392  0.20705543  0.61734562  1.0
  O  O22  1  0.59363608  0.79294457  0.38265438  1.0
  O  O23  1  0.59363608  0.70705543  0.88265438  1.0
