# generated using pymatgen
data_CoF3
_symmetry_space_group_name_H-M   'P 1'
_cell_length_a   5.35450292
_cell_length_b   5.35450292
_cell_length_c   5.35450292
_cell_angle_alpha   57.67819270
_cell_angle_beta   57.67819270
_cell_angle_gamma   57.67819269
_symmetry_Int_Tables_number   1
_chemical_formula_structural   CoF3
_chemical_formula_sum   'Co2 F6'
_cell_volume   102.76176278
_cell_formula_units_Z   2
loop_
 _symmetry_equiv_pos_site_id
 _symmetry_equiv_pos_as_xyz
  1  'x, y, z'
loop_
 _atom_site_type_symbol
 _atom_site_label
 _atom_site_symmetry_multiplicity
 _atom_site_fract_x
 _atom_site_fract_y
 _atom_site_fract_z
 _atom_site_occupancy
  Co  Co0  1  1.00000000  -0.00000000  -0.00000000  1.0
  Co  Co1  1  0.50000000  0.50000000  0.50000000  1.0
  F  F2  1  1.35047312  -0.25000000  0.14952688  1.0
  F  F3  1  0.85047312  -0.35047312  0.25000000  1.0
  F  F4  1  0.25000000  0.85047312  -0.35047312  1.0
  F  F5  1  0.75000000  0.14952688  0.35047312  1.0
  F  F6  1  0.64952688  0.25000000  -0.14952688  1.0
  F  F7  1  1.14952688  0.35047312  -0.25000000  1.0
