# generated using pymatgen
data_Sr2CrClO4
_symmetry_space_group_name_H-M   'P 1'
_cell_length_a   6.60065243
_cell_length_b   7.53917906
_cell_length_c   11.56475258
_cell_angle_alpha   90.00000000
_cell_angle_beta   90.00000000
_cell_angle_gamma   90.00000000
_symmetry_Int_Tables_number   1
_chemical_formula_structural   Sr2CrClO4
_chemical_formula_sum   'Sr8 Cr4 Cl4 O16'
_cell_volume   575.50257109
_cell_formula_units_Z   4
loop_
 _symmetry_equiv_pos_site_id
 _symmetry_equiv_pos_as_xyz
  1  'x, y, z'
loop_
 _atom_site_type_symbol
 _atom_site_label
 _atom_site_symmetry_multiplicity
 _atom_site_fract_x
 _atom_site_fract_y
 _atom_site_fract_z
 _atom_site_occupancy
  Sr  Sr0  1  0.86282033  0.96392143  0.75000000  1.0
  Sr  Sr1  1  0.86282033  0.53607857  0.25000000  1.0
  Sr  Sr2  1  0.13717967  0.46392143  0.75000000  1.0
  Sr  Sr3  1  0.13717967  0.03607857  0.25000000  1.0
  Sr  Sr4  1  0.37287018  0.75000000  0.00000000  1.0
  Sr  Sr5  1  0.37287018  0.75000000  0.50000000  1.0
  Sr  Sr6  1  0.62712982  0.25000000  0.00000000  1.0
  Sr  Sr7  1  0.62712982  0.25000000  0.50000000  1.0
  Cr  Cr8  1  0.87015351  0.75000000  0.00000000  1.0
  Cr  Cr9  1  0.87015351  0.75000000  0.50000000  1.0
  Cr  Cr10  1  0.12984649  0.25000000  0.00000000  1.0
  Cr  Cr11  1  0.12984649  0.25000000  0.50000000  1.0
  Cl  Cl12  1  0.49952354  0.69607017  0.75000000  1.0
  Cl  Cl13  1  0.49952354  0.80392983  0.25000000  1.0
  Cl  Cl14  1  0.50047646  0.19607017  0.75000000  1.0
  Cl  Cl15  1  0.50047646  0.30392983  0.25000000  1.0
  O  O16  1  0.97403340  0.22640155  0.88223725  1.0
  O  O17  1  0.97403340  0.22640155  0.61776275  1.0
  O  O18  1  0.97403340  0.27359845  0.38223725  1.0
  O  O19  1  0.97403340  0.27359845  0.11776275  1.0
  O  O20  1  0.02596660  0.72640155  0.88223725  1.0
  O  O21  1  0.02596660  0.72640155  0.61776275  1.0
  O  O22  1  0.02596660  0.77359845  0.38223725  1.0
  O  O23  1  0.02596660  0.77359845  0.11776275  1.0
  O  O24  1  0.71404467  0.92380945  0.96846947  1.0
  O  O25  1  0.71404467  0.92380945  0.53153053  1.0
  O  O26  1  0.71404467  0.57619055  0.46846947  1.0
  O  O27  1  0.71404467  0.57619055  0.03153053  1.0
  O  O28  1  0.28595533  0.42380945  0.96846947  1.0
  O  O29  1  0.28595533  0.42380945  0.53153053  1.0
  O  O30  1  0.28595533  0.07619055  0.46846947  1.0
  O  O31  1  0.28595533  0.07619055  0.03153053  1.0
