# generated using pymatgen
data_Sc(FeSi)2
_symmetry_space_group_name_H-M   'P 1'
_cell_length_a   7.44560910
_cell_length_b   7.06228205
_cell_length_c   4.98226682
_cell_angle_alpha   90.00000000
_cell_angle_beta   90.00000000
_cell_angle_gamma   90.00000000
_symmetry_Int_Tables_number   1
_chemical_formula_structural   Sc(FeSi)2
_chemical_formula_sum   'Sc4 Fe8 Si8'
_cell_volume   261.98249391
_cell_formula_units_Z   4
loop_
 _symmetry_equiv_pos_site_id
 _symmetry_equiv_pos_as_xyz
  1  'x, y, z'
loop_
 _atom_site_type_symbol
 _atom_site_label
 _atom_site_symmetry_multiplicity
 _atom_site_fract_x
 _atom_site_fract_y
 _atom_site_fract_z
 _atom_site_occupancy
  Sc  Sc0  1  0.74837394  0.09325135  0.75000000  1.0
  Sc  Sc1  1  0.74837394  0.40674865  0.25000000  1.0
  Sc  Sc2  1  0.25162606  0.59325135  0.75000000  1.0
  Sc  Sc3  1  0.25162606  0.90674865  0.25000000  1.0
  Fe  Fe4  1  0.61601583  0.48895565  0.75000000  1.0
  Fe  Fe5  1  0.61601583  0.01104435  0.25000000  1.0
  Fe  Fe6  1  0.38398417  0.98895565  0.75000000  1.0
  Fe  Fe7  1  0.38398417  0.51104435  0.25000000  1.0
  Fe  Fe8  1  0.11748992  0.25000000  0.00000000  1.0
  Fe  Fe9  1  0.11748992  0.25000000  0.50000000  1.0
  Fe  Fe10  1  0.88251008  0.75000000  0.00000000  1.0
  Fe  Fe11  1  0.88251008  0.75000000  0.50000000  1.0
  Si  Si12  1  0.91690453  0.44949019  0.75000000  1.0
  Si  Si13  1  0.91690453  0.05050981  0.25000000  1.0
  Si  Si14  1  0.08309547  0.94949019  0.75000000  1.0
  Si  Si15  1  0.08309547  0.55050981  0.25000000  1.0
  Si  Si16  1  0.45117926  0.25000000  0.00000000  1.0
  Si  Si17  1  0.45117926  0.25000000  0.50000000  1.0
  Si  Si18  1  0.54882074  0.75000000  0.00000000  1.0
  Si  Si19  1  0.54882074  0.75000000  0.50000000  1.0
