# generated using pymatgen
data_Al2ZnSe4
_symmetry_space_group_name_H-M   'P 1'
_cell_length_a   6.78257844
_cell_length_b   6.78257844
_cell_length_c   6.78257844
_cell_angle_alpha   130.98490401
_cell_angle_beta   130.98490401
_cell_angle_gamma   71.83706450
_symmetry_Int_Tables_number   1
_chemical_formula_structural   Al2ZnSe4
_chemical_formula_sum   'Al2 Zn1 Se4'
_cell_volume   173.92221164
_cell_formula_units_Z   1
loop_
 _symmetry_equiv_pos_site_id
 _symmetry_equiv_pos_as_xyz
  1  'x, y, z'
loop_
 _atom_site_type_symbol
 _atom_site_label
 _atom_site_symmetry_multiplicity
 _atom_site_fract_x
 _atom_site_fract_y
 _atom_site_fract_z
 _atom_site_occupancy
  Al  Al0  1  0.25000000  0.75000000  0.50000000  1.0
  Al  Al1  1  0.00000000  0.00000000  0.00000000  1.0
  Zn  Zn2  1  0.50000000  0.50000000  1.00000000  1.0
  Se  Se3  1  0.38401849  0.89514164  1.01489373  1.0
  Se  Se4  1  1.10485836  1.11975209  1.48887685  1.0
  Se  Se5  1  0.88024791  0.36912476  0.98510627  1.0
  Se  Se6  1  0.63087524  0.61598151  0.51112315  1.0
