# generated using pymatgen
data_LiN3
_symmetry_space_group_name_H-M   'P 1'
_cell_length_a   3.28784055
_cell_length_b   3.28784055
_cell_length_c   4.97998222
_cell_angle_alpha   74.99794388
_cell_angle_beta   105.00205612
_cell_angle_gamma   118.73837248
_symmetry_Int_Tables_number   1
_chemical_formula_structural   LiN3
_chemical_formula_sum   'Li1 N3'
_cell_volume   45.01566878
_cell_formula_units_Z   1
loop_
 _symmetry_equiv_pos_site_id
 _symmetry_equiv_pos_as_xyz
  1  'x, y, z'
loop_
 _atom_site_type_symbol
 _atom_site_label
 _atom_site_symmetry_multiplicity
 _atom_site_fract_x
 _atom_site_fract_y
 _atom_site_fract_z
 _atom_site_occupancy
  Li  Li0  1  0.50000000  -0.50000000  0.50000000  1.0
  N  N1  1  0.89393503  -0.89393503  0.75664434  1.0
  N  N2  1  0.10606497  -0.10606497  0.24335566  1.0
  N  N3  1  0.00000000  0.00000000  0.00000000  1.0
