# generated using pymatgen
data_LaH3CSO7
_symmetry_space_group_name_H-M   'P 1'
_cell_length_a   7.14693819
_cell_length_b   7.14693819
_cell_length_c   12.02068116
_cell_angle_alpha   90.00000000
_cell_angle_beta   90.00000000
_cell_angle_gamma   90.00000000
_symmetry_Int_Tables_number   1
_chemical_formula_structural   LaH3CSO7
_chemical_formula_sum   'La4 H12 C4 S4 O28'
_cell_volume   614.00107329
_cell_formula_units_Z   4
loop_
 _symmetry_equiv_pos_site_id
 _symmetry_equiv_pos_as_xyz
  1  'x, y, z'
loop_
 _atom_site_type_symbol
 _atom_site_label
 _atom_site_symmetry_multiplicity
 _atom_site_fract_x
 _atom_site_fract_y
 _atom_site_fract_z
 _atom_site_occupancy
  La  La0  1  0.11613421  0.62884316  0.90700166  1.0
  La  La1  1  0.88386579  0.37115684  0.40700166  1.0
  La  La2  1  0.62884316  0.88386579  0.65700166  1.0
  La  La3  1  0.37115684  0.11613421  0.15700166  1.0
  H  H4  1  0.02962958  0.13784305  0.86700637  1.0
  H  H5  1  0.97037042  0.86215695  0.36700637  1.0
  H  H6  1  0.13784305  0.97037042  0.61700637  1.0
  H  H7  1  0.86215695  0.02962958  0.11700637  1.0
  H  H8  1  0.18862060  0.39899070  0.68359742  1.0
  H  H9  1  0.81137940  0.60100930  0.18359742  1.0
  H  H10  1  0.39899070  0.81137940  0.43359742  1.0
  H  H11  1  0.60100930  0.18862060  0.93359742  1.0
  H  H12  1  0.38942980  0.45610323  0.72649065  1.0
  H  H13  1  0.61057020  0.54389677  0.22649065  1.0
  H  H14  1  0.45610323  0.61057020  0.47649065  1.0
  H  H15  1  0.54389677  0.38942980  0.97649065  1.0
  C  C16  1  0.11396866  0.13360842  0.94385718  1.0
  C  C17  1  0.88603134  0.86639158  0.44385718  1.0
  C  C18  1  0.13360842  0.88603134  0.69385718  1.0
  C  C19  1  0.86639158  0.11396866  0.19385718  1.0
  S  S20  1  0.76769761  0.38612820  0.71453639  1.0
  S  S21  1  0.23230239  0.61387180  0.21453639  1.0
  S  S22  1  0.38612820  0.23230239  0.46453639  1.0
  S  S23  1  0.61387180  0.76769761  0.96453639  1.0
  O  O24  1  0.88809342  0.36885524  0.61400209  1.0
  O  O25  1  0.11190658  0.63114476  0.11400209  1.0
  O  O26  1  0.36885524  0.11190658  0.36400209  1.0
  O  O27  1  0.63114476  0.88809342  0.86400209  1.0
  O  O28  1  0.62088816  0.53439156  0.69560295  1.0
  O  O29  1  0.37911184  0.46560844  0.19560295  1.0
  O  O30  1  0.53439156  0.37911184  0.44560295  1.0
  O  O31  1  0.46560844  0.62088816  0.94560295  1.0
  O  O32  1  0.88551828  0.43975433  0.81123688  1.0
  O  O33  1  0.11448172  0.56024567  0.31123688  1.0
  O  O34  1  0.43975433  0.11448172  0.56123688  1.0
  O  O35  1  0.56024567  0.88551828  0.06123688  1.0
  O  O36  1  0.67573578  0.20491935  0.74047049  1.0
  O  O37  1  0.32426422  0.79508065  0.24047049  1.0
  O  O38  1  0.20491935  0.32426422  0.49047049  1.0
  O  O39  1  0.79508065  0.67573578  -0.00952951  1.0
  O  O40  1  0.15729016  0.28631900  0.99072843  1.0
  O  O41  1  0.84270984  0.71368100  0.49072843  1.0
  O  O42  1  0.28631900  0.84270984  0.74072843  1.0
  O  O43  1  0.71368100  0.15729016  0.24072843  1.0
  O  O44  1  0.16222705  0.97523366  0.98361149  1.0
  O  O45  1  0.83777295  0.02476634  0.48361149  1.0
  O  O46  1  0.97523366  0.83777295  0.73361149  1.0
  O  O47  1  0.02476634  0.16222705  0.23361149  1.0
  O  O48  1  0.25958453  0.43076993  0.75053502  1.0
  O  O49  1  0.74041547  0.56923007  0.25053502  1.0
  O  O50  1  0.43076993  0.74041547  0.50053502  1.0
  O  O51  1  0.56923007  0.25958453  1.00053502  1.0
