# generated using pymatgen
data_NiMo3
_symmetry_space_group_name_H-M   'P 1'
_cell_length_a   4.39988869
_cell_length_b   5.44432188
_cell_length_c   4.87841180
_cell_angle_alpha   90.00000000
_cell_angle_beta   90.00000000
_cell_angle_gamma   90.00000000
_symmetry_Int_Tables_number   1
_chemical_formula_structural   NiMo3
_chemical_formula_sum   'Ni2 Mo6'
_cell_volume   116.85947776
_cell_formula_units_Z   2
loop_
 _symmetry_equiv_pos_site_id
 _symmetry_equiv_pos_as_xyz
  1  'x, y, z'
loop_
 _atom_site_type_symbol
 _atom_site_label
 _atom_site_symmetry_multiplicity
 _atom_site_fract_x
 _atom_site_fract_y
 _atom_site_fract_z
 _atom_site_occupancy
  Ni  Ni0  1  0.50000000  0.00000000  0.17190441  1.0
  Ni  Ni1  1  0.00000000  0.50000000  0.82809559  1.0
  Mo  Mo2  1  0.50000000  0.76096582  0.65757172  1.0
  Mo  Mo3  1  0.50000000  0.23903418  0.65757172  1.0
  Mo  Mo4  1  0.00000000  0.26096582  0.34242828  1.0
  Mo  Mo5  1  0.00000000  0.73903418  0.34242828  1.0
  Mo  Mo6  1  0.50000000  0.50000000  0.14073254  1.0
  Mo  Mo7  1  0.00000000  0.00000000  0.85926746  1.0
