# generated using pymatgen
data_Y2Pd2O5
_symmetry_space_group_name_H-M   'P 1'
_cell_length_a   6.46172258
_cell_length_b   6.46172258
_cell_length_c   5.49753036
_cell_angle_alpha   90.00000000
_cell_angle_beta   90.00000000
_cell_angle_gamma   90.00000000
_symmetry_Int_Tables_number   1
_chemical_formula_structural   Y2Pd2O5
_chemical_formula_sum   'Y4 Pd4 O10'
_cell_volume   229.54310618
_cell_formula_units_Z   2
loop_
 _symmetry_equiv_pos_site_id
 _symmetry_equiv_pos_as_xyz
  1  'x, y, z'
loop_
 _atom_site_type_symbol
 _atom_site_label
 _atom_site_symmetry_multiplicity
 _atom_site_fract_x
 _atom_site_fract_y
 _atom_site_fract_z
 _atom_site_occupancy
  Y  Y0  1  0.74600558  0.89768536  0.00000000  1.0
  Y  Y1  1  0.89768536  0.25399442  0.50000000  1.0
  Y  Y2  1  0.25399442  0.10231464  0.00000000  1.0
  Y  Y3  1  0.10231464  0.74600558  0.50000000  1.0
  Pd  Pd4  1  0.70292054  0.40562788  0.00000000  1.0
  Pd  Pd5  1  0.40562788  0.29707946  0.50000000  1.0
  Pd  Pd6  1  0.29707946  0.59437212  0.00000000  1.0
  Pd  Pd7  1  0.59437212  0.70292054  0.50000000  1.0
  O  O8  1  0.81097290  0.60880571  0.74219346  1.0
  O  O9  1  0.81097290  0.60880571  0.25780654  1.0
  O  O10  1  0.60880571  0.18902710  0.24219346  1.0
  O  O11  1  0.60880571  0.18902710  0.75780654  1.0
  O  O12  1  0.18902710  0.39119429  0.74219346  1.0
  O  O13  1  0.18902710  0.39119429  0.25780654  1.0
  O  O14  1  0.39119429  0.81097290  0.24219346  1.0
  O  O15  1  0.39119429  0.81097290  0.75780654  1.0
  O  O16  1  0.00000000  0.00000000  0.75000000  1.0
  O  O17  1  0.00000000  0.00000000  0.25000000  1.0
