# generated using pymatgen
data_Cd3H6C2I6(NO)2
_symmetry_space_group_name_H-M   'P 1'
_cell_length_a   14.24459839
_cell_length_b   16.38987424
_cell_length_c   4.26796462
_cell_angle_alpha   90.00000000
_cell_angle_beta   90.00000000
_cell_angle_gamma   90.00000000
_symmetry_Int_Tables_number   1
_chemical_formula_structural   Cd3H6C2I6(NO)2
_chemical_formula_sum   'Cd6 H12 C4 I12 N4 O4'
_cell_volume   996.42964955
_cell_formula_units_Z   2
loop_
 _symmetry_equiv_pos_site_id
 _symmetry_equiv_pos_as_xyz
  1  'x, y, z'
loop_
 _atom_site_type_symbol
 _atom_site_label
 _atom_site_symmetry_multiplicity
 _atom_site_fract_x
 _atom_site_fract_y
 _atom_site_fract_z
 _atom_site_occupancy
  Cd  Cd0  1  0.73441879  0.11005931  0.06012276  1.0
  Cd  Cd1  1  0.26558121  0.88994069  0.06012276  1.0
  Cd  Cd2  1  0.23441879  0.38994069  0.56012276  1.0
  Cd  Cd3  1  0.76558121  0.61005931  0.56012276  1.0
  Cd  Cd4  1  0.50000000  0.00000000  0.55992650  1.0
  Cd  Cd5  1  0.00000000  0.50000000  0.05992650  1.0
  H  H6  1  0.07570586  0.04530711  0.05969383  1.0
  H  H7  1  0.92429414  0.95469289  0.05969383  1.0
  H  H8  1  0.57570586  0.45469289  0.55969383  1.0
  H  H9  1  0.42429414  0.54530711  0.55969383  1.0
  H  H10  1  0.10414026  0.15021887  0.05918375  1.0
  H  H11  1  0.89585974  0.84978113  0.05918375  1.0
  H  H12  1  0.60414026  0.34978113  0.55918375  1.0
  H  H13  1  0.39585974  0.65021887  0.55918375  1.0
  H  H14  1  0.94830304  0.19046107  1.05897657  1.0
  H  H15  1  0.05169696  0.80953893  1.05897657  1.0
  H  H16  1  0.44830304  0.30953893  0.55897657  1.0
  H  H17  1  0.55169696  0.69046107  0.55897657  1.0
  C  C18  1  0.96404476  0.12449969  0.05935369  1.0
  C  C19  1  0.03595524  0.87550031  0.05935369  1.0
  C  C20  1  0.46404476  0.37550031  0.55935369  1.0
  C  C21  1  0.53595524  0.62449969  0.55935369  1.0
  I  I22  1  0.52103548  0.12800761  0.05990081  1.0
  I  I23  1  0.47896452  0.87199239  0.05990081  1.0
  I  I24  1  0.02103548  0.37199239  0.55990081  1.0
  I  I25  1  0.97896452  0.62800761  0.55990081  1.0
  I  I26  1  0.76084727  0.23243618  0.56012895  1.0
  I  I27  1  0.23915273  0.76756382  0.56012895  1.0
  I  I28  1  0.26084727  0.26756382  0.06012895  1.0
  I  I29  1  0.73915273  0.73243618  0.06012895  1.0
  I  I30  1  0.71351241  0.97847903  0.55991343  1.0
  I  I31  1  0.28648759  0.02152097  0.55991343  1.0
  I  I32  1  0.21351241  0.52152097  0.05991343  1.0
  I  I33  1  0.78648759  0.47847903  0.05991343  1.0
  N  N34  1  0.05453004  0.10536628  0.05938054  1.0
  N  N35  1  0.94546996  0.89463372  0.05938054  1.0
  N  N36  1  0.55453004  0.39463372  0.55938054  1.0
  N  N37  1  0.44546996  0.60536628  0.55938054  1.0
  O  O38  1  0.89901317  0.07260991  1.05978241  1.0
  O  O39  1  0.10098683  0.92739009  1.05978241  1.0
  O  O40  1  0.39901317  0.42739009  0.55978241  1.0
  O  O41  1  0.60098683  0.57260991  0.55978241  1.0
