# generated using pymatgen
data_CuH11C5NO6
_symmetry_space_group_name_H-M   'P 1'
_cell_length_a   8.34387537
_cell_length_b   8.34387537
_cell_length_c   9.21447307
_cell_angle_alpha   61.66531079
_cell_angle_beta   118.33468921
_cell_angle_gamma   112.68156742
_symmetry_Int_Tables_number   1
_chemical_formula_structural   CuH11C5NO6
_chemical_formula_sum   'Cu2 H22 C10 N2 O12'
_cell_volume   486.24207651
_cell_formula_units_Z   2
loop_
 _symmetry_equiv_pos_site_id
 _symmetry_equiv_pos_as_xyz
  1  'x, y, z'
loop_
 _atom_site_type_symbol
 _atom_site_label
 _atom_site_symmetry_multiplicity
 _atom_site_fract_x
 _atom_site_fract_y
 _atom_site_fract_z
 _atom_site_occupancy
  Cu  Cu0  1  1.50000000  0.00000000  0.50000000  1.0
  Cu  Cu1  1  1.00000000  -0.50000000  -0.00000000  1.0
  H  H2  1  0.93964134  -0.18775066  0.25663065  1.0
  H  H3  1  0.18775066  0.06035866  0.75663065  1.0
  H  H4  1  1.06035866  -0.81224934  0.74336935  1.0
  H  H5  1  0.81224934  -0.06035866  0.24336935  1.0
  H  H6  1  0.16519103  0.16519103  0.25000000  1.0
  H  H7  1  0.83480897  -0.16519103  0.75000000  1.0
  H  H8  1  1.26137661  -0.29353175  0.70417567  1.0
  H  H9  1  0.29353175  -0.26137661  0.20417567  1.0
  H  H10  1  0.73862339  -0.70646825  0.29582433  1.0
  H  H11  1  0.70646825  0.26137661  0.79582433  1.0
  H  H12  1  0.52499075  -0.23394915  0.08257458  1.0
  H  H13  1  1.23394915  -0.52499075  0.58257458  1.0
  H  H14  1  0.47500925  0.23394915  0.91742542  1.0
  H  H15  1  0.76605085  -0.47500925  0.41742542  1.0
  H  H16  1  0.66552998  -0.35411845  0.08768500  1.0
  H  H17  1  0.35411845  0.33447002  0.58768500  1.0
  H  H18  1  1.33447002  -0.64588155  0.91231500  1.0
  H  H19  1  0.64588155  -0.33447002  0.41231500  1.0
  H  H20  1  1.68943664  -0.10858590  0.97173183  1.0
  H  H21  1  1.10858590  -0.68943664  0.47173183  1.0
  H  H22  1  1.31056336  0.10858590  0.02826817  1.0
  H  H23  1  0.89141410  -0.31056336  0.52826817  1.0
  C  C24  1  1.28461193  0.28461193  0.25000000  1.0
  C  C25  1  0.71538807  0.71538807  0.75000000  1.0
  C  C26  1  1.26372126  -0.16024559  0.70503377  1.0
  C  C27  1  1.16024559  -0.26372126  0.20503377  1.0
  C  C28  1  1.73627874  0.16024559  0.29496623  1.0
  C  C29  1  0.83975441  -0.73627874  0.79496623  1.0
  C  C30  1  0.66172662  -0.22405860  0.08682514  1.0
  C  C31  1  1.22405860  -0.66172662  0.58682514  1.0
  C  C32  1  0.33827338  0.22405860  0.91317486  1.0
  C  C33  1  0.77594140  -0.33827338  0.41317486  1.0
  N  N34  1  0.80735147  -0.19264853  0.25000000  1.0
  N  N35  1  0.19264853  0.19264853  0.75000000  1.0
  O  O36  1  1.44851846  0.25474215  0.33931267  1.0
  O  O37  1  0.74525785  0.55148154  0.83931267  1.0
  O  O38  1  1.55148154  -0.25474215  0.66068733  1.0
  O  O39  1  1.25474215  0.44851846  0.16068733  1.0
  O  O40  1  1.17079905  -0.16134877  0.78013400  1.0
  O  O41  1  1.16134877  -0.17079905  0.28013400  1.0
  O  O42  1  0.82920095  -0.83865123  0.21986600  1.0
  O  O43  1  1.83865123  0.17079905  0.71986600  1.0
  O  O44  1  1.36272385  -0.01210175  0.62884907  1.0
  O  O45  1  1.01210175  -0.36272385  0.12884907  1.0
  O  O46  1  1.63727615  0.01210175  0.37115093  1.0
  O  O47  1  0.98789825  -0.63727615  0.87115093  1.0
