# generated using pymatgen
data_CO
_symmetry_space_group_name_H-M   'P 1'
_cell_length_a   7.75361102
_cell_length_b   7.75361102
_cell_length_c   7.75361102
_cell_angle_alpha   87.07541006
_cell_angle_beta   87.07541006
_cell_angle_gamma   87.07541006
_symmetry_Int_Tables_number   1
_chemical_formula_structural   CO
_chemical_formula_sum   'C8 O8'
_cell_volume   464.37375759
_cell_formula_units_Z   8
loop_
 _symmetry_equiv_pos_site_id
 _symmetry_equiv_pos_as_xyz
  1  'x, y, z'
loop_
 _atom_site_type_symbol
 _atom_site_label
 _atom_site_symmetry_multiplicity
 _atom_site_fract_x
 _atom_site_fract_y
 _atom_site_fract_z
 _atom_site_occupancy
  C  C0  1  0.52581905  0.52581905  -0.47418095  1.0
  C  C1  1  1.02581905  1.02581905  0.02581905  1.0
  C  C2  1  0.73247890  0.02632776  -0.46464367  1.0
  C  C3  1  1.02632776  -0.46464367  -0.26752110  1.0
  C  C4  1  0.53535633  -0.26752110  0.02632776  1.0
  C  C5  1  1.23247890  1.03535633  0.52632776  1.0
  C  C6  1  1.03535633  1.52632776  0.23247890  1.0
  C  C7  1  1.52632776  1.23247890  0.03535633  1.0
  O  O8  1  0.44510989  0.44510989  -0.55489011  1.0
  O  O9  1  0.94510989  0.94510989  -0.05489011  1.0
  O  O10  1  0.80792907  0.93140509  -0.55062609  1.0
  O  O11  1  0.93140509  0.44937391  -0.19207093  1.0
  O  O12  1  0.44937391  0.80792907  -0.06859491  1.0
  O  O13  1  0.30792907  0.94937391  -0.56859491  1.0
  O  O14  1  0.94937391  0.43140509  -0.69207093  1.0
  O  O15  1  0.43140509  0.30792907  -0.05062609  1.0
