# generated using pymatgen
data_CeGeRu
_symmetry_space_group_name_H-M   'P 1'
_cell_length_a   4.29625475
_cell_length_b   4.29625475
_cell_length_c   6.77181719
_cell_angle_alpha   90.00000000
_cell_angle_beta   90.00000000
_cell_angle_gamma   90.00000000
_symmetry_Int_Tables_number   1
_chemical_formula_structural   CeGeRu
_chemical_formula_sum   'Ce2 Ge2 Ru2'
_cell_volume   124.99288020
_cell_formula_units_Z   2
loop_
 _symmetry_equiv_pos_site_id
 _symmetry_equiv_pos_as_xyz
  1  'x, y, z'
loop_
 _atom_site_type_symbol
 _atom_site_label
 _atom_site_symmetry_multiplicity
 _atom_site_fract_x
 _atom_site_fract_y
 _atom_site_fract_z
 _atom_site_occupancy
  Ce  Ce0  1  0.50000000  0.00000000  0.69259110  1.0
  Ce  Ce1  1  0.00000000  0.50000000  0.30740890  1.0
  Ge  Ge2  1  0.50000000  0.00000000  0.20392504  1.0
  Ge  Ge3  1  0.00000000  0.50000000  0.79607496  1.0
  Ru  Ru4  1  0.00000000  0.00000000  0.00000000  1.0
  Ru  Ru5  1  0.50000000  0.50000000  0.00000000  1.0
