# generated using pymatgen
data_SiPd
_symmetry_space_group_name_H-M   'P 1'
_cell_length_a   6.29191455
_cell_length_b   6.29191455
_cell_length_c   6.29191455
_cell_angle_alpha   97.81223869
_cell_angle_beta   97.81223869
_cell_angle_gamma   136.73115785
_symmetry_Int_Tables_number   1
_chemical_formula_structural   SiPd
_chemical_formula_sum   'Si4 Pd4'
_cell_volume   158.70183951
_cell_formula_units_Z   4
loop_
 _symmetry_equiv_pos_site_id
 _symmetry_equiv_pos_as_xyz
  1  'x, y, z'
loop_
 _atom_site_type_symbol
 _atom_site_label
 _atom_site_symmetry_multiplicity
 _atom_site_fract_x
 _atom_site_fract_y
 _atom_site_fract_z
 _atom_site_occupancy
  Si  Si0  1  1.38896124  0.88896124  1.27792248  1.0
  Si  Si1  1  0.61103876  1.11103876  0.72207752  1.0
  Si  Si2  1  0.88896124  0.61103876  1.50000000  1.0
  Si  Si3  1  0.11103876  0.38896124  0.50000000  1.0
  Pd  Pd4  1  0.17869816  0.67869816  0.85739632  1.0
  Pd  Pd5  1  0.82130184  0.32130184  1.14260368  1.0
  Pd  Pd6  1  0.67869816  0.82130184  0.50000000  1.0
  Pd  Pd7  1  1.32130184  1.17869816  1.50000000  1.0
