# generated using pymatgen
data_LiCaAlF6
_symmetry_space_group_name_H-M   'P 1'
_cell_length_a   5.07748324
_cell_length_b   5.07748324
_cell_length_c   9.75576664
_cell_angle_alpha   90.00000000
_cell_angle_beta   90.00000000
_cell_angle_gamma   120.00000000
_symmetry_Int_Tables_number   1
_chemical_formula_structural   LiCaAlF6
_chemical_formula_sum   'Li2 Ca2 Al2 F12'
_cell_volume   217.81562568
_cell_formula_units_Z   2
loop_
 _symmetry_equiv_pos_site_id
 _symmetry_equiv_pos_as_xyz
  1  'x, y, z'
loop_
 _atom_site_type_symbol
 _atom_site_label
 _atom_site_symmetry_multiplicity
 _atom_site_fract_x
 _atom_site_fract_y
 _atom_site_fract_z
 _atom_site_occupancy
  Li  Li0  1  0.66666667  0.33333333  0.25000000  1.0
  Li  Li1  1  0.33333333  0.66666667  0.75000000  1.0
  Ca  Ca2  1  0.00000000  0.00000000  0.00000000  1.0
  Ca  Ca3  1  0.00000000  0.00000000  0.50000000  1.0
  Al  Al4  1  0.33333333  0.66666667  0.25000000  1.0
  Al  Al5  1  0.66666667  0.33333333  0.75000000  1.0
  F  F6  1  0.34459257  0.96953998  0.14318190  1.0
  F  F7  1  0.34459257  0.37505259  0.35681810  1.0
  F  F8  1  0.96953998  0.34459257  0.64318190  1.0
  F  F9  1  0.96953998  0.62494741  0.85681810  1.0
  F  F10  1  0.62494741  0.96953998  0.35681810  1.0
  F  F11  1  0.62494741  0.65540743  0.14318190  1.0
  F  F12  1  0.03046002  0.65540743  0.35681810  1.0
  F  F13  1  0.03046002  0.37505259  0.14318190  1.0
  F  F14  1  0.65540743  0.62494741  0.64318190  1.0
  F  F15  1  0.65540743  0.03046002  0.85681810  1.0
  F  F16  1  0.37505259  0.34459257  0.85681810  1.0
  F  F17  1  0.37505259  0.03046002  0.64318190  1.0
