# generated using pymatgen
data_LiN
_symmetry_space_group_name_H-M   'P 1'
_cell_length_a   6.00068818
_cell_length_b   6.00068818
_cell_length_c   6.00068818
_cell_angle_alpha   150.10838755
_cell_angle_beta   136.69466336
_cell_angle_gamma   53.51027713
_symmetry_Int_Tables_number   1
_chemical_formula_structural   LiN
_chemical_formula_sum   'Li4 N4'
_cell_volume   73.44238372
_cell_formula_units_Z   4
loop_
 _symmetry_equiv_pos_site_id
 _symmetry_equiv_pos_as_xyz
  1  'x, y, z'
loop_
 _atom_site_type_symbol
 _atom_site_label
 _atom_site_symmetry_multiplicity
 _atom_site_fract_x
 _atom_site_fract_y
 _atom_site_fract_z
 _atom_site_occupancy
  Li  Li0  1  0.75283962  0.75283962  1.00000000  1.0
  Li  Li1  1  0.24716038  0.24716038  0.00000000  1.0
  Li  Li2  1  0.50000000  0.50000000  1.00000000  1.0
  Li  Li3  1  0.00000000  0.00000000  0.00000000  1.0
  N  N4  1  0.52017843  0.87714707  0.64303136  1.0
  N  N5  1  0.76588429  0.12285293  0.64303136  1.0
  N  N6  1  1.23411571  0.87714707  1.35696864  1.0
  N  N7  1  0.47982157  0.12285293  0.35696864  1.0
