# generated using pymatgen
data_Ga2O3
_symmetry_space_group_name_H-M   'P 1'
_cell_length_a   7.45703646
_cell_length_b   5.06484181
_cell_length_c   5.17675474
_cell_angle_alpha   90.00000000
_cell_angle_beta   90.00000000
_cell_angle_gamma   90.00000000
_symmetry_Int_Tables_number   1
_chemical_formula_structural   Ga2O3
_chemical_formula_sum   'Ga8 O12'
_cell_volume   195.51934861
_cell_formula_units_Z   4
loop_
 _symmetry_equiv_pos_site_id
 _symmetry_equiv_pos_as_xyz
  1  'x, y, z'
loop_
 _atom_site_type_symbol
 _atom_site_label
 _atom_site_symmetry_multiplicity
 _atom_site_fract_x
 _atom_site_fract_y
 _atom_site_fract_z
 _atom_site_occupancy
  Ga  Ga0  1  0.11410623  0.24715685  0.52779322  1.0
  Ga  Ga1  1  0.11410623  0.75284315  0.02779322  1.0
  Ga  Ga2  1  0.61410623  0.74715685  0.97220678  1.0
  Ga  Ga3  1  0.61410623  0.25284315  0.47220678  1.0
  Ga  Ga4  1  0.88589377  0.24715685  0.97220678  1.0
  Ga  Ga5  1  0.88589377  0.75284315  0.47220678  1.0
  Ga  Ga6  1  0.38589377  0.74715685  0.52779322  1.0
  Ga  Ga7  1  0.38589377  0.25284315  0.02779322  1.0
  O  O8  1  0.15350002  0.39252986  0.89825159  1.0
  O  O9  1  0.15350002  0.60747014  0.39825159  1.0
  O  O10  1  0.65350002  0.89252986  0.60174841  1.0
  O  O11  1  0.65350002  0.10747014  0.10174841  1.0
  O  O12  1  0.84649998  0.39252986  0.60174841  1.0
  O  O13  1  0.84649998  0.60747014  0.10174841  1.0
  O  O14  1  0.34649998  0.89252986  0.89825159  1.0
  O  O15  1  0.34649998  0.10747014  0.39825159  1.0
  O  O16  1  0.50000000  0.45382835  0.75000000  1.0
  O  O17  1  0.50000000  0.54617165  0.25000000  1.0
  O  O18  1  0.00000000  0.95382835  0.75000000  1.0
  O  O19  1  0.00000000  0.04617165  0.25000000  1.0
