# generated using pymatgen
data_MgTiBO4
_symmetry_space_group_name_H-M   'P 1'
_cell_length_a   9.31871330
_cell_length_b   3.11903277
_cell_length_c   9.57567078
_cell_angle_alpha   90.00000000
_cell_angle_beta   90.00000000
_cell_angle_gamma   90.00000000
_symmetry_Int_Tables_number   1
_chemical_formula_structural   MgTiBO4
_chemical_formula_sum   'Mg4 Ti4 B4 O16'
_cell_volume   278.32043500
_cell_formula_units_Z   4
loop_
 _symmetry_equiv_pos_site_id
 _symmetry_equiv_pos_as_xyz
  1  'x, y, z'
loop_
 _atom_site_type_symbol
 _atom_site_label
 _atom_site_symmetry_multiplicity
 _atom_site_fract_x
 _atom_site_fract_y
 _atom_site_fract_z
 _atom_site_occupancy
  Mg  Mg0  1  0.89710830  0.75000000  0.67940896  1.0
  Mg  Mg1  1  0.39710830  0.75000000  0.82059104  1.0
  Mg  Mg2  1  0.10289170  0.25000000  0.32059104  1.0
  Mg  Mg3  1  0.60289170  0.25000000  0.17940896  1.0
  Ti  Ti4  1  0.88992417  0.75000000  0.06284510  1.0
  Ti  Ti5  1  0.38992417  0.75000000  0.43715490  1.0
  Ti  Ti6  1  0.11007583  0.25000000  0.93715490  1.0
  Ti  Ti7  1  0.61007583  0.25000000  0.56284510  1.0
  B  B8  1  0.83020013  0.75000000  0.36820498  1.0
  B  B9  1  0.33020013  0.75000000  0.13179502  1.0
  B  B10  1  0.16979987  0.25000000  0.63179502  1.0
  B  B11  1  0.66979987  0.25000000  0.86820498  1.0
  O  O12  1  0.97472507  0.75000000  0.36937000  1.0
  O  O13  1  0.47472507  0.75000000  0.13063000  1.0
  O  O14  1  0.02527493  0.25000000  0.63063000  1.0
  O  O15  1  0.52527493  0.25000000  0.86937000  1.0
  O  O16  1  0.75563084  0.75000000  0.49786446  1.0
  O  O17  1  0.25563084  0.75000000  1.00213554  1.0
  O  O18  1  0.24436916  0.25000000  0.50213554  1.0
  O  O19  1  0.74436916  0.25000000  -0.00213554  1.0
  O  O20  1  0.75289315  0.75000000  0.24294328  1.0
  O  O21  1  0.25289315  0.75000000  0.25705672  1.0
  O  O22  1  0.24710685  0.25000000  0.75705672  1.0
  O  O23  1  0.74710685  0.25000000  0.74294328  1.0
  O  O24  1  0.49060595  0.75000000  0.62288161  1.0
  O  O25  1  0.99060595  0.75000000  0.87711839  1.0
  O  O26  1  0.50939405  0.25000000  0.37711839  1.0
  O  O27  1  0.00939405  0.25000000  0.12288161  1.0
