# generated using pymatgen
data_TiCuNO4F7
_symmetry_space_group_name_H-M   'P 1'
_cell_length_a   6.63459068
_cell_length_b   6.63459068
_cell_length_c   10.32559888
_cell_angle_alpha   90.00000000
_cell_angle_beta   90.00000000
_cell_angle_gamma   90.00000000
_symmetry_Int_Tables_number   1
_chemical_formula_structural   TiCuNO4F7
_chemical_formula_sum   'Ti2 Cu2 N2 O8 F14'
_cell_volume   454.51007942
_cell_formula_units_Z   2
loop_
 _symmetry_equiv_pos_site_id
 _symmetry_equiv_pos_as_xyz
  1  'x, y, z'
loop_
 _atom_site_type_symbol
 _atom_site_label
 _atom_site_symmetry_multiplicity
 _atom_site_fract_x
 _atom_site_fract_y
 _atom_site_fract_z
 _atom_site_occupancy
  O  O0  1  0.82148907  0.73888704  0.46104721  1.0
  O  O1  1  0.17851093  0.26111296  0.46104721  1.0
  O  O2  1  0.23888704  0.67851093  0.46104721  1.0
  O  O3  1  0.76111296  0.32148907  0.46104721  1.0
  O  O4  1  0.67851093  0.76111296  0.53895279  1.0
  O  O5  1  0.32148907  0.23888704  0.53895279  1.0
  O  O6  1  0.26111296  0.82148907  0.53895279  1.0
  O  O7  1  0.73888704  0.17851093  0.53895279  1.0
  Cu  Cu8  1  0.00000000  0.50000000  0.49294182  1.0
  Cu  Cu9  1  0.50000000  -0.00000000  0.50705818  1.0
  Ti  Ti10  1  0.00000000  0.50000000  0.87628566  1.0
  Ti  Ti11  1  0.50000000  -0.00000000  0.12371434  1.0
  N  N12  1  0.50000000  0.50000000  0.00000000  1.0
  N  N13  1  0.00000000  0.00000000  -0.00000000  1.0
  F  F14  1  0.00000000  0.50000000  0.68757507  1.0
  F  F15  1  0.50000000  -0.00000000  0.31242493  1.0
  F  F16  1  0.00000000  0.50000000  0.04856557  1.0
  F  F17  1  0.50000000  -0.00000000  0.95143443  1.0
  F  F18  1  0.71043259  0.49957776  0.86263474  1.0
  F  F19  1  0.28956741  0.50042224  0.86263474  1.0
  F  F20  1  -0.00042224  0.78956741  0.86263474  1.0
  F  F21  1  1.00042224  0.21043259  0.86263474  1.0
  F  F22  1  0.78956741  1.00042224  0.13736526  1.0
  F  F23  1  0.21043259  -0.00042224  0.13736526  1.0
  F  F24  1  0.50042224  0.71043259  0.13736526  1.0
  F  F25  1  0.49957776  0.28956741  0.13736526  1.0
  F  F26  1  0.50000000  0.50000000  0.50000000  1.0
  F  F27  1  0.00000000  0.00000000  0.50000000  1.0
