# generated using pymatgen
data_Hf3Al3C5
_symmetry_space_group_name_H-M   'P 1'
_cell_length_a   3.33045842
_cell_length_b   3.33045842
_cell_length_c   27.50882560
_cell_angle_alpha   90.00000000
_cell_angle_beta   90.00000000
_cell_angle_gamma   120.00000000
_symmetry_Int_Tables_number   1
_chemical_formula_structural   Hf3Al3C5
_chemical_formula_sum   'Hf6 Al6 C10'
_cell_volume   264.24739446
_cell_formula_units_Z   2
loop_
 _symmetry_equiv_pos_site_id
 _symmetry_equiv_pos_as_xyz
  1  'x, y, z'
loop_
 _atom_site_type_symbol
 _atom_site_label
 _atom_site_symmetry_multiplicity
 _atom_site_fract_x
 _atom_site_fract_y
 _atom_site_fract_z
 _atom_site_occupancy
  Hf  Hf0  1  0.33333333  0.66666667  0.90575797  1.0
  Hf  Hf1  1  0.33333333  0.66666667  0.59424203  1.0
  Hf  Hf2  1  0.66666667  0.33333333  0.40575797  1.0
  Hf  Hf3  1  0.66666667  0.33333333  0.09424203  1.0
  Hf  Hf4  1  0.00000000  0.00000000  0.50000000  1.0
  Hf  Hf5  1  0.00000000  0.00000000  0.00000000  1.0
  Al  Al6  1  0.33333333  0.66666667  0.32378248  1.0
  Al  Al7  1  0.33333333  0.66666667  0.17621752  1.0
  Al  Al8  1  0.66666667  0.33333333  0.82378248  1.0
  Al  Al9  1  0.66666667  0.33333333  0.67621752  1.0
  Al  Al10  1  0.00000000  0.00000000  0.25000000  1.0
  Al  Al11  1  0.00000000  0.00000000  0.75000000  1.0
  C  C12  1  0.33333333  0.66666667  0.45049482  1.0
  C  C13  1  0.33333333  0.66666667  0.04950518  1.0
  C  C14  1  0.66666667  0.33333333  0.95049482  1.0
  C  C15  1  0.66666667  0.33333333  0.54950518  1.0
  C  C16  1  0.00000000  0.00000000  0.34941415  1.0
  C  C17  1  0.00000000  0.00000000  0.15058585  1.0
  C  C18  1  0.00000000  0.00000000  0.84941415  1.0
  C  C19  1  0.00000000  0.00000000  0.65058585  1.0
  C  C20  1  0.33333333  0.66666667  0.25000000  1.0
  C  C21  1  0.66666667  0.33333333  0.75000000  1.0
