# generated using pymatgen
data_K2Cu2Te5
_symmetry_space_group_name_H-M   'P 1'
_cell_length_a   6.95351663
_cell_length_b   6.95351663
_cell_length_c   12.27020216
_cell_angle_alpha   90.00000000
_cell_angle_beta   90.00000000
_cell_angle_gamma   67.27683906
_symmetry_Int_Tables_number   1
_chemical_formula_structural   K2Cu2Te5
_chemical_formula_sum   'K4 Cu4 Te10'
_cell_volume   547.23206938
_cell_formula_units_Z   2
loop_
 _symmetry_equiv_pos_site_id
 _symmetry_equiv_pos_as_xyz
  1  'x, y, z'
loop_
 _atom_site_type_symbol
 _atom_site_label
 _atom_site_symmetry_multiplicity
 _atom_site_fract_x
 _atom_site_fract_y
 _atom_site_fract_z
 _atom_site_occupancy
  K  K0  1  0.70598666  0.70598666  0.50000000  1.0
  K  K1  1  0.70598666  0.70598666  0.00000000  1.0
  K  K2  1  0.29401334  0.29401334  0.50000000  1.0
  K  K3  1  0.29401334  0.29401334  0.00000000  1.0
  Cu  Cu4  1  -0.03545024  1.81455919  0.25000000  1.0
  Cu  Cu5  1  0.81455919  0.96454976  0.75000000  1.0
  Cu  Cu6  1  -0.81455919  1.03545024  0.25000000  1.0
  Cu  Cu7  1  0.03545024  0.18544081  0.75000000  1.0
  Te  Te8  1  -0.05737896  1.43862125  0.25000000  1.0
  Te  Te9  1  0.43862125  0.94262104  0.75000000  1.0
  Te  Te10  1  -0.43862125  1.05737896  0.25000000  1.0
  Te  Te11  1  0.05737896  0.56137875  0.75000000  1.0
  Te  Te12  1  0.15584582  0.84415418  0.43422874  1.0
  Te  Te13  1  0.15584582  0.84415418  0.06577126  1.0
  Te  Te14  1  -0.15584582  1.15584582  0.93422874  1.0
  Te  Te15  1  -0.15584582  1.15584582  0.56577126  1.0
  Te  Te16  1  -0.48874962  1.48874962  0.25000000  1.0
  Te  Te17  1  0.48874962  0.51125038  0.75000000  1.0
