# generated using pymatgen
data_MnP4H16(NO8)2
_symmetry_space_group_name_H-M   'P 1'
_cell_length_a   7.52484645
_cell_length_b   7.19827721
_cell_length_c   7.89518534
_cell_angle_alpha   108.42734759
_cell_angle_beta   99.15792835
_cell_angle_gamma   90.69348754
_symmetry_Int_Tables_number   1
_chemical_formula_structural   MnP4H16(NO8)2
_chemical_formula_sum   'Mn1 P4 H16 N2 O16'
_cell_volume   399.66055708
_cell_formula_units_Z   1
loop_
 _symmetry_equiv_pos_site_id
 _symmetry_equiv_pos_as_xyz
  1  'x, y, z'
loop_
 _atom_site_type_symbol
 _atom_site_label
 _atom_site_symmetry_multiplicity
 _atom_site_fract_x
 _atom_site_fract_y
 _atom_site_fract_z
 _atom_site_occupancy
  Mn  Mn0  1  0.00000000  0.00000000  0.00000000  1.0
  P  P1  1  0.74624058  0.82792100  -0.74768163  1.0
  P  P2  1  0.25375942  0.17207900  -0.25231837  1.0
  P  P3  1  0.71538993  0.23952459  -0.74097606  1.0
  P  P4  1  0.28461007  0.76047541  -0.25902394  1.0
  H  H5  1  0.66279995  0.87946399  -0.21624321  1.0
  H  H6  1  0.33720005  0.12053601  -0.78375679  1.0
  H  H7  1  0.79114186  0.87566231  -0.35890180  1.0
  H  H8  1  0.20885814  0.12433769  -0.64109820  1.0
  H  H9  1  0.51864351  0.76013109  -0.98257770  1.0
  H  H10  1  0.48135649  0.23986891  -0.01742230  1.0
  H  H11  1  0.09602559  0.67622213  -0.82547805  1.0
  H  H12  1  0.90397441  0.32377787  -0.17452195  1.0
  H  H13  1  0.32215436  0.66098795  -0.81311320  1.0
  H  H14  1  0.67784564  0.33901205  -0.18688680  1.0
  H  H15  1  0.76893851  0.55398397  -0.57838272  1.0
  H  H16  1  0.23106149  0.44601603  -0.42161728  1.0
  H  H17  1  0.18265316  0.45489687  -0.89937665  1.0
  H  H18  1  0.81734684  0.54510313  -0.10062335  1.0
  H  H19  1  0.78561449  0.41799351  -0.32651527  1.0
  H  H20  1  0.21438551  0.58200649  -0.67348473  1.0
  N  N21  1  0.20384105  0.59308606  -0.80298160  1.0
  N  N22  1  0.79615895  0.40691394  -0.19701840  1.0
  O  O23  1  0.77755648  0.93749587  -0.23079827  1.0
  O  O24  1  0.22244352  0.06250413  -0.76920173  1.0
  O  O25  1  0.26141715  0.93666289  -0.34728739  1.0
  O  O26  1  0.73858285  0.06333711  -0.65271261  1.0
  O  O27  1  0.87708475  0.79108480  -0.88352455  1.0
  O  O28  1  0.12291525  0.20891520  -0.11647545  1.0
  O  O29  1  0.79420029  0.75218769  -0.58887109  1.0
  O  O30  1  0.20579971  0.24781231  -0.41112891  1.0
  O  O31  1  0.54918004  0.74681411  -0.85178528  1.0
  O  O32  1  0.45081996  0.25318589  -0.14821472  1.0
  O  O33  1  0.75304996  0.41878489  -0.55821875  1.0
  O  O34  1  0.24695004  0.58121511  -0.44178125  1.0
  O  O35  1  0.51978404  0.22717886  -0.83562873  1.0
  O  O36  1  0.48021596  0.77282114  -0.16437127  1.0
  O  O37  1  0.85625737  0.23624489  -0.85919681  1.0
  O  O38  1  0.14374263  0.76375511  -0.14080319  1.0
