# generated using pymatgen
data_Ba2ZnSi2O7
_symmetry_space_group_name_H-M   'P 1'
_cell_length_a   8.29034465
_cell_length_b   8.29034465
_cell_length_c   5.47591312
_cell_angle_alpha   90.00000000
_cell_angle_beta   90.00000000
_cell_angle_gamma   90.00000000
_symmetry_Int_Tables_number   1
_chemical_formula_structural   Ba2ZnSi2O7
_chemical_formula_sum   'Ba4 Zn2 Si4 O14'
_cell_volume   376.35849276
_cell_formula_units_Z   2
loop_
 _symmetry_equiv_pos_site_id
 _symmetry_equiv_pos_as_xyz
  1  'x, y, z'
loop_
 _atom_site_type_symbol
 _atom_site_label
 _atom_site_symmetry_multiplicity
 _atom_site_fract_x
 _atom_site_fract_y
 _atom_site_fract_z
 _atom_site_occupancy
  Ba  Ba0  1  0.83423352  0.33423352  0.49075165  1.0
  Ba  Ba1  1  0.66576648  0.83423352  0.50924835  1.0
  Ba  Ba2  1  0.16576648  0.66576648  0.49075165  1.0
  Ba  Ba3  1  0.33423352  0.16576648  0.50924835  1.0
  Zn  Zn4  1  0.50000000  0.50000000  0.00000000  1.0
  Zn  Zn5  1  0.00000000  0.00000000  0.00000000  1.0
  Si  Si6  1  0.36326484  0.86326484  0.04173745  1.0
  Si  Si7  1  0.13673516  0.36326484  0.95826255  1.0
  Si  Si8  1  0.63673516  0.13673516  0.04173745  1.0
  Si  Si9  1  0.86326484  0.63673516  0.95826255  1.0
  O  O10  1  0.30497235  0.42159705  0.82131998  1.0
  O  O11  1  0.19502765  0.92159705  0.17868002  1.0
  O  O12  1  0.57840295  0.30497235  0.17868002  1.0
  O  O13  1  0.92159705  0.80497235  0.82131998  1.0
  O  O14  1  0.69502765  0.57840295  0.82131998  1.0
  O  O15  1  0.80497235  0.07840295  0.17868002  1.0
  O  O16  1  0.42159705  0.69502765  0.17868002  1.0
  O  O17  1  0.07840295  0.19502765  0.82131998  1.0
  O  O18  1  0.36053277  0.86053277  0.74623523  1.0
  O  O19  1  0.13946723  0.36053277  0.25376477  1.0
  O  O20  1  0.63946723  0.13946723  0.74623523  1.0
  O  O21  1  0.86053277  0.63946723  0.25376477  1.0
  O  O22  1  0.00000000  0.50000000  0.86009416  1.0
  O  O23  1  0.50000000  0.00000000  0.13990584  1.0
