# generated using pymatgen
data_Na2Cu(HO)4
_symmetry_space_group_name_H-M   'P 1'
_cell_length_a   6.82359148
_cell_length_b   6.79907186
_cell_length_c   9.12487967
_cell_angle_alpha   90.00000000
_cell_angle_beta   90.00000000
_cell_angle_gamma   90.00000000
_symmetry_Int_Tables_number   1
_chemical_formula_structural   Na2Cu(HO)4
_chemical_formula_sum   'Na8 Cu4 H16 O16'
_cell_volume   423.34047775
_cell_formula_units_Z   4
loop_
 _symmetry_equiv_pos_site_id
 _symmetry_equiv_pos_as_xyz
  1  'x, y, z'
loop_
 _atom_site_type_symbol
 _atom_site_label
 _atom_site_symmetry_multiplicity
 _atom_site_fract_x
 _atom_site_fract_y
 _atom_site_fract_z
 _atom_site_occupancy
  H  H0  1  0.49418038  0.75595039  0.10007295  1.0
  H  H1  1  -0.00581962  0.74404961  0.10007295  1.0
  H  H2  1  0.50581962  0.24404961  0.60007295  1.0
  H  H3  1  0.00581962  0.25595039  0.60007295  1.0
  H  H4  1  0.48138041  0.79081708  0.40971521  1.0
  H  H5  1  0.98138041  0.70918292  0.40971521  1.0
  H  H6  1  0.51861959  0.20918292  0.90971521  1.0
  H  H7  1  0.01861959  0.29081708  0.90971521  1.0
  H  H8  1  0.40867477  0.54050269  0.24836474  1.0
  H  H9  1  0.90867477  0.95949731  0.24836474  1.0
  H  H10  1  0.59132523  0.45949731  0.74836474  1.0
  H  H11  1  0.09132523  0.04050269  0.74836474  1.0
  H  H12  1  0.23129404  0.84065060  0.26983708  1.0
  H  H13  1  0.73129404  0.65934940  0.26983708  1.0
  H  H14  1  0.76870596  0.15934940  0.76983708  1.0
  H  H15  1  0.26870596  0.34065060  0.76983708  1.0
  O  O16  1  0.44309160  0.81231052  0.51109385  1.0
  O  O17  1  0.94309160  0.68768948  0.51109385  1.0
  O  O18  1  0.55690840  0.18768948  0.01109385  1.0
  O  O19  1  0.05690840  0.31231052  0.01109385  1.0
  O  O20  1  0.26850341  0.51934086  0.22849156  1.0
  O  O21  1  0.76850341  0.98065914  0.22849156  1.0
  O  O22  1  0.73149659  0.48065914  0.72849156  1.0
  O  O23  1  0.23149659  0.01934086  0.72849156  1.0
  O  O24  1  0.20673261  0.98107430  0.28657971  1.0
  O  O25  1  0.70673261  0.51892570  0.28657971  1.0
  O  O26  1  0.79326739  0.01892570  0.78657971  1.0
  O  O27  1  0.29326739  0.48107430  0.78657971  1.0
  O  O28  1  0.46392807  0.71640143  0.00019712  1.0
  O  O29  1  0.96392807  0.78359857  0.00019712  1.0
  O  O30  1  0.53607193  0.28359857  0.50019712  1.0
  O  O31  1  0.03607193  0.21640143  0.50019712  1.0
  Cu  Cu32  1  0.26840849  0.50710402  0.00734124  1.0
  Cu  Cu33  1  0.76840849  0.99289598  0.00734124  1.0
  Cu  Cu34  1  0.73159151  0.49289598  0.50734124  1.0
  Cu  Cu35  1  0.23159151  0.00710402  0.50734124  1.0
  Na  Na36  1  0.50076359  0.79629943  0.75796832  1.0
  Na  Na37  1  1.00076359  0.70370057  0.75796832  1.0
  Na  Na38  1  0.49923641  0.20370057  0.25796832  1.0
  Na  Na39  1  -0.00076359  0.29629943  0.25796832  1.0
  Na  Na40  1  0.25881341  0.50595189  0.50703823  1.0
  Na  Na41  1  0.75881341  0.99404811  0.50703823  1.0
  Na  Na42  1  0.74118659  0.49404811  0.00703823  1.0
  Na  Na43  1  0.24118659  0.00595189  0.00703823  1.0
