# generated using pymatgen
data_Ce(FeB)4
_symmetry_space_group_name_H-M   'P 1'
_cell_length_a   7.00098670
_cell_length_b   7.00098670
_cell_length_c   3.80620623
_cell_angle_alpha   90.00000000
_cell_angle_beta   90.00000000
_cell_angle_gamma   90.00000000
_symmetry_Int_Tables_number   1
_chemical_formula_structural   Ce(FeB)4
_chemical_formula_sum   'Ce2 Fe8 B8'
_cell_volume   186.55668669
_cell_formula_units_Z   2
loop_
 _symmetry_equiv_pos_site_id
 _symmetry_equiv_pos_as_xyz
  1  'x, y, z'
loop_
 _atom_site_type_symbol
 _atom_site_label
 _atom_site_symmetry_multiplicity
 _atom_site_fract_x
 _atom_site_fract_y
 _atom_site_fract_z
 _atom_site_occupancy
  Ce  Ce0  1  0.00000000  0.00000000  0.00000000  1.0
  Ce  Ce1  1  0.50000000  0.50000000  0.50000000  1.0
  Fe  Fe2  1  0.13076374  0.38543182  0.89617699  1.0
  Fe  Fe3  1  0.86923626  0.61456818  0.89617699  1.0
  Fe  Fe4  1  0.88543182  0.36923626  0.39617699  1.0
  Fe  Fe5  1  0.11456818  0.63076374  0.39617699  1.0
  Fe  Fe6  1  0.36923626  0.11456818  0.60382301  1.0
  Fe  Fe7  1  0.63076374  0.88543182  0.60382301  1.0
  Fe  Fe8  1  0.61456818  0.13076374  0.10382301  1.0
  Fe  Fe9  1  0.38543182  0.86923626  0.10382301  1.0
  B  B10  1  0.66452952  0.79660624  0.10430538  1.0
  B  B11  1  0.33547048  0.20339376  0.10430538  1.0
  B  B12  1  0.29660624  0.83547048  0.60430538  1.0
  B  B13  1  0.70339376  0.16452952  0.60430538  1.0
  B  B14  1  0.83547048  0.70339376  0.39569462  1.0
  B  B15  1  0.16452952  0.29660624  0.39569462  1.0
  B  B16  1  0.20339376  0.66452952  0.89569462  1.0
  B  B17  1  0.79660624  0.33547048  0.89569462  1.0
