# generated using pymatgen
data_Ta3N5
_symmetry_space_group_name_H-M   'P 1'
_cell_length_a   5.50727017
_cell_length_b   5.50727017
_cell_length_c   10.33318345
_cell_angle_alpha   90.00000000
_cell_angle_beta   90.00000000
_cell_angle_gamma   138.50170146
_symmetry_Int_Tables_number   1
_chemical_formula_structural   Ta3N5
_chemical_formula_sum   'Ta6 N10'
_cell_volume   207.66193580
_cell_formula_units_Z   2
loop_
 _symmetry_equiv_pos_site_id
 _symmetry_equiv_pos_as_xyz
  1  'x, y, z'
loop_
 _atom_site_type_symbol
 _atom_site_label
 _atom_site_symmetry_multiplicity
 _atom_site_fract_x
 _atom_site_fract_y
 _atom_site_fract_z
 _atom_site_occupancy
  Ta  Ta0  1  0.13357960  0.86642040  0.44050229  1.0
  Ta  Ta1  1  0.13357960  0.86642040  0.05949771  1.0
  Ta  Ta2  1  -0.13357960  0.13357960  0.94050229  1.0
  Ta  Ta3  1  -0.13357960  0.13357960  0.55949771  1.0
  Ta  Ta4  1  0.19763717  0.80236283  0.75000000  1.0
  Ta  Ta5  1  -0.19763717  0.19763717  0.25000000  1.0
  N  N6  1  0.04695694  0.95304306  0.88068318  1.0
  N  N7  1  0.04695694  0.95304306  0.61931682  1.0
  N  N8  1  -0.04695694  0.04695694  0.38068318  1.0
  N  N9  1  -0.04695694  0.04695694  0.11931682  1.0
  N  N10  1  0.30859630  0.69140370  0.92619193  1.0
  N  N11  1  0.30859630  0.69140370  0.57380807  1.0
  N  N12  1  -0.30859630  0.30859630  0.42619193  1.0
  N  N13  1  -0.30859630  0.30859630  0.07380807  1.0
  N  N14  1  -0.23671160  0.23671160  0.75000000  1.0
  N  N15  1  0.23671160  0.76328840  0.25000000  1.0
