# generated using pymatgen
data_K3Gd(BO3)2
_symmetry_space_group_name_H-M   'P 1'
_cell_length_a   9.05284323
_cell_length_b   7.14765208
_cell_length_c   11.25836891
_cell_angle_alpha   90.00000000
_cell_angle_beta   90.00000000
_cell_angle_gamma   90.00000000
_symmetry_Int_Tables_number   1
_chemical_formula_structural   K3Gd(BO3)2
_chemical_formula_sum   'K12 Gd4 B8 O24'
_cell_volume   728.49047867
_cell_formula_units_Z   4
loop_
 _symmetry_equiv_pos_site_id
 _symmetry_equiv_pos_as_xyz
  1  'x, y, z'
loop_
 _atom_site_type_symbol
 _atom_site_label
 _atom_site_symmetry_multiplicity
 _atom_site_fract_x
 _atom_site_fract_y
 _atom_site_fract_z
 _atom_site_occupancy
  K  K0  1  0.80119224  0.49735661  0.40435494  1.0
  K  K1  1  0.80119224  0.00264339  0.40435494  1.0
  K  K2  1  0.30119224  0.49735661  0.09564506  1.0
  K  K3  1  0.30119224  0.00264339  0.09564506  1.0
  K  K4  1  0.19880776  0.99735661  0.59564506  1.0
  K  K5  1  0.19880776  0.50264339  0.59564506  1.0
  K  K6  1  0.69880776  0.99735661  0.90435494  1.0
  K  K7  1  0.69880776  0.50264339  0.90435494  1.0
  K  K8  1  0.55907542  0.75000000  0.63040367  1.0
  K  K9  1  0.05907542  0.75000000  0.86959633  1.0
  K  K10  1  0.44092458  0.25000000  0.36959633  1.0
  K  K11  1  0.94092458  0.25000000  0.13040367  1.0
  Gd  Gd12  1  0.62534516  0.75000000  0.16920038  1.0
  Gd  Gd13  1  0.12534516  0.75000000  0.33079962  1.0
  Gd  Gd14  1  0.37465484  0.25000000  0.83079962  1.0
  Gd  Gd15  1  0.87465484  0.25000000  0.66920038  1.0
  B  B16  1  0.93617370  0.75000000  0.12789042  1.0
  B  B17  1  0.43617370  0.75000000  0.37210958  1.0
  B  B18  1  0.06382630  0.25000000  0.87210958  1.0
  B  B19  1  0.56382630  0.25000000  0.62789042  1.0
  B  B20  1  0.91297667  0.75000000  0.61548451  1.0
  B  B21  1  0.41297667  0.75000000  0.88451549  1.0
  B  B22  1  0.08702333  0.25000000  0.38451549  1.0
  B  B23  1  0.58702333  0.25000000  0.11548451  1.0
  O  O24  1  0.87449540  0.91937793  0.66916353  1.0
  O  O25  1  0.87449540  0.58062207  0.66916353  1.0
  O  O26  1  0.37449540  0.91937793  0.83083647  1.0
  O  O27  1  0.37449540  0.58062207  0.83083647  1.0
  O  O28  1  0.12550460  0.41937793  0.33083647  1.0
  O  O29  1  0.12550460  0.08062207  0.33083647  1.0
  O  O30  1  0.62550460  0.41937793  0.16916353  1.0
  O  O31  1  0.62550460  0.08062207  0.16916353  1.0
  O  O32  1  0.99198245  0.75000000  0.50887838  1.0
  O  O33  1  0.49198245  0.75000000  0.99112162  1.0
  O  O34  1  0.00801755  0.25000000  0.49112162  1.0
  O  O35  1  0.50801755  0.25000000  0.00887838  1.0
  O  O36  1  0.87727520  0.75000000  0.24366505  1.0
  O  O37  1  0.37727520  0.75000000  0.25633495  1.0
  O  O38  1  0.12272480  0.25000000  0.75633495  1.0
  O  O39  1  0.62272480  0.25000000  0.74366505  1.0
  O  O40  1  0.83730664  0.75000000  0.03504230  1.0
  O  O41  1  0.33730664  0.75000000  0.46495770  1.0
  O  O42  1  0.16269336  0.25000000  0.96495770  1.0
  O  O43  1  0.66269336  0.25000000  0.53504230  1.0
  O  O44  1  0.58745670  0.75000000  0.38321340  1.0
  O  O45  1  0.08745670  0.75000000  0.11678660  1.0
  O  O46  1  0.41254330  0.25000000  0.61678660  1.0
  O  O47  1  0.91254330  0.25000000  0.88321340  1.0
