# generated using pymatgen
data_Hf3(NiGe)4
_symmetry_space_group_name_H-M   'P 1'
_cell_length_a   7.49947365
_cell_length_b   7.49947365
_cell_length_c   7.49947365
_cell_angle_alpha   149.70077828
_cell_angle_beta   128.43406753
_cell_angle_gamma   60.98647597
_symmetry_Int_Tables_number   1
_chemical_formula_structural   Hf3(NiGe)4
_chemical_formula_sum   'Hf3 Ni4 Ge4'
_cell_volume   165.25788227
_cell_formula_units_Z   1
loop_
 _symmetry_equiv_pos_site_id
 _symmetry_equiv_pos_as_xyz
  1  'x, y, z'
loop_
 _atom_site_type_symbol
 _atom_site_label
 _atom_site_symmetry_multiplicity
 _atom_site_fract_x
 _atom_site_fract_y
 _atom_site_fract_z
 _atom_site_occupancy
  Hf  Hf0  1  0.62751409  0.12751409  0.50000000  1.0
  Hf  Hf1  1  0.37248591  0.87248591  0.50000000  1.0
  Hf  Hf2  1  0.00000000  0.00000000  0.00000000  1.0
  Ni  Ni3  1  0.37689030  0.67690681  0.69998349  1.0
  Ni  Ni4  1  1.02307667  0.32309319  0.69998349  1.0
  Ni  Ni5  1  0.97692333  0.67690681  1.30001651  1.0
  Ni  Ni6  1  0.62310970  0.32309319  0.30001651  1.0
  Ge  Ge7  1  0.78660935  0.78660935  1.00000000  1.0
  Ge  Ge8  1  0.21339065  0.21339065  -0.00000000  1.0
  Ge  Ge9  1  0.29970820  0.50000000  0.79970820  1.0
  Ge  Ge10  1  0.70029180  0.50000000  1.20029180  1.0
