# generated using pymatgen
data_GdNi
_symmetry_space_group_name_H-M   'P 1'
_cell_length_a   5.52744874
_cell_length_b   5.52744874
_cell_length_c   4.20538630
_cell_angle_alpha   90.00000000
_cell_angle_beta   90.00000000
_cell_angle_gamma   139.95230683
_symmetry_Int_Tables_number   1
_chemical_formula_structural   GdNi
_chemical_formula_sum   'Gd2 Ni2'
_cell_volume   82.67102154
_cell_formula_units_Z   2
loop_
 _symmetry_equiv_pos_site_id
 _symmetry_equiv_pos_as_xyz
  1  'x, y, z'
loop_
 _atom_site_type_symbol
 _atom_site_label
 _atom_site_symmetry_multiplicity
 _atom_site_fract_x
 _atom_site_fract_y
 _atom_site_fract_z
 _atom_site_occupancy
  Gd  Gd0  1  -0.63905952  0.63905952  0.25000000  1.0
  Gd  Gd1  1  -0.36094048  1.36094048  0.75000000  1.0
  Ni  Ni2  1  -0.92822242  0.92822242  0.25000000  1.0
  Ni  Ni3  1  -0.07177758  1.07177758  0.75000000  1.0
