# generated using pymatgen
data_Cs2SrP2O7
_symmetry_space_group_name_H-M   'P 1'
_cell_length_a   6.15581155
_cell_length_b   6.15581155
_cell_length_c   13.78921197
_cell_angle_alpha   76.22668437
_cell_angle_beta   103.77331563
_cell_angle_gamma   120.27640561
_symmetry_Int_Tables_number   1
_chemical_formula_structural   Cs2SrP2O7
_chemical_formula_sum   'Cs4 Sr2 P4 O14'
_cell_volume   433.91932001
_cell_formula_units_Z   2
loop_
 _symmetry_equiv_pos_site_id
 _symmetry_equiv_pos_as_xyz
  1  'x, y, z'
loop_
 _atom_site_type_symbol
 _atom_site_label
 _atom_site_symmetry_multiplicity
 _atom_site_fract_x
 _atom_site_fract_y
 _atom_site_fract_z
 _atom_site_occupancy
  Cs  Cs0  1  1.37095704  0.08532006  0.16451995  1.0
  Cs  Cs1  1  0.91467994  0.62904296  0.66451995  1.0
  Cs  Cs2  1  1.08532006  0.37095704  0.33548005  1.0
  Cs  Cs3  1  1.62904296  -0.08532006  0.83548005  1.0
  Sr  Sr4  1  1.50000000  -0.00000000  0.50000000  1.0
  Sr  Sr5  1  1.00000000  0.50000000  -0.00000000  1.0
  P  P6  1  1.69829722  -0.23178634  0.13282392  1.0
  P  P7  1  1.23178634  -0.69829722  0.63282392  1.0
  P  P8  1  0.76821366  -0.30170278  0.36717608  1.0
  P  P9  1  1.30170278  0.23178634  0.86717608  1.0
  O  O10  1  0.82674287  0.82674287  0.25000000  1.0
  O  O11  1  1.17325713  0.17325713  0.75000000  1.0
  O  O12  1  0.79841408  0.03843195  0.07430730  1.0
  O  O13  1  0.96156805  0.20158592  0.57430730  1.0
  O  O14  1  1.03843195  0.79841408  0.42569270  1.0
  O  O15  1  0.20158592  -0.03843195  0.92569270  1.0
  O  O16  1  0.61344341  -0.19044035  0.39002681  1.0
  O  O17  1  1.19044035  0.38655659  0.89002681  1.0
  O  O18  1  0.80955965  0.61344341  0.10997319  1.0
  O  O19  1  0.38655659  0.19044035  0.60997319  1.0
  O  O20  1  0.62042787  -0.59288839  0.37121604  1.0
  O  O21  1  0.59288839  0.37957213  0.87121604  1.0
  O  O22  1  0.40711161  -0.37957213  0.12878396  1.0
  O  O23  1  1.37957213  -0.40711161  0.62878396  1.0
