# generated using pymatgen
data_K4HgTe3O
_symmetry_space_group_name_H-M   'P 1'
_cell_length_a   8.92160475
_cell_length_b   10.83689775
_cell_length_c   14.21382209
_cell_angle_alpha   90.00000000
_cell_angle_beta   90.00000000
_cell_angle_gamma   90.00000000
_symmetry_Int_Tables_number   1
_chemical_formula_structural   K4HgTe3O
_chemical_formula_sum   'K16 Hg4 Te12 O4'
_cell_volume   1374.22811616
_cell_formula_units_Z   4
loop_
 _symmetry_equiv_pos_site_id
 _symmetry_equiv_pos_as_xyz
  1  'x, y, z'
loop_
 _atom_site_type_symbol
 _atom_site_label
 _atom_site_symmetry_multiplicity
 _atom_site_fract_x
 _atom_site_fract_y
 _atom_site_fract_z
 _atom_site_occupancy
  K  K0  1  0.15236939  0.19286596  0.17936837  1.0
  K  K1  1  0.34763061  0.80713404  0.67936837  1.0
  K  K2  1  0.65236939  0.30713404  0.82063163  1.0
  K  K3  1  0.84763061  0.69286596  0.32063163  1.0
  K  K4  1  0.21762855  0.17019484  0.48885437  1.0
  K  K5  1  0.28237145  0.82980516  0.98885437  1.0
  K  K6  1  0.71762855  0.32980516  0.51114563  1.0
  K  K7  1  0.78237145  0.67019484  0.01114563  1.0
  K  K8  1  0.64053871  0.06519285  0.12418364  1.0
  K  K9  1  0.85946129  0.93480715  0.62418364  1.0
  K  K10  1  0.14053871  0.43480715  0.87581636  1.0
  K  K11  1  0.35946129  0.56519285  0.37581636  1.0
  K  K12  1  0.37270200  0.46165990  0.09940156  1.0
  K  K13  1  0.12729800  0.53834010  0.59940156  1.0
  K  K14  1  0.87270200  0.03834010  0.90059844  1.0
  K  K15  1  0.62729800  0.96165990  0.40059844  1.0
  Hg  Hg16  1  0.79130487  0.34587401  0.24432805  1.0
  Hg  Hg17  1  0.70869513  0.65412599  0.74432805  1.0
  Hg  Hg18  1  0.29130487  0.15412599  0.75567195  1.0
  Hg  Hg19  1  0.20869513  0.84587401  0.25567195  1.0
  Te  Te20  1  0.88601508  0.35213579  0.05256244  1.0
  Te  Te21  1  0.61398492  0.64786421  0.55256244  1.0
  Te  Te22  1  0.38601508  0.14786421  0.94743756  1.0
  Te  Te23  1  0.11398492  0.85213579  0.44743756  1.0
  Te  Te24  1  0.02279353  0.40354352  0.36946756  1.0
  Te  Te25  1  0.47720647  0.59645648  0.86946756  1.0
  Te  Te26  1  0.52279353  0.09645648  0.63053244  1.0
  Te  Te27  1  0.97720647  0.90354352  0.13053244  1.0
  Te  Te28  1  0.50489242  0.27044315  0.29832107  1.0
  Te  Te29  1  0.99510758  0.72955685  0.79832107  1.0
  Te  Te30  1  0.00489242  0.22955685  0.70167893  1.0
  Te  Te31  1  0.49510758  0.77044315  0.20167893  1.0
  O  O32  1  0.10898727  0.37852862  0.05723088  1.0
  O  O33  1  0.39101273  0.62147138  0.55723088  1.0
  O  O34  1  0.60898727  1.12147138  0.94276912  1.0
  O  O35  1  0.89101273  -0.12147138  0.44276912  1.0
