# generated using pymatgen
data_BaF2
_symmetry_space_group_name_H-M   'P 1'
_cell_length_a   6.80593532
_cell_length_b   4.11380352
_cell_length_c   8.00642071
_cell_angle_alpha   90.00000000
_cell_angle_beta   90.00000000
_cell_angle_gamma   90.00000000
_symmetry_Int_Tables_number   1
_chemical_formula_structural   BaF2
_chemical_formula_sum   'Ba4 F8'
_cell_volume   224.16601407
_cell_formula_units_Z   4
loop_
 _symmetry_equiv_pos_site_id
 _symmetry_equiv_pos_as_xyz
  1  'x, y, z'
loop_
 _atom_site_type_symbol
 _atom_site_label
 _atom_site_symmetry_multiplicity
 _atom_site_fract_x
 _atom_site_fract_y
 _atom_site_fract_z
 _atom_site_occupancy
  Ba  Ba0  1  0.74965152  0.75000000  0.38860192  1.0
  Ba  Ba1  1  0.24965152  0.75000000  0.11139808  1.0
  Ba  Ba2  1  0.25034848  0.25000000  0.61139808  1.0
  Ba  Ba3  1  0.75034848  0.25000000  0.88860192  1.0
  F  F4  1  0.97648221  0.75000000  0.66405447  1.0
  F  F5  1  0.47648221  0.75000000  0.83594553  1.0
  F  F6  1  0.02351779  0.25000000  0.33594553  1.0
  F  F7  1  0.52351779  0.25000000  0.16405447  1.0
  F  F8  1  0.85901433  0.75000000  0.07266071  1.0
  F  F9  1  0.35901433  0.75000000  0.42733929  1.0
  F  F10  1  0.14098567  0.25000000  0.92733929  1.0
  F  F11  1  0.64098567  0.25000000  0.57266071  1.0
