# generated using pymatgen
data_Ca3Si2O7
_symmetry_space_group_name_H-M   'P 1'
_cell_length_a   12.78754017
_cell_length_b   12.78754017
_cell_length_c   12.78754017
_cell_angle_alpha   59.17277114
_cell_angle_beta   156.83980087
_cell_angle_gamma   126.37319343
_symmetry_Int_Tables_number   1
_chemical_formula_structural   Ca3Si2O7
_chemical_formula_sum   'Ca12 Si8 O28'
_cell_volume   658.62049756
_cell_formula_units_Z   4
loop_
 _symmetry_equiv_pos_site_id
 _symmetry_equiv_pos_as_xyz
  1  'x, y, z'
loop_
 _atom_site_type_symbol
 _atom_site_label
 _atom_site_symmetry_multiplicity
 _atom_site_fract_x
 _atom_site_fract_y
 _atom_site_fract_z
 _atom_site_occupancy
  Ca  Ca0  1  1.26398723  0.66539310  1.38920860  1.0
  Ca  Ca1  1  1.27618450  1.16539310  0.90140587  1.0
  Ca  Ca2  1  1.26398723  0.37477864  1.09859413  1.0
  Ca  Ca3  1  1.27618450  0.87477864  0.61079140  1.0
  Ca  Ca4  1  0.98020118  0.80880890  0.83367757  1.0
  Ca  Ca5  1  1.97513133  1.30880890  1.32860772  1.0
  Ca  Ca6  1  0.98020118  0.64652361  0.67139228  1.0
  Ca  Ca7  1  1.97513133  1.14652361  1.16632243  1.0
  Ca  Ca8  1  0.70015542  0.45158408  0.74857133  1.0
  Ca  Ca9  1  0.70301275  0.95158408  0.25142867  1.0
  Ca  Ca10  1  -0.00273036  -0.00273036  -0.00000000  1.0
  Ca  Ca11  1  0.99726964  0.49726964  0.50000000  1.0
  Si  Si12  1  0.63846174  0.97779843  0.45842073  1.0
  Si  Si13  1  0.51937770  0.47779843  0.83933669  1.0
  Si  Si14  1  0.63846174  0.68004101  0.16066331  1.0
  Si  Si15  1  0.51937770  0.18004101  0.54157927  1.0
  Si  Si16  1  1.31708924  0.64104140  1.17604784  1.0
  Si  Si17  1  1.46499356  1.14104140  0.82395216  1.0
  Si  Si18  1  0.74526178  0.74526178  -0.00000000  1.0
  Si  Si19  1  0.74526178  0.24526178  0.50000000  1.0
  O  O20  1  1.00832986  0.78578659  1.14043211  1.0
  O  O21  1  1.64535448  1.28578659  1.27745673  1.0
  O  O22  1  1.00832986  0.36789775  0.72254327  1.0
  O  O23  1  1.64535448  0.86789775  0.85956789  1.0
  O  O24  1  0.84028406  0.48625726  1.15961979  1.0
  O  O25  1  1.32663748  0.98625726  1.14597321  1.0
  O  O26  1  0.84028406  0.18066427  0.85402679  1.0
  O  O27  1  1.32663748  0.68066427  0.84038021  1.0
  O  O28  1  1.11901955  0.63301721  1.10347261  1.0
  O  O29  1  1.52954460  1.13301721  1.01399766  1.0
  O  O30  1  1.11901955  0.51554694  0.98600234  1.0
  O  O31  1  1.52954460  1.01554694  0.89652739  1.0
  O  O32  1  0.84353702  1.11417611  0.64665835  1.0
  O  O33  1  0.46751776  0.61417611  0.77063909  1.0
  O  O34  1  0.84353702  0.69687867  0.22936091  1.0
  O  O35  1  0.46751776  0.19687867  0.35334165  1.0
  O  O36  1  1.25711502  1.35840550  0.71279543  1.0
  O  O37  1  0.64561007  0.85840550  0.60129047  1.0
  O  O38  1  1.25711502  1.04431959  0.39870953  1.0
  O  O39  1  0.64561007  0.54431959  0.28720457  1.0
  O  O40  1  0.84193682  0.98282491  0.54071689  1.0
  O  O41  1  0.44210802  0.48282491  0.64088809  1.0
  O  O42  1  0.84193682  0.80121993  0.35911191  1.0
  O  O43  1  0.44210802  0.30121993  0.45928311  1.0
  O  O44  1  0.73150110  0.27272292  0.95877818  1.0
  O  O45  1  1.31394474  0.77272292  1.04122182  1.0
  O  O46  1  0.63665466  0.64048176  0.49617290  1.0
  O  O47  1  1.14430885  1.14048176  0.50382710  1.0
