# generated using pymatgen
data_Li2Mn(SO4)2
_symmetry_space_group_name_H-M   'P 1'
_cell_length_a   5.04595063
_cell_length_b   8.40697711
_cell_length_c   8.96436838
_cell_angle_alpha   90.00000000
_cell_angle_beta   120.68146009
_cell_angle_gamma   90.00000000
_symmetry_Int_Tables_number   1
_chemical_formula_structural   Li2Mn(SO4)2
_chemical_formula_sum   'Li4 Mn2 S4 O16'
_cell_volume   327.04672895
_cell_formula_units_Z   2
loop_
 _symmetry_equiv_pos_site_id
 _symmetry_equiv_pos_as_xyz
  1  'x, y, z'
loop_
 _atom_site_type_symbol
 _atom_site_label
 _atom_site_symmetry_multiplicity
 _atom_site_fract_x
 _atom_site_fract_y
 _atom_site_fract_z
 _atom_site_occupancy
  Li  Li0  1  0.97594788  0.86773052  0.39458999  1.0
  Li  Li1  1  0.97594788  0.63226948  0.89458999  1.0
  Li  Li2  1  0.02405212  0.36773052  0.10541001  1.0
  Li  Li3  1  0.02405212  0.13226948  0.60541001  1.0
  Mn  Mn4  1  -0.00000000  0.50000000  0.50000000  1.0
  Mn  Mn5  1  0.00000000  0.00000000  0.00000000  1.0
  S  S6  1  0.67402875  0.19606232  0.20420014  1.0
  S  S7  1  0.67402875  0.30393768  0.70420014  1.0
  S  S8  1  0.32597125  0.69606232  0.29579986  1.0
  S  S9  1  0.32597125  0.80393768  0.79579986  1.0
  O  O10  1  0.81233234  0.35956499  0.25675712  1.0
  O  O11  1  0.81233234  0.14043501  0.75675712  1.0
  O  O12  1  0.18766766  0.85956499  0.24324288  1.0
  O  O13  1  0.18766766  0.64043501  0.74324288  1.0
  O  O14  1  0.82340610  0.08472082  0.35294227  1.0
  O  O15  1  0.82340610  0.41527918  0.85294227  1.0
  O  O16  1  0.17659390  0.58472082  0.14705773  1.0
  O  O17  1  0.17659390  0.91527918  0.64705773  1.0
  O  O18  1  0.72513977  0.14464062  0.06070361  1.0
  O  O19  1  0.72513977  0.35535938  0.56070361  1.0
  O  O20  1  0.27486023  0.64464062  0.43929639  1.0
  O  O21  1  0.27486023  0.85535938  0.93929639  1.0
  O  O22  1  0.33454104  0.20170407  0.13634406  1.0
  O  O23  1  0.33454104  0.29829593  0.63634406  1.0
  O  O24  1  0.66545896  0.70170407  0.36365594  1.0
  O  O25  1  0.66545896  0.79829593  0.86365594  1.0
