# generated using pymatgen
data_CsCrAs2O7
_symmetry_space_group_name_H-M   'P 1'
_cell_length_a   8.09200812
_cell_length_b   10.25306492
_cell_length_c   8.81638121
_cell_angle_alpha   90.00000000
_cell_angle_beta   106.31483972
_cell_angle_gamma   90.00000000
_symmetry_Int_Tables_number   1
_chemical_formula_structural   CsCrAs2O7
_chemical_formula_sum   'Cs4 Cr4 As8 O28'
_cell_volume   702.02181700
_cell_formula_units_Z   4
loop_
 _symmetry_equiv_pos_site_id
 _symmetry_equiv_pos_as_xyz
  1  'x, y, z'
loop_
 _atom_site_type_symbol
 _atom_site_label
 _atom_site_symmetry_multiplicity
 _atom_site_fract_x
 _atom_site_fract_y
 _atom_site_fract_z
 _atom_site_occupancy
  Cs  Cs0  1  0.82138125  0.80562684  0.45428885  1.0
  Cs  Cs1  1  0.82138125  0.69437316  0.95428885  1.0
  Cs  Cs2  1  0.17861875  0.30562684  0.04571115  1.0
  Cs  Cs3  1  0.17861875  0.19437316  0.54571115  1.0
  Cr  Cr4  1  0.75969771  0.39845644  0.23323645  1.0
  Cr  Cr5  1  0.75969771  0.10154356  0.73323645  1.0
  Cr  Cr6  1  0.24030229  0.89845644  0.26676355  1.0
  Cr  Cr7  1  0.24030229  0.60154356  0.76676355  1.0
  As  As8  1  0.86477670  0.09024430  0.15845238  1.0
  As  As9  1  0.86477670  0.40975570  0.65845238  1.0
  As  As10  1  0.13522330  0.59024430  0.34154762  1.0
  As  As11  1  0.13522330  0.90975570  0.84154762  1.0
  As  As12  1  0.56987288  0.13127962  0.31394319  1.0
  As  As13  1  0.56987288  0.36872038  0.81394319  1.0
  As  As14  1  0.43012712  0.63127962  0.18605681  1.0
  As  As15  1  0.43012712  0.86872038  0.68605681  1.0
  O  O16  1  0.97872601  0.49364123  0.22060422  1.0
  O  O17  1  0.97872601  0.00635877  0.72060422  1.0
  O  O18  1  0.02127399  0.99364123  0.27939578  1.0
  O  O19  1  0.02127399  0.50635877  0.77939578  1.0
  O  O20  1  0.90393362  0.24340155  0.24410486  1.0
  O  O21  1  0.90393362  0.25659845  0.74410486  1.0
  O  O22  1  0.09606638  0.74340155  0.25589514  1.0
  O  O23  1  0.09606638  0.75659845  0.75589514  1.0
  O  O24  1  0.85201700  0.42037299  0.46337571  1.0
  O  O25  1  0.85201700  0.07962701  0.96337571  1.0
  O  O26  1  0.14798300  0.92037299  0.03662429  1.0
  O  O27  1  0.14798300  0.57962701  0.53662429  1.0
  O  O28  1  0.70957338  0.10321381  0.49730510  1.0
  O  O29  1  0.70957338  0.39678619  0.99730510  1.0
  O  O30  1  0.29042662  0.60321381  0.00269490  1.0
  O  O31  1  0.29042662  0.89678619  0.50269490  1.0
  O  O32  1  0.66140910  0.03306657  0.18393002  1.0
  O  O33  1  0.66140910  0.46693343  0.68393002  1.0
  O  O34  1  0.33859090  0.53306657  0.31606998  1.0
  O  O35  1  0.33859090  0.96693343  0.81606998  1.0
  O  O36  1  0.55951268  0.29086881  0.24408130  1.0
  O  O37  1  0.55951268  0.20913119  0.74408130  1.0
  O  O38  1  0.44048732  0.79086881  0.25591870  1.0
  O  O39  1  0.44048732  0.70913119  0.75591870  1.0
  O  O40  1  0.36185470  0.07602788  0.28002495  1.0
  O  O41  1  0.36185470  0.42397212  0.78002495  1.0
  O  O42  1  0.63814530  0.57602788  0.21997505  1.0
  O  O43  1  0.63814530  0.92397212  0.71997505  1.0
