# generated using pymatgen
data_LiBeH3
_symmetry_space_group_name_H-M   'P 1'
_cell_length_a   5.89388403
_cell_length_b   5.89388403
_cell_length_c   8.33526441
_cell_angle_alpha   90.00000000
_cell_angle_beta   90.00000000
_cell_angle_gamma   59.76569944
_symmetry_Int_Tables_number   1
_chemical_formula_structural   LiBeH3
_chemical_formula_sum   'Li6 Be6 H18'
_cell_volume   250.16294445
_cell_formula_units_Z   6
loop_
 _symmetry_equiv_pos_site_id
 _symmetry_equiv_pos_as_xyz
  1  'x, y, z'
loop_
 _atom_site_type_symbol
 _atom_site_label
 _atom_site_symmetry_multiplicity
 _atom_site_fract_x
 _atom_site_fract_y
 _atom_site_fract_z
 _atom_site_occupancy
  Li  Li0  1  -0.17355676  0.82644324  0.50000000  1.0
  Li  Li1  1  -0.17355676  0.82644324  0.00000000  1.0
  Li  Li2  1  0.17355676  0.17355676  0.50000000  1.0
  Li  Li3  1  0.17355676  0.17355676  0.00000000  1.0
  Li  Li4  1  -0.50000000  0.50000000  0.50000000  1.0
  Li  Li5  1  -0.50000000  0.50000000  0.00000000  1.0
  Be  Be6  1  0.16504245  0.59132242  0.25000000  1.0
  Be  Be7  1  -0.40867758  1.16504245  0.75000000  1.0
  Be  Be8  1  -0.16504245  0.40867758  0.75000000  1.0
  Be  Be9  1  -0.59132242  0.83495755  0.25000000  1.0
  Be  Be10  1  -0.08049106  0.08049106  0.25000000  1.0
  Be  Be11  1  -0.91950894  0.91950894  0.75000000  1.0
  H  H12  1  -0.47855008  0.83443859  0.10111100  1.0
  H  H13  1  -0.16556141  0.52144992  0.89888900  1.0
  H  H14  1  -0.47855008  0.83443859  0.39888900  1.0
  H  H15  1  -0.16556141  0.52144992  0.60111100  1.0
  H  H16  1  -0.52144992  1.16556141  0.89888900  1.0
  H  H17  1  0.16556141  0.47855008  0.10111100  1.0
  H  H18  1  -0.52144992  1.16556141  0.60111100  1.0
  H  H19  1  0.16556141  0.47855008  0.39888900  1.0
  H  H20  1  -0.19198516  0.19198516  0.40060082  1.0
  H  H21  1  -0.80801484  0.80801484  0.59939918  1.0
  H  H22  1  -0.19198516  0.19198516  0.09939918  1.0
  H  H23  1  -0.80801484  0.80801484  0.90060082  1.0
  H  H24  1  -0.07796322  0.83582332  0.25000000  1.0
  H  H25  1  -0.16417668  0.92203678  0.75000000  1.0
  H  H26  1  0.07796322  0.16417668  0.75000000  1.0
  H  H27  1  -0.83582332  1.07796322  0.25000000  1.0
  H  H28  1  -0.59256001  0.59256001  0.25000000  1.0
  H  H29  1  -0.40743999  0.40743999  0.75000000  1.0
