# generated using pymatgen
data_KPb2Br5
_symmetry_space_group_name_H-M   'P 1'
_cell_length_a   9.54939291
_cell_length_b   9.54939291
_cell_length_c   9.54939291
_cell_angle_alpha   126.95929979
_cell_angle_beta   126.95929979
_cell_angle_gamma   78.31709527
_symmetry_Int_Tables_number   1
_chemical_formula_structural   KPb2Br5
_chemical_formula_sum   'K2 Pb4 Br10'
_cell_volume   538.50197698
_cell_formula_units_Z   2
loop_
 _symmetry_equiv_pos_site_id
 _symmetry_equiv_pos_as_xyz
  1  'x, y, z'
loop_
 _atom_site_type_symbol
 _atom_site_label
 _atom_site_symmetry_multiplicity
 _atom_site_fract_x
 _atom_site_fract_y
 _atom_site_fract_z
 _atom_site_occupancy
  K  K0  1  0.75000000  0.75000000  1.00000000  1.0
  K  K1  1  0.25000000  0.25000000  -0.00000000  1.0
  Pb  Pb2  1  0.33415931  0.83415931  1.16831863  1.0
  Pb  Pb3  1  0.16584069  0.33415931  0.50000000  1.0
  Pb  Pb4  1  0.83415931  0.66584069  1.50000000  1.0
  Pb  Pb5  1  0.66584069  0.16584069  0.83168137  1.0
  Br  Br6  1  0.70961981  1.20961981  1.18882445  1.0
  Br  Br7  1  0.97920464  0.47920464  1.18882445  1.0
  Br  Br8  1  0.52079536  0.70961981  0.50000000  1.0
  Br  Br9  1  0.79038019  0.97920464  1.50000000  1.0
  Br  Br10  1  1.20961981  1.02079536  1.50000000  1.0
  Br  Br11  1  0.47920464  0.29038019  0.50000000  1.0
  Br  Br12  1  1.02079536  0.52079536  0.81117555  1.0
  Br  Br13  1  0.29038019  0.79038019  0.81117555  1.0
  Br  Br14  1  0.00000000  0.00000000  0.00000000  1.0
  Br  Br15  1  0.50000000  0.50000000  1.00000000  1.0
