# generated using pymatgen
data_CoGeO3
_symmetry_space_group_name_H-M   'P 1'
_cell_length_a   5.51975858
_cell_length_b   5.51975858
_cell_length_c   5.51975858
_cell_angle_alpha   53.50832312
_cell_angle_beta   53.50832312
_cell_angle_gamma   53.50832312
_symmetry_Int_Tables_number   1
_chemical_formula_structural   CoGeO3
_chemical_formula_sum   'Co2 Ge2 O6'
_cell_volume   100.85424093
_cell_formula_units_Z   2
loop_
 _symmetry_equiv_pos_site_id
 _symmetry_equiv_pos_as_xyz
  1  'x, y, z'
loop_
 _atom_site_type_symbol
 _atom_site_label
 _atom_site_symmetry_multiplicity
 _atom_site_fract_x
 _atom_site_fract_y
 _atom_site_fract_z
 _atom_site_occupancy
  Co  Co0  1  0.35464080  0.35464080  -0.64535920  1.0
  Co  Co1  1  0.64535920  0.64535920  -0.35464080  1.0
  Ge  Ge2  1  0.15363452  0.15363452  0.15363452  1.0
  Ge  Ge3  1  0.84636548  -0.15363452  -0.15363452  1.0
  O  O4  1  0.44136348  0.05261337  -0.22301227  1.0
  O  O5  1  1.22301227  -0.44136348  -0.05261337  1.0
  O  O6  1  0.94738663  0.22301227  -0.44136348  1.0
  O  O7  1  0.55863652  -0.05261337  0.22301227  1.0
  O  O8  1  0.77698773  -0.55863652  0.05261337  1.0
  O  O9  1  1.05261337  -0.22301227  -0.55863652  1.0
