# generated using pymatgen
data_MnPb(SO4)2
_symmetry_space_group_name_H-M   'P 1'
_cell_length_a   6.85696852
_cell_length_b   6.85696852
_cell_length_c   13.95649437
_cell_angle_alpha   90.00000000
_cell_angle_beta   90.00000000
_cell_angle_gamma   90.00000000
_symmetry_Int_Tables_number   1
_chemical_formula_structural   MnPb(SO4)2
_chemical_formula_sum   'Mn4 Pb4 S8 O32'
_cell_volume   656.20669412
_cell_formula_units_Z   4
loop_
 _symmetry_equiv_pos_site_id
 _symmetry_equiv_pos_as_xyz
  1  'x, y, z'
loop_
 _atom_site_type_symbol
 _atom_site_label
 _atom_site_symmetry_multiplicity
 _atom_site_fract_x
 _atom_site_fract_y
 _atom_site_fract_z
 _atom_site_occupancy
  Mn  Mn0  1  0.33257684  0.66742316  0.25000000  1.0
  Mn  Mn1  1  0.83257684  0.83257684  0.50000000  1.0
  Mn  Mn2  1  0.66742316  0.33257684  0.75000000  1.0
  Mn  Mn3  1  0.16742316  0.16742316  0.00000000  1.0
  Pb  Pb4  1  0.74896693  0.25103307  0.25000000  1.0
  Pb  Pb5  1  0.24896693  0.24896693  0.50000000  1.0
  Pb  Pb6  1  0.25103307  0.74896693  0.75000000  1.0
  Pb  Pb7  1  0.75103307  0.75103307  0.00000000  1.0
  S  S8  1  0.25507533  0.67486883  0.00885997  1.0
  S  S9  1  0.75507533  0.82513117  0.74114003  1.0
  S  S10  1  0.32513117  0.74492467  0.49114003  1.0
  S  S11  1  0.82513117  0.75507533  0.25885997  1.0
  S  S12  1  0.74492467  0.32513117  0.50885997  1.0
  S  S13  1  0.24492467  0.17486883  0.24114003  1.0
  S  S14  1  0.67486883  0.25507533  0.99114003  1.0
  S  S15  1  0.17486883  0.24492467  0.75885997  1.0
  O  O16  1  0.38751035  0.70868831  0.92530388  1.0
  O  O17  1  0.88751035  0.79131169  0.82469612  1.0
  O  O18  1  0.29131169  0.61248965  0.57469612  1.0
  O  O19  1  0.79131169  0.88751035  0.17530388  1.0
  O  O20  1  0.61248965  0.29131169  0.42530388  1.0
  O  O21  1  0.11248965  0.20868831  0.32469612  1.0
  O  O22  1  0.70868831  0.38751035  0.07469612  1.0
  O  O23  1  0.20868831  0.11248965  0.67530388  1.0
  O  O24  1  0.37770509  0.67394612  0.09743906  1.0
  O  O25  1  0.87770509  0.82605388  0.65256094  1.0
  O  O26  1  0.32605388  0.62229491  0.40256094  1.0
  O  O27  1  0.82605388  0.87770509  0.34743906  1.0
  O  O28  1  0.62229491  0.32605388  0.59743906  1.0
  O  O29  1  0.12229491  0.17394612  0.15256094  1.0
  O  O30  1  0.67394612  0.37770509  0.90256094  1.0
  O  O31  1  0.17394612  0.12229491  0.84743906  1.0
  O  O32  1  0.11100321  0.84065436  0.01413861  1.0
  O  O33  1  0.61100321  0.65934564  0.73586139  1.0
  O  O34  1  0.15934564  0.88899679  0.48586139  1.0
  O  O35  1  0.65934564  0.61100321  0.26413861  1.0
  O  O36  1  0.88899679  0.15934564  0.51413861  1.0
  O  O37  1  0.38899679  0.34065436  0.23586139  1.0
  O  O38  1  0.84065436  0.11100321  0.98586139  1.0
  O  O39  1  0.34065436  0.38899679  0.76413861  1.0
  O  O40  1  0.00979171  0.64212868  0.24733476  1.0
  O  O41  1  0.50979171  0.85787132  0.50266524  1.0
  O  O42  1  0.35787132  0.99020829  0.25266524  1.0
  O  O43  1  0.85787132  0.50979171  0.49733476  1.0
  O  O44  1  0.99020829  0.35787132  0.74733476  1.0
  O  O45  1  0.49020829  0.14212868  0.00266524  1.0
  O  O46  1  0.64212868  0.00979171  0.75266524  1.0
  O  O47  1  0.14212868  0.49020829  0.99733476  1.0
