# generated using pymatgen
data_GaSe
_symmetry_space_group_name_H-M   'P 1'
_cell_length_a   9.06785480
_cell_length_b   9.06785480
_cell_length_c   9.06785480
_cell_angle_alpha   24.27833258
_cell_angle_beta   24.27833258
_cell_angle_gamma   24.27833258
_symmetry_Int_Tables_number   1
_chemical_formula_structural   GaSe
_chemical_formula_sum   'Ga2 Se2'
_cell_volume   110.79817990
_cell_formula_units_Z   2
loop_
 _symmetry_equiv_pos_site_id
 _symmetry_equiv_pos_as_xyz
  1  'x, y, z'
loop_
 _atom_site_type_symbol
 _atom_site_label
 _atom_site_symmetry_multiplicity
 _atom_site_fract_x
 _atom_site_fract_y
 _atom_site_fract_z
 _atom_site_occupancy
  Ga  Ga0  1  -0.00309065  -0.00309065  -0.00309065  1.0
  Ga  Ga1  1  0.90342484  -0.09657516  -0.09657516  1.0
  Se  Se2  1  0.70803576  -0.29196424  -0.29196424  1.0
  Se  Se3  1  0.52563005  0.52563005  -0.47436995  1.0
