# generated using pymatgen
data_ZnSnO6
_symmetry_space_group_name_H-M   'P 1'
_cell_length_a   7.30247618
_cell_length_b   7.30247618
_cell_length_c   7.30247618
_cell_angle_alpha   90.00000000
_cell_angle_beta   90.00000000
_cell_angle_gamma   90.00000000
_symmetry_Int_Tables_number   1
_chemical_formula_structural   ZnSnO6
_chemical_formula_sum   'Zn4 Sn4 O24'
_cell_volume   389.41300164
_cell_formula_units_Z   4
loop_
 _symmetry_equiv_pos_site_id
 _symmetry_equiv_pos_as_xyz
  1  'x, y, z'
loop_
 _atom_site_type_symbol
 _atom_site_label
 _atom_site_symmetry_multiplicity
 _atom_site_fract_x
 _atom_site_fract_y
 _atom_site_fract_z
 _atom_site_occupancy
  Zn  Zn0  1  0.75000000  0.75000000  0.75000000  1.0
  Zn  Zn1  1  0.25000000  0.25000000  0.75000000  1.0
  Zn  Zn2  1  0.25000000  0.75000000  0.25000000  1.0
  Zn  Zn3  1  0.75000000  0.25000000  0.25000000  1.0
  Sn  Sn4  1  0.25000000  0.25000000  0.25000000  1.0
  Sn  Sn5  1  0.75000000  0.75000000  0.25000000  1.0
  Sn  Sn6  1  0.75000000  0.25000000  0.75000000  1.0
  Sn  Sn7  1  0.25000000  0.75000000  0.75000000  1.0
  O  O8  1  0.66585268  0.85258974  -0.00467817  1.0
  O  O9  1  0.49532183  0.16585268  0.64741026  1.0
  O  O10  1  0.49532183  0.83414732  0.35258974  1.0
  O  O11  1  0.50467817  0.16585268  0.35258974  1.0
  O  O12  1  0.50467817  0.83414732  0.64741026  1.0
  O  O13  1  0.85258974  1.00467817  0.33414732  1.0
  O  O14  1  0.14741026  1.00467817  0.66585268  1.0
  O  O15  1  0.14741026  -0.00467817  0.33414732  1.0
  O  O16  1  0.85258974  -0.00467817  0.66585268  1.0
  O  O17  1  0.16585268  0.64741026  0.49532183  1.0
  O  O18  1  0.83414732  0.35258974  0.49532183  1.0
  O  O19  1  0.16585268  0.35258974  0.50467817  1.0
  O  O20  1  0.83414732  0.64741026  0.50467817  1.0
  O  O21  1  1.00467817  0.33414732  0.85258974  1.0
  O  O22  1  1.00467817  0.66585268  0.14741026  1.0
  O  O23  1  -0.00467817  0.33414732  0.14741026  1.0
  O  O24  1  -0.00467817  0.66585268  0.85258974  1.0
  O  O25  1  0.64741026  0.49532183  0.16585268  1.0
  O  O26  1  0.35258974  0.49532183  0.83414732  1.0
  O  O27  1  0.35258974  0.50467817  0.16585268  1.0
  O  O28  1  0.64741026  0.50467817  0.83414732  1.0
  O  O29  1  0.33414732  0.85258974  1.00467817  1.0
  O  O30  1  0.66585268  0.14741026  1.00467817  1.0
  O  O31  1  0.33414732  0.14741026  -0.00467817  1.0
