# generated using pymatgen
data_Y2Te5O13
_symmetry_space_group_name_H-M   'P 1'
_cell_length_a   10.73143152
_cell_length_b   8.80112836
_cell_length_c   7.04862752
_cell_angle_alpha   75.24624544
_cell_angle_beta   87.90355597
_cell_angle_gamma   89.01066612
_symmetry_Int_Tables_number   1
_chemical_formula_structural   Y2Te5O13
_chemical_formula_sum   'Y4 Te10 O26'
_cell_volume   643.33133295
_cell_formula_units_Z   2
loop_
 _symmetry_equiv_pos_site_id
 _symmetry_equiv_pos_as_xyz
  1  'x, y, z'
loop_
 _atom_site_type_symbol
 _atom_site_label
 _atom_site_symmetry_multiplicity
 _atom_site_fract_x
 _atom_site_fract_y
 _atom_site_fract_z
 _atom_site_occupancy
  Y  Y0  1  -0.73970402  -0.74176295  -1.00802092  1.0
  Y  Y1  1  -0.26029598  -0.25823705  0.00802092  1.0
  Y  Y2  1  -0.67938115  -0.53041372  -0.55512359  1.0
  Y  Y3  1  -0.32061885  -0.46958628  -0.44487641  1.0
  Te  Te4  1  -0.40235308  -0.64720828  -0.87127250  1.0
  Te  Te5  1  -0.59764692  -0.35279172  -0.12872750  1.0
  Te  Te6  1  -0.85862606  -0.20075145  -0.85182057  1.0
  Te  Te7  1  -0.14137394  -0.79924855  -0.14817943  1.0
  Te  Te8  1  -0.80419804  -0.90184529  -0.45073725  1.0
  Te  Te9  1  -0.19580196  -0.09815471  -0.54926275  1.0
  Te  Te10  1  -0.47276910  -0.87862915  -0.29386608  1.0
  Te  Te11  1  -0.52723090  -0.12137085  -0.70613392  1.0
  Te  Te12  1  -0.98234929  -0.40135877  -0.25941878  1.0
  Te  Te13  1  -0.01765071  -0.59864123  -0.74058122  1.0
  O  O14  1  -0.93675645  -0.64399460  -0.97557205  1.0
  O  O15  1  -0.06324355  -0.35600540  -0.02442795  1.0
  O  O16  1  -0.46366085  -0.18316293  -0.94152272  1.0
  O  O17  1  -0.53633915  -0.81683707  -0.05847728  1.0
  O  O18  1  -0.81001841  -0.98263685  -0.94921062  1.0
  O  O19  1  -0.18998159  -0.01736315  -0.05078938  1.0
  O  O20  1  -0.21927791  -0.72270023  -0.92662189  1.0
  O  O21  1  -0.78072209  -0.27729977  -0.07337811  1.0
  O  O22  1  -0.59553785  -0.51528410  -0.87132128  1.0
  O  O23  1  -0.40446215  -0.48471590  -0.12867872  1.0
  O  O24  1  -0.31722712  -0.49645587  -0.76168955  1.0
  O  O25  1  -0.68277288  -0.50354413  -0.23831045  1.0
  O  O26  1  -0.71844049  -0.26111711  -0.67632293  1.0
  O  O27  1  -0.28155951  -0.73888289  -0.32367707  1.0
  O  O28  1  -0.72289806  -0.76973995  -0.68505440  1.0
  O  O29  1  -0.27710194  -0.23026005  -0.31494560  1.0
  O  O30  1  -0.88122167  -0.47907057  -0.67089309  1.0
  O  O31  1  -0.11877833  -0.52092943  -0.32910691  1.0
  O  O32  1  -0.98303746  -0.80640753  -0.55542334  1.0
  O  O33  1  -0.01696254  -0.19359247  -0.44457666  1.0
  O  O34  1  -0.49851133  -0.67214896  -0.48007727  1.0
  O  O35  1  -0.50148867  -0.32785104  -0.51992273  1.0
  O  O36  1  -0.62508573  -0.98826219  -0.35537235  1.0
  O  O37  1  -0.37491427  -0.01173781  -0.64462765  1.0
  O  O38  1  -0.78841003  -0.73197918  -0.32245998  1.0
  O  O39  1  -0.21158997  -0.26802082  -0.67754002  1.0
