# generated using pymatgen
data_CeMoO2
_symmetry_space_group_name_H-M   'P 1'
_cell_length_a   7.33703945
_cell_length_b   7.33703945
_cell_length_c   7.33703945
_cell_angle_alpha   130.13769693
_cell_angle_beta   130.13769693
_cell_angle_gamma   73.18672945
_symmetry_Int_Tables_number   1
_chemical_formula_structural   CeMoO2
_chemical_formula_sum   'Ce4 Mo4 O8'
_cell_volume   225.38834058
_cell_formula_units_Z   4
loop_
 _symmetry_equiv_pos_site_id
 _symmetry_equiv_pos_as_xyz
  1  'x, y, z'
loop_
 _atom_site_type_symbol
 _atom_site_label
 _atom_site_symmetry_multiplicity
 _atom_site_fract_x
 _atom_site_fract_y
 _atom_site_fract_z
 _atom_site_occupancy
  Ce  Ce0  1  0.87500000  0.62500000  1.25000000  1.0
  Ce  Ce1  1  0.37500000  0.62500000  0.75000000  1.0
  Ce  Ce2  1  0.37500000  0.62500000  0.25000000  1.0
  Ce  Ce3  1  0.37500000  1.12500000  0.75000000  1.0
  Mo  Mo4  1  0.37500000  0.12500000  0.25000000  1.0
  Mo  Mo5  1  0.87500000  0.12500000  0.75000000  1.0
  Mo  Mo6  1  0.87500000  1.12500000  1.25000000  1.0
  Mo  Mo7  1  0.87500000  0.62500000  0.75000000  1.0
  O  O8  1  0.17811054  0.39473423  0.21662374  1.0
  O  O9  1  1.17811050  0.96148680  1.78337626  1.0
  O  O10  1  1.14473423  1.42811050  1.71662370  1.0
  O  O11  1  0.71148680  0.42811054  0.28337630  1.0
  O  O12  1  0.57188946  0.85526577  1.28337626  1.0
  O  O13  1  0.57188950  0.28851320  0.71662374  1.0
  O  O14  1  0.60526577  0.82188950  0.78337630  1.0
  O  O15  1  1.03851320  0.82188946  1.21662370  1.0
