# generated using pymatgen
data_Ni4B3
_symmetry_space_group_name_H-M   'P 1'
_cell_length_a   11.96105650
_cell_length_b   2.99670074
_cell_length_c   6.58209629
_cell_angle_alpha   90.00000000
_cell_angle_beta   90.00000000
_cell_angle_gamma   90.00000000
_symmetry_Int_Tables_number   1
_chemical_formula_structural   Ni4B3
_chemical_formula_sum   'Ni16 B12'
_cell_volume   235.92672974
_cell_formula_units_Z   4
loop_
 _symmetry_equiv_pos_site_id
 _symmetry_equiv_pos_as_xyz
  1  'x, y, z'
loop_
 _atom_site_type_symbol
 _atom_site_label
 _atom_site_symmetry_multiplicity
 _atom_site_fract_x
 _atom_site_fract_y
 _atom_site_fract_z
 _atom_site_occupancy
  Ni  Ni0  1  0.45007742  0.75000000  0.24894853  1.0
  Ni  Ni1  1  0.95007742  0.75000000  0.25105147  1.0
  Ni  Ni2  1  0.54992258  0.25000000  0.75105147  1.0
  Ni  Ni3  1  0.04992258  0.25000000  0.74894853  1.0
  Ni  Ni4  1  0.37653391  0.75000000  0.82946661  1.0
  Ni  Ni5  1  0.87653391  0.75000000  0.67053339  1.0
  Ni  Ni6  1  0.62346609  0.25000000  0.17053339  1.0
  Ni  Ni7  1  0.12346609  0.25000000  0.32946661  1.0
  Ni  Ni8  1  0.20016889  0.75000000  0.61776150  1.0
  Ni  Ni9  1  0.70016889  0.75000000  0.88223850  1.0
  Ni  Ni10  1  0.79983111  0.25000000  0.38223850  1.0
  Ni  Ni11  1  0.29983111  0.25000000  0.11776150  1.0
  Ni  Ni12  1  0.14865245  0.75000000  0.00626098  1.0
  Ni  Ni13  1  0.64865245  0.75000000  0.49373902  1.0
  Ni  Ni14  1  0.85134755  0.25000000  0.99373902  1.0
  Ni  Ni15  1  0.35134755  0.25000000  0.50626098  1.0
  B  B16  1  0.47518927  0.75000000  0.56146512  1.0
  B  B17  1  0.97518927  0.75000000  0.93853488  1.0
  B  B18  1  0.52481073  0.25000000  0.43853488  1.0
  B  B19  1  0.02481073  0.25000000  0.06146512  1.0
  B  B20  1  0.25714201  0.75000000  0.31501157  1.0
  B  B21  1  0.75714201  0.75000000  0.18498843  1.0
  B  B22  1  0.74285799  0.25000000  0.68498843  1.0
  B  B23  1  0.24285799  0.25000000  0.81501157  1.0
  B  B24  1  0.03870094  0.75000000  0.52164839  1.0
  B  B25  1  0.53870094  0.75000000  0.97835161  1.0
  B  B26  1  0.96129906  0.25000000  0.47835161  1.0
  B  B27  1  0.46129906  0.25000000  0.02164839  1.0
