# generated using pymatgen
data_Li3P7
_symmetry_space_group_name_H-M   'P 1'
_cell_length_a   7.63092409
_cell_length_b   9.87374549
_cell_length_c   10.56631325
_cell_angle_alpha   90.00000000
_cell_angle_beta   90.00000000
_cell_angle_gamma   90.00000000
_symmetry_Int_Tables_number   1
_chemical_formula_structural   Li3P7
_chemical_formula_sum   'Li12 P28'
_cell_volume   796.12734948
_cell_formula_units_Z   4
loop_
 _symmetry_equiv_pos_site_id
 _symmetry_equiv_pos_as_xyz
  1  'x, y, z'
loop_
 _atom_site_type_symbol
 _atom_site_label
 _atom_site_symmetry_multiplicity
 _atom_site_fract_x
 _atom_site_fract_y
 _atom_site_fract_z
 _atom_site_occupancy
  Li  Li0  1  0.40114025  0.80141795  0.81044199  1.0
  Li  Li1  1  0.90114025  0.69858205  0.18955801  1.0
  Li  Li2  1  0.59885975  0.30141795  0.68955801  1.0
  Li  Li3  1  0.09885975  0.19858205  0.31044199  1.0
  Li  Li4  1  0.06816757  0.97317139  0.51517086  1.0
  Li  Li5  1  0.56816757  0.52682861  0.48482914  1.0
  Li  Li6  1  0.93183243  0.47317139  0.98482914  1.0
  Li  Li7  1  0.43183243  0.02682861  0.01517086  1.0
  Li  Li8  1  0.84979820  0.80705521  0.68412667  1.0
  Li  Li9  1  0.34979820  0.69294479  0.31587333  1.0
  Li  Li10  1  0.15020180  0.30705521  0.81587333  1.0
  Li  Li11  1  0.65020180  0.19294479  0.18412667  1.0
  P  P12  1  0.46706186  0.94146323  0.56632873  1.0
  P  P13  1  0.96706186  0.55853677  0.43367127  1.0
  P  P14  1  0.53293814  0.44146323  0.93367127  1.0
  P  P15  1  0.03293814  0.05853677  0.06632873  1.0
  P  P16  1  0.40513777  0.63268349  0.00470116  1.0
  P  P17  1  0.90513777  0.86731651  0.99529884  1.0
  P  P18  1  0.59486223  0.13268349  0.49529884  1.0
  P  P19  1  0.09486223  0.36731651  0.50470116  1.0
  P  P20  1  0.31692354  0.42833090  0.61931851  1.0
  P  P21  1  0.81692354  0.07166910  0.38068149  1.0
  P  P22  1  0.68307646  0.92833090  0.88068149  1.0
  P  P23  1  0.18307646  0.57166910  0.11931851  1.0
  P  P24  1  0.21946600  0.62564019  0.68225719  1.0
  P  P25  1  0.71946600  0.87435981  0.31774281  1.0
  P  P26  1  0.78053400  0.12564019  0.81774281  1.0
  P  P27  1  0.28053400  0.37435981  0.18225719  1.0
  P  P28  1  0.13771643  0.95300982  0.88821537  1.0
  P  P29  1  0.63771643  0.54699018  0.11178463  1.0
  P  P30  1  0.86228357  0.45300982  0.61178463  1.0
  P  P31  1  0.36228357  0.04699018  0.38821537  1.0
  P  P32  1  0.12975585  0.71952276  0.50555895  1.0
  P  P33  1  0.62975585  0.78047724  0.49444105  1.0
  P  P34  1  0.87024415  0.21952276  0.99444105  1.0
  P  P35  1  0.37024415  0.28047724  0.00555895  1.0
  P  P36  1  0.96564694  0.57160573  0.76638540  1.0
  P  P37  1  0.46564694  0.92839427  0.23361460  1.0
  P  P38  1  0.03435306  0.07160573  0.73361460  1.0
  P  P39  1  0.53435306  0.42839427  0.26638540  1.0
