# generated using pymatgen
data_Ba5Re3BrO15
_symmetry_space_group_name_H-M   'P 1'
_cell_length_a   11.14407681
_cell_length_b   11.14407681
_cell_length_c   7.92882318
_cell_angle_alpha   90.00000000
_cell_angle_beta   90.00000000
_cell_angle_gamma   120.00000000
_symmetry_Int_Tables_number   1
_chemical_formula_structural   Ba5Re3BrO15
_chemical_formula_sum   'Ba10 Re6 Br2 O30'
_cell_volume   852.76144849
_cell_formula_units_Z   2
loop_
 _symmetry_equiv_pos_site_id
 _symmetry_equiv_pos_as_xyz
  1  'x, y, z'
loop_
 _atom_site_type_symbol
 _atom_site_label
 _atom_site_symmetry_multiplicity
 _atom_site_fract_x
 _atom_site_fract_y
 _atom_site_fract_z
 _atom_site_occupancy
  Ba  Ba0  1  0.26908030  0.26908030  0.22722085  1.0
  Ba  Ba1  1  0.26908030  0.00000000  0.72722085  1.0
  Ba  Ba2  1  0.00000000  0.26908030  0.72722085  1.0
  Ba  Ba3  1  -0.00000000  0.73091970  0.22722085  1.0
  Ba  Ba4  1  0.73091970  0.73091970  0.72722085  1.0
  Ba  Ba5  1  0.73091970  0.00000000  0.22722085  1.0
  Ba  Ba6  1  0.33333333  0.66666667  0.46785491  1.0
  Ba  Ba7  1  0.33333333  0.66666667  0.96785491  1.0
  Ba  Ba8  1  0.66666667  0.33333333  0.46785491  1.0
  Ba  Ba9  1  0.66666667  0.33333333  0.96785491  1.0
  Re  Re10  1  0.60757042  0.60757042  0.17095017  1.0
  Re  Re11  1  0.60757042  0.00000000  0.67095017  1.0
  Re  Re12  1  0.00000000  0.60757042  0.67095017  1.0
  Re  Re13  1  -0.00000000  0.39242958  0.17095017  1.0
  Re  Re14  1  0.39242958  0.39242958  0.67095017  1.0
  Re  Re15  1  0.39242958  0.00000000  0.17095017  1.0
  Br  Br16  1  0.00000000  0.00000000  0.00256691  1.0
  Br  Br17  1  0.00000000  0.00000000  0.50256691  1.0
  O  O18  1  0.44729294  0.86998066  0.21055198  1.0
  O  O19  1  0.44729294  0.57731228  0.71055198  1.0
  O  O20  1  0.86998066  0.44729294  0.21055198  1.0
  O  O21  1  0.86998066  0.42268772  0.71055198  1.0
  O  O22  1  0.42268772  0.86998066  0.71055198  1.0
  O  O23  1  0.42268772  0.55270706  0.21055198  1.0
  O  O24  1  0.13001934  0.55270706  0.71055198  1.0
  O  O25  1  0.13001934  0.57731228  0.21055198  1.0
  O  O26  1  0.55270706  0.42268772  0.21055198  1.0
  O  O27  1  0.55270706  0.13001934  0.71055198  1.0
  O  O28  1  0.57731228  0.44729294  0.71055198  1.0
  O  O29  1  0.57731228  0.13001934  0.21055198  1.0
  O  O30  1  0.25987423  0.86910735  0.03123779  1.0
  O  O31  1  0.25987423  0.39076688  0.53123779  1.0
  O  O32  1  0.86910735  0.25987423  0.03123779  1.0
  O  O33  1  0.86910735  0.60923312  0.53123779  1.0
  O  O34  1  0.60923312  0.86910735  0.53123779  1.0
  O  O35  1  0.60923312  0.74012577  0.03123779  1.0
  O  O36  1  0.13089265  0.74012577  0.53123779  1.0
  O  O37  1  0.13089265  0.39076688  0.03123779  1.0
  O  O38  1  0.74012577  0.60923312  0.03123779  1.0
  O  O39  1  0.74012577  0.13089265  0.53123779  1.0
  O  O40  1  0.39076688  0.25987423  0.53123779  1.0
  O  O41  1  0.39076688  0.13089265  0.03123779  1.0
  O  O42  1  0.70035619  0.70035619  0.34932386  1.0
  O  O43  1  0.70035619  0.00000000  0.84932386  1.0
  O  O44  1  -0.00000000  0.70035619  0.84932386  1.0
  O  O45  1  -0.00000000  0.29964381  0.34932386  1.0
  O  O46  1  0.29964381  0.29964381  0.84932386  1.0
  O  O47  1  0.29964381  0.00000000  0.34932386  1.0
