# generated using pymatgen
data_ZrPRu
_symmetry_space_group_name_H-M   'P 1'
_cell_length_a   6.46050140
_cell_length_b   3.88897421
_cell_length_c   7.35149301
_cell_angle_alpha   90.00000000
_cell_angle_beta   90.00000000
_cell_angle_gamma   90.00000000
_symmetry_Int_Tables_number   1
_chemical_formula_structural   ZrPRu
_chemical_formula_sum   'Zr4 P4 Ru4'
_cell_volume   184.70422767
_cell_formula_units_Z   4
loop_
 _symmetry_equiv_pos_site_id
 _symmetry_equiv_pos_as_xyz
  1  'x, y, z'
loop_
 _atom_site_type_symbol
 _atom_site_label
 _atom_site_symmetry_multiplicity
 _atom_site_fract_x
 _atom_site_fract_y
 _atom_site_fract_z
 _atom_site_occupancy
  Zr  Zr0  1  0.97800738  0.75000000  0.68145900  1.0
  Zr  Zr1  1  0.47800738  0.75000000  0.81854100  1.0
  Zr  Zr2  1  0.02199262  0.25000000  0.31854100  1.0
  Zr  Zr3  1  0.52199262  0.25000000  0.18145900  1.0
  P  P4  1  0.72467417  0.75000000  0.37871699  1.0
  P  P5  1  0.22467417  0.75000000  0.12128301  1.0
  P  P6  1  0.27532583  0.25000000  0.62128301  1.0
  P  P7  1  0.77532583  0.25000000  0.87871699  1.0
  Ru  Ru8  1  0.84906017  0.75000000  0.06058951  1.0
  Ru  Ru9  1  0.34906017  0.75000000  0.43941049  1.0
  Ru  Ru10  1  0.15093983  0.25000000  0.93941049  1.0
  Ru  Ru11  1  0.65093983  0.25000000  0.56058951  1.0
