# generated using pymatgen
data_RbAlPdF6
_symmetry_space_group_name_H-M   'P 1'
_cell_length_a   7.41104767
_cell_length_b   7.24477643
_cell_length_c   10.30133354
_cell_angle_alpha   90.00000000
_cell_angle_beta   90.00000000
_cell_angle_gamma   90.00000000
_symmetry_Int_Tables_number   1
_chemical_formula_structural   RbAlPdF6
_chemical_formula_sum   'Rb4 Al4 Pd4 F24'
_cell_volume   553.09284860
_cell_formula_units_Z   4
loop_
 _symmetry_equiv_pos_site_id
 _symmetry_equiv_pos_as_xyz
  1  'x, y, z'
loop_
 _atom_site_type_symbol
 _atom_site_label
 _atom_site_symmetry_multiplicity
 _atom_site_fract_x
 _atom_site_fract_y
 _atom_site_fract_z
 _atom_site_occupancy
  Al  Al0  1  0.00000000  0.00000000  0.00000000  1.0
  Al  Al1  1  0.00000000  0.50000000  0.00000000  1.0
  Al  Al2  1  0.50000000  0.00000000  0.50000000  1.0
  Al  Al3  1  0.50000000  0.50000000  0.50000000  1.0
  Pd  Pd4  1  0.77751110  0.75000000  0.26116537  1.0
  Pd  Pd5  1  0.27751110  0.75000000  0.23883463  1.0
  Pd  Pd6  1  0.22248890  0.25000000  0.73883463  1.0
  Pd  Pd7  1  0.72248890  0.25000000  0.76116537  1.0
  Rb  Rb8  1  0.98500886  0.75000000  0.63230279  1.0
  Rb  Rb9  1  0.48500886  0.75000000  0.86769721  1.0
  Rb  Rb10  1  0.01499114  0.25000000  0.36769721  1.0
  Rb  Rb11  1  0.51499114  0.25000000  0.13230279  1.0
  F  F12  1  0.86114946  0.50132531  0.14624640  1.0
  F  F13  1  0.86114946  0.99867469  0.14624640  1.0
  F  F14  1  0.36114946  0.50132531  0.35375360  1.0
  F  F15  1  0.36114946  0.99867469  0.35375360  1.0
  F  F16  1  0.13885054  0.00132531  0.85375360  1.0
  F  F17  1  0.13885054  0.49867469  0.85375360  1.0
  F  F18  1  0.63885054  0.00132531  0.64624640  1.0
  F  F19  1  0.63885054  0.49867469  0.64624640  1.0
  F  F20  1  0.70321606  0.96973159  0.40173323  1.0
  F  F21  1  0.70321606  0.53026841  0.40173323  1.0
  F  F22  1  0.20321606  0.96973159  0.09826677  1.0
  F  F23  1  0.20321606  0.53026841  0.09826677  1.0
  F  F24  1  0.29678394  0.46973159  0.59826677  1.0
  F  F25  1  0.29678394  0.03026841  0.59826677  1.0
  F  F26  1  0.79678394  0.46973159  0.90173323  1.0
  F  F27  1  0.79678394  0.03026841  0.90173323  1.0
  F  F28  1  0.47242496  0.75000000  0.51766069  1.0
  F  F29  1  0.97242496  0.75000000  0.98233931  1.0
  F  F30  1  0.52757504  0.25000000  0.48233931  1.0
  F  F31  1  0.02757504  0.25000000  0.01766069  1.0
  F  F32  1  0.53569989  0.75000000  0.14196623  1.0
  F  F33  1  0.03569989  0.75000000  0.35803377  1.0
  F  F34  1  0.46430011  0.25000000  0.85803377  1.0
  F  F35  1  0.96430011  0.25000000  0.64196623  1.0
