# generated using pymatgen
data_AlCu2AsO12
_symmetry_space_group_name_H-M   'P 1'
_cell_length_a   8.64787833
_cell_length_b   8.64787833
_cell_length_c   10.20921598
_cell_angle_alpha   54.67043782
_cell_angle_beta   125.32956218
_cell_angle_gamma   136.36500328
_symmetry_Int_Tables_number   1
_chemical_formula_structural   AlCu2AsO12
_chemical_formula_sum   'Al2 Cu4 As2 O24'
_cell_volume   412.16942973
_cell_formula_units_Z   2
loop_
 _symmetry_equiv_pos_site_id
 _symmetry_equiv_pos_as_xyz
  1  'x, y, z'
loop_
 _atom_site_type_symbol
 _atom_site_label
 _atom_site_symmetry_multiplicity
 _atom_site_fract_x
 _atom_site_fract_y
 _atom_site_fract_z
 _atom_site_occupancy
  O  O0  1  0.44011698  0.42785062  0.39544899  1.0
  O  O1  1  0.57214938  0.55988302  0.89544899  1.0
  O  O2  1  1.42785062  -0.55988302  0.10455101  1.0
  O  O3  1  1.55988302  -0.42785062  0.60455101  1.0
  O  O4  1  1.86431384  -0.13265855  0.43973660  1.0
  O  O5  1  1.13265855  -0.86431384  0.93973660  1.0
  O  O6  1  0.86734145  0.86431384  0.06026340  1.0
  O  O7  1  0.13568616  0.13265855  0.56026340  1.0
  O  O8  1  1.60392771  -0.06280852  0.90993113  1.0
  O  O9  1  1.06280852  0.39607229  0.40993113  1.0
  O  O10  1  0.93719148  -0.39607229  0.59006887  1.0
  O  O11  1  0.39607229  0.06280852  0.09006887  1.0
  O  O12  1  0.41536194  -0.12873274  0.35116399  1.0
  O  O13  1  1.12873274  -0.41536194  0.85116399  1.0
  O  O14  1  0.87126726  0.41536194  0.14883601  1.0
  O  O15  1  1.58463806  0.12873274  0.64883601  1.0
  O  O16  1  0.69708702  0.28620319  0.36338848  1.0
  O  O17  1  0.71379681  -0.69708702  0.86338848  1.0
  O  O18  1  1.28620319  0.69708702  0.13661152  1.0
  O  O19  1  1.30291298  -0.28620319  0.63661152  1.0
  O  O20  1  0.23546969  0.00848697  0.35913457  1.0
  O  O21  1  0.99151303  0.76453031  0.85913457  1.0
  O  O22  1  1.00848697  -0.76453031  0.14086543  1.0
  O  O23  1  1.76453031  -0.00848697  0.64086543  1.0
  Al  Al24  1  1.50000000  -0.00000000  0.50000000  1.0
  Al  Al25  1  1.00000000  0.50000000  0.00000000  1.0
  As  As26  1  0.26452227  0.26452227  0.25000000  1.0
  As  As27  1  0.73547773  0.73547773  0.75000000  1.0
  Cu  Cu28  1  0.41614010  -0.34558222  0.36216601  1.0
  Cu  Cu29  1  1.34558222  -0.41614010  0.86216601  1.0
  Cu  Cu30  1  0.65441778  0.41614010  0.13783399  1.0
  Cu  Cu31  1  1.58385990  0.34558222  0.63783399  1.0
