# generated using pymatgen
data_CsClO2
_symmetry_space_group_name_H-M   'P 1'
_cell_length_a   4.85028391
_cell_length_b   4.85028391
_cell_length_c   8.59497052
_cell_angle_alpha   90.00000000
_cell_angle_beta   90.00000000
_cell_angle_gamma   93.76777204
_symmetry_Int_Tables_number   1
_chemical_formula_structural   CsClO2
_chemical_formula_sum   'Cs2 Cl2 O4'
_cell_volume   201.76182978
_cell_formula_units_Z   2
loop_
 _symmetry_equiv_pos_site_id
 _symmetry_equiv_pos_as_xyz
  1  'x, y, z'
loop_
 _atom_site_type_symbol
 _atom_site_label
 _atom_site_symmetry_multiplicity
 _atom_site_fract_x
 _atom_site_fract_y
 _atom_site_fract_z
 _atom_site_occupancy
  Cs  Cs0  1  0.00000000  0.00000000  0.50000000  1.0
  Cs  Cs1  1  0.00000000  0.00000000  0.00000000  1.0
  Cl  Cl2  1  0.45520946  0.54479054  0.25000000  1.0
  Cl  Cl3  1  -0.45520946  1.45520946  0.75000000  1.0
  O  O4  1  0.12992811  0.47576507  0.25000000  1.0
  O  O5  1  -0.52423493  1.12992811  0.75000000  1.0
  O  O6  1  0.52423493  0.87007189  0.25000000  1.0
  O  O7  1  -0.12992811  1.52423493  0.75000000  1.0
