# generated using pymatgen
data_FeN3ClO3
_symmetry_space_group_name_H-M   'P 1'
_cell_length_a   7.69006236
_cell_length_b   7.69006236
_cell_length_c   6.41253119
_cell_angle_alpha   90.00000000
_cell_angle_beta   90.00000000
_cell_angle_gamma   120.00000000
_symmetry_Int_Tables_number   1
_chemical_formula_structural   FeN3ClO3
_chemical_formula_sum   'Fe2 N6 Cl2 O6'
_cell_volume   328.41262620
_cell_formula_units_Z   2
loop_
 _symmetry_equiv_pos_site_id
 _symmetry_equiv_pos_as_xyz
  1  'x, y, z'
loop_
 _atom_site_type_symbol
 _atom_site_label
 _atom_site_symmetry_multiplicity
 _atom_site_fract_x
 _atom_site_fract_y
 _atom_site_fract_z
 _atom_site_occupancy
  Fe  Fe0  1  0.33333333  0.66666667  -0.01634782  1.0
  Fe  Fe1  1  0.66666667  0.33333333  0.48365218  1.0
  N  N2  1  0.43035085  0.21517542  0.39259221  1.0
  N  N3  1  0.21517542  0.43035085  0.89259221  1.0
  N  N4  1  0.21517542  0.78482458  0.89259221  1.0
  N  N5  1  0.78482458  0.21517542  0.39259221  1.0
  N  N6  1  0.78482458  0.56964915  0.39259221  1.0
  N  N7  1  0.56964915  0.78482458  0.89259221  1.0
  Cl  Cl8  1  0.33333333  0.66666667  0.33587744  1.0
  Cl  Cl9  1  0.66666667  0.33333333  0.83587744  1.0
  O  O10  1  0.28983880  0.14491940  0.28623125  1.0
  O  O11  1  0.14491940  0.28983880  0.78623125  1.0
  O  O12  1  0.14491940  0.85508060  0.78623125  1.0
  O  O13  1  0.85508060  0.14491940  0.28623125  1.0
  O  O14  1  0.85508060  0.71016120  0.28623125  1.0
  O  O15  1  0.71016120  0.85508060  0.78623125  1.0
