# generated using pymatgen
data_Sr6Li2Cr2N8O
_symmetry_space_group_name_H-M   'P 1'
_cell_length_a   7.59025151
_cell_length_b   6.83518063
_cell_length_c   6.18779590
_cell_angle_alpha   69.99439711
_cell_angle_beta   75.13840764
_cell_angle_gamma   82.36681622
_symmetry_Int_Tables_number   1
_chemical_formula_structural   Sr6Li2Cr2N8O
_chemical_formula_sum   'Sr6 Li2 Cr2 N8 O1'
_cell_volume   291.20598755
_cell_formula_units_Z   1
loop_
 _symmetry_equiv_pos_site_id
 _symmetry_equiv_pos_as_xyz
  1  'x, y, z'
loop_
 _atom_site_type_symbol
 _atom_site_label
 _atom_site_symmetry_multiplicity
 _atom_site_fract_x
 _atom_site_fract_y
 _atom_site_fract_z
 _atom_site_occupancy
  Sr  Sr0  1  -0.53070914  -0.31199243  -0.80048769  1.0
  Sr  Sr1  1  -0.46929086  -0.68800757  -0.19951231  1.0
  Sr  Sr2  1  -0.30172807  -0.87928096  -0.70095899  1.0
  Sr  Sr3  1  -0.69827193  -0.12071904  -0.29904101  1.0
  Sr  Sr4  1  -0.93066789  -0.63471347  -0.20847807  1.0
  Sr  Sr5  1  -0.06933211  -0.36528653  -0.79152193  1.0
  Li  Li6  1  -0.90788347  -0.00901078  -0.72536901  1.0
  Li  Li7  1  -0.09211653  -0.99098922  -0.27463099  1.0
  Cr  Cr8  1  -0.74865274  -0.71209047  -0.71129073  1.0
  Cr  Cr9  1  -0.25134726  -0.28790953  -0.28870927  1.0
  N  N10  1  -0.73419466  -0.48917926  -0.96554619  1.0
  N  N11  1  -0.26580534  -0.51082074  -0.03445381  1.0
  N  N12  1  -0.64219991  -0.93183946  -0.78352592  1.0
  N  N13  1  -0.35780009  -0.06816054  -0.21647408  1.0
  N  N14  1  -0.97753195  -0.75581861  -0.57673291  1.0
  N  N15  1  -0.02246805  -0.24418139  -0.42326709  1.0
  N  N16  1  -0.63573616  -0.67863945  -0.51301840  1.0
  N  N17  1  -0.36426384  -0.32136055  -0.48698160  1.0
  O  O18  1  0.00000000  0.00000000  0.00000000  1.0
