# generated using pymatgen
data_RbHS2O7
_symmetry_space_group_name_H-M   'P 1'
_cell_length_a   7.52687561
_cell_length_b   11.13866113
_cell_length_c   8.87989144
_cell_angle_alpha   90.00000000
_cell_angle_beta   107.80180500
_cell_angle_gamma   90.00000000
_symmetry_Int_Tables_number   1
_chemical_formula_structural   RbHS2O7
_chemical_formula_sum   'Rb4 H4 S8 O28'
_cell_volume   708.83795956
_cell_formula_units_Z   4
loop_
 _symmetry_equiv_pos_site_id
 _symmetry_equiv_pos_as_xyz
  1  'x, y, z'
loop_
 _atom_site_type_symbol
 _atom_site_label
 _atom_site_symmetry_multiplicity
 _atom_site_fract_x
 _atom_site_fract_y
 _atom_site_fract_z
 _atom_site_occupancy
  Rb  Rb0  1  0.84558993  0.70134804  0.46748614  1.0
  Rb  Rb1  1  0.84558993  0.79865196  0.96748614  1.0
  Rb  Rb2  1  0.15441007  0.20134804  0.03251386  1.0
  Rb  Rb3  1  0.15441007  0.29865196  0.53251386  1.0
  H  H4  1  0.60490209  0.05249591  0.30188264  1.0
  H  H5  1  0.60490209  0.44750409  0.80188264  1.0
  H  H6  1  0.39509791  0.55249591  0.19811736  1.0
  H  H7  1  0.39509791  0.94750409  0.69811736  1.0
  S  S8  1  0.82349923  0.44337758  0.11187434  1.0
  S  S9  1  0.82349923  0.05662242  0.61187434  1.0
  S  S10  1  0.17650077  0.94337758  0.38812566  1.0
  S  S11  1  0.17650077  0.55662242  0.88812566  1.0
  S  S12  1  0.58525075  0.40884975  0.31504456  1.0
  S  S13  1  0.58525075  0.09115025  0.81504456  1.0
  S  S14  1  0.41474925  0.90884975  0.18495544  1.0
  S  S15  1  0.41474925  0.59115025  0.68495544  1.0
  O  O16  1  0.97893820  0.37246394  0.20796155  1.0
  O  O17  1  0.97893820  0.12753606  0.70796155  1.0
  O  O18  1  0.02106180  0.87246394  0.29203845  1.0
  O  O19  1  0.02106180  0.62753606  0.79203845  1.0
  O  O20  1  0.77351733  0.08534330  0.44268695  1.0
  O  O21  1  0.77351733  0.41465670  0.94268695  1.0
  O  O22  1  0.22648267  0.58534330  0.05731305  1.0
  O  O23  1  0.22648267  0.91465670  0.55731305  1.0
  O  O24  1  0.75588551  0.41159970  0.44543620  1.0
  O  O25  1  0.75588551  0.08840030  0.94543620  1.0
  O  O26  1  0.24411449  0.91159970  0.05456380  1.0
  O  O27  1  0.24411449  0.58840030  0.55456380  1.0
  O  O28  1  0.62818742  0.38262735  0.15116323  1.0
  O  O29  1  0.62818742  0.11737265  0.65116323  1.0
  O  O30  1  0.37181258  0.88262735  0.34883677  1.0
  O  O31  1  0.37181258  0.61737265  0.84883677  1.0
  O  O32  1  0.49063924  0.04031162  0.20307453  1.0
  O  O33  1  0.49063924  0.45968838  0.70307453  1.0
  O  O34  1  0.50936076  0.54031162  0.29692547  1.0
  O  O35  1  0.50936076  0.95968838  0.79692547  1.0
  O  O36  1  0.43974068  0.32401284  0.31356811  1.0
  O  O37  1  0.43974068  0.17598716  0.81356811  1.0
  O  O38  1  0.56025932  0.82401284  0.18643189  1.0
  O  O39  1  0.56025932  0.67598716  0.68643189  1.0
  O  O40  1  0.17857397  0.06995484  0.34905400  1.0
  O  O41  1  0.17857397  0.43004516  0.84905400  1.0
  O  O42  1  0.82142603  0.56995484  0.15094600  1.0
  O  O43  1  0.82142603  0.93004516  0.65094600  1.0
