# generated using pymatgen
data_BiI3O11
_symmetry_space_group_name_H-M   'P 1'
_cell_length_a   11.09744710
_cell_length_b   7.23971721
_cell_length_c   6.85893498
_cell_angle_alpha   72.16888512
_cell_angle_beta   73.50995439
_cell_angle_gamma   72.24993750
_symmetry_Int_Tables_number   1
_chemical_formula_structural   BiI3O11
_chemical_formula_sum   'Bi2 I6 O22'
_cell_volume   488.46630250
_cell_formula_units_Z   2
loop_
 _symmetry_equiv_pos_site_id
 _symmetry_equiv_pos_as_xyz
  1  'x, y, z'
loop_
 _atom_site_type_symbol
 _atom_site_label
 _atom_site_symmetry_multiplicity
 _atom_site_fract_x
 _atom_site_fract_y
 _atom_site_fract_z
 _atom_site_occupancy
  O  O0  1  0.89920617  -0.86643826  0.07704073  1.0
  O  O1  1  0.10079383  -0.13356174  -0.07704073  1.0
  O  O2  1  0.11130623  -0.71528250  0.80626832  1.0
  O  O3  1  0.88869377  -0.28471750  -0.80626832  1.0
  O  O4  1  0.39141930  -0.67528467  0.49712918  1.0
  O  O5  1  0.60858070  -0.32471533  -0.49712918  1.0
  O  O6  1  0.62429348  -0.78250219  0.22108147  1.0
  O  O7  1  0.37570652  -0.21749781  -0.22108147  1.0
  O  O8  1  0.22918344  -0.93428046  0.52019401  1.0
  O  O9  1  0.77081656  -0.06571954  -0.52019401  1.0
  O  O10  1  0.76164675  -0.97516509  -0.14053857  1.0
  O  O11  1  0.23835325  -0.02483491  0.14053857  1.0
  O  O12  1  0.52932489  -0.60225299  -0.14999898  1.0
  O  O13  1  0.47067511  -0.39774701  0.14999898  1.0
  O  O14  1  0.53029779  -1.01226601  -0.24076490  1.0
  O  O15  1  0.46970221  0.01226601  0.24076490  1.0
  O  O16  1  0.84247108  -0.73205709  -0.51309465  1.0
  O  O17  1  0.15752892  -0.26794291  0.51309465  1.0
  O  O18  1  0.67208423  -0.31903393  0.07978101  1.0
  O  O19  1  0.32791577  -0.68096607  -0.07978101  1.0
  O  O20  1  0.85893608  -0.56875457  -0.28974385  1.0
  O  O21  1  0.14106392  -0.43124543  0.28974385  1.0
  Bi  Bi22  1  0.68550290  -0.11161177  0.22775295  1.0
  Bi  Bi23  1  0.31449710  -0.88838823  -0.22775295  1.0
  I  I24  1  0.97621095  -0.82442093  -0.21510371  1.0
  I  I25  1  0.02378905  -0.17557907  0.21510371  1.0
  I  I26  1  0.44136260  -0.67808135  0.19743037  1.0
  I  I27  1  0.55863740  -0.32191865  -0.19743037  1.0
  I  I28  1  0.69227744  -0.84291290  -0.38896291  1.0
  I  I29  1  0.30772256  -0.15708710  0.38896291  1.0
