# generated using pymatgen
data_Mg2BN2Cl
_symmetry_space_group_name_H-M   'P 1'
_cell_length_a   6.68052625
_cell_length_b   9.82771112
_cell_length_c   10.64338932
_cell_angle_alpha   90.00000000
_cell_angle_beta   90.00000000
_cell_angle_gamma   90.00000000
_symmetry_Int_Tables_number   1
_chemical_formula_structural   Mg2BN2Cl
_chemical_formula_sum   'Mg16 B8 N16 Cl8'
_cell_volume   698.78408461
_cell_formula_units_Z   8
loop_
 _symmetry_equiv_pos_site_id
 _symmetry_equiv_pos_as_xyz
  1  'x, y, z'
loop_
 _atom_site_type_symbol
 _atom_site_label
 _atom_site_symmetry_multiplicity
 _atom_site_fract_x
 _atom_site_fract_y
 _atom_site_fract_z
 _atom_site_occupancy
  Mg  Mg0  1  0.44105632  0.75267381  0.80879839  1.0
  Mg  Mg1  1  0.44105632  0.74732619  0.30879839  1.0
  Mg  Mg2  1  0.94105632  0.75267381  0.69120161  1.0
  Mg  Mg3  1  0.94105632  0.74732619  0.19120161  1.0
  Mg  Mg4  1  0.55894368  0.25267381  0.69120161  1.0
  Mg  Mg5  1  0.55894368  0.24732619  0.19120161  1.0
  Mg  Mg6  1  0.05894368  0.25267381  0.80879839  1.0
  Mg  Mg7  1  0.05894368  0.24732619  0.30879839  1.0
  Mg  Mg8  1  0.30392302  0.95307078  0.55843772  1.0
  Mg  Mg9  1  0.30392302  0.54692922  0.05843772  1.0
  Mg  Mg10  1  0.80392302  0.95307078  0.94156228  1.0
  Mg  Mg11  1  0.80392302  0.54692922  0.44156228  1.0
  Mg  Mg12  1  0.69607698  0.45307078  0.94156228  1.0
  Mg  Mg13  1  0.69607698  0.04692922  0.44156228  1.0
  Mg  Mg14  1  0.19607698  0.45307078  0.55843772  1.0
  Mg  Mg15  1  0.19607698  0.04692922  0.05843772  1.0
  B  B16  1  0.14347888  0.96196893  0.80138676  1.0
  B  B17  1  0.14347888  0.53803107  0.30138676  1.0
  B  B18  1  0.64347888  0.96196893  0.69861324  1.0
  B  B19  1  0.64347888  0.53803107  0.19861324  1.0
  B  B20  1  0.85652112  0.46196893  0.69861324  1.0
  B  B21  1  0.85652112  0.03803107  0.19861324  1.0
  B  B22  1  0.35652112  0.46196893  0.80138676  1.0
  B  B23  1  0.35652112  0.03803107  0.30138676  1.0
  N  N24  1  0.42824905  0.55798097  0.87799218  1.0
  N  N25  1  0.42824905  0.94201903  0.37799218  1.0
  N  N26  1  0.92824905  0.55798097  0.62200782  1.0
  N  N27  1  0.92824905  0.94201903  0.12200782  1.0
  N  N28  1  0.57175095  0.05798097  0.62200782  1.0
  N  N29  1  0.57175095  0.44201903  0.12200782  1.0
  N  N30  1  0.07175095  0.05798097  0.87799218  1.0
  N  N31  1  0.07175095  0.44201903  0.37799218  1.0
  N  N32  1  0.20498589  0.86037836  0.72623351  1.0
  N  N33  1  0.20498589  0.63962164  0.22623351  1.0
  N  N34  1  0.70498589  0.86037836  0.77376649  1.0
  N  N35  1  0.70498589  0.63962164  0.27376649  1.0
  N  N36  1  0.79501411  0.36037836  0.77376649  1.0
  N  N37  1  0.79501411  0.13962164  0.27376649  1.0
  N  N38  1  0.29501411  0.36037836  0.72623351  1.0
  N  N39  1  0.29501411  0.13962164  0.22623351  1.0
  Cl  Cl40  1  0.43388412  0.65754869  0.54100007  1.0
  Cl  Cl41  1  0.43388412  0.84245131  0.04100007  1.0
  Cl  Cl42  1  0.93388412  0.65754869  0.95899993  1.0
  Cl  Cl43  1  0.93388412  0.84245131  0.45899993  1.0
  Cl  Cl44  1  0.56611588  0.15754869  0.95899993  1.0
  Cl  Cl45  1  0.56611588  0.34245131  0.45899993  1.0
  Cl  Cl46  1  0.06611588  0.15754869  0.54100007  1.0
  Cl  Cl47  1  0.06611588  0.34245131  0.04100007  1.0
