# generated using pymatgen
data_Cs4Mg3H10
_symmetry_space_group_name_H-M   'P 1'
_cell_length_a   8.03521813
_cell_length_b   8.03521813
_cell_length_c   13.81016039
_cell_angle_alpha   90.00000000
_cell_angle_beta   90.00000000
_cell_angle_gamma   134.04548433
_symmetry_Int_Tables_number   1
_chemical_formula_structural   Cs4Mg3H10
_chemical_formula_sum   'Cs8 Mg6 H20'
_cell_volume   640.90690935
_cell_formula_units_Z   2
loop_
 _symmetry_equiv_pos_site_id
 _symmetry_equiv_pos_as_xyz
  1  'x, y, z'
loop_
 _atom_site_type_symbol
 _atom_site_label
 _atom_site_symmetry_multiplicity
 _atom_site_fract_x
 _atom_site_fract_y
 _atom_site_fract_z
 _atom_site_occupancy
  Cs  Cs0  1  0.25343484  0.74656516  0.60650994  1.0
  Cs  Cs1  1  -0.24656516  0.24656516  0.89349006  1.0
  Cs  Cs2  1  -0.25343484  0.25343484  0.39349006  1.0
  Cs  Cs3  1  0.24656516  0.75343484  0.10650994  1.0
  Cs  Cs4  1  0.45531562  0.54468438  0.86090230  1.0
  Cs  Cs5  1  -0.04468438  0.04468438  0.63909770  1.0
  Cs  Cs6  1  -0.45531562  0.45531562  0.13909770  1.0
  Cs  Cs7  1  0.04468438  0.95531562  0.36090230  1.0
  Mg  Mg8  1  0.11710205  0.88289795  0.84444649  1.0
  Mg  Mg9  1  -0.38289795  0.38289795  0.65555351  1.0
  Mg  Mg10  1  -0.11710205  0.11710205  0.15555351  1.0
  Mg  Mg11  1  0.38289795  0.61710205  0.34444649  1.0
  Mg  Mg12  1  0.00000000  0.00000000  0.00000000  1.0
  Mg  Mg13  1  0.50000000  0.50000000  0.50000000  1.0
  H  H14  1  -0.11154105  0.69916875  0.96048564  1.0
  H  H15  1  0.38845895  1.19916875  0.53951436  1.0
  H  H16  1  0.69916875  0.88845895  0.03951436  1.0
  H  H17  1  0.19916875  0.38845895  0.46048564  1.0
  H  H18  1  0.30083125  1.11154105  0.96048564  1.0
  H  H19  1  -0.19916875  0.61154105  0.53951436  1.0
  H  H20  1  0.11154105  0.30083125  0.03951436  1.0
  H  H21  1  0.61154105  0.80083125  0.46048564  1.0
  H  H22  1  0.24501274  0.75498726  0.85322297  1.0
  H  H23  1  -0.25498726  0.25498726  0.64677703  1.0
  H  H24  1  -0.24501274  0.24501274  0.14677703  1.0
  H  H25  1  0.25498726  0.74501274  0.35322297  1.0
  H  H26  1  0.47659618  0.52340382  0.64203021  1.0
  H  H27  1  -0.02340382  0.02340382  0.85796979  1.0
  H  H28  1  -0.47659618  0.47659618  0.35796979  1.0
  H  H29  1  0.02340382  0.97659618  0.14203021  1.0
  H  H30  1  -0.14182323  0.64182323  0.75000000  1.0
  H  H31  1  0.35817677  1.14182323  0.75000000  1.0
  H  H32  1  0.64182323  0.85817677  0.25000000  1.0
  H  H33  1  0.14182323  0.35817677  0.25000000  1.0
