# generated using pymatgen
data_La2Cd17
_symmetry_space_group_name_H-M   'P 1'
_cell_length_a   10.17082018
_cell_length_b   10.17082018
_cell_length_c   10.00180344
_cell_angle_alpha   90.00000000
_cell_angle_beta   90.00000000
_cell_angle_gamma   120.00000000
_symmetry_Int_Tables_number   1
_chemical_formula_structural   La2Cd17
_chemical_formula_sum   'La4 Cd34'
_cell_volume   896.02659214
_cell_formula_units_Z   2
loop_
 _symmetry_equiv_pos_site_id
 _symmetry_equiv_pos_as_xyz
  1  'x, y, z'
loop_
 _atom_site_type_symbol
 _atom_site_label
 _atom_site_symmetry_multiplicity
 _atom_site_fract_x
 _atom_site_fract_y
 _atom_site_fract_z
 _atom_site_occupancy
  La  La0  1  0.33333333  0.66666667  0.25000000  1.0
  La  La1  1  0.66666667  0.33333333  0.75000000  1.0
  La  La2  1  0.00000000  0.00000000  0.25000000  1.0
  La  La3  1  0.00000000  0.00000000  0.75000000  1.0
  Cd  Cd4  1  0.16027286  0.83972714  0.47158024  1.0
  Cd  Cd5  1  0.16027286  0.83972714  0.02841976  1.0
  Cd  Cd6  1  0.16027286  0.32054571  0.47158024  1.0
  Cd  Cd7  1  0.16027286  0.32054571  0.02841976  1.0
  Cd  Cd8  1  0.83972714  0.16027286  -0.02841976  1.0
  Cd  Cd9  1  0.83972714  0.16027286  0.52841976  1.0
  Cd  Cd10  1  0.83972714  0.67945429  -0.02841976  1.0
  Cd  Cd11  1  0.83972714  0.67945429  0.52841976  1.0
  Cd  Cd12  1  0.67945429  0.83972714  0.47158024  1.0
  Cd  Cd13  1  0.67945429  0.83972714  0.02841976  1.0
  Cd  Cd14  1  0.32054571  0.16027286  -0.02841976  1.0
  Cd  Cd15  1  0.32054571  0.16027286  0.52841976  1.0
  Cd  Cd16  1  0.36566609  0.03822582  0.25000000  1.0
  Cd  Cd17  1  0.36566609  0.32744027  0.25000000  1.0
  Cd  Cd18  1  0.03822582  0.36566609  0.75000000  1.0
  Cd  Cd19  1  0.03822582  0.67255973  0.75000000  1.0
  Cd  Cd20  1  0.67255973  0.03822582  0.25000000  1.0
  Cd  Cd21  1  0.67255973  0.63433391  0.25000000  1.0
  Cd  Cd22  1  0.96177418  0.63433391  0.25000000  1.0
  Cd  Cd23  1  0.96177418  0.32744027  0.25000000  1.0
  Cd  Cd24  1  0.63433391  0.67255973  0.75000000  1.0
  Cd  Cd25  1  0.63433391  0.96177418  0.75000000  1.0
  Cd  Cd26  1  0.32744027  0.36566609  0.75000000  1.0
  Cd  Cd27  1  0.32744027  0.96177418  0.75000000  1.0
  Cd  Cd28  1  0.50000000  0.50000000  0.50000000  1.0
  Cd  Cd29  1  0.50000000  0.50000000  0.00000000  1.0
  Cd  Cd30  1  0.50000000  0.00000000  0.50000000  1.0
  Cd  Cd31  1  0.50000000  0.00000000  0.00000000  1.0
  Cd  Cd32  1  0.00000000  0.50000000  0.50000000  1.0
  Cd  Cd33  1  0.00000000  0.50000000  0.00000000  1.0
  Cd  Cd34  1  0.33333333  0.66666667  0.90160096  1.0
  Cd  Cd35  1  0.33333333  0.66666667  0.59839904  1.0
  Cd  Cd36  1  0.66666667  0.33333333  0.40160096  1.0
  Cd  Cd37  1  0.66666667  0.33333333  0.09839904  1.0
