# generated using pymatgen
data_MgSiO3
_symmetry_space_group_name_H-M   'P 1'
_cell_length_a   9.46418736
_cell_length_b   8.93999136
_cell_length_c   5.23509472
_cell_angle_alpha   90.00000000
_cell_angle_beta   102.93710198
_cell_angle_gamma   90.00000000
_symmetry_Int_Tables_number   1
_chemical_formula_structural   MgSiO3
_chemical_formula_sum   'Mg8 Si8 O24'
_cell_volume   431.69666987
_cell_formula_units_Z   8
loop_
 _symmetry_equiv_pos_site_id
 _symmetry_equiv_pos_as_xyz
  1  'x, y, z'
loop_
 _atom_site_type_symbol
 _atom_site_label
 _atom_site_symmetry_multiplicity
 _atom_site_fract_x
 _atom_site_fract_y
 _atom_site_fract_z
 _atom_site_occupancy
  Mg  Mg0  1  0.75444442  0.01087802  0.03854817  1.0
  Mg  Mg1  1  0.75444442  0.48912198  0.53854817  1.0
  Mg  Mg2  1  0.24555558  0.51087802  0.46145183  1.0
  Mg  Mg3  1  0.24555558  0.98912198  0.96145183  1.0
  Mg  Mg4  1  0.24899511  0.15209438  0.46806331  1.0
  Mg  Mg5  1  0.24899511  0.34790562  0.96806331  1.0
  Mg  Mg6  1  0.75100489  0.65209438  0.03193669  1.0
  Mg  Mg7  1  0.75100489  0.84790562  0.53193669  1.0
  Si  Si8  1  0.94781479  0.33716922  0.18008880  1.0
  Si  Si9  1  0.94781479  0.16283078  0.68008880  1.0
  Si  Si10  1  0.05218521  0.83716922  0.31991120  1.0
  Si  Si11  1  0.05218521  0.66283078  0.81991120  1.0
  Si  Si12  1  0.54365426  0.15962778  0.24741517  1.0
  Si  Si13  1  0.54365426  0.34037222  0.74741517  1.0
  Si  Si14  1  0.45634574  0.65962778  0.25258483  1.0
  Si  Si15  1  0.45634574  0.84037222  0.75258483  1.0
  O  O16  1  0.89629246  0.19538448  0.35383304  1.0
  O  O17  1  0.89629246  0.30461552  0.85383304  1.0
  O  O18  1  0.10370754  0.69538448  0.14616696  1.0
  O  O19  1  0.10370754  0.80461552  0.64616696  1.0
  O  O20  1  0.87456285  0.84026225  0.24870927  1.0
  O  O21  1  0.87456285  0.65973775  0.74870927  1.0
  O  O22  1  0.12543715  0.34026225  0.25129073  1.0
  O  O23  1  0.12543715  0.15973775  0.75129073  1.0
  O  O24  1  0.86512918  0.48233399  0.25456536  1.0
  O  O25  1  0.86512918  0.01766601  0.75456536  1.0
  O  O26  1  0.13487082  0.98233399  0.24543464  1.0
  O  O27  1  0.13487082  0.51766601  0.74543464  1.0
  O  O28  1  0.62405585  1.00078635  0.30013467  1.0
  O  O29  1  0.62405585  0.49921365  0.80013467  1.0
  O  O30  1  0.37594415  0.50078635  0.19986533  1.0
  O  O31  1  0.37594415  -0.00078635  0.69986533  1.0
  O  O32  1  0.60602146  0.28142391  0.48805758  1.0
  O  O33  1  0.60602146  0.21857609  0.98805758  1.0
  O  O34  1  0.39397854  0.78142391  0.01194242  1.0
  O  O35  1  0.39397854  0.71857609  0.51194242  1.0
  O  O36  1  0.36680582  0.16078650  0.18274380  1.0
  O  O37  1  0.36680582  0.33921350  0.68274380  1.0
  O  O38  1  0.63319418  0.66078650  0.31725620  1.0
  O  O39  1  0.63319418  0.83921350  0.81725620  1.0
