# generated using pymatgen
data_Sc3(SiNi)4
_symmetry_space_group_name_H-M   'P 1'
_cell_length_a   7.36971420
_cell_length_b   7.36971420
_cell_length_c   7.36971420
_cell_angle_alpha   149.71854232
_cell_angle_beta   127.81472601
_cell_angle_gamma   61.53193234
_symmetry_Int_Tables_number   1
_chemical_formula_structural   Sc3(SiNi)4
_chemical_formula_sum   'Sc3 Si4 Ni4'
_cell_volume   158.04289603
_cell_formula_units_Z   1
loop_
 _symmetry_equiv_pos_site_id
 _symmetry_equiv_pos_as_xyz
  1  'x, y, z'
loop_
 _atom_site_type_symbol
 _atom_site_label
 _atom_site_symmetry_multiplicity
 _atom_site_fract_x
 _atom_site_fract_y
 _atom_site_fract_z
 _atom_site_occupancy
  Sc  Sc0  1  0.62553047  0.12553047  0.50000000  1.0
  Sc  Sc1  1  0.37446953  0.87446953  0.50000000  1.0
  Sc  Sc2  1  0.00000000  0.00000000  0.00000000  1.0
  Si  Si3  1  0.78010131  0.78010131  1.00000000  1.0
  Si  Si4  1  0.21989869  0.21989869  0.00000000  1.0
  Si  Si5  1  0.31034791  0.50000000  0.81034791  1.0
  Si  Si6  1  0.68965209  0.50000000  1.18965209  1.0
  Ni  Ni7  1  0.37319758  0.67662175  0.69657582  1.0
  Ni  Ni8  1  1.01995407  0.32337825  0.69657582  1.0
  Ni  Ni9  1  0.98004593  0.67662175  1.30342418  1.0
  Ni  Ni10  1  0.62680242  0.32337825  0.30342418  1.0
