# generated using pymatgen
data_NiS2
_symmetry_space_group_name_H-M   'P 1'
_cell_length_a   4.60087538
_cell_length_b   5.56794749
_cell_length_c   3.55355315
_cell_angle_alpha   90.00000000
_cell_angle_beta   90.00000000
_cell_angle_gamma   90.00000000
_symmetry_Int_Tables_number   1
_chemical_formula_structural   NiS2
_chemical_formula_sum   'Ni2 S4'
_cell_volume   91.03290800
_cell_formula_units_Z   2
loop_
 _symmetry_equiv_pos_site_id
 _symmetry_equiv_pos_as_xyz
  1  'x, y, z'
loop_
 _atom_site_type_symbol
 _atom_site_label
 _atom_site_symmetry_multiplicity
 _atom_site_fract_x
 _atom_site_fract_y
 _atom_site_fract_z
 _atom_site_occupancy
  Ni  Ni0  1  0.50000000  0.50000000  0.50000000  1.0
  Ni  Ni1  1  0.00000000  0.00000000  0.00000000  1.0
  S  S2  1  0.68419853  0.11164536  0.50000000  1.0
  S  S3  1  0.31580147  0.88835464  0.50000000  1.0
  S  S4  1  0.18419853  0.38835464  -0.00000000  1.0
  S  S5  1  0.81580147  0.61164536  -0.00000000  1.0
