# generated using pymatgen
data_NaSO4
_symmetry_space_group_name_H-M   'P 1'
_cell_length_a   7.23502818
_cell_length_b   7.13808990
_cell_length_c   7.13991258
_cell_angle_alpha   83.19376921
_cell_angle_beta   77.55597600
_cell_angle_gamma   96.72603187
_symmetry_Int_Tables_number   1
_chemical_formula_structural   NaSO4
_chemical_formula_sum   'Na4 S4 O16'
_cell_volume   353.64445414
_cell_formula_units_Z   4
loop_
 _symmetry_equiv_pos_site_id
 _symmetry_equiv_pos_as_xyz
  1  'x, y, z'
loop_
 _atom_site_type_symbol
 _atom_site_label
 _atom_site_symmetry_multiplicity
 _atom_site_fract_x
 _atom_site_fract_y
 _atom_site_fract_z
 _atom_site_occupancy
  O  O0  1  -0.86551416  -0.97000746  -0.35966628  1.0
  O  O1  1  -0.13448584  -0.02999254  -0.64033372  1.0
  O  O2  1  -0.62648611  -0.70341686  -0.36252640  1.0
  O  O3  1  -0.37351389  -0.29658314  -0.63747360  1.0
  O  O4  1  -0.76082534  -0.92153667  -0.06042846  1.0
  O  O5  1  -0.23917466  -0.07846333  -0.93957154  1.0
  O  O6  1  -0.67232342  -0.62904522  -0.74601003  1.0
  O  O7  1  -0.32767658  -0.37095478  -0.25398997  1.0
  O  O8  1  -0.78152508  -0.33162002  -0.65625105  1.0
  O  O9  1  -0.21847492  -0.66837998  -0.34374895  1.0
  O  O10  1  -0.73852860  -0.39775120  -0.98815582  1.0
  O  O11  1  -0.26147140  -0.60224880  -0.01184418  1.0
  O  O12  1  -1.00104185  -0.57652326  -0.73825471  1.0
  O  O13  1  0.00104185  -0.42347674  -0.26174529  1.0
  O  O14  1  -0.45023177  -0.97037738  -0.68140895  1.0
  O  O15  1  -0.54976823  -0.02962262  -0.31859105  1.0
  S  S16  1  -0.70444156  -0.90464417  -0.27377029  1.0
  S  S17  1  -0.29555844  -0.09535583  -0.72622971  1.0
  S  S18  1  -0.79861068  -0.48359071  -0.78012584  1.0
  S  S19  1  -0.20138932  -0.51640929  -0.21987416  1.0
  Na  Na20  1  -0.78878148  -0.98167542  -0.72123958  1.0
  Na  Na21  1  -0.21121852  -0.01832458  -0.27876042  1.0
  Na  Na22  1  -0.34662770  -0.62666977  -0.66192476  1.0
  Na  Na23  1  -0.65337230  -0.37333022  -0.33807524  1.0
