# generated using pymatgen
data_CaB2H3
_symmetry_space_group_name_H-M   'P 1'
_cell_length_a   16.66667927
_cell_length_b   3.42718460
_cell_length_c   3.53963974
_cell_angle_alpha   90.00000000
_cell_angle_beta   90.00000000
_cell_angle_gamma   90.00000000
_symmetry_Int_Tables_number   1
_chemical_formula_structural   CaB2H3
_chemical_formula_sum   'Ca4 B8 H12'
_cell_volume   202.18346640
_cell_formula_units_Z   4
loop_
 _symmetry_equiv_pos_site_id
 _symmetry_equiv_pos_as_xyz
  1  'x, y, z'
loop_
 _atom_site_type_symbol
 _atom_site_label
 _atom_site_symmetry_multiplicity
 _atom_site_fract_x
 _atom_site_fract_y
 _atom_site_fract_z
 _atom_site_occupancy
  Ca  Ca0  1  0.11426497  0.75000000  0.99968986  1.0
  Ca  Ca1  1  0.61426497  0.75000000  0.50031014  1.0
  Ca  Ca2  1  0.88573503  0.25000000  0.00031014  1.0
  Ca  Ca3  1  0.38573503  0.25000000  0.49968986  1.0
  B  B4  1  0.97783586  0.75000000  0.44872643  1.0
  B  B5  1  0.47783586  0.75000000  0.05127357  1.0
  B  B6  1  0.02216414  0.25000000  0.55127357  1.0
  B  B7  1  0.52216414  0.25000000  0.94872643  1.0
  B  B8  1  0.75046477  0.75000000  1.02653326  1.0
  B  B9  1  0.25046477  0.75000000  0.47346674  1.0
  B  B10  1  0.24953523  0.25000000  -0.02653326  1.0
  B  B11  1  0.74953523  0.25000000  0.52653326  1.0
  H  H12  1  0.90550651  0.75000000  0.54453477  1.0
  H  H13  1  0.40550651  0.75000000  0.95546523  1.0
  H  H14  1  0.09449349  0.25000000  0.45546523  1.0
  H  H15  1  0.59449349  0.25000000  0.04453477  1.0
  H  H16  1  0.97019991  0.75000000  0.10318658  1.0
  H  H17  1  0.47019991  0.75000000  0.39681342  1.0
  H  H18  1  0.02980009  0.25000000  0.89681342  1.0
  H  H19  1  0.52980009  0.25000000  0.60318658  1.0
  H  H20  1  0.32245210  0.75000000  0.43993574  1.0
  H  H21  1  0.82245210  0.75000000  0.06006426  1.0
  H  H22  1  0.67754790  0.25000000  0.56006426  1.0
  H  H23  1  0.17754790  0.25000000  0.93993574  1.0
