# generated using pymatgen
data_O2
_symmetry_space_group_name_H-M   'P 1'
_cell_length_a   4.73159893
_cell_length_b   4.73352867
_cell_length_c   2.41114061
_cell_angle_alpha   75.19751915
_cell_angle_beta   75.28620600
_cell_angle_gamma   29.51627485
_symmetry_Int_Tables_number   1
_chemical_formula_structural   O2
_chemical_formula_sum   O2
_cell_volume   25.66568616
_cell_formula_units_Z   1
loop_
 _symmetry_equiv_pos_site_id
 _symmetry_equiv_pos_as_xyz
  1  'x, y, z'
loop_
 _atom_site_type_symbol
 _atom_site_label
 _atom_site_symmetry_multiplicity
 _atom_site_fract_x
 _atom_site_fract_y
 _atom_site_fract_z
 _atom_site_occupancy
  O  O0  1  -0.06895568  0.93104432  0.06895568  1.0
  O  O1  1  0.06895568  0.06895568  -0.06895568  1.0
