# generated using pymatgen
data_La(MgAg2)2
_symmetry_space_group_name_H-M   'P 1'
_cell_length_a   5.85222444
_cell_length_b   5.85222444
_cell_length_c   5.85222444
_cell_angle_alpha   103.64172675
_cell_angle_beta   103.64172675
_cell_angle_gamma   121.89067798
_symmetry_Int_Tables_number   1
_chemical_formula_structural   La(MgAg2)2
_chemical_formula_sum   'La1 Mg2 Ag4'
_cell_volume   148.76111958
_cell_formula_units_Z   1
loop_
 _symmetry_equiv_pos_site_id
 _symmetry_equiv_pos_as_xyz
  1  'x, y, z'
loop_
 _atom_site_type_symbol
 _atom_site_label
 _atom_site_symmetry_multiplicity
 _atom_site_fract_x
 _atom_site_fract_y
 _atom_site_fract_z
 _atom_site_occupancy
  La  La0  1  0.00000000  0.00000000  0.00000000  1.0
  Mg  Mg1  1  0.25000000  0.75000000  0.50000000  1.0
  Mg  Mg2  1  0.75000000  1.25000000  0.50000000  1.0
  Ag  Ag3  1  0.69434980  0.69434980  0.38869961  1.0
  Ag  Ag4  1  1.30565020  0.69434980  1.00000000  1.0
  Ag  Ag5  1  0.69434980  0.30565020  1.00000000  1.0
  Ag  Ag6  1  0.30565020  0.30565020  0.61130039  1.0
