# generated using pymatgen
data_S8O
_symmetry_space_group_name_H-M   'P 1'
_cell_length_a   14.33924975
_cell_length_b   8.95935288
_cell_length_c   8.82980456
_cell_angle_alpha   90.00000000
_cell_angle_beta   90.00000000
_cell_angle_gamma   90.00000000
_symmetry_Int_Tables_number   1
_chemical_formula_structural   S8O
_chemical_formula_sum   'S32 O4'
_cell_volume   1134.36851105
_cell_formula_units_Z   4
loop_
 _symmetry_equiv_pos_site_id
 _symmetry_equiv_pos_as_xyz
  1  'x, y, z'
loop_
 _atom_site_type_symbol
 _atom_site_label
 _atom_site_symmetry_multiplicity
 _atom_site_fract_x
 _atom_site_fract_y
 _atom_site_fract_z
 _atom_site_occupancy
  S  S0  1  0.38047583  0.51434030  0.70645503  1.0
  S  S1  1  0.88047583  0.48565970  0.70645503  1.0
  S  S2  1  0.61952417  0.48565970  0.20645503  1.0
  S  S3  1  0.11952417  0.51434030  0.20645503  1.0
  S  S4  1  0.35751134  0.03959277  0.51217639  1.0
  S  S5  1  0.85751134  0.96040723  0.51217639  1.0
  S  S6  1  0.64248866  0.96040723  0.01217639  1.0
  S  S7  1  0.14248866  0.03959277  0.01217639  1.0
  S  S8  1  0.29938141  0.42491199  0.54427720  1.0
  S  S9  1  0.79938141  0.57508801  0.54427720  1.0
  S  S10  1  0.70061859  0.57508801  0.04427720  1.0
  S  S11  1  0.20061859  0.42491199  0.04427720  1.0
  S  S12  1  0.26287302  0.19813060  0.63773426  1.0
  S  S13  1  0.76287302  0.80186940  0.63773426  1.0
  S  S14  1  0.73712698  0.80186940  0.13773426  1.0
  S  S15  1  0.23712698  0.19813060  0.13773426  1.0
  S  S16  1  0.07793285  0.68755383  0.75317138  1.0
  S  S17  1  0.57793285  0.31244617  0.75317138  1.0
  S  S18  1  0.92206715  0.31244617  0.25317138  1.0
  S  S19  1  0.42206715  0.68755383  0.25317138  1.0
  S  S20  1  0.02104035  0.50609643  0.64388700  1.0
  S  S21  1  0.52104035  0.49390357  0.64388700  1.0
  S  S22  1  0.97895965  0.49390357  0.14388700  1.0
  S  S23  1  0.47895965  0.50609643  0.14388700  1.0
  S  S24  1  0.96018664  0.00236699  0.66112030  1.0
  S  S25  1  0.46018664  0.99763301  0.66112030  1.0
  S  S26  1  0.03981336  0.99763301  0.16112030  1.0
  S  S27  1  0.53981336  0.00236699  0.16112030  1.0
  S  S28  1  0.92364114  0.13084420  0.10977375  1.0
  S  S29  1  0.42364114  0.86915580  0.10977375  1.0
  S  S30  1  0.07635886  0.86915580  0.60977375  1.0
  S  S31  1  0.57635886  0.13084420  0.60977375  1.0
  O  O32  1  0.29645987  0.19794798  0.79740469  1.0
  O  O33  1  0.79645987  0.80205202  0.79740469  1.0
  O  O34  1  0.70354013  0.80205202  0.29740469  1.0
  O  O35  1  0.20354013  0.19794798  0.29740469  1.0
