# generated using pymatgen
data_Lu2Cr2C3
_symmetry_space_group_name_H-M   'P 1'
_cell_length_a   5.48118641
_cell_length_b   5.48118641
_cell_length_c   5.44331915
_cell_angle_alpha   74.16565689
_cell_angle_beta   105.83434311
_cell_angle_gamma   145.25947180
_symmetry_Int_Tables_number   1
_chemical_formula_structural   Lu2Cr2C3
_chemical_formula_sum   'Lu2 Cr2 C3'
_cell_volume   89.30290816
_cell_formula_units_Z   1
loop_
 _symmetry_equiv_pos_site_id
 _symmetry_equiv_pos_as_xyz
  1  'x, y, z'
loop_
 _atom_site_type_symbol
 _atom_site_label
 _atom_site_symmetry_multiplicity
 _atom_site_fract_x
 _atom_site_fract_y
 _atom_site_fract_z
 _atom_site_occupancy
  Lu  Lu0  1  1.39055306  -0.39055306  0.68218487  1.0
  Lu  Lu1  1  0.60944694  -0.60944694  0.31781513  1.0
  Cr  Cr2  1  1.15420321  -0.15420321  0.88427623  1.0
  Cr  Cr3  1  0.84579679  -0.84579679  0.11572377  1.0
  C  C4  1  0.72173911  -0.72173911  0.76308670  1.0
  C  C5  1  1.27826089  -0.27826089  0.23691330  1.0
  C  C6  1  0.00000000  0.00000000  0.00000000  1.0
