# generated using pymatgen
data_H3CO2F
_symmetry_space_group_name_H-M   'P 1'
_cell_length_a   6.71997233
_cell_length_b   6.09355800
_cell_length_c   7.32539978
_cell_angle_alpha   90.00000000
_cell_angle_beta   90.00000000
_cell_angle_gamma   90.00000000
_symmetry_Int_Tables_number   1
_chemical_formula_structural   H3CO2F
_chemical_formula_sum   'H12 C4 O8 F4'
_cell_volume   299.96443424
_cell_formula_units_Z   4
loop_
 _symmetry_equiv_pos_site_id
 _symmetry_equiv_pos_as_xyz
  1  'x, y, z'
loop_
 _atom_site_type_symbol
 _atom_site_label
 _atom_site_symmetry_multiplicity
 _atom_site_fract_x
 _atom_site_fract_y
 _atom_site_fract_z
 _atom_site_occupancy
  H  H0  1  0.40176734  0.25000000  0.85568366  1.0
  H  H1  1  0.90176734  0.25000000  0.64431634  1.0
  H  H2  1  0.59823266  0.75000000  0.14431634  1.0
  H  H3  1  0.09823266  0.75000000  0.35568366  1.0
  H  H4  1  0.11188158  0.25000000  0.32269357  1.0
  H  H5  1  0.61188158  0.25000000  0.17730643  1.0
  H  H6  1  0.88811842  0.75000000  0.67730643  1.0
  H  H7  1  0.38811842  0.75000000  0.82269357  1.0
  H  H8  1  0.41021968  0.25000000  0.55078130  1.0
  H  H9  1  0.91021968  0.25000000  0.94921870  1.0
  H  H10  1  0.58978032  0.75000000  0.44921870  1.0
  H  H11  1  0.08978032  0.75000000  0.05078130  1.0
  C  C12  1  0.26574954  0.25000000  0.62166637  1.0
  C  C13  1  0.76574954  0.25000000  0.87833363  1.0
  C  C14  1  0.73425046  0.75000000  0.37833363  1.0
  C  C15  1  0.23425046  0.75000000  0.12166637  1.0
  O  O16  1  0.10633014  0.25000000  0.53415808  1.0
  O  O17  1  0.60633014  0.25000000  0.96584192  1.0
  O  O18  1  0.89366986  0.75000000  0.46584192  1.0
  O  O19  1  0.39366986  0.75000000  0.03415808  1.0
  O  O20  1  0.26260691  0.25000000  0.79887675  1.0
  O  O21  1  0.76260691  0.25000000  0.70112325  1.0
  O  O22  1  0.73739309  0.75000000  0.20112325  1.0
  O  O23  1  0.23739309  0.75000000  0.29887675  1.0
  F  F24  1  0.11415880  0.25000000  0.18856123  1.0
  F  F25  1  0.61415880  0.25000000  0.31143877  1.0
  F  F26  1  0.88584120  0.75000000  0.81143877  1.0
  F  F27  1  0.38584120  0.75000000  0.68856123  1.0
