# generated using pymatgen
data_Lu2Mo2C3
_symmetry_space_group_name_H-M   'P 1'
_cell_length_a   5.86265209
_cell_length_b   5.86265209
_cell_length_c   5.59315210
_cell_angle_alpha   71.60838194
_cell_angle_beta   108.39161806
_cell_angle_gamma   146.98020948
_symmetry_Int_Tables_number   1
_chemical_formula_structural   Lu2Mo2C3
_chemical_formula_sum   'Lu2 Mo2 C3'
_cell_volume   98.92266710
_cell_formula_units_Z   1
loop_
 _symmetry_equiv_pos_site_id
 _symmetry_equiv_pos_as_xyz
  1  'x, y, z'
loop_
 _atom_site_type_symbol
 _atom_site_label
 _atom_site_symmetry_multiplicity
 _atom_site_fract_x
 _atom_site_fract_y
 _atom_site_fract_z
 _atom_site_occupancy
  Lu  Lu0  1  0.61594279  -0.61594279  0.81877953  1.0
  Lu  Lu1  1  1.38405721  -0.38405721  0.18122047  1.0
  Mo  Mo2  1  0.85243014  -0.85243014  0.63391346  1.0
  Mo  Mo3  1  1.14756986  -0.14756986  0.36608654  1.0
  C  C4  1  -0.00000000  0.00000000  0.50000000  1.0
  C  C5  1  1.26864606  -0.26864606  0.74638541  1.0
  C  C6  1  0.73135394  -0.73135394  0.25361459  1.0
