# generated using pymatgen
data_Sr4Ti3O10
_symmetry_space_group_name_H-M   'P 1'
_cell_length_a   14.43149684
_cell_length_b   14.43149684
_cell_length_c   14.43149684
_cell_angle_alpha   164.32889778
_cell_angle_beta   164.32889778
_cell_angle_gamma   22.23248542
_symmetry_Int_Tables_number   1
_chemical_formula_structural   Sr4Ti3O10
_chemical_formula_sum   'Sr4 Ti3 O10'
_cell_volume   219.25687477
_cell_formula_units_Z   1
loop_
 _symmetry_equiv_pos_site_id
 _symmetry_equiv_pos_as_xyz
  1  'x, y, z'
loop_
 _atom_site_type_symbol
 _atom_site_label
 _atom_site_symmetry_multiplicity
 _atom_site_fract_x
 _atom_site_fract_y
 _atom_site_fract_z
 _atom_site_occupancy
  Sr  Sr0  1  0.56846699  0.56846699  1.00000000  1.0
  Sr  Sr1  1  0.43153301  0.43153301  0.00000000  1.0
  Sr  Sr2  1  0.70235485  0.70235485  1.00000000  1.0
  Sr  Sr3  1  0.29764515  0.29764515  0.00000000  1.0
  Ti  Ti4  1  0.85963791  0.85963791  1.00000000  1.0
  Ti  Ti5  1  0.14036209  0.14036209  0.00000000  1.0
  Ti  Ti6  1  0.00000000  0.00000000  0.00000000  1.0
  O  O7  1  0.36087452  0.86087452  0.50000000  1.0
  O  O8  1  0.63912548  0.13912548  0.50000000  1.0
  O  O9  1  0.86087452  0.36087452  0.50000000  1.0
  O  O10  1  0.13912548  0.63912548  0.50000000  1.0
  O  O11  1  0.50000000  0.00000000  0.50000000  1.0
  O  O12  1  0.00000000  0.50000000  0.50000000  1.0
  O  O13  1  0.79054347  0.79054347  1.00000000  1.0
  O  O14  1  0.20945653  0.20945653  0.00000000  1.0
  O  O15  1  0.93050584  0.93050584  1.00000000  1.0
  O  O16  1  0.06949416  0.06949416  0.00000000  1.0
