# generated using pymatgen
data_LiMg10AlH24
_symmetry_space_group_name_H-M   'P 1'
_cell_length_a   4.47459449
_cell_length_b   8.97500441
_cell_length_c   8.95502126
_cell_angle_alpha   90.00000000
_cell_angle_beta   90.37816268
_cell_angle_gamma   90.00000000
_symmetry_Int_Tables_number   1
_chemical_formula_structural   LiMg10AlH24
_chemical_formula_sum   'Li1 Mg10 Al1 H24'
_cell_volume   359.62139098
_cell_formula_units_Z   1
loop_
 _symmetry_equiv_pos_site_id
 _symmetry_equiv_pos_as_xyz
  1  'x, y, z'
loop_
 _atom_site_type_symbol
 _atom_site_label
 _atom_site_symmetry_multiplicity
 _atom_site_fract_x
 _atom_site_fract_y
 _atom_site_fract_z
 _atom_site_occupancy
  Li  Li0  1  0.00000000  -0.00142595  0.00000000  1.0
  Mg  Mg1  1  0.50535605  0.16821734  0.75467029  1.0
  Mg  Mg2  1  0.49464395  0.16821734  0.24532971  1.0
  Mg  Mg3  1  0.50198756  0.50414358  0.74653670  1.0
  Mg  Mg4  1  0.49801244  0.50414358  0.25346330  1.0
  Mg  Mg5  1  0.50223693  0.84010707  0.75992598  1.0
  Mg  Mg6  1  0.49776307  0.84010707  0.24007402  1.0
  Mg  Mg7  1  0.00000000  0.00360507  0.50000000  1.0
  Mg  Mg8  1  0.00000000  0.33599802  0.50000000  1.0
  Mg  Mg9  1  0.00000000  0.67220595  0.50000000  1.0
  Mg  Mg10  1  0.00000000  0.67485858  0.00000000  1.0
  Al  Al11  1  0.00000000  0.33574957  0.00000000  1.0
  H  H12  1  0.80769087  0.50231261  0.59736835  1.0
  H  H13  1  0.19230913  0.50231261  0.40263165  1.0
  H  H14  1  0.80554243  0.17293783  0.59946162  1.0
  H  H15  1  0.19445757  0.17293783  0.40053838  1.0
  H  H16  1  0.80150529  0.83653587  0.60069082  1.0
  H  H17  1  0.19849471  0.83653587  0.39930918  1.0
  H  H18  1  0.72038197  0.34181406  0.85683614  1.0
  H  H19  1  0.27961803  0.34181406  0.14316386  1.0
  H  H20  1  0.69925563  0.00606340  0.34621563  1.0
  H  H21  1  0.30074437  0.00606340  0.65378437  1.0
  H  H22  1  0.69490250  0.00892183  0.85270647  1.0
  H  H23  1  0.30509750  0.00892183  0.14729353  1.0
  H  H24  1  0.69403942  0.66157537  0.85090828  1.0
  H  H25  1  0.30596058  0.66157537  0.14909172  1.0
  H  H26  1  0.69560138  0.66945564  0.34605472  1.0
  H  H27  1  0.30439862  0.66945564  0.65394528  1.0
  H  H28  1  0.68591537  0.33625993  0.34496567  1.0
  H  H29  1  0.31408463  0.33625993  0.65503433  1.0
  H  H30  1  0.19662052  0.83127019  0.90204534  1.0
  H  H31  1  0.80337948  0.83127019  0.09795466  1.0
  H  H32  1  0.19195537  0.19906633  0.90731400  1.0
  H  H33  1  0.80804463  0.19906633  0.09268600  1.0
  H  H34  1  0.18586275  0.48582334  0.90780890  1.0
  H  H35  1  0.81413725  0.48582334  0.09219110  1.0
