# generated using pymatgen
data_Sr11Al4Sn3
_symmetry_space_group_name_H-M   'P 1'
_cell_length_a   12.31922297
_cell_length_b   12.31922297
_cell_length_c   12.31922297
_cell_angle_alpha   60.00000000
_cell_angle_beta   60.00000000
_cell_angle_gamma   60.00000000
_symmetry_Int_Tables_number   1
_chemical_formula_structural   Sr11Al4Sn3
_chemical_formula_sum   'Sr22 Al8 Sn6'
_cell_volume   1322.01063696
_cell_formula_units_Z   2
loop_
 _symmetry_equiv_pos_site_id
 _symmetry_equiv_pos_as_xyz
  1  'x, y, z'
loop_
 _atom_site_type_symbol
 _atom_site_label
 _atom_site_symmetry_multiplicity
 _atom_site_fract_x
 _atom_site_fract_y
 _atom_site_fract_z
 _atom_site_occupancy
  Sr  Sr0  1  1.66574092  0.00000000  -0.00000000  1.0
  Sr  Sr1  1  1.00000000  0.33425908  -0.33425908  1.0
  Sr  Sr2  1  1.00000000  0.66574092  -0.66574092  1.0
  Sr  Sr3  1  1.33425908  0.00000000  -0.00000000  1.0
  Sr  Sr4  1  0.00000000  1.66574092  -0.00000000  1.0
  Sr  Sr5  1  0.33425908  1.00000000  -0.33425908  1.0
  Sr  Sr6  1  0.00000000  0.00000000  0.66574092  1.0
  Sr  Sr7  1  0.33425908  -0.33425908  1.00000000  1.0
  Sr  Sr8  1  0.66574092  1.00000000  -0.66574092  1.0
  Sr  Sr9  1  0.00000000  1.33425908  -0.00000000  1.0
  Sr  Sr10  1  0.66574092  -0.66574092  1.00000000  1.0
  Sr  Sr11  1  -0.00000000  0.00000000  0.33425908  1.0
  Sr  Sr12  1  0.62915185  0.62915185  -0.37084815  1.0
  Sr  Sr13  1  0.37084815  1.37084815  -0.11254444  1.0
  Sr  Sr14  1  1.37084815  -0.11254444  0.37084815  1.0
  Sr  Sr15  1  1.11254444  0.62915185  0.62915185  1.0
  Sr  Sr16  1  -0.11254444  1.37084815  0.37084815  1.0
  Sr  Sr17  1  0.62915185  1.11254444  -0.37084815  1.0
  Sr  Sr18  1  0.62915185  0.62915185  1.11254444  1.0
  Sr  Sr19  1  1.37084815  0.37084815  0.37084815  1.0
  Sr  Sr20  1  -0.50000000  0.50000000  0.50000000  1.0
  Sr  Sr21  1  -0.00000000  0.00000000  0.00000000  1.0
  Al  Al22  1  0.80542610  0.80542610  -0.19457390  1.0
  Al  Al23  1  1.19457390  0.19457390  0.41627830  1.0
  Al  Al24  1  1.19457390  0.41627830  0.19457390  1.0
  Al  Al25  1  0.58372170  0.80542610  -0.19457390  1.0
  Al  Al26  1  1.41627830  0.19457390  0.19457390  1.0
  Al  Al27  1  0.80542610  0.58372170  -0.19457390  1.0
  Al  Al28  1  0.80542610  0.80542610  -0.41627830  1.0
  Al  Al29  1  1.19457390  0.19457390  0.19457390  1.0
  Sn  Sn30  1  -0.71730979  0.71730979  0.71730979  1.0
  Sn  Sn31  1  -0.28269021  0.28269021  0.71730979  1.0
  Sn  Sn32  1  0.71730979  0.71730979  -0.71730979  1.0
  Sn  Sn33  1  0.28269021  1.28269021  -0.28269021  1.0
  Sn  Sn34  1  0.28269021  -0.28269021  1.28269021  1.0
  Sn  Sn35  1  -0.28269021  0.28269021  0.28269021  1.0
