# generated using pymatgen
data_ReNO2
_symmetry_space_group_name_H-M   'P 1'
_cell_length_a   6.43871973
_cell_length_b   6.43871973
_cell_length_c   6.43871973
_cell_angle_alpha   127.47946457
_cell_angle_beta   127.47946457
_cell_angle_gamma   77.46980542
_symmetry_Int_Tables_number   1
_chemical_formula_structural   ReNO2
_chemical_formula_sum   'Re4 N4 O8'
_cell_volume   163.04515158
_cell_formula_units_Z   4
loop_
 _symmetry_equiv_pos_site_id
 _symmetry_equiv_pos_as_xyz
  1  'x, y, z'
loop_
 _atom_site_type_symbol
 _atom_site_label
 _atom_site_symmetry_multiplicity
 _atom_site_fract_x
 _atom_site_fract_y
 _atom_site_fract_z
 _atom_site_occupancy
  Re  Re0  1  0.87500000  0.12500000  0.75000000  1.0
  Re  Re1  1  0.37500000  0.12500000  0.25000000  1.0
  Re  Re2  1  0.87500000  0.62500000  0.75000000  1.0
  Re  Re3  1  0.87500000  1.12500000  1.25000000  1.0
  N  N4  1  0.37500000  0.62500000  0.75000000  1.0
  N  N5  1  0.87500000  0.62500000  1.25000000  1.0
  N  N6  1  0.37500000  1.12500000  0.75000000  1.0
  N  N7  1  0.37500000  0.62500000  0.25000000  1.0
  O  O8  1  1.20792631  1.00892875  1.80100733  1.0
  O  O9  1  0.54207859  0.84308102  1.30100733  1.0
  O  O10  1  0.99107125  0.79207859  1.19899757  1.0
  O  O11  1  1.15691898  1.45792631  1.69899757  1.0
  O  O12  1  0.20792141  0.40691898  0.19899267  1.0
  O  O13  1  0.54207369  0.24107125  0.69899267  1.0
  O  O14  1  0.59308102  0.79207369  0.80100243  1.0
  O  O15  1  0.75892875  0.45792141  0.30100243  1.0
