# generated using pymatgen
data_Si2N2O
_symmetry_space_group_name_H-M   'P 1'
_cell_length_a   5.27103686
_cell_length_b   5.27103686
_cell_length_c   4.89560922
_cell_angle_alpha   90.00000000
_cell_angle_beta   90.00000000
_cell_angle_gamma   63.49429775
_symmetry_Int_Tables_number   1
_chemical_formula_structural   Si2N2O
_chemical_formula_sum   'Si4 N4 O2'
_cell_volume   121.72183254
_cell_formula_units_Z   2
loop_
 _symmetry_equiv_pos_site_id
 _symmetry_equiv_pos_as_xyz
  1  'x, y, z'
loop_
 _atom_site_type_symbol
 _atom_site_label
 _atom_site_symmetry_multiplicity
 _atom_site_fract_x
 _atom_site_fract_y
 _atom_site_fract_z
 _atom_site_occupancy
  Si  Si0  1  -0.02650053  1.67250292  0.05836994  1.0
  Si  Si1  1  0.67250292  0.97349947  0.55836994  1.0
  Si  Si2  1  -0.67250292  1.02650053  0.05836994  1.0
  Si  Si3  1  0.02650053  0.32749708  0.55836994  1.0
  N  N4  1  -0.09566480  1.65724370  0.40266808  1.0
  N  N5  1  0.65724370  0.90433520  0.90266808  1.0
  N  N6  1  -0.65724370  1.09566480  0.40266808  1.0
  N  N7  1  0.09566480  0.34275630  0.90266808  1.0
  O  O8  1  0.21023534  0.78976466  0.00792395  1.0
  O  O9  1  -0.21023534  1.21023534  0.50792395  1.0
