# generated using pymatgen
data_Sr3(AlAs2)2
_symmetry_space_group_name_H-M   'P 1'
_cell_length_a   8.60867410
_cell_length_b   8.60867410
_cell_length_c   6.87713367
_cell_angle_alpha   89.65407198
_cell_angle_beta   90.34592802
_cell_angle_gamma   104.54440825
_symmetry_Int_Tables_number   1
_chemical_formula_structural   Sr3(AlAs2)2
_chemical_formula_sum   'Sr6 Al4 As8'
_cell_volume   493.31207408
_cell_formula_units_Z   2
loop_
 _symmetry_equiv_pos_site_id
 _symmetry_equiv_pos_as_xyz
  1  'x, y, z'
loop_
 _atom_site_type_symbol
 _atom_site_label
 _atom_site_symmetry_multiplicity
 _atom_site_fract_x
 _atom_site_fract_y
 _atom_site_fract_z
 _atom_site_occupancy
  Sr  Sr0  1  0.74756269  -0.00559533  0.96046598  1.0
  Sr  Sr1  1  1.00559533  0.25243731  0.46046598  1.0
  Sr  Sr2  1  0.99440467  -0.25243731  0.53953402  1.0
  Sr  Sr3  1  1.25243731  0.00559533  0.03953402  1.0
  Sr  Sr4  1  1.40190424  0.40190424  0.75000000  1.0
  Sr  Sr5  1  0.59809576  -0.40190424  0.25000000  1.0
  Al  Al6  1  0.41840819  -0.17125497  0.58099055  1.0
  Al  Al7  1  1.17125497  0.58159181  0.08099055  1.0
  Al  Al8  1  0.82874503  -0.58159181  0.91900945  1.0
  Al  Al9  1  1.58159181  0.17125497  0.41900945  1.0
  As  As10  1  1.29108192  0.05989628  0.52431545  1.0
  As  As11  1  0.94010372  -0.29108192  0.02431545  1.0
  As  As12  1  1.05989628  0.29108192  0.97568455  1.0
  As  As13  1  0.70891808  -0.05989628  0.47568455  1.0
  As  As14  1  0.42382908  -0.25901219  0.92593228  1.0
  As  As15  1  1.25901219  0.57617092  0.42593228  1.0
  As  As16  1  0.74098781  -0.57617092  0.57406772  1.0
  As  As17  1  1.57617092  0.25901219  0.07406772  1.0
