# generated using pymatgen
data_TbF4
_symmetry_space_group_name_H-M   'P 1'
_cell_length_a   8.15099873
_cell_length_b   8.15099873
_cell_length_c   8.16177097
_cell_angle_alpha   63.29402440
_cell_angle_beta   116.70597560
_cell_angle_gamma   99.86638112
_symmetry_Int_Tables_number   1
_chemical_formula_structural   TbF4
_chemical_formula_sum   'Tb6 F24'
_cell_volume   432.41886905
_cell_formula_units_Z   6
loop_
 _symmetry_equiv_pos_site_id
 _symmetry_equiv_pos_as_xyz
  1  'x, y, z'
loop_
 _atom_site_type_symbol
 _atom_site_label
 _atom_site_symmetry_multiplicity
 _atom_site_fract_x
 _atom_site_fract_y
 _atom_site_fract_z
 _atom_site_occupancy
  Tb  Tb0  1  0.63221656  0.22384339  0.33120479  1.0
  Tb  Tb1  1  0.77615661  0.36778344  0.83120479  1.0
  Tb  Tb2  1  1.22384339  -0.36778344  0.16879521  1.0
  Tb  Tb3  1  1.36778344  -0.22384339  0.66879521  1.0
  Tb  Tb4  1  0.78720976  0.78720976  0.25000000  1.0
  Tb  Tb5  1  0.21279024  0.21279024  0.75000000  1.0
  F  F6  1  0.82546729  0.06444228  0.04442625  1.0
  F  F7  1  0.93555772  0.17453271  0.54442625  1.0
  F  F8  1  1.06444228  -0.17453271  0.45557375  1.0
  F  F9  1  1.17453271  -0.06444228  0.95557375  1.0
  F  F10  1  0.40337954  0.18579091  0.07406152  1.0
  F  F11  1  0.81420909  0.59662046  0.57406152  1.0
  F  F12  1  1.18579091  -0.59662046  0.42593848  1.0
  F  F13  1  1.59662046  -0.18579091  0.92593848  1.0
  F  F14  1  0.39578282  0.39578282  0.25000000  1.0
  F  F15  1  0.60421718  0.60421718  0.75000000  1.0
  F  F16  1  1.50000000  0.00000000  0.50000000  1.0
  F  F17  1  1.00000000  0.50000000  0.00000000  1.0
  F  F18  1  1.31744111  -0.26007034  0.39502989  1.0
  F  F19  1  1.26007034  -0.31744111  0.89502989  1.0
  F  F20  1  0.73992966  0.31744111  0.10497011  1.0
  F  F21  1  0.68255889  0.26007034  0.60497011  1.0
  F  F22  1  1.50304758  -0.26073526  0.21713672  1.0
  F  F23  1  1.26073526  -0.50304758  0.71713672  1.0
  F  F24  1  0.73926474  0.50304758  0.28286328  1.0
  F  F25  1  0.49695242  0.26073526  0.78286328  1.0
  F  F26  1  1.72509858  -0.02844661  0.34924122  1.0
  F  F27  1  1.02844661  -0.72509858  0.84924122  1.0
  F  F28  1  0.97155339  0.72509858  0.15075878  1.0
  F  F29  1  0.27490142  0.02844661  0.65075878  1.0
