# generated using pymatgen
data_BPd6
_symmetry_space_group_name_H-M   'P 1'
_cell_length_a   4.95971189
_cell_length_b   4.95971189
_cell_length_c   9.50594396
_cell_angle_alpha   85.07031254
_cell_angle_beta   94.92968746
_cell_angle_gamma   60.14807452
_symmetry_Int_Tables_number   1
_chemical_formula_structural   BPd6
_chemical_formula_sum   'B2 Pd12'
_cell_volume   199.80372963
_cell_formula_units_Z   2
loop_
 _symmetry_equiv_pos_site_id
 _symmetry_equiv_pos_as_xyz
  1  'x, y, z'
loop_
 _atom_site_type_symbol
 _atom_site_label
 _atom_site_symmetry_multiplicity
 _atom_site_fract_x
 _atom_site_fract_y
 _atom_site_fract_z
 _atom_site_occupancy
  B  B0  1  0.91819562  -0.08180438  0.25000000  1.0
  B  B1  1  1.08180438  0.08180438  0.75000000  1.0
  Pd  Pd2  1  0.61865347  -0.12455948  0.37747904  1.0
  Pd  Pd3  1  1.12455948  0.38134653  0.87747904  1.0
  Pd  Pd4  1  0.87544052  -0.38134653  0.12252096  1.0
  Pd  Pd5  1  1.38134653  0.12455948  0.62252096  1.0
  Pd  Pd6  1  1.78470434  0.04024528  0.87779971  1.0
  Pd  Pd7  1  0.95975472  -0.78470434  0.37779971  1.0
  Pd  Pd8  1  1.04024528  0.78470434  0.62220029  1.0
  Pd  Pd9  1  0.21529566  -0.04024528  0.12220029  1.0
  Pd  Pd10  1  1.53478528  0.30019905  0.12257365  1.0
  Pd  Pd11  1  0.69980095  -0.53478528  0.62257365  1.0
  Pd  Pd12  1  1.30019905  0.53478528  0.37742635  1.0
  Pd  Pd13  1  0.46521472  -0.30019905  0.87742635  1.0
