# generated using pymatgen
data_EuHSO5
_symmetry_space_group_name_H-M   'P 1'
_cell_length_a   4.51181954
_cell_length_b   12.48905866
_cell_length_c   7.12147145
_cell_angle_alpha   90.00000000
_cell_angle_beta   110.99928557
_cell_angle_gamma   90.00000000
_symmetry_Int_Tables_number   1
_chemical_formula_structural   EuHSO5
_chemical_formula_sum   'Eu4 H4 S4 O20'
_cell_volume   374.63209417
_cell_formula_units_Z   4
loop_
 _symmetry_equiv_pos_site_id
 _symmetry_equiv_pos_as_xyz
  1  'x, y, z'
loop_
 _atom_site_type_symbol
 _atom_site_label
 _atom_site_symmetry_multiplicity
 _atom_site_fract_x
 _atom_site_fract_y
 _atom_site_fract_z
 _atom_site_occupancy
  O  O0  1  0.98104813  0.40092901  0.22190938  1.0
  O  O1  1  0.98104813  0.09907099  0.72190938  1.0
  O  O2  1  0.01895187  0.90092901  0.27809062  1.0
  O  O3  1  0.01895187  0.59907099  0.77809062  1.0
  O  O4  1  0.79656381  0.66549594  0.43033856  1.0
  O  O5  1  0.79656381  0.83450406  0.93033856  1.0
  O  O6  1  0.20343619  0.16549594  0.06966144  1.0
  O  O7  1  0.20343619  0.33450406  0.56966144  1.0
  O  O8  1  0.74007022  0.25028223  0.32859424  1.0
  O  O9  1  0.74007022  0.24971777  0.82859424  1.0
  O  O10  1  0.25992978  0.75028223  0.17140576  1.0
  O  O11  1  0.25992978  0.74971777  0.67140576  1.0
  O  O12  1  0.69769313  0.42988982  0.45078437  1.0
  O  O13  1  0.69769313  0.07011018  0.95078437  1.0
  O  O14  1  0.30230687  0.92988982  0.04921563  1.0
  O  O15  1  0.30230687  0.57011018  0.54921563  1.0
  O  O16  1  0.26471481  0.08224978  0.46013592  1.0
  O  O17  1  0.26471481  0.41775022  0.96013592  1.0
  O  O18  1  0.73528519  0.58224978  0.03986408  1.0
  O  O19  1  0.73528519  0.91775022  0.53986408  1.0
  S  S20  1  0.91172502  0.35304374  0.39328936  1.0
  S  S21  1  0.91172502  0.14695626  0.89328936  1.0
  S  S22  1  0.08827498  0.85304374  0.10671064  1.0
  S  S23  1  0.08827498  0.64695626  0.60671064  1.0
  Eu  Eu24  1  0.66380576  0.06261718  0.30167716  1.0
  Eu  Eu25  1  0.66380576  0.43738282  0.80167716  1.0
  Eu  Eu26  1  0.33619424  0.56261718  0.19832284  1.0
  Eu  Eu27  1  0.33619424  0.93738282  0.69832284  1.0
  H  H28  1  0.28681293  0.15246041  0.52527749  1.0
  H  H29  1  0.28681293  0.34753959  0.02527749  1.0
  H  H30  1  0.71318707  0.65246041  0.97472251  1.0
  H  H31  1  0.71318707  0.84753959  0.47472251  1.0
