# generated using pymatgen
data_ZrGe
_symmetry_space_group_name_H-M   'P 1'
_cell_length_a   7.10422044
_cell_length_b   3.94396257
_cell_length_c   5.42120113
_cell_angle_alpha   90.00000000
_cell_angle_beta   90.00000000
_cell_angle_gamma   90.00000000
_symmetry_Int_Tables_number   1
_chemical_formula_structural   ZrGe
_chemical_formula_sum   'Zr4 Ge4'
_cell_volume   151.89543918
_cell_formula_units_Z   4
loop_
 _symmetry_equiv_pos_site_id
 _symmetry_equiv_pos_as_xyz
  1  'x, y, z'
loop_
 _atom_site_type_symbol
 _atom_site_label
 _atom_site_symmetry_multiplicity
 _atom_site_fract_x
 _atom_site_fract_y
 _atom_site_fract_z
 _atom_site_occupancy
  Zr  Zr0  1  0.32228959  0.75000000  0.13282316  1.0
  Zr  Zr1  1  0.82228959  0.75000000  0.36717684  1.0
  Zr  Zr2  1  0.67771041  0.25000000  0.86717684  1.0
  Zr  Zr3  1  0.17771041  0.25000000  0.63282316  1.0
  Ge  Ge4  1  0.45241142  0.75000000  0.65428363  1.0
  Ge  Ge5  1  0.95241142  0.75000000  0.84571637  1.0
  Ge  Ge6  1  0.54758858  0.25000000  0.34571637  1.0
  Ge  Ge7  1  0.04758858  0.25000000  0.15428363  1.0
