# generated using pymatgen
data_CsBa2SnS4Cl
_symmetry_space_group_name_H-M   'P 1'
_cell_length_a   10.08889994
_cell_length_b   8.99946163
_cell_length_c   12.76641763
_cell_angle_alpha   90.00000000
_cell_angle_beta   90.92676427
_cell_angle_gamma   90.00000000
_symmetry_Int_Tables_number   1
_chemical_formula_structural   CsBa2SnS4Cl
_chemical_formula_sum   'Cs4 Ba8 Sn4 S16 Cl4'
_cell_volume   1158.97102112
_cell_formula_units_Z   4
loop_
 _symmetry_equiv_pos_site_id
 _symmetry_equiv_pos_as_xyz
  1  'x, y, z'
loop_
 _atom_site_type_symbol
 _atom_site_label
 _atom_site_symmetry_multiplicity
 _atom_site_fract_x
 _atom_site_fract_y
 _atom_site_fract_z
 _atom_site_occupancy
  Cs  Cs0  1  0.97580835  0.41149312  0.17274328  1.0
  Cs  Cs1  1  0.97580835  0.08850688  0.67274328  1.0
  Cs  Cs2  1  0.02419165  0.91149312  0.32725672  1.0
  Cs  Cs3  1  0.02419165  0.58850688  0.82725672  1.0
  Ba  Ba4  1  0.51945059  0.40408365  0.17903621  1.0
  Ba  Ba5  1  0.51945059  0.09591635  0.67903621  1.0
  Ba  Ba6  1  0.48054941  0.90408365  0.32096379  1.0
  Ba  Ba7  1  0.48054941  0.59591635  0.82096379  1.0
  Ba  Ba8  1  0.24741601  0.39843549  0.47788590  1.0
  Ba  Ba9  1  0.24741601  0.10156451  0.97788590  1.0
  Ba  Ba10  1  0.75258399  0.89843549  0.02211410  1.0
  Ba  Ba11  1  0.75258399  0.60156451  0.52211410  1.0
  Sn  Sn12  1  0.74103636  0.18756539  0.40230365  1.0
  Sn  Sn13  1  0.74103636  0.31243461  0.90230365  1.0
  Sn  Sn14  1  0.25896364  0.68756539  0.09769635  1.0
  Sn  Sn15  1  0.25896364  0.81243461  0.59769635  1.0
  S  S16  1  0.93750253  0.32688398  0.44313480  1.0
  S  S17  1  0.93750253  0.17311602  0.94313480  1.0
  S  S18  1  0.06249747  0.82688398  0.05686520  1.0
  S  S19  1  0.06249747  0.67311602  0.55686520  1.0
  S  S20  1  0.71452102  0.12623962  0.21822049  1.0
  S  S21  1  0.71452102  0.37376038  0.71822049  1.0
  S  S22  1  0.28547898  0.62623962  0.28177951  1.0
  S  S23  1  0.28547898  0.87376038  0.78177951  1.0
  S  S24  1  0.55366421  0.34454515  0.43860187  1.0
  S  S25  1  0.55366421  0.15545485  0.93860187  1.0
  S  S26  1  0.44633579  0.84454515  0.06139813  1.0
  S  S27  1  0.44633579  0.65545485  0.56139813  1.0
  S  S28  1  0.28617190  0.03690658  0.49765167  1.0
  S  S29  1  0.28617190  0.46309342  0.99765167  1.0
  S  S30  1  0.71382810  0.53690658  0.00234833  1.0
  S  S31  1  0.71382810  0.96309342  0.50234833  1.0
  Cl  Cl32  1  0.28613460  0.16924629  0.22270586  1.0
  Cl  Cl33  1  0.28613460  0.33075371  0.72270586  1.0
  Cl  Cl34  1  0.71386540  0.66924629  0.27729414  1.0
  Cl  Cl35  1  0.71386540  0.83075371  0.77729414  1.0
