# generated using pymatgen
data_Ca2LaSbO6
_symmetry_space_group_name_H-M   'P 1'
_cell_length_a   5.72980298
_cell_length_b   6.02495087
_cell_length_c   10.10382048
_cell_angle_alpha   90.00000000
_cell_angle_beta   124.28041630
_cell_angle_gamma   90.00000000
_symmetry_Int_Tables_number   1
_chemical_formula_structural   Ca2LaSbO6
_chemical_formula_sum   'Ca4 La2 Sb2 O12'
_cell_volume   288.21180735
_cell_formula_units_Z   2
loop_
 _symmetry_equiv_pos_site_id
 _symmetry_equiv_pos_as_xyz
  1  'x, y, z'
loop_
 _atom_site_type_symbol
 _atom_site_label
 _atom_site_symmetry_multiplicity
 _atom_site_fract_x
 _atom_site_fract_y
 _atom_site_fract_z
 _atom_site_occupancy
  Ca  Ca0  1  0.72532755  0.04678319  0.73683838  1.0
  Ca  Ca1  1  0.72532755  0.45321681  0.23683838  1.0
  Ca  Ca2  1  0.27467245  0.95321681  0.26316162  1.0
  Ca  Ca3  1  0.27467245  0.54678319  0.76316162  1.0
  La  La4  1  0.50000000  0.00000000  0.00000000  1.0
  La  La5  1  0.50000000  0.50000000  0.50000000  1.0
  Sb  Sb6  1  0.00000000  0.50000000  0.00000000  1.0
  Sb  Sb7  1  0.00000000  0.00000000  0.50000000  1.0
  O  O8  1  0.66090470  0.32814208  0.95341659  1.0
  O  O9  1  0.66090470  0.17185792  0.45341659  1.0
  O  O10  1  0.33909530  0.67185792  0.04658341  1.0
  O  O11  1  0.33909530  0.82814208  0.54658341  1.0
  O  O12  1  0.24989586  0.27759295  0.58320598  1.0
  O  O13  1  0.24989586  0.22240705  0.08320598  1.0
  O  O14  1  0.75010414  0.72240705  0.41679402  1.0
  O  O15  1  0.75010414  0.77759295  0.91679402  1.0
  O  O16  1  0.89936349  0.42441725  0.77655645  1.0
  O  O17  1  0.89936349  0.07558275  0.27655645  1.0
  O  O18  1  0.10063651  0.57558275  0.22344355  1.0
  O  O19  1  0.10063651  0.92441725  0.72344355  1.0
