# generated using pymatgen
data_Ba(GaSe2)2
_symmetry_space_group_name_H-M   'P 1'
_cell_length_a   6.56318744
_cell_length_b   6.56318744
_cell_length_c   11.55516908
_cell_angle_alpha   90.00000000
_cell_angle_beta   90.00000000
_cell_angle_gamma   122.02718608
_symmetry_Int_Tables_number   1
_chemical_formula_structural   Ba(GaSe2)2
_chemical_formula_sum   'Ba2 Ga4 Se8'
_cell_volume   421.98554147
_cell_formula_units_Z   2
loop_
 _symmetry_equiv_pos_site_id
 _symmetry_equiv_pos_as_xyz
  1  'x, y, z'
loop_
 _atom_site_type_symbol
 _atom_site_label
 _atom_site_symmetry_multiplicity
 _atom_site_fract_x
 _atom_site_fract_y
 _atom_site_fract_z
 _atom_site_occupancy
  Ba  Ba0  1  0.00000000  0.00000000  0.75000000  1.0
  Ba  Ba1  1  0.00000000  0.00000000  0.25000000  1.0
  Ga  Ga2  1  -0.25990627  1.25793163  0.00000000  1.0
  Ga  Ga3  1  0.25793163  0.74009373  0.50000000  1.0
  Ga  Ga4  1  -0.25793163  1.25990627  0.50000000  1.0
  Ga  Ga5  1  0.25990627  0.74206837  0.00000000  1.0
  Se  Se6  1  -0.14777143  1.67604827  0.00000000  1.0
  Se  Se7  1  0.67604827  0.85222857  0.50000000  1.0
  Se  Se8  1  -0.67604827  1.14777143  0.50000000  1.0
  Se  Se9  1  0.14777143  0.32395173  0.00000000  1.0
  Se  Se10  1  0.00000000  1.50000000  0.66182447  1.0
  Se  Se11  1  0.00000000  1.50000000  0.33817553  1.0
  Se  Se12  1  0.50000000  1.00000000  0.16182447  1.0
  Se  Se13  1  0.50000000  1.00000000  0.83817553  1.0
