# generated using pymatgen
data_KSn2Br5
_symmetry_space_group_name_H-M   'P 1'
_cell_length_a   9.61616142
_cell_length_b   9.61616142
_cell_length_c   9.61616142
_cell_angle_alpha   127.73572536
_cell_angle_beta   127.73572536
_cell_angle_gamma   77.05353522
_symmetry_Int_Tables_number   1
_chemical_formula_structural   KSn2Br5
_chemical_formula_sum   'K2 Sn4 Br10'
_cell_volume   539.79290277
_cell_formula_units_Z   2
loop_
 _symmetry_equiv_pos_site_id
 _symmetry_equiv_pos_as_xyz
  1  'x, y, z'
loop_
 _atom_site_type_symbol
 _atom_site_label
 _atom_site_symmetry_multiplicity
 _atom_site_fract_x
 _atom_site_fract_y
 _atom_site_fract_z
 _atom_site_occupancy
  K  K0  1  0.75000000  0.75000000  1.00000000  1.0
  K  K1  1  0.25000000  0.25000000  0.00000000  1.0
  Sn  Sn2  1  0.32242159  0.82242159  1.14484317  1.0
  Sn  Sn3  1  0.17757841  0.32242159  0.50000000  1.0
  Sn  Sn4  1  0.82242159  0.67757841  1.50000000  1.0
  Sn  Sn5  1  0.67757841  0.17757841  0.85515683  1.0
  Br  Br6  1  0.70426841  1.20426841  1.17612481  1.0
  Br  Br7  1  0.97185640  0.47185640  1.17612481  1.0
  Br  Br8  1  0.52814360  0.70426841  0.50000000  1.0
  Br  Br9  1  0.79573159  0.97185640  1.50000000  1.0
  Br  Br10  1  1.20426841  1.02814360  1.50000000  1.0
  Br  Br11  1  0.47185640  0.29573159  0.50000000  1.0
  Br  Br12  1  1.02814360  0.52814360  0.82387519  1.0
  Br  Br13  1  0.29573159  0.79573159  0.82387519  1.0
  Br  Br14  1  0.00000000  0.00000000  0.00000000  1.0
  Br  Br15  1  0.50000000  0.50000000  1.00000000  1.0
