# generated using pymatgen
data_KP4N7
_symmetry_space_group_name_H-M   'P 1'
_cell_length_a   9.95810959
_cell_length_b   12.38432984
_cell_length_c   4.71659245
_cell_angle_alpha   90.00000000
_cell_angle_beta   90.00000000
_cell_angle_gamma   90.00000000
_symmetry_Int_Tables_number   1
_chemical_formula_structural   KP4N7
_chemical_formula_sum   'K4 P16 N28'
_cell_volume   581.67147016
_cell_formula_units_Z   4
loop_
 _symmetry_equiv_pos_site_id
 _symmetry_equiv_pos_as_xyz
  1  'x, y, z'
loop_
 _atom_site_type_symbol
 _atom_site_label
 _atom_site_symmetry_multiplicity
 _atom_site_fract_x
 _atom_site_fract_y
 _atom_site_fract_z
 _atom_site_occupancy
  K  K0  1  0.15255328  0.75000000  0.25711376  1.0
  K  K1  1  0.65255328  0.75000000  0.24288624  1.0
  K  K2  1  0.84744672  0.25000000  0.74288624  1.0
  K  K3  1  0.34744672  0.25000000  0.75711376  1.0
  P  P4  1  0.41155916  0.86941539  0.78673453  1.0
  P  P5  1  0.41155916  0.63058461  0.78673453  1.0
  P  P6  1  0.91155916  0.86941539  0.71326547  1.0
  P  P7  1  0.91155916  0.63058461  0.71326547  1.0
  P  P8  1  0.58844084  0.36941539  0.21326547  1.0
  P  P9  1  0.58844084  0.13058461  0.21326547  1.0
  P  P10  1  0.08844084  0.36941539  0.28673453  1.0
  P  P11  1  0.08844084  0.13058461  0.28673453  1.0
  P  P12  1  0.15660373  0.99963236  0.77918115  1.0
  P  P13  1  0.15660373  0.50036764  0.77918115  1.0
  P  P14  1  0.65660373  0.99963236  0.72081885  1.0
  P  P15  1  0.65660373  0.50036764  0.72081885  1.0
  P  P16  1  0.84339627  0.49963236  0.22081885  1.0
  P  P17  1  0.84339627  0.00036764  0.22081885  1.0
  P  P18  1  0.34339627  0.49963236  0.27918115  1.0
  P  P19  1  0.34339627  0.00036764  0.27918115  1.0
  N  N20  1  0.38655720  0.89295741  0.11897189  1.0
  N  N21  1  0.38655720  0.60704259  0.11897189  1.0
  N  N22  1  0.88655720  0.89295741  0.38102811  1.0
  N  N23  1  0.88655720  0.60704259  0.38102811  1.0
  N  N24  1  0.61344280  0.39295741  0.88102811  1.0
  N  N25  1  0.61344280  0.10704259  0.88102811  1.0
  N  N26  1  0.11344280  0.39295741  0.61897189  1.0
  N  N27  1  0.11344280  0.10704259  0.61897189  1.0
  N  N28  1  0.30062252  0.95692723  0.61598040  1.0
  N  N29  1  0.30062252  0.54307277  0.61598040  1.0
  N  N30  1  0.80062252  0.95692723  0.88401960  1.0
  N  N31  1  0.80062252  0.54307277  0.88401960  1.0
  N  N32  1  0.69937748  0.45692723  0.38401960  1.0
  N  N33  1  0.69937748  0.04307277  0.38401960  1.0
  N  N34  1  0.19937748  0.45692723  0.11598040  1.0
  N  N35  1  0.19937748  0.04307277  0.11598040  1.0
  N  N36  1  0.06149041  0.89710222  0.81950064  1.0
  N  N37  1  0.06149041  0.60289778  0.81950064  1.0
  N  N38  1  0.56149041  0.89710222  0.68049936  1.0
  N  N39  1  0.56149041  0.60289778  0.68049936  1.0
  N  N40  1  0.93850959  0.39710222  0.18049936  1.0
  N  N41  1  0.93850959  0.10289778  0.18049936  1.0
  N  N42  1  0.43850959  0.39710222  0.31950064  1.0
  N  N43  1  0.43850959  0.10289778  0.31950064  1.0
  N  N44  1  0.36755267  0.75000000  0.70106550  1.0
  N  N45  1  0.86755267  0.75000000  0.79893450  1.0
  N  N46  1  0.63244733  0.25000000  0.29893450  1.0
  N  N47  1  0.13244733  0.25000000  0.20106550  1.0
