# generated using pymatgen
data_CeAlCu
_symmetry_space_group_name_H-M   'P 1'
_cell_length_a   6.99037506
_cell_length_b   6.99037506
_cell_length_c   4.23420685
_cell_angle_alpha   90.00000000
_cell_angle_beta   90.00000000
_cell_angle_gamma   120.00000000
_symmetry_Int_Tables_number   1
_chemical_formula_structural   CeAlCu
_chemical_formula_sum   'Ce3 Al3 Cu3'
_cell_volume   179.18582797
_cell_formula_units_Z   3
loop_
 _symmetry_equiv_pos_site_id
 _symmetry_equiv_pos_as_xyz
  1  'x, y, z'
loop_
 _atom_site_type_symbol
 _atom_site_label
 _atom_site_symmetry_multiplicity
 _atom_site_fract_x
 _atom_site_fract_y
 _atom_site_fract_z
 _atom_site_occupancy
  Ce  Ce0  1  0.42385322  0.42385322  0.00000000  1.0
  Ce  Ce1  1  0.00000000  0.57614678  0.00000000  1.0
  Ce  Ce2  1  0.57614678  0.00000000  -0.00000000  1.0
  Al  Al3  1  0.76696370  0.76696370  0.50000000  1.0
  Al  Al4  1  -0.00000000  0.23303630  0.50000000  1.0
  Al  Al5  1  0.23303630  -0.00000000  0.50000000  1.0
  Cu  Cu6  1  0.33333333  0.66666667  0.50000000  1.0
  Cu  Cu7  1  0.66666667  0.33333333  0.50000000  1.0
  Cu  Cu8  1  0.00000000  -0.00000000  0.00000000  1.0
