# generated using pymatgen
data_Re2(HgO2)5
_symmetry_space_group_name_H-M   'P 1'
_cell_length_a   6.54259617
_cell_length_b   11.72536812
_cell_length_c   8.75173103
_cell_angle_alpha   90.00000000
_cell_angle_beta   99.60304408
_cell_angle_gamma   90.00000000
_symmetry_Int_Tables_number   1
_chemical_formula_structural   Re2(HgO2)5
_chemical_formula_sum   'Re4 Hg10 O20'
_cell_volume   661.97536731
_cell_formula_units_Z   2
loop_
 _symmetry_equiv_pos_site_id
 _symmetry_equiv_pos_as_xyz
  1  'x, y, z'
loop_
 _atom_site_type_symbol
 _atom_site_label
 _atom_site_symmetry_multiplicity
 _atom_site_fract_x
 _atom_site_fract_y
 _atom_site_fract_z
 _atom_site_occupancy
  Re  Re0  1  0.88325339  0.15596565  0.47731567  1.0
  Re  Re1  1  0.88325339  0.34403435  0.97731567  1.0
  Re  Re2  1  0.11674661  0.65596565  0.02268433  1.0
  Re  Re3  1  0.11674661  0.84403435  0.52268433  1.0
  Hg  Hg4  1  0.50610607  0.40964968  0.31465205  1.0
  Hg  Hg5  1  0.50610607  0.09035032  0.81465205  1.0
  Hg  Hg6  1  0.49389393  0.90964968  0.18534795  1.0
  Hg  Hg7  1  0.49389393  0.59035032  0.68534795  1.0
  Hg  Hg8  1  0.37145422  0.21723599  0.18307665  1.0
  Hg  Hg9  1  0.37145422  0.28276401  0.68307665  1.0
  Hg  Hg10  1  0.62854578  0.71723599  0.31692335  1.0
  Hg  Hg11  1  0.62854578  0.78276401  0.81692335  1.0
  Hg  Hg12  1  -0.00000000  0.50000000  0.50000000  1.0
  Hg  Hg13  1  0.00000000  0.00000000  0.00000000  1.0
  O  O14  1  0.93167874  0.42725533  0.14410258  1.0
  O  O15  1  0.93167874  0.07274467  0.64410258  1.0
  O  O16  1  0.06832126  0.92725533  0.35589742  1.0
  O  O17  1  0.06832126  0.57274467  0.85589742  1.0
  O  O18  1  0.88728244  0.68101490  0.09416213  1.0
  O  O19  1  0.88728244  0.81898510  0.59416213  1.0
  O  O20  1  0.11271756  0.18101490  0.40583787  1.0
  O  O21  1  0.11271756  0.31898510  0.90583787  1.0
  O  O22  1  0.78817847  0.21186914  0.02684127  1.0
  O  O23  1  0.78817847  0.28813086  0.52684127  1.0
  O  O24  1  0.21182153  0.71186914  0.47315873  1.0
  O  O25  1  0.21182153  0.78813086  0.97315873  1.0
  O  O26  1  0.69777167  0.94820237  0.93251172  1.0
  O  O27  1  0.69777167  0.55179763  0.43251172  1.0
  O  O28  1  0.30222833  0.44820237  0.56748828  1.0
  O  O29  1  0.30222833  0.05179763  0.06748828  1.0
  O  O30  1  0.69437851  0.09213139  0.33820061  1.0
  O  O31  1  0.69437851  0.40786861  0.83820061  1.0
  O  O32  1  0.30562149  0.59213139  0.16179939  1.0
  O  O33  1  0.30562149  0.90786861  0.66179939  1.0
