# generated using pymatgen
data_Ge(SbTe2)2
_symmetry_space_group_name_H-M   'P 1'
_cell_length_a   13.39620589
_cell_length_b   13.39620589
_cell_length_c   13.39620589
_cell_angle_alpha   18.54964807
_cell_angle_beta   18.54964807
_cell_angle_gamma   18.54964807
_symmetry_Int_Tables_number   1
_chemical_formula_structural   Ge(SbTe2)2
_chemical_formula_sum   'Ge1 Sb2 Te4'
_cell_volume   212.54521634
_cell_formula_units_Z   1
loop_
 _symmetry_equiv_pos_site_id
 _symmetry_equiv_pos_as_xyz
  1  'x, y, z'
loop_
 _atom_site_type_symbol
 _atom_site_label
 _atom_site_symmetry_multiplicity
 _atom_site_fract_x
 _atom_site_fract_y
 _atom_site_fract_z
 _atom_site_occupancy
  Ge  Ge0  1  0.00000000  0.00000000  0.00000000  1.0
  Sb  Sb1  1  0.85940191  0.85940191  0.85940191  1.0
  Sb  Sb2  1  1.14059809  1.14059809  0.14059809  1.0
  Te  Te3  1  0.70828266  0.70828266  0.70828266  1.0
  Te  Te4  1  1.29171734  1.29171734  0.29171734  1.0
  Te  Te5  1  1.57023999  0.57023999  0.57023999  1.0
  Te  Te6  1  1.42976001  0.42976001  0.42976001  1.0
