# generated using pymatgen
data_RbSb3Se5
_symmetry_space_group_name_H-M   'P 1'
_cell_length_a   8.85839880
_cell_length_b   13.39490964
_cell_length_c   12.42939274
_cell_angle_alpha   90.00000000
_cell_angle_beta   128.04049059
_cell_angle_gamma   90.00000000
_symmetry_Int_Tables_number   1
_chemical_formula_structural   RbSb3Se5
_chemical_formula_sum   'Rb4 Sb12 Se20'
_cell_volume   1161.54786166
_cell_formula_units_Z   4
loop_
 _symmetry_equiv_pos_site_id
 _symmetry_equiv_pos_as_xyz
  1  'x, y, z'
loop_
 _atom_site_type_symbol
 _atom_site_label
 _atom_site_symmetry_multiplicity
 _atom_site_fract_x
 _atom_site_fract_y
 _atom_site_fract_z
 _atom_site_occupancy
  Rb  Rb0  1  0.82266388  0.75150054  0.19771173  1.0
  Rb  Rb1  1  0.82266388  0.74849946  0.69771173  1.0
  Rb  Rb2  1  0.17733612  0.25150054  0.30228827  1.0
  Rb  Rb3  1  0.17733612  0.24849946  0.80228827  1.0
  Sb  Sb4  1  0.74805664  0.09814935  0.37007888  1.0
  Sb  Sb5  1  0.74805664  0.40185065  0.87007888  1.0
  Sb  Sb6  1  0.25194336  0.59814935  0.12992112  1.0
  Sb  Sb7  1  0.25194336  0.90185065  0.62992112  1.0
  Sb  Sb8  1  0.68626015  0.45852545  0.17832308  1.0
  Sb  Sb9  1  0.68626015  0.04147455  0.67832308  1.0
  Sb  Sb10  1  0.31373985  0.95852545  0.32167692  1.0
  Sb  Sb11  1  0.31373985  0.54147455  0.82167692  1.0
  Sb  Sb12  1  0.64045169  0.44066706  0.45926411  1.0
  Sb  Sb13  1  0.64045169  0.05933294  0.95926411  1.0
  Sb  Sb14  1  0.35954831  0.94066706  0.04073589  1.0
  Sb  Sb15  1  0.35954831  0.55933294  0.54073589  1.0
  Se  Se16  1  0.90142355  0.01806761  0.21342688  1.0
  Se  Se17  1  0.90142355  0.48193239  0.71342688  1.0
  Se  Se18  1  0.09857645  0.51806761  0.28657312  1.0
  Se  Se19  1  0.09857645  0.98193239  0.78657312  1.0
  Se  Se20  1  0.85728849  0.35544344  0.40517005  1.0
  Se  Se21  1  0.85728849  0.14455656  0.90517005  1.0
  Se  Se22  1  0.14271151  0.85544344  0.09482995  1.0
  Se  Se23  1  0.14271151  0.64455656  0.59482995  1.0
  Se  Se24  1  0.67699496  0.91436487  0.40188362  1.0
  Se  Se25  1  0.67699496  0.58563513  0.90188362  1.0
  Se  Se26  1  0.32300504  0.41436487  0.09811638  1.0
  Se  Se27  1  0.32300504  0.08563513  0.59811638  1.0
  Se  Se28  1  0.67848395  0.31088756  0.03579024  1.0
  Se  Se29  1  0.67848395  0.18911244  0.53579024  1.0
  Se  Se30  1  0.32151605  0.81088756  0.46420976  1.0
  Se  Se31  1  0.32151605  0.68911244  0.96420976  1.0
  Se  Se32  1  0.39088085  0.12198231  0.14450017  1.0
  Se  Se33  1  0.39088085  0.37801769  0.64450017  1.0
  Se  Se34  1  0.60911915  0.62198231  0.35549983  1.0
  Se  Se35  1  0.60911915  0.87801769  0.85549983  1.0
