# generated using pymatgen
data_CaAlBO4
_symmetry_space_group_name_H-M   'P 1'
_cell_length_a   8.72390933
_cell_length_b   8.72390933
_cell_length_c   5.80749228
_cell_angle_alpha   90.00000000
_cell_angle_beta   90.00000000
_cell_angle_gamma   122.61378624
_symmetry_Int_Tables_number   1
_chemical_formula_structural   CaAlBO4
_chemical_formula_sum   'Ca4 Al4 B4 O16'
_cell_volume   372.29692627
_cell_formula_units_Z   4
loop_
 _symmetry_equiv_pos_site_id
 _symmetry_equiv_pos_as_xyz
  1  'x, y, z'
loop_
 _atom_site_type_symbol
 _atom_site_label
 _atom_site_symmetry_multiplicity
 _atom_site_fract_x
 _atom_site_fract_y
 _atom_site_fract_z
 _atom_site_occupancy
  Ca  Ca0  1  0.45199963  1.26480688  0.22659038  1.0
  Ca  Ca1  1  0.26480688  0.45199963  0.72659038  1.0
  Ca  Ca2  1  -0.26480688  0.54800037  0.72659038  1.0
  Ca  Ca3  1  0.54800037  0.73519312  0.22659038  1.0
  Al  Al4  1  0.19082810  0.78335213  -0.00147970  1.0
  Al  Al5  1  0.78335213  1.19082810  0.49852030  1.0
  Al  Al6  1  0.21664787  0.80917190  0.49852030  1.0
  Al  Al7  1  -0.19082810  0.21664787  -0.00147970  1.0
  B  B8  1  -0.12823166  0.65472813  0.26089192  1.0
  B  B9  1  0.65472813  0.87176834  0.76089192  1.0
  B  B10  1  0.34527187  1.12823166  0.76089192  1.0
  B  B11  1  0.12823166  0.34527187  0.26089192  1.0
  O  O12  1  -0.02116077  0.71713623  0.45814153  1.0
  O  O13  1  0.71713623  0.97883923  0.95814153  1.0
  O  O14  1  0.28286377  1.02116077  0.95814153  1.0
  O  O15  1  0.02116077  0.28286377  0.45814153  1.0
  O  O16  1  -0.05079862  0.67658937  0.04403024  1.0
  O  O17  1  0.67658937  0.94920138  0.54403024  1.0
  O  O18  1  0.32341063  1.05079862  0.54403024  1.0
  O  O19  1  0.05079862  0.32341063  0.04403024  1.0
  O  O20  1  -0.31212403  0.57213383  0.28982758  1.0
  O  O21  1  0.57213383  0.68787597  0.78982758  1.0
  O  O22  1  0.42786617  1.31212403  0.78982758  1.0
  O  O23  1  0.31212403  0.42786617  0.28982758  1.0
  O  O24  1  0.70200586  1.23217031  0.24519805  1.0
  O  O25  1  0.23217031  0.70200586  0.74519805  1.0
  O  O26  1  -0.23217031  0.29799414  0.74519805  1.0
  O  O27  1  0.29799414  0.76782969  0.24519805  1.0
