# generated using pymatgen
data_Lu2Si2O7
_symmetry_space_group_name_H-M   'P 1'
_cell_length_a   6.60428118
_cell_length_b   12.06334438
_cell_length_c   6.63358099
_cell_angle_alpha   93.83787022
_cell_angle_beta   92.72396671
_cell_angle_gamma   92.23498234
_symmetry_Int_Tables_number   1
_chemical_formula_structural   Lu2Si2O7
_chemical_formula_sum   'Lu8 Si8 O28'
_cell_volume   526.24261932
_cell_formula_units_Z   4
loop_
 _symmetry_equiv_pos_site_id
 _symmetry_equiv_pos_as_xyz
  1  'x, y, z'
loop_
 _atom_site_type_symbol
 _atom_site_label
 _atom_site_symmetry_multiplicity
 _atom_site_fract_x
 _atom_site_fract_y
 _atom_site_fract_z
 _atom_site_occupancy
  Lu  Lu0  1  -0.63788101  -0.36382692  -0.78328886  1.0
  Lu  Lu1  1  -0.36211899  -0.63617308  -0.21671114  1.0
  Lu  Lu2  1  -0.67164366  -0.88986915  -0.17680960  1.0
  Lu  Lu3  1  -0.32835634  -0.11013085  -0.82319040  1.0
  Lu  Lu4  1  -0.87798203  -0.64817931  -0.91650248  1.0
  Lu  Lu5  1  -0.12201797  -0.35182069  -0.08349752  1.0
  Lu  Lu6  1  -0.95380692  -0.88652200  -0.67302897  1.0
  Lu  Lu7  1  -0.04619308  -0.11347800  -0.32697103  1.0
  Si  Si8  1  -0.48654491  -0.82514555  -0.66782412  1.0
  Si  Si9  1  -0.51345509  -0.17485445  -0.33217588  1.0
  Si  Si10  1  -0.37609457  -0.59223490  -0.72498525  1.0
  Si  Si11  1  -0.62390543  -0.40776510  -0.27501475  1.0
  Si  Si12  1  -0.84423295  -0.11289093  -0.85141520  1.0
  Si  Si13  1  -0.15576705  -0.88710907  -0.14858480  1.0
  Si  Si14  1  -0.85315533  -0.62666696  -0.38037093  1.0
  Si  Si15  1  -0.14684467  -0.37333304  -0.61962907  1.0
  O  O16  1  -0.22381072  -0.61930560  -0.90404442  1.0
  O  O17  1  -0.77618928  -0.38069440  -0.09595558  1.0
  O  O18  1  -0.29980118  -0.90721926  -0.70424512  1.0
  O  O19  1  -0.70019882  -0.09278074  -0.29575488  1.0
  O  O20  1  -0.39804640  -0.69388840  -0.56565378  1.0
  O  O21  1  -0.60195360  -0.30611160  -0.43434622  1.0
  O  O22  1  -0.58967834  -0.54907241  -0.82223610  1.0
  O  O23  1  -0.41032166  -0.45092759  -0.17776390  1.0
  O  O24  1  -0.60861390  -0.78590159  -0.87142783  1.0
  O  O25  1  -0.39138610  -0.21409841  -0.12857217  1.0
  O  O26  1  -0.64902690  -0.87551017  -0.51610099  1.0
  O  O27  1  -0.35097310  -0.12448983  -0.48389901  1.0
  O  O28  1  -0.64975786  -0.18276858  -0.78697098  1.0
  O  O29  1  -0.35024214  -0.81723142  -0.21302902  1.0
  O  O30  1  -0.72339888  -0.51139318  -0.42979278  1.0
  O  O31  1  -0.27660112  -0.48860682  -0.57020722  1.0
  O  O32  1  -0.70260645  -0.69080009  -0.22124593  1.0
  O  O33  1  -0.29739355  -0.30919991  -0.77875407  1.0
  O  O34  1  -0.77044309  -0.99133137  -0.91800688  1.0
  O  O35  1  -0.22955691  -0.00866863  -0.08199312  1.0
  O  O36  1  -0.92081870  -0.69471865  -0.59410307  1.0
  O  O37  1  -0.07918130  -0.30528135  -0.40589693  1.0
  O  O38  1  -0.99890852  -0.91821575  -0.33289075  1.0
  O  O39  1  -0.00109148  -0.08178425  -0.66710925  1.0
  O  O40  1  -0.96393645  -0.40642811  -0.76864986  1.0
  O  O41  1  -0.03606355  -0.59357189  -0.23135014  1.0
  O  O42  1  -1.00323957  -0.81543107  -0.98106335  1.0
  O  O43  1  0.00323957  -0.18456893  -0.01893665  1.0
