# generated using pymatgen
data_Cs2Cu(BrCl)2
_symmetry_space_group_name_H-M   'P 1'
_cell_length_a   10.60289510
_cell_length_b   7.80830469
_cell_length_c   12.67871996
_cell_angle_alpha   90.00000000
_cell_angle_beta   90.00000000
_cell_angle_gamma   90.00000000
_symmetry_Int_Tables_number   1
_chemical_formula_structural   Cs2Cu(BrCl)2
_chemical_formula_sum   'Cs8 Cu4 Br8 Cl8'
_cell_volume   1049.67928240
_cell_formula_units_Z   4
loop_
 _symmetry_equiv_pos_site_id
 _symmetry_equiv_pos_as_xyz
  1  'x, y, z'
loop_
 _atom_site_type_symbol
 _atom_site_label
 _atom_site_symmetry_multiplicity
 _atom_site_fract_x
 _atom_site_fract_y
 _atom_site_fract_z
 _atom_site_occupancy
  Br  Br0  1  -0.00288682  0.75000000  0.13171058  1.0
  Br  Br1  1  0.49711318  0.75000000  0.36828942  1.0
  Br  Br2  1  1.00288682  0.25000000  0.86828942  1.0
  Br  Br3  1  0.50288682  0.25000000  0.63171058  1.0
  Br  Br4  1  0.14665797  0.75000000  0.56629710  1.0
  Br  Br5  1  0.64665797  0.75000000  0.93370290  1.0
  Br  Br6  1  0.85334203  0.25000000  0.43370290  1.0
  Br  Br7  1  0.35334203  0.25000000  0.06629710  1.0
  Cs  Cs8  1  0.85264598  0.75000000  0.40907923  1.0
  Cs  Cs9  1  0.35264598  0.75000000  0.09092077  1.0
  Cs  Cs10  1  0.14735402  0.25000000  0.59092077  1.0
  Cs  Cs11  1  0.64735402  0.25000000  0.90907923  1.0
  Cs  Cs12  1  0.47927497  0.75000000  0.67409958  1.0
  Cs  Cs13  1  0.97927497  0.75000000  0.82590042  1.0
  Cs  Cs14  1  0.52072503  0.25000000  0.32590042  1.0
  Cs  Cs15  1  0.02072503  0.25000000  0.17409958  1.0
  Cu  Cu16  1  0.76923223  0.75000000  0.09757276  1.0
  Cu  Cu17  1  0.26923223  0.75000000  0.40242724  1.0
  Cu  Cu18  1  0.23076777  0.25000000  0.90242724  1.0
  Cu  Cu19  1  0.73076777  0.25000000  0.59757276  1.0
  Cl  Cl20  1  0.73174523  0.01969023  0.14545730  1.0
  Cl  Cl21  1  0.73174523  0.48030977  0.14545730  1.0
  Cl  Cl22  1  0.23174523  0.01969023  0.35454270  1.0
  Cl  Cl23  1  0.23174523  0.48030977  0.35454270  1.0
  Cl  Cl24  1  0.26825477  0.51969023  0.85454270  1.0
  Cl  Cl25  1  0.26825477  0.98030977  0.85454270  1.0
  Cl  Cl26  1  0.76825477  0.51969023  0.64545730  1.0
  Cl  Cl27  1  0.76825477  0.98030977  0.64545730  1.0
