# generated using pymatgen
data_Gd3VGeO9
_symmetry_space_group_name_H-M   'P 1'
_cell_length_a   7.00351479
_cell_length_b   12.37786651
_cell_length_c   9.71995407
_cell_angle_alpha   90.00000000
_cell_angle_beta   114.84912792
_cell_angle_gamma   90.00000000
_symmetry_Int_Tables_number   1
_chemical_formula_structural   Gd3VGeO9
_chemical_formula_sum   'Gd12 V4 Ge4 O36'
_cell_volume   764.59807917
_cell_formula_units_Z   4
loop_
 _symmetry_equiv_pos_site_id
 _symmetry_equiv_pos_as_xyz
  1  'x, y, z'
loop_
 _atom_site_type_symbol
 _atom_site_label
 _atom_site_symmetry_multiplicity
 _atom_site_fract_x
 _atom_site_fract_y
 _atom_site_fract_z
 _atom_site_occupancy
  Gd  Gd0  1  0.94581849  0.13395598  0.11783200  1.0
  Gd  Gd1  1  0.94581849  0.36604402  0.61783200  1.0
  Gd  Gd2  1  0.05418151  0.63395598  0.38216800  1.0
  Gd  Gd3  1  0.05418151  0.86604402  0.88216800  1.0
  Gd  Gd4  1  0.60142008  0.13753600  0.34159196  1.0
  Gd  Gd5  1  0.60142008  0.36246400  0.84159196  1.0
  Gd  Gd6  1  0.39857992  0.63753600  0.15840804  1.0
  Gd  Gd7  1  0.39857992  0.86246400  0.65840804  1.0
  Gd  Gd8  1  0.36874019  0.39596118  0.37054060  1.0
  Gd  Gd9  1  0.36874019  0.10403882  0.87054060  1.0
  Gd  Gd10  1  0.63125981  0.89596118  0.12945940  1.0
  Gd  Gd11  1  0.63125981  0.60403882  0.62945940  1.0
  V  V12  1  0.78284056  0.83904142  0.48409608  1.0
  V  V13  1  0.78284056  0.66095858  0.98409608  1.0
  V  V14  1  0.21715944  0.33904142  0.01590392  1.0
  V  V15  1  0.21715944  0.16095858  0.51590392  1.0
  Ge  Ge16  1  0.80713030  0.40326118  0.25353170  1.0
  Ge  Ge17  1  0.80713030  0.09673882  0.75353170  1.0
  Ge  Ge18  1  0.19286970  0.90326118  0.24646830  1.0
  Ge  Ge19  1  0.19286970  0.59673882  0.74646830  1.0
  O  O20  1  0.97176360  0.15907071  0.36542823  1.0
  O  O21  1  0.97176360  0.34092929  0.86542823  1.0
  O  O22  1  0.02823640  0.65907071  0.13457177  1.0
  O  O23  1  0.02823640  0.84092929  0.63457177  1.0
  O  O24  1  0.93343546  0.92678917  0.09533810  1.0
  O  O25  1  0.93343546  0.57321083  0.59533810  1.0
  O  O26  1  0.06656454  0.42678917  0.40466190  1.0
  O  O27  1  0.06656454  0.07321083  0.90466190  1.0
  O  O28  1  0.81778526  0.32965168  0.10311205  1.0
  O  O29  1  0.81778526  0.17034832  0.60311205  1.0
  O  O30  1  0.18221474  0.82965168  0.39688795  1.0
  O  O31  1  0.18221474  0.67034832  0.89688795  1.0
  O  O32  1  0.76986978  0.75396713  0.33934431  1.0
  O  O33  1  0.76986978  0.74603287  0.83934431  1.0
  O  O34  1  0.23013022  0.25396713  0.16065569  1.0
  O  O35  1  0.23013022  0.24603287  0.66065569  1.0
  O  O36  1  0.70548188  0.95898571  0.38577490  1.0
  O  O37  1  0.70548188  0.54101429  0.88577490  1.0
  O  O38  1  0.29451812  0.45898571  0.11422510  1.0
  O  O39  1  0.29451812  0.04101429  0.61422510  1.0
  O  O40  1  0.68312319  0.33237829  0.35701322  1.0
  O  O41  1  0.68312319  0.16762171  0.85701322  1.0
  O  O42  1  0.31687681  0.83237829  0.14298678  1.0
  O  O43  1  0.31687681  0.66762171  0.64298678  1.0
  O  O44  1  0.61689288  0.08095919  0.11430013  1.0
  O  O45  1  0.61689288  0.41904081  0.61430013  1.0
  O  O46  1  0.38310712  0.58095919  0.38569987  1.0
  O  O47  1  0.38310712  0.91904081  0.88569987  1.0
  O  O48  1  0.39609968  0.21600935  0.46039302  1.0
  O  O49  1  0.39609968  0.28399065  0.96039302  1.0
  O  O50  1  0.60390032  0.71600935  0.03960698  1.0
  O  O51  1  0.60390032  0.78399065  0.53960698  1.0
  O  O52  1  0.27686737  0.03967440  0.27562255  1.0
  O  O53  1  0.27686737  0.46032560  0.77562255  1.0
  O  O54  1  0.72313263  0.53967440  0.22437745  1.0
  O  O55  1  0.72313263  0.96032560  0.72437745  1.0
