# generated using pymatgen
data_Rb2GdF5
_symmetry_space_group_name_H-M   'P 1'
_cell_length_a   11.55352551
_cell_length_b   7.00465742
_cell_length_c   7.59883387
_cell_angle_alpha   90.00000000
_cell_angle_beta   90.00000000
_cell_angle_gamma   90.00000000
_symmetry_Int_Tables_number   1
_chemical_formula_structural   Rb2GdF5
_chemical_formula_sum   'Rb8 Gd4 F20'
_cell_volume   614.96213766
_cell_formula_units_Z   4
loop_
 _symmetry_equiv_pos_site_id
 _symmetry_equiv_pos_as_xyz
  1  'x, y, z'
loop_
 _atom_site_type_symbol
 _atom_site_label
 _atom_site_symmetry_multiplicity
 _atom_site_fract_x
 _atom_site_fract_y
 _atom_site_fract_z
 _atom_site_occupancy
  Rb  Rb0  1  0.32915976  0.03463393  0.52082019  1.0
  Rb  Rb1  1  0.82915976  0.46536607  0.52082019  1.0
  Rb  Rb2  1  0.67084024  0.96536607  0.02082019  1.0
  Rb  Rb3  1  0.17084024  0.53463393  0.02082019  1.0
  Rb  Rb4  1  0.17096052  0.53452301  0.51591685  1.0
  Rb  Rb5  1  0.67096052  0.96547699  0.51591685  1.0
  Rb  Rb6  1  0.82903948  0.46547699  0.01591685  1.0
  Rb  Rb7  1  0.32903948  0.03452301  0.01591685  1.0
  Gd  Gd8  1  -0.00217097  0.93979665  0.76838115  1.0
  Gd  Gd9  1  0.49782903  0.56020335  0.76838115  1.0
  Gd  Gd10  1  1.00217097  0.06020335  0.26838115  1.0
  Gd  Gd11  1  0.50217097  0.43979665  0.26838115  1.0
  F  F12  1  0.48490261  0.88024854  0.76830919  1.0
  F  F13  1  0.98490261  0.61975146  0.76830919  1.0
  F  F14  1  0.51509739  0.11975146  0.26830919  1.0
  F  F15  1  0.01509739  0.38024854  0.26830919  1.0
  F  F16  1  0.42838074  0.64329281  0.05259200  1.0
  F  F17  1  0.92838074  0.85670719  0.05259200  1.0
  F  F18  1  0.57161926  0.35670719  0.55259200  1.0
  F  F19  1  0.07161926  0.14329281  0.55259200  1.0
  F  F20  1  0.42825264  0.64313907  0.48418093  1.0
  F  F21  1  0.92825264  0.85686093  0.48418093  1.0
  F  F22  1  0.57174736  0.35686093  -0.01581907  1.0
  F  F23  1  0.07174736  0.14313907  -0.01581907  1.0
  F  F24  1  0.18511933  0.84699454  0.76828688  1.0
  F  F25  1  0.68511933  0.65300546  0.76828688  1.0
  F  F26  1  0.81488067  0.15300546  0.26828688  1.0
  F  F27  1  0.31488067  0.34699454  0.26828688  1.0
  F  F28  1  0.16291642  0.87790505  0.26851280  1.0
  F  F29  1  0.66291642  0.62209495  0.26851280  1.0
  F  F30  1  0.83708358  0.12209495  0.76851280  1.0
  F  F31  1  0.33708358  0.37790505  0.76851280  1.0
