# generated using pymatgen
data_TlSb(PS3)2
_symmetry_space_group_name_H-M   'P 1'
_cell_length_a   6.72528564
_cell_length_b   8.06969156
_cell_length_c   9.84674191
_cell_angle_alpha   90.00000000
_cell_angle_beta   91.70649809
_cell_angle_gamma   90.00000000
_symmetry_Int_Tables_number   1
_chemical_formula_structural   TlSb(PS3)2
_chemical_formula_sum   'Tl2 Sb2 P4 S12'
_cell_volume   534.15533161
_cell_formula_units_Z   2
loop_
 _symmetry_equiv_pos_site_id
 _symmetry_equiv_pos_as_xyz
  1  'x, y, z'
loop_
 _atom_site_type_symbol
 _atom_site_label
 _atom_site_symmetry_multiplicity
 _atom_site_fract_x
 _atom_site_fract_y
 _atom_site_fract_z
 _atom_site_occupancy
  Tl  Tl0  1  0.81672014  0.20429427  0.98364824  1.0
  Tl  Tl1  1  0.18327986  0.70429427  0.01635176  1.0
  Sb  Sb2  1  0.67871230  0.51106170  0.51853855  1.0
  Sb  Sb3  1  0.32128770  0.01106170  0.48146145  1.0
  P  P4  1  0.69971790  0.70672696  0.80270922  1.0
  P  P5  1  0.30028210  0.20672696  0.19729078  1.0
  P  P6  1  0.80593785  0.91428845  0.66767961  1.0
  P  P7  1  0.19406215  0.41428845  0.33232039  1.0
  S  S8  1  0.59784501  0.10311598  0.66868425  1.0
  S  S9  1  0.40215499  0.60311598  0.33131575  1.0
  S  S10  1  0.90519259  0.52616709  0.77082849  1.0
  S  S11  1  0.09480741  0.02616709  0.22917151  1.0
  S  S12  1  0.82074277  0.80211106  0.47622827  1.0
  S  S13  1  0.17925723  0.30211106  0.52377173  1.0
  S  S14  1  0.44305054  0.63661994  0.69480237  1.0
  S  S15  1  0.55694946  0.13661994  0.30519763  1.0
  S  S16  1  0.92962391  0.49447292  0.25750913  1.0
  S  S17  1  0.07037609  -0.00552708  0.74249087  1.0
  S  S18  1  0.66852482  0.79215165  0.98935476  1.0
  S  S19  1  0.33147518  0.29215165  0.01064524  1.0
