# generated using pymatgen
data_ZnP2(HO)4
_symmetry_space_group_name_H-M   'P 1'
_cell_length_a   6.60498893
_cell_length_b   5.44674934
_cell_length_c   7.67945727
_cell_angle_alpha   90.00000000
_cell_angle_beta   90.00000000
_cell_angle_gamma   90.00000000
_symmetry_Int_Tables_number   1
_chemical_formula_structural   ZnP2(HO)4
_chemical_formula_sum   'Zn2 P4 H8 O8'
_cell_volume   276.27399763
_cell_formula_units_Z   2
loop_
 _symmetry_equiv_pos_site_id
 _symmetry_equiv_pos_as_xyz
  1  'x, y, z'
loop_
 _atom_site_type_symbol
 _atom_site_label
 _atom_site_symmetry_multiplicity
 _atom_site_fract_x
 _atom_site_fract_y
 _atom_site_fract_z
 _atom_site_occupancy
  Zn  Zn0  1  0.00000000  0.50000000  -0.00000000  1.0
  Zn  Zn1  1  0.50000000  0.50000000  -0.00000000  1.0
  P  P2  1  0.75000000  0.00000000  0.85928518  1.0
  P  P3  1  0.25000000  0.00000000  0.14071482  1.0
  P  P4  1  0.75000000  0.50000000  0.36016103  1.0
  P  P5  1  0.25000000  0.50000000  0.63983897  1.0
  H  H6  1  0.92105382  0.00000000  0.74833958  1.0
  H  H7  1  0.07894618  0.00000000  0.25166042  1.0
  H  H8  1  0.57894618  0.00000000  0.74833958  1.0
  H  H9  1  0.42105382  0.00000000  0.25166042  1.0
  H  H10  1  0.75000000  0.29535734  0.47509542  1.0
  H  H11  1  0.25000000  0.29535734  0.52490458  1.0
  H  H12  1  0.25000000  0.70464266  0.52490458  1.0
  H  H13  1  0.75000000  0.70464266  0.47509542  1.0
  O  O14  1  0.75000000  0.76066188  0.96597787  1.0
  O  O15  1  0.25000000  0.76066188  0.03402213  1.0
  O  O16  1  0.25000000  0.23933812  0.03402213  1.0
  O  O17  1  0.75000000  0.23933812  0.96597787  1.0
  O  O18  1  0.95016376  0.50000000  0.25971120  1.0
  O  O19  1  0.04983624  0.50000000  0.74028880  1.0
  O  O20  1  0.54983624  0.50000000  0.25971120  1.0
  O  O21  1  0.45016376  0.50000000  0.74028880  1.0
