# generated using pymatgen
data_CdPHO3
_symmetry_space_group_name_H-M   'P 1'
_cell_length_a   8.44257435
_cell_length_b   8.44257435
_cell_length_c   8.44257435
_cell_angle_alpha   109.23620957
_cell_angle_beta   109.23620957
_cell_angle_gamma   109.23620957
_symmetry_Int_Tables_number   1
_chemical_formula_structural   CdPHO3
_chemical_formula_sum   'Cd6 P6 H6 O18'
_cell_volume   467.22369739
_cell_formula_units_Z   6
loop_
 _symmetry_equiv_pos_site_id
 _symmetry_equiv_pos_as_xyz
  1  'x, y, z'
loop_
 _atom_site_type_symbol
 _atom_site_label
 _atom_site_symmetry_multiplicity
 _atom_site_fract_x
 _atom_site_fract_y
 _atom_site_fract_z
 _atom_site_occupancy
  Cd  Cd0  1  0.68403952  0.85686737  0.17667733  1.0
  Cd  Cd1  1  1.14313263  -0.17667733  0.31596048  1.0
  Cd  Cd2  1  0.82332267  0.31596048  0.14313263  1.0
  Cd  Cd3  1  1.31596048  0.14313263  -0.17667733  1.0
  Cd  Cd4  1  0.85686737  1.17667733  -0.31596048  1.0
  Cd  Cd5  1  1.17667733  0.68403952  -0.14313263  1.0
  P  P6  1  1.52516419  0.88118734  -0.26498898  1.0
  P  P7  1  1.11881266  0.26498898  -0.52516419  1.0
  P  P8  1  1.26498898  -0.52516419  0.11881266  1.0
  P  P9  1  0.47483581  0.11881266  0.26498898  1.0
  P  P10  1  0.88118734  0.73501102  0.52516419  1.0
  P  P11  1  0.73501102  1.52516419  -0.11881266  1.0
  H  H12  1  1.59359251  0.52402737  -0.26751468  1.0
  H  H13  1  0.47597263  1.26751468  -0.59359251  1.0
  H  H14  1  1.26751468  0.40640749  -0.52402737  1.0
  H  H15  1  0.40640749  0.47597263  0.26751468  1.0
  H  H16  1  1.52402737  -0.26751468  0.59359251  1.0
  H  H17  1  0.73248532  0.59359251  0.52402737  1.0
  O  O18  1  0.84502452  0.73021443  0.05768472  1.0
  O  O19  1  1.26978557  -0.05768472  0.15497548  1.0
  O  O20  1  0.94231528  0.15497548  0.26978557  1.0
  O  O21  1  1.15497548  0.26978557  -0.05768472  1.0
  O  O22  1  0.73021443  1.05768472  -0.15497548  1.0
  O  O23  1  1.05768472  0.84502452  -0.26978557  1.0
  O  O24  1  0.92046036  0.62549984  0.36901621  1.0
  O  O25  1  0.37450016  0.63098379  0.07953964  1.0
  O  O26  1  0.63098379  1.07953964  -0.62549984  1.0
  O  O27  1  1.07953964  0.37450016  -0.36901621  1.0
  O  O28  1  1.62549984  0.36901621  -0.07953964  1.0
  O  O29  1  1.36901621  -0.07953964  0.62549984  1.0
  O  O30  1  1.47996938  0.80995171  -0.12973441  1.0
  O  O31  1  1.19004829  0.12973441  -0.47996938  1.0
  O  O32  1  1.12973441  -0.47996938  0.19004829  1.0
  O  O33  1  0.52003062  0.19004829  0.12973441  1.0
  O  O34  1  0.80995171  0.87026559  0.47996938  1.0
  O  O35  1  0.87026559  1.47996938  -0.19004829  1.0
