# generated using pymatgen
data_La4Ni3O10
_symmetry_space_group_name_H-M   'P 1'
_cell_length_a   15.99796355
_cell_length_b   15.99796355
_cell_length_c   5.69486771
_cell_angle_alpha   90.00000000
_cell_angle_beta   90.00000000
_cell_angle_gamma   160.78760018
_symmetry_Int_Tables_number   1
_chemical_formula_structural   La4Ni3O10
_chemical_formula_sum   'La8 Ni6 O20'
_cell_volume   479.62595979
_cell_formula_units_Z   2
loop_
 _symmetry_equiv_pos_site_id
 _symmetry_equiv_pos_as_xyz
  1  'x, y, z'
loop_
 _atom_site_type_symbol
 _atom_site_label
 _atom_site_symmetry_multiplicity
 _atom_site_fract_x
 _atom_site_fract_y
 _atom_site_fract_z
 _atom_site_occupancy
  La  La0  1  0.20494274  0.79505726  0.52025164  1.0
  La  La1  1  0.29505726  0.70494274  1.02025164  1.0
  La  La2  1  -0.20494274  0.20494274  0.47974836  1.0
  La  La3  1  -0.29505726  0.29505726  -0.02025164  1.0
  La  La4  1  0.05843585  0.94156415  0.50386360  1.0
  La  La5  1  0.44156415  0.55843585  1.00386360  1.0
  La  La6  1  -0.05843585  0.05843585  0.49613640  1.0
  La  La7  1  -0.44156415  0.44156415  -0.00386360  1.0
  Ni  Ni8  1  -0.50000000  0.50000000  0.50000000  1.0
  Ni  Ni9  1  0.00000000  1.00000000  0.00000000  1.0
  Ni  Ni10  1  0.37732957  0.62267043  0.47131196  1.0
  Ni  Ni11  1  0.12267043  0.87732957  0.97131196  1.0
  Ni  Ni12  1  -0.37732957  0.37732957  0.52868804  1.0
  Ni  Ni13  1  -0.12267043  0.12267043  0.02868804  1.0
  O  O14  1  0.58863330  0.91136670  0.75000000  1.0
  O  O15  1  -0.08863330  0.58863330  0.25000000  1.0
  O  O16  1  0.41136670  1.08863330  0.25000000  1.0
  O  O17  1  0.08863330  0.41136670  0.75000000  1.0
  O  O18  1  0.63462384  0.86537616  0.75000000  1.0
  O  O19  1  -0.13462384  0.63462384  0.25000000  1.0
  O  O20  1  0.36537616  1.13462384  0.25000000  1.0
  O  O21  1  0.13462384  0.36537616  0.75000000  1.0
  O  O22  1  0.27543063  0.72456937  0.41807054  1.0
  O  O23  1  0.22456937  0.77543063  -0.08192946  1.0
  O  O24  1  -0.27543063  0.27543063  0.58192946  1.0
  O  O25  1  -0.22456937  0.22456937  1.08192946  1.0
  O  O26  1  0.74019514  0.75980486  0.75000000  1.0
  O  O27  1  -0.24019514  0.74019514  0.25000000  1.0
  O  O28  1  0.25980486  1.24019514  0.25000000  1.0
  O  O29  1  0.24019514  0.25980486  0.75000000  1.0
  O  O30  1  0.43525757  0.56474243  0.40928742  1.0
  O  O31  1  0.06474243  0.93525757  0.90928742  1.0
  O  O32  1  -0.43525757  0.43525757  0.59071258  1.0
  O  O33  1  -0.06474243  0.06474243  0.09071258  1.0
