# generated using pymatgen
data_Cs2Mo(SO)2
_symmetry_space_group_name_H-M   'P 1'
_cell_length_a   7.32539399
_cell_length_b   7.32539399
_cell_length_c   10.81395798
_cell_angle_alpha   62.21431954
_cell_angle_beta   117.78568046
_cell_angle_gamma   116.16220493
_symmetry_Int_Tables_number   1
_chemical_formula_structural   Cs2Mo(SO)2
_chemical_formula_sum   'Cs4 Mo2 S4 O4'
_cell_volume   435.25952733
_cell_formula_units_Z   2
loop_
 _symmetry_equiv_pos_site_id
 _symmetry_equiv_pos_as_xyz
  1  'x, y, z'
loop_
 _atom_site_type_symbol
 _atom_site_label
 _atom_site_symmetry_multiplicity
 _atom_site_fract_x
 _atom_site_fract_y
 _atom_site_fract_z
 _atom_site_occupancy
  Cs  Cs0  1  1.66051600  0.23409177  0.82928682  1.0
  Cs  Cs1  1  0.76590823  0.33948400  0.32928682  1.0
  Cs  Cs2  1  1.23409177  0.66051600  0.67071318  1.0
  Cs  Cs3  1  1.33948400  -0.23409177  0.17071318  1.0
  Mo  Mo4  1  0.92523358  0.92523358  0.75000000  1.0
  Mo  Mo5  1  1.07476642  0.07476642  0.25000000  1.0
  S  S6  1  1.73741061  -0.22379768  0.57129216  1.0
  S  S7  1  1.22379768  -0.73741061  0.07129216  1.0
  S  S8  1  0.77620232  -0.26258939  0.92870784  1.0
  S  S9  1  1.26258939  0.22379768  0.42870784  1.0
  O  O10  1  0.19320926  -0.08388284  0.82399010  1.0
  O  O11  1  1.08388284  0.80679074  0.32399010  1.0
  O  O12  1  0.91611716  0.19320926  0.67600990  1.0
  O  O13  1  0.80679074  0.08388284  0.17600990  1.0
