# generated using pymatgen
data_BaMnP(O2F)2
_symmetry_space_group_name_H-M   'P 1'
_cell_length_a   5.33697843
_cell_length_b   13.04913813
_cell_length_c   7.87321270
_cell_angle_alpha   90.00000000
_cell_angle_beta   115.40006442
_cell_angle_gamma   90.00000000
_symmetry_Int_Tables_number   1
_chemical_formula_structural   BaMnP(O2F)2
_chemical_formula_sum   'Ba4 Mn4 P4 O16 F8'
_cell_volume   495.31103825
_cell_formula_units_Z   4
loop_
 _symmetry_equiv_pos_site_id
 _symmetry_equiv_pos_as_xyz
  1  'x, y, z'
loop_
 _atom_site_type_symbol
 _atom_site_label
 _atom_site_symmetry_multiplicity
 _atom_site_fract_x
 _atom_site_fract_y
 _atom_site_fract_z
 _atom_site_occupancy
  Ba  Ba0  1  0.34582224  0.20482502  0.30255614  1.0
  Ba  Ba1  1  0.34582224  0.29517498  0.80255614  1.0
  Ba  Ba2  1  0.65417776  0.70482502  0.19744386  1.0
  Ba  Ba3  1  0.65417776  0.79517498  0.69744386  1.0
  Mn  Mn4  1  0.00000000  0.50000000  0.00000000  1.0
  Mn  Mn5  1  0.00000000  0.00000000  0.50000000  1.0
  Mn  Mn6  1  0.50000000  0.50000000  0.50000000  1.0
  Mn  Mn7  1  0.50000000  0.00000000  -0.00000000  1.0
  P  P8  1  0.85796522  0.38649718  0.29807910  1.0
  P  P9  1  0.85796522  0.11350282  0.79807910  1.0
  P  P10  1  0.14203478  0.88649718  0.20192090  1.0
  P  P11  1  0.14203478  0.61350282  0.70192090  1.0
  O  O12  1  0.81539001  0.48052858  0.16135747  1.0
  O  O13  1  0.81539001  0.01947142  0.66135747  1.0
  O  O14  1  0.18460999  0.98052858  0.33864253  1.0
  O  O15  1  0.18460999  0.51947142  0.83864253  1.0
  O  O16  1  0.82854965  0.87685303  0.06356271  1.0
  O  O17  1  0.82854965  0.62314697  0.56356271  1.0
  O  O18  1  0.17145035  0.37685303  0.43643729  1.0
  O  O19  1  0.17145035  0.12314697  0.93643729  1.0
  O  O20  1  0.74887474  0.28689996  0.18601417  1.0
  O  O21  1  0.74887474  0.21310004  0.68601417  1.0
  O  O22  1  0.25112526  0.78689996  0.31398583  1.0
  O  O23  1  0.25112526  0.71310004  0.81398583  1.0
  O  O24  1  0.69170137  0.40473322  0.41843722  1.0
  O  O25  1  0.69170137  0.09526678  0.91843722  1.0
  O  O26  1  0.30829863  0.90473322  0.08156278  1.0
  O  O27  1  0.30829863  0.59526678  0.58156278  1.0
  F  F28  1  0.85510395  0.86639787  0.45763109  1.0
  F  F29  1  0.85510395  0.63360213  0.95763109  1.0
  F  F30  1  0.14489605  0.36639787  0.04236891  1.0
  F  F31  1  0.14489605  0.13360213  0.54236891  1.0
  F  F32  1  0.65831602  0.05854744  0.24782426  1.0
  F  F33  1  0.65831602  0.44145256  0.74782426  1.0
  F  F34  1  0.34168398  0.55854744  0.25217574  1.0
  F  F35  1  0.34168398  0.94145256  0.75217574  1.0
