# generated using pymatgen
data_V2Cu2O7
_symmetry_space_group_name_H-M   'P 1'
_cell_length_a   5.03133979
_cell_length_b   9.78734743
_cell_length_c   6.11297705
_cell_angle_alpha   100.98411987
_cell_angle_beta   96.78112538
_cell_angle_gamma   98.73247355
_symmetry_Int_Tables_number   1
_chemical_formula_structural   V2Cu2O7
_chemical_formula_sum   'V4 Cu4 O14'
_cell_volume   288.71227815
_cell_formula_units_Z   2
loop_
 _symmetry_equiv_pos_site_id
 _symmetry_equiv_pos_as_xyz
  1  'x, y, z'
loop_
 _atom_site_type_symbol
 _atom_site_label
 _atom_site_symmetry_multiplicity
 _atom_site_fract_x
 _atom_site_fract_y
 _atom_site_fract_z
 _atom_site_occupancy
  V  V0  1  -0.79005990  -0.19653624  -0.76071424  1.0
  V  V1  1  -0.20994010  -0.80346376  -0.23928576  1.0
  V  V2  1  -0.66133626  -0.72655217  -0.63857244  1.0
  V  V3  1  -0.33866374  -0.27344783  -0.36142756  1.0
  O  O4  1  -0.41432184  -0.81225010  -0.49825625  1.0
  O  O5  1  -0.58567816  -0.18774990  -0.50174375  1.0
  O  O6  1  -0.59934969  -0.10677651  -0.92670371  1.0
  O  O7  1  -0.40065031  -0.89322349  -0.07329629  1.0
  O  O8  1  -0.89192900  -0.37499029  -0.90176433  1.0
  O  O9  1  -0.10807100  -0.62500971  -0.09823567  1.0
  O  O10  1  -0.90046241  -0.85705322  -0.81586064  1.0
  O  O11  1  -0.09953759  -0.14294678  -0.18413936  1.0
  O  O12  1  -0.80568275  -0.62377597  -0.44962622  1.0
  O  O13  1  -0.19431725  -0.37622403  -0.55037378  1.0
  O  O14  1  -0.94020385  -0.87969434  -0.29205862  1.0
  O  O15  1  -0.05979615  -0.12030566  -0.70794138  1.0
  O  O16  1  -0.50000144  -0.62932460  -0.80087363  1.0
  O  O17  1  -0.49999856  -0.37067540  -0.19912637  1.0
  Cu  Cu18  1  -0.22293078  -0.99718435  -0.86678114  1.0
  Cu  Cu19  1  -0.77706922  -0.00281565  -0.13321886  1.0
  Cu  Cu20  1  -0.18930834  -0.50289460  -0.82674400  1.0
  Cu  Cu21  1  -0.81069166  -0.49710540  -0.17325600  1.0
