# generated using pymatgen
data_BaGe6
_symmetry_space_group_name_H-M   'P 1'
_cell_length_a   5.97671287
_cell_length_b   5.97671287
_cell_length_c   12.64323180
_cell_angle_alpha   90.00000000
_cell_angle_beta   90.00000000
_cell_angle_gamma   132.36916527
_symmetry_Int_Tables_number   1
_chemical_formula_structural   BaGe6
_chemical_formula_sum   'Ba2 Ge12'
_cell_volume   333.67250645
_cell_formula_units_Z   2
loop_
 _symmetry_equiv_pos_site_id
 _symmetry_equiv_pos_as_xyz
  1  'x, y, z'
loop_
 _atom_site_type_symbol
 _atom_site_label
 _atom_site_symmetry_multiplicity
 _atom_site_fract_x
 _atom_site_fract_y
 _atom_site_fract_z
 _atom_site_occupancy
  Ba  Ba0  1  -0.27091285  0.27091285  0.75000000  1.0
  Ba  Ba1  1  0.27091285  0.72908715  0.25000000  1.0
  Ge  Ge2  1  0.02247221  0.97752779  0.90019243  1.0
  Ge  Ge3  1  0.02247221  0.97752779  0.59980757  1.0
  Ge  Ge4  1  -0.02247221  0.02247221  0.40019243  1.0
  Ge  Ge5  1  -0.02247221  0.02247221  0.09980757  1.0
  Ge  Ge6  1  0.24774227  0.75225773  0.96237452  1.0
  Ge  Ge7  1  0.24774227  0.75225773  0.53762548  1.0
  Ge  Ge8  1  -0.24774227  0.24774227  0.46237452  1.0
  Ge  Ge9  1  -0.24774227  0.24774227  0.03762548  1.0
  Ge  Ge10  1  0.44414596  0.55585404  0.85276108  1.0
  Ge  Ge11  1  0.44414596  0.55585404  0.64723892  1.0
  Ge  Ge12  1  -0.44414596  0.44414596  0.35276108  1.0
  Ge  Ge13  1  -0.44414596  0.44414596  0.14723892  1.0
