# generated using pymatgen
data_Ba2SnTe5
_symmetry_space_group_name_H-M   'P 1'
_cell_length_a   6.94935106
_cell_length_b   24.68012147
_cell_length_c   7.02290855
_cell_angle_alpha   90.00000000
_cell_angle_beta   90.00000000
_cell_angle_gamma   90.00000000
_symmetry_Int_Tables_number   1
_chemical_formula_structural   Ba2SnTe5
_chemical_formula_sum   'Ba8 Sn4 Te20'
_cell_volume   1204.50486308
_cell_formula_units_Z   4
loop_
 _symmetry_equiv_pos_site_id
 _symmetry_equiv_pos_as_xyz
  1  'x, y, z'
loop_
 _atom_site_type_symbol
 _atom_site_label
 _atom_site_symmetry_multiplicity
 _atom_site_fract_x
 _atom_site_fract_y
 _atom_site_fract_z
 _atom_site_occupancy
  Ba  Ba0  1  0.49171297  0.39919804  0.51068731  1.0
  Ba  Ba1  1  0.49171297  0.10080196  0.51068731  1.0
  Ba  Ba2  1  0.99171297  0.39919804  0.98931269  1.0
  Ba  Ba3  1  0.99171297  0.10080196  0.98931269  1.0
  Ba  Ba4  1  0.50828703  0.89919804  0.48931269  1.0
  Ba  Ba5  1  0.50828703  0.60080196  0.48931269  1.0
  Ba  Ba6  1  0.00828703  0.89919804  0.01068731  1.0
  Ba  Ba7  1  0.00828703  0.60080196  0.01068731  1.0
  Sn  Sn8  1  0.09582166  0.25000000  0.58397475  1.0
  Sn  Sn9  1  0.59582166  0.25000000  0.91602525  1.0
  Sn  Sn10  1  0.90417834  0.75000000  0.41602525  1.0
  Sn  Sn11  1  0.40417834  0.75000000  0.08397475  1.0
  Te  Te12  1  0.48852839  0.35593685  0.01653586  1.0
  Te  Te13  1  0.48852839  0.14406315  0.01653586  1.0
  Te  Te14  1  0.98852839  0.35593685  0.48346414  1.0
  Te  Te15  1  0.98852839  0.14406315  0.48346414  1.0
  Te  Te16  1  0.51147161  0.85593685  0.98346414  1.0
  Te  Te17  1  0.51147161  0.64406315  0.98346414  1.0
  Te  Te18  1  0.01147161  0.85593685  0.51653586  1.0
  Te  Te19  1  0.01147161  0.64406315  0.51653586  1.0
  Te  Te20  1  0.14542855  0.99682853  0.64404077  1.0
  Te  Te21  1  0.14542855  0.50317147  0.64404077  1.0
  Te  Te22  1  0.64542855  0.99682853  0.85595923  1.0
  Te  Te23  1  0.64542855  0.50317147  0.85595923  1.0
  Te  Te24  1  0.85457145  0.49682853  0.35595923  1.0
  Te  Te25  1  0.85457145  0.00317147  0.35595923  1.0
  Te  Te26  1  0.35457145  0.49682853  0.14404077  1.0
  Te  Te27  1  0.35457145  0.00317147  0.14404077  1.0
  Te  Te28  1  0.00536760  0.25000000  0.98111414  1.0
  Te  Te29  1  0.50536760  0.25000000  0.51888586  1.0
  Te  Te30  1  0.99463240  0.75000000  0.01888586  1.0
  Te  Te31  1  0.49463240  0.75000000  0.48111414  1.0
