# generated using pymatgen
data_SrSn2Au
_symmetry_space_group_name_H-M   'P 1'
_cell_length_a   10.51884905
_cell_length_b   10.51884905
_cell_length_c   4.71214107
_cell_angle_alpha   90.00000000
_cell_angle_beta   90.00000000
_cell_angle_gamma   154.15444494
_symmetry_Int_Tables_number   1
_chemical_formula_structural   SrSn2Au
_chemical_formula_sum   'Sr2 Sn4 Au2'
_cell_volume   227.29412821
_cell_formula_units_Z   2
loop_
 _symmetry_equiv_pos_site_id
 _symmetry_equiv_pos_as_xyz
  1  'x, y, z'
loop_
 _atom_site_type_symbol
 _atom_site_label
 _atom_site_symmetry_multiplicity
 _atom_site_fract_x
 _atom_site_fract_y
 _atom_site_fract_z
 _atom_site_occupancy
  Sr  Sr0  1  -0.60710958  0.60710958  0.25000000  1.0
  Sr  Sr1  1  -0.39289042  1.39289042  0.75000000  1.0
  Sn  Sn2  1  -0.96085956  0.96085956  0.25000000  1.0
  Sn  Sn3  1  -0.03914044  1.03914044  0.75000000  1.0
  Sn  Sn4  1  -0.24955365  1.24955365  0.25000000  1.0
  Sn  Sn5  1  -0.75044635  0.75044635  0.75000000  1.0
  Au  Au6  1  -0.82941779  0.82941779  0.25000000  1.0
  Au  Au7  1  -0.17058221  1.17058221  0.75000000  1.0
