# generated using pymatgen
data_Ba3Ga2(Ge2O7)2
_symmetry_space_group_name_H-M   'P 1'
_cell_length_a   8.69328061
_cell_length_b   8.69328061
_cell_length_c   5.08782606
_cell_angle_alpha   90.00000000
_cell_angle_beta   90.00000000
_cell_angle_gamma   120.00000000
_symmetry_Int_Tables_number   1
_chemical_formula_structural   Ba3Ga2(Ge2O7)2
_chemical_formula_sum   'Ba3 Ga2 Ge4 O14'
_cell_volume   332.98930406
_cell_formula_units_Z   1
loop_
 _symmetry_equiv_pos_site_id
 _symmetry_equiv_pos_as_xyz
  1  'x, y, z'
loop_
 _atom_site_type_symbol
 _atom_site_label
 _atom_site_symmetry_multiplicity
 _atom_site_fract_x
 _atom_site_fract_y
 _atom_site_fract_z
 _atom_site_occupancy
  Ba  Ba0  1  0.42734402  0.42734402  -0.00000000  1.0
  Ba  Ba1  1  0.00000000  0.57265598  0.00000000  1.0
  Ba  Ba2  1  0.57265598  0.00000000  0.00000000  1.0
  Ga  Ga3  1  0.33333333  0.66666667  0.49736217  1.0
  Ga  Ga4  1  0.66666667  0.33333333  0.50263783  1.0
  Ge  Ge5  1  0.75570773  0.75570773  0.50000000  1.0
  Ge  Ge6  1  0.00000000  0.24429227  0.50000000  1.0
  Ge  Ge7  1  0.24429227  0.00000000  0.50000000  1.0
  Ge  Ge8  1  -0.00000000  -0.00000000  0.00000000  1.0
  O  O9  1  0.09708489  0.89154379  0.23004030  1.0
  O  O10  1  0.89154379  0.09708489  0.76995970  1.0
  O  O11  1  0.79445889  0.90291511  0.23004030  1.0
  O  O12  1  0.10845621  0.20554111  0.23004030  1.0
  O  O13  1  0.90291511  0.79445889  0.76995970  1.0
  O  O14  1  0.20554111  0.10845621  0.76995970  1.0
  O  O15  1  0.71623283  0.55247308  0.34957663  1.0
  O  O16  1  0.55247308  0.71623283  0.65042337  1.0
  O  O17  1  0.83624025  0.28376717  0.34957663  1.0
  O  O18  1  0.44752692  0.16375975  0.34957663  1.0
  O  O19  1  0.28376717  0.83624025  0.65042337  1.0
  O  O20  1  0.16375975  0.44752692  0.65042337  1.0
  O  O21  1  0.33333333  0.66666667  0.14740665  1.0
  O  O22  1  0.66666667  0.33333333  0.85259335  1.0
