# generated using pymatgen
data_V2Co3O8
_symmetry_space_group_name_H-M   'P 1'
_cell_length_a   6.50212851
_cell_length_b   6.50212851
_cell_length_c   8.30201401
_cell_angle_alpha   90.00000000
_cell_angle_beta   90.00000000
_cell_angle_gamma   126.15364943
_symmetry_Int_Tables_number   1
_chemical_formula_structural   V2Co3O8
_chemical_formula_sum   'V4 Co6 O16'
_cell_volume   283.40248417
_cell_formula_units_Z   2
loop_
 _symmetry_equiv_pos_site_id
 _symmetry_equiv_pos_as_xyz
  1  'x, y, z'
loop_
 _atom_site_type_symbol
 _atom_site_label
 _atom_site_symmetry_multiplicity
 _atom_site_fract_x
 _atom_site_fract_y
 _atom_site_fract_z
 _atom_site_occupancy
  V  V0  1  0.37138089  0.62861911  0.88268143  1.0
  V  V1  1  -0.12861911  0.12861911  0.61731857  1.0
  V  V2  1  -0.37138089  0.37138089  0.11731857  1.0
  V  V3  1  0.12861911  0.87138089  0.38268143  1.0
  Co  Co4  1  -0.12573016  0.62573016  0.75000000  1.0
  Co  Co5  1  0.37426984  1.12573016  0.75000000  1.0
  Co  Co6  1  0.62573016  0.87426984  0.25000000  1.0
  Co  Co7  1  0.12573016  0.37426984  0.25000000  1.0
  Co  Co8  1  0.00000000  0.00000000  0.00000000  1.0
  Co  Co9  1  0.50000000  0.50000000  0.50000000  1.0
  O  O10  1  -0.14578561  0.61746327  0.99667700  1.0
  O  O11  1  0.35421439  1.11746327  0.50332300  1.0
  O  O12  1  0.61746327  0.85421439  0.00332300  1.0
  O  O13  1  0.11746327  0.35421439  0.49667700  1.0
  O  O14  1  0.38253673  1.14578561  0.99667700  1.0
  O  O15  1  -0.11746327  0.64578561  0.50332300  1.0
  O  O16  1  0.14578561  0.38253673  0.00332300  1.0
  O  O17  1  0.64578561  0.88253673  0.49667700  1.0
  O  O18  1  -0.00671752  1.00671752  0.75422789  1.0
  O  O19  1  -0.50671752  0.50671752  0.74577211  1.0
  O  O20  1  0.00671752  -0.00671752  0.24577211  1.0
  O  O21  1  0.50671752  0.49328248  0.25422789  1.0
  O  O22  1  0.24291671  0.75708329  0.77348264  1.0
  O  O23  1  -0.25708329  0.25708329  0.72651736  1.0
  O  O24  1  -0.24291671  0.24291671  0.22651736  1.0
  O  O25  1  0.25708329  0.74291671  0.27348264  1.0
