# generated using pymatgen
data_KCaPO5
_symmetry_space_group_name_H-M   'P 1'
_cell_length_a   5.63345709
_cell_length_b   5.63345709
_cell_length_c   8.08904464
_cell_angle_alpha   83.79018088
_cell_angle_beta   96.20981912
_cell_angle_gamma   87.34091007
_symmetry_Int_Tables_number   1
_chemical_formula_structural   KCaPO5
_chemical_formula_sum   'K2 Ca2 P2 O10'
_cell_volume   253.27020366
_cell_formula_units_Z   2
loop_
 _symmetry_equiv_pos_site_id
 _symmetry_equiv_pos_as_xyz
  1  'x, y, z'
loop_
 _atom_site_type_symbol
 _atom_site_label
 _atom_site_symmetry_multiplicity
 _atom_site_fract_x
 _atom_site_fract_y
 _atom_site_fract_z
 _atom_site_occupancy
  Ca  Ca0  1  0.76236975  -0.23763025  -0.00000000  1.0
  Ca  Ca1  1  1.23763025  0.23763025  -0.00000000  1.0
  K  K2  1  0.76715915  -0.23284085  0.50000000  1.0
  K  K3  1  1.23284085  0.23284085  0.50000000  1.0
  O  O4  1  1.54099796  0.14060711  0.83029948  1.0
  O  O5  1  0.85939289  -0.54099796  0.83029948  1.0
  O  O6  1  1.14060711  0.54099796  0.16970052  1.0
  O  O7  1  0.45900204  -0.14060711  0.16970052  1.0
  O  O8  1  0.40781087  -0.40781087  0.88324473  1.0
  O  O9  1  0.59218913  -0.59218913  0.11675527  1.0
  O  O10  1  0.73125319  -0.73125319  0.56296574  1.0
  O  O11  1  0.26874681  -0.26874681  0.43703426  1.0
  O  O12  1  0.97315450  -0.97315450  0.81424460  1.0
  O  O13  1  0.02684550  -0.02684550  0.18575540  1.0
  P  P14  1  0.77074449  -0.77074449  0.75579868  1.0
  P  P15  1  0.22925551  -0.22925551  0.24420132  1.0
