# generated using pymatgen
data_V2NiO6
_symmetry_space_group_name_H-M   'P 1'
_cell_length_a   13.36354046
_cell_length_b   5.54495712
_cell_length_c   4.81881199
_cell_angle_alpha   90.00000000
_cell_angle_beta   90.00000000
_cell_angle_gamma   90.00000000
_symmetry_Int_Tables_number   1
_chemical_formula_structural   V2NiO6
_chemical_formula_sum   'V8 Ni4 O24'
_cell_volume   357.07521550
_cell_formula_units_Z   4
loop_
 _symmetry_equiv_pos_site_id
 _symmetry_equiv_pos_as_xyz
  1  'x, y, z'
loop_
 _atom_site_type_symbol
 _atom_site_label
 _atom_site_symmetry_multiplicity
 _atom_site_fract_x
 _atom_site_fract_y
 _atom_site_fract_z
 _atom_site_occupancy
  V  V0  1  0.66121962  0.67972599  0.75813610  1.0
  V  V1  1  0.66121962  0.32027401  0.25813610  1.0
  V  V2  1  0.16121962  0.17972599  0.74186390  1.0
  V  V3  1  0.16121962  0.82027401  0.24186390  1.0
  V  V4  1  0.33878038  0.67972599  0.74186390  1.0
  V  V5  1  0.33878038  0.32027401  0.24186390  1.0
  V  V6  1  0.83878038  0.17972599  0.75813610  1.0
  V  V7  1  0.83878038  0.82027401  0.25813610  1.0
  Ni  Ni8  1  0.00000000  0.65648529  0.75000000  1.0
  Ni  Ni9  1  0.00000000  0.34351471  0.25000000  1.0
  Ni  Ni10  1  0.50000000  0.15648529  0.75000000  1.0
  Ni  Ni11  1  0.50000000  0.84351471  0.25000000  1.0
  O  O12  1  0.75391891  0.86826415  0.90860291  1.0
  O  O13  1  0.75391891  0.13173585  0.40860291  1.0
  O  O14  1  0.25391891  0.36826415  0.59139709  1.0
  O  O15  1  0.25391891  0.63173585  0.09139709  1.0
  O  O16  1  0.24608109  0.86826415  0.59139709  1.0
  O  O17  1  0.24608109  0.13173585  0.09139709  1.0
  O  O18  1  0.74608109  0.36826415  0.90860291  1.0
  O  O19  1  0.74608109  0.63173585  0.40860291  1.0
  O  O20  1  0.90508762  0.88968502  0.56518285  1.0
  O  O21  1  0.90508762  0.11031498  0.06518285  1.0
  O  O22  1  0.40508762  0.38968502  0.93481715  1.0
  O  O23  1  0.40508762  0.61031498  0.43481715  1.0
  O  O24  1  0.09491238  0.88968502  0.93481715  1.0
  O  O25  1  0.09491238  0.11031498  0.43481715  1.0
  O  O26  1  0.59491238  0.38968502  0.56518285  1.0
  O  O27  1  0.59491238  0.61031498  0.06518285  1.0
  O  O28  1  0.58100214  0.87435611  0.59467689  1.0
  O  O29  1  0.58100214  0.12564389  0.09467689  1.0
  O  O30  1  0.08100214  0.37435611  0.90532311  1.0
  O  O31  1  0.08100214  0.62564389  0.40532311  1.0
  O  O32  1  0.41899786  0.87435611  0.90532311  1.0
  O  O33  1  0.41899786  0.12564389  0.40532311  1.0
  O  O34  1  0.91899786  0.37435611  0.59467689  1.0
  O  O35  1  0.91899786  0.62564389  0.09467689  1.0
