# generated using pymatgen
data_BaCuPO4F
_symmetry_space_group_name_H-M   'P 1'
_cell_length_a   5.05008487
_cell_length_b   9.00469269
_cell_length_c   9.57065419
_cell_angle_alpha   90.00000000
_cell_angle_beta   90.00000000
_cell_angle_gamma   90.00000000
_symmetry_Int_Tables_number   1
_chemical_formula_structural   BaCuPO4F
_chemical_formula_sum   'Ba4 Cu4 P4 O16 F4'
_cell_volume   435.22035393
_cell_formula_units_Z   4
loop_
 _symmetry_equiv_pos_site_id
 _symmetry_equiv_pos_as_xyz
  1  'x, y, z'
loop_
 _atom_site_type_symbol
 _atom_site_label
 _atom_site_symmetry_multiplicity
 _atom_site_fract_x
 _atom_site_fract_y
 _atom_site_fract_z
 _atom_site_occupancy
  Ba  Ba0  1  0.98688612  0.76147683  0.80798510  1.0
  Ba  Ba1  1  0.51311388  0.23852317  0.30798510  1.0
  Ba  Ba2  1  0.01311388  0.26147683  0.69201490  1.0
  Ba  Ba3  1  0.48688612  0.73852317  0.19201490  1.0
  Cu  Cu4  1  0.99503231  0.55051910  0.40497175  1.0
  Cu  Cu5  1  0.50496769  0.44948090  0.90497175  1.0
  Cu  Cu6  1  0.00496769  0.05051910  0.09502825  1.0
  Cu  Cu7  1  0.49503231  0.94948090  0.59502825  1.0
  P  P8  1  0.46345126  0.57862775  0.58856699  1.0
  P  P9  1  0.03654874  0.42137225  0.08856699  1.0
  P  P10  1  0.53654874  0.07862775  0.91143301  1.0
  P  P11  1  0.96345126  0.92137225  0.41143301  1.0
  O  O12  1  0.54979003  0.73827820  0.63239396  1.0
  O  O13  1  0.95020997  0.26172180  0.13239396  1.0
  O  O14  1  0.45020997  0.23827820  0.86760604  1.0
  O  O15  1  0.04979003  0.76172180  0.36760604  1.0
  O  O16  1  0.58762790  0.47003635  0.69804556  1.0
  O  O17  1  0.91237210  0.52996365  0.19804556  1.0
  O  O18  1  0.41237210  0.97003635  0.80195444  1.0
  O  O19  1  0.08762790  0.02996365  0.30195444  1.0
  O  O20  1  0.55162784  0.53793463  0.43835262  1.0
  O  O21  1  0.94837216  0.46206537  0.93835262  1.0
  O  O22  1  0.44837216  0.03793463  0.06164738  1.0
  O  O23  1  0.05162784  0.96206537  0.56164738  1.0
  O  O24  1  0.15204908  0.56392021  0.59824046  1.0
  O  O25  1  0.34795092  0.43607979  0.09824046  1.0
  O  O26  1  0.84795092  0.06392021  0.90175954  1.0
  O  O27  1  0.65204908  0.93607979  0.40175954  1.0
  F  F28  1  0.01956408  0.33322047  0.42470975  1.0
  F  F29  1  0.48043592  0.66677953  0.92470975  1.0
  F  F30  1  0.98043592  0.83322047  0.07529025  1.0
  F  F31  1  0.51956408  0.16677953  0.57529025  1.0
