# generated using pymatgen
data_Pd(S3N)2
_symmetry_space_group_name_H-M   'P 1'
_cell_length_a   13.15089636
_cell_length_b   9.50014744
_cell_length_c   7.99157031
_cell_angle_alpha   90.00000000
_cell_angle_beta   97.11409080
_cell_angle_gamma   90.00000000
_symmetry_Int_Tables_number   1
_chemical_formula_structural   Pd(S3N)2
_chemical_formula_sum   'Pd4 S24 N8'
_cell_volume   990.74406113
_cell_formula_units_Z   4
loop_
 _symmetry_equiv_pos_site_id
 _symmetry_equiv_pos_as_xyz
  1  'x, y, z'
loop_
 _atom_site_type_symbol
 _atom_site_label
 _atom_site_symmetry_multiplicity
 _atom_site_fract_x
 _atom_site_fract_y
 _atom_site_fract_z
 _atom_site_occupancy
  Pd  Pd0  1  0.75712949  0.06501409  0.32080452  1.0
  Pd  Pd1  1  0.75712949  0.43498591  0.82080452  1.0
  Pd  Pd2  1  0.24287051  0.56501409  0.17919548  1.0
  Pd  Pd3  1  0.24287051  0.93498591  0.67919548  1.0
  S  S4  1  0.92803065  0.13570001  0.36526644  1.0
  S  S5  1  0.92803065  0.36429999  0.86526644  1.0
  S  S6  1  0.07196935  0.63570001  0.13473356  1.0
  S  S7  1  0.07196935  0.86429999  0.63473356  1.0
  S  S8  1  0.91666012  0.34987630  0.35930359  1.0
  S  S9  1  0.91666012  0.15012370  0.85930359  1.0
  S  S10  1  0.08333988  0.84987630  0.14069641  1.0
  S  S11  1  0.08333988  0.65012370  0.64069641  1.0
  S  S12  1  0.81203738  0.83199171  0.33465404  1.0
  S  S13  1  0.81203738  0.66800829  0.83465404  1.0
  S  S14  1  0.18796262  0.33199171  0.16534596  1.0
  S  S15  1  0.18796262  0.16800829  0.66534596  1.0
  S  S16  1  0.70228011  0.29328937  0.30657837  1.0
  S  S17  1  0.70228011  0.20671063  0.80657837  1.0
  S  S18  1  0.29771989  0.79328937  0.19342163  1.0
  S  S19  1  0.29771989  0.70671063  0.69342163  1.0
  S  S20  1  0.41055882  0.49772558  0.22512799  1.0
  S  S21  1  0.41055882  0.00227442  0.72512799  1.0
  S  S22  1  0.58944118  0.99772558  0.27487201  1.0
  S  S23  1  0.58944118  0.50227442  0.77487201  1.0
  S  S24  1  0.32256257  0.22305405  0.20475659  1.0
  S  S25  1  0.32256257  0.27694595  0.70475659  1.0
  S  S26  1  0.67743743  0.72305405  0.29524341  1.0
  S  S27  1  0.67743743  0.77694595  0.79524341  1.0
  N  N28  1  0.80124526  0.39717507  0.33056201  1.0
  N  N29  1  0.80124526  0.10282493  0.83056201  1.0
  N  N30  1  0.19875474  0.89717507  0.16943799  1.0
  N  N31  1  0.19875474  0.60282493  0.66943799  1.0
  N  N32  1  0.41643575  0.32679917  0.22868586  1.0
  N  N33  1  0.41643575  0.17320083  0.72868586  1.0
  N  N34  1  0.58356425  0.82679917  0.27131414  1.0
  N  N35  1  0.58356425  0.67320083  0.77131414  1.0
