# generated using pymatgen
data_Ba7Al13
_symmetry_space_group_name_H-M   'P 1'
_cell_length_a   6.04878341
_cell_length_b   6.04878341
_cell_length_c   17.26111317
_cell_angle_alpha   90.00000000
_cell_angle_beta   90.00000000
_cell_angle_gamma   120.00000000
_symmetry_Int_Tables_number   1
_chemical_formula_structural   Ba7Al13
_chemical_formula_sum   'Ba7 Al13'
_cell_volume   546.93472760
_cell_formula_units_Z   1
loop_
 _symmetry_equiv_pos_site_id
 _symmetry_equiv_pos_as_xyz
  1  'x, y, z'
loop_
 _atom_site_type_symbol
 _atom_site_label
 _atom_site_symmetry_multiplicity
 _atom_site_fract_x
 _atom_site_fract_y
 _atom_site_fract_z
 _atom_site_occupancy
  Ba  Ba0  1  0.00000000  0.00000000  0.10734582  1.0
  Ba  Ba1  1  0.00000000  0.00000000  0.89265418  1.0
  Ba  Ba2  1  0.33333333  0.66666667  0.60835721  1.0
  Ba  Ba3  1  0.66666667  0.33333333  0.39164279  1.0
  Ba  Ba4  1  0.33333333  0.66666667  0.82191397  1.0
  Ba  Ba5  1  0.66666667  0.33333333  0.17808603  1.0
  Ba  Ba6  1  0.00000000  0.00000000  0.50000000  1.0
  Al  Al7  1  0.67853302  0.83926651  0.28443679  1.0
  Al  Al8  1  0.83926651  0.67853302  0.71556321  1.0
  Al  Al9  1  0.83926651  0.16073349  0.71556321  1.0
  Al  Al10  1  0.16073349  0.83926651  0.28443679  1.0
  Al  Al11  1  0.16073349  0.32146698  0.28443679  1.0
  Al  Al12  1  0.32146698  0.16073349  0.71556321  1.0
  Al  Al13  1  0.50000000  0.50000000  0.00000000  1.0
  Al  Al14  1  0.50000000  0.00000000  0.00000000  1.0
  Al  Al15  1  -0.00000000  0.50000000  0.00000000  1.0
  Al  Al16  1  0.33333333  0.66666667  0.15229098  1.0
  Al  Al17  1  0.66666667  0.33333333  0.84770902  1.0
  Al  Al18  1  0.33333333  0.66666667  0.40223923  1.0
  Al  Al19  1  0.66666667  0.33333333  0.59776077  1.0
