# generated using pymatgen
data_ScCoSi
_symmetry_space_group_name_H-M   'P 1'
_cell_length_a   7.62316063
_cell_length_b   7.62316063
_cell_length_c   3.67597773
_cell_angle_alpha   90.00000000
_cell_angle_beta   90.00000000
_cell_angle_gamma   152.69377102
_symmetry_Int_Tables_number   1
_chemical_formula_structural   ScCoSi
_chemical_formula_sum   'Sc2 Co2 Si2'
_cell_volume   97.99760339
_cell_formula_units_Z   2
loop_
 _symmetry_equiv_pos_site_id
 _symmetry_equiv_pos_as_xyz
  1  'x, y, z'
loop_
 _atom_site_type_symbol
 _atom_site_label
 _atom_site_symmetry_multiplicity
 _atom_site_fract_x
 _atom_site_fract_y
 _atom_site_fract_z
 _atom_site_occupancy
  Sc  Sc0  1  0.40097324  0.59902676  0.75000000  1.0
  Sc  Sc1  1  -0.40097324  0.40097324  0.25000000  1.0
  Co  Co2  1  0.04255013  0.95744987  0.75000000  1.0
  Co  Co3  1  -0.04255013  0.04255013  0.25000000  1.0
  Si  Si4  1  -0.25293931  0.25293931  0.75000000  1.0
  Si  Si5  1  0.25293931  0.74706069  0.25000000  1.0
