# generated using pymatgen
data_B
_symmetry_space_group_name_H-M   'P 1'
_cell_length_a   8.82882536
_cell_length_b   8.82882536
_cell_length_c   4.94497233
_cell_angle_alpha   90.00000000
_cell_angle_beta   90.00000000
_cell_angle_gamma   90.00000000
_symmetry_Int_Tables_number   1
_chemical_formula_structural   B
_chemical_formula_sum   B50
_cell_volume   385.45148043
_cell_formula_units_Z   50
loop_
 _symmetry_equiv_pos_site_id
 _symmetry_equiv_pos_as_xyz
  1  'x, y, z'
loop_
 _atom_site_type_symbol
 _atom_site_label
 _atom_site_symmetry_multiplicity
 _atom_site_fract_x
 _atom_site_fract_y
 _atom_site_fract_z
 _atom_site_occupancy
  B  B0  1  0.50000000  0.50000000  0.00000000  1.0
  B  B1  1  0.00000000  0.00000000  0.50000000  1.0
  B  B2  1  0.37120784  0.37120784  0.10758452  1.0
  B  B3  1  0.62879216  0.62879216  0.10758452  1.0
  B  B4  1  0.87120784  0.87120784  0.39241548  1.0
  B  B5  1  0.12879216  0.12879216  0.39241548  1.0
  B  B6  1  0.62879216  0.37120784  0.89241548  1.0
  B  B7  1  0.37120784  0.62879216  0.89241548  1.0
  B  B8  1  0.12879216  0.87120784  0.60758452  1.0
  B  B9  1  0.87120784  0.12879216  0.60758452  1.0
  B  B10  1  0.25401695  0.25401695  0.92321022  1.0
  B  B11  1  0.74598305  0.74598305  0.92321022  1.0
  B  B12  1  0.75401695  0.75401695  0.57678978  1.0
  B  B13  1  0.24598305  0.24598305  0.57678978  1.0
  B  B14  1  0.74598305  0.25401695  0.07678978  1.0
  B  B15  1  0.25401695  0.74598305  0.07678978  1.0
  B  B16  1  0.24598305  0.75401695  0.42321022  1.0
  B  B17  1  0.75401695  0.24598305  0.42321022  1.0
  B  B18  1  0.41385007  0.17022658  0.09563667  1.0
  B  B19  1  0.58614993  0.82977342  0.09563667  1.0
  B  B20  1  0.91385007  0.67022658  0.40436333  1.0
  B  B21  1  0.08614993  0.32977342  0.40436333  1.0
  B  B22  1  0.58614993  0.17022658  0.90436333  1.0
  B  B23  1  0.41385007  0.82977342  0.90436333  1.0
  B  B24  1  0.08614993  0.67022658  0.59563667  1.0
  B  B25  1  0.91385007  0.32977342  0.59563667  1.0
  B  B26  1  0.82977342  0.41385007  0.90436333  1.0
  B  B27  1  0.17022658  0.58614993  0.90436333  1.0
  B  B28  1  0.32977342  0.91385007  0.59563667  1.0
  B  B29  1  0.67022658  0.08614993  0.59563667  1.0
  B  B30  1  0.17022658  0.41385007  0.09563667  1.0
  B  B31  1  0.82977342  0.58614993  0.09563667  1.0
  B  B32  1  0.67022658  0.91385007  0.40436333  1.0
  B  B33  1  0.32977342  0.08614993  0.40436333  1.0
  B  B34  1  0.41717572  0.27182626  0.41047516  1.0
  B  B35  1  0.58282428  0.72817374  0.41047516  1.0
  B  B36  1  0.91717572  0.77182626  0.08952484  1.0
  B  B37  1  0.08282428  0.22817374  0.08952484  1.0
  B  B38  1  0.58282428  0.27182626  0.58952484  1.0
  B  B39  1  0.41717572  0.72817374  0.58952484  1.0
  B  B40  1  0.08282428  0.77182626  0.91047516  1.0
  B  B41  1  0.91717572  0.22817374  0.91047516  1.0
  B  B42  1  0.72817374  0.41717572  0.58952484  1.0
  B  B43  1  0.27182626  0.58282428  0.58952484  1.0
  B  B44  1  0.22817374  0.91717572  0.91047516  1.0
  B  B45  1  0.77182626  0.08282428  0.91047516  1.0
  B  B46  1  0.27182626  0.41717572  0.41047516  1.0
  B  B47  1  0.72817374  0.58282428  0.41047516  1.0
  B  B48  1  0.77182626  0.91717572  0.08952484  1.0
  B  B49  1  0.22817374  0.08282428  0.08952484  1.0
