# generated using pymatgen
data_CsKNi(CN)4
_symmetry_space_group_name_H-M   'P 1'
_cell_length_a   8.82656791
_cell_length_b   7.63913187
_cell_length_c   9.41632506
_cell_angle_alpha   61.30203476
_cell_angle_beta   56.28190969
_cell_angle_gamma   69.32999644
_symmetry_Int_Tables_number   1
_chemical_formula_structural   CsKNi(CN)4
_chemical_formula_sum   'Cs2 K2 Ni2 C8 N8'
_cell_volume   459.97796194
_cell_formula_units_Z   2
loop_
 _symmetry_equiv_pos_site_id
 _symmetry_equiv_pos_as_xyz
  1  'x, y, z'
loop_
 _atom_site_type_symbol
 _atom_site_label
 _atom_site_symmetry_multiplicity
 _atom_site_fract_x
 _atom_site_fract_y
 _atom_site_fract_z
 _atom_site_occupancy
  Cs  Cs0  1  0.62003181  0.62994949  -0.87993905  1.0
  Cs  Cs1  1  -0.62003181  0.37005051  -0.12006095  1.0
  K  K2  1  0.01823994  0.73164741  -0.48164742  1.0
  K  K3  1  -0.01823994  0.26835259  -0.51835258  1.0
  Ni  Ni4  1  0.50000000  -0.00000000  -0.50000000  1.0
  Ni  Ni5  1  0.00000000  0.00000000  0.00000000  1.0
  C  C6  1  -0.40195999  0.99292034  -0.36758560  1.0
  C  C7  1  0.40195999  0.00707966  -0.63241440  1.0
  C  C8  1  0.13220590  0.77657144  -0.90179178  1.0
  C  C9  1  -0.13220590  0.22342856  -0.09820822  1.0
  C  C10  1  -0.36414036  0.76026110  -0.52409031  1.0
  C  C11  1  0.36414036  0.23973890  -0.47590969  1.0
  C  C12  1  -0.02413529  0.12794627  -0.86408141  1.0
  C  C13  1  0.02413529  0.87205373  -0.13591859  1.0
  N  N14  1  -0.33843210  0.99430028  -0.28663623  1.0
  N  N15  1  0.33843210  0.00569972  -0.71336377  1.0
  N  N16  1  0.21298697  0.63065271  -0.83813613  1.0
  N  N17  1  -0.21298697  0.36934729  -0.16186387  1.0
  N  N18  1  -0.28052930  0.60598281  -0.53808799  1.0
  N  N19  1  0.28052930  0.39401719  -0.46191201  1.0
  N  N20  1  -0.03816871  0.21256833  -0.78041532  1.0
  N  N21  1  0.03816871  0.78743167  -0.21958468  1.0
