# generated using pymatgen
data_GaTeBr
_symmetry_space_group_name_H-M   'P 1'
_cell_length_a   6.04135243
_cell_length_b   16.86535778
_cell_length_c   4.17446187
_cell_angle_alpha   90.00000000
_cell_angle_beta   90.00000000
_cell_angle_gamma   90.00000000
_symmetry_Int_Tables_number   1
_chemical_formula_structural   GaTeBr
_chemical_formula_sum   'Ga4 Te4 Br4'
_cell_volume   425.33412600
_cell_formula_units_Z   4
loop_
 _symmetry_equiv_pos_site_id
 _symmetry_equiv_pos_as_xyz
  1  'x, y, z'
loop_
 _atom_site_type_symbol
 _atom_site_label
 _atom_site_symmetry_multiplicity
 _atom_site_fract_x
 _atom_site_fract_y
 _atom_site_fract_z
 _atom_site_occupancy
  Ga  Ga0  1  0.45338621  0.69449921  0.50000000  1.0
  Ga  Ga1  1  0.95338621  0.80550079  0.00000000  1.0
  Ga  Ga2  1  0.54661379  0.30550079  0.50000000  1.0
  Ga  Ga3  1  0.04661379  0.19449921  0.00000000  1.0
  Te  Te4  1  0.22646939  0.83008668  0.50000000  1.0
  Te  Te5  1  0.72646939  0.66991332  0.00000000  1.0
  Te  Te6  1  0.77353061  0.16991332  0.50000000  1.0
  Te  Te7  1  0.27353061  0.33008668  0.00000000  1.0
  Br  Br8  1  0.21673059  0.58351092  0.50000000  1.0
  Br  Br9  1  0.71673059  0.91648908  0.00000000  1.0
  Br  Br10  1  0.78326941  0.41648908  0.50000000  1.0
  Br  Br11  1  0.28326941  0.08351092  0.00000000  1.0
