# generated using pymatgen
data_Y4BBr6
_symmetry_space_group_name_H-M   'P 1'
_cell_length_a   10.74392591
_cell_length_b   10.74392591
_cell_length_c   12.63344339
_cell_angle_alpha   84.86880844
_cell_angle_beta   95.13119156
_cell_angle_gamma   116.67135499
_symmetry_Int_Tables_number   1
_chemical_formula_structural   Y4BBr6
_chemical_formula_sum   'Y16 B4 Br24'
_cell_volume   1295.91926890
_cell_formula_units_Z   4
loop_
 _symmetry_equiv_pos_site_id
 _symmetry_equiv_pos_as_xyz
  1  'x, y, z'
loop_
 _atom_site_type_symbol
 _atom_site_label
 _atom_site_symmetry_multiplicity
 _atom_site_fract_x
 _atom_site_fract_y
 _atom_site_fract_z
 _atom_site_occupancy
  Y  Y0  1  0.85928708  -0.08119591  0.91289669  1.0
  Y  Y1  1  1.08119591  0.14071292  0.41289669  1.0
  Y  Y2  1  0.91880409  -0.14071292  0.58710331  1.0
  Y  Y3  1  1.14071292  0.08119591  0.08710331  1.0
  Y  Y4  1  0.61674947  -0.31137956  0.39549564  1.0
  Y  Y5  1  1.31137956  0.38325053  0.89549564  1.0
  Y  Y6  1  0.68862044  -0.38325053  0.10450436  1.0
  Y  Y7  1  1.38325053  0.31137956  0.60450436  1.0
  Y  Y8  1  0.78901439  -0.02985211  0.19277310  1.0
  Y  Y9  1  1.02985211  0.21098561  0.69277310  1.0
  Y  Y10  1  0.97014789  -0.21098561  0.30722690  1.0
  Y  Y11  1  1.21098561  0.02985211  0.80722690  1.0
  Y  Y12  1  1.71673369  0.04301042  0.45557068  1.0
  Y  Y13  1  0.95698958  -0.71673369  0.95557068  1.0
  Y  Y14  1  1.04301042  0.71673369  0.04442932  1.0
  Y  Y15  1  0.28326631  -0.04301042  0.54442932  1.0
  B  B16  1  0.83969607  -0.08790638  0.39476536  1.0
  B  B17  1  1.08790638  0.16030393  0.89476536  1.0
  B  B18  1  0.91209362  -0.16030393  0.10523464  1.0
  B  B19  1  1.16030393  0.08790638  0.60523464  1.0
  Br  Br20  1  0.51591062  -0.27499229  0.18219884  1.0
  Br  Br21  1  1.27499229  0.48408938  0.68219884  1.0
  Br  Br22  1  0.72500771  -0.48408938  0.31780116  1.0
  Br  Br23  1  1.48408938  0.27499229  0.81780116  1.0
  Br  Br24  1  1.69388080  0.04596495  0.97693924  1.0
  Br  Br25  1  0.95403505  -0.69388080  0.47693924  1.0
  Br  Br26  1  1.04596495  0.69388080  0.52306076  1.0
  Br  Br27  1  0.30611920  -0.04596495  0.02306076  1.0
  Br  Br28  1  0.44763184  -0.19201260  0.46714793  1.0
  Br  Br29  1  1.19201260  0.55236816  0.96714793  1.0
  Br  Br30  1  0.80798740  -0.55236816  0.03285207  1.0
  Br  Br31  1  1.55236816  0.19201260  0.53285207  1.0
  Br  Br32  1  1.64508036  0.12151138  0.25475062  1.0
  Br  Br33  1  0.87848862  -0.64508036  0.75475062  1.0
  Br  Br34  1  1.12151138  0.64508036  0.24524938  1.0
  Br  Br35  1  0.35491964  -0.12151138  0.74524938  1.0
  Br  Br36  1  1.24717151  0.03117904  0.31392156  1.0
  Br  Br37  1  0.96882096  -0.24717151  0.81392156  1.0
  Br  Br38  1  1.03117904  0.24717151  0.18607844  1.0
  Br  Br39  1  0.75282849  -0.03117904  0.68607844  1.0
  Br  Br40  1  1.34165371  0.41353259  0.39715951  1.0
  Br  Br41  1  0.58646741  -0.34165371  0.89715951  1.0
  Br  Br42  1  1.41353259  0.34165371  0.10284049  1.0
  Br  Br43  1  0.65834629  -0.41353259  0.60284049  1.0
