# generated using pymatgen
data_Y(TiGa2)2
_symmetry_space_group_name_H-M   'P 1'
_cell_length_a   5.50917437
_cell_length_b   5.50917437
_cell_length_c   5.50917437
_cell_angle_alpha   104.28146291
_cell_angle_beta   104.28146291
_cell_angle_gamma   120.43955004
_symmetry_Int_Tables_number   1
_chemical_formula_structural   Y(TiGa2)2
_chemical_formula_sum   'Y1 Ti2 Ga4'
_cell_volume   125.12315475
_cell_formula_units_Z   1
loop_
 _symmetry_equiv_pos_site_id
 _symmetry_equiv_pos_as_xyz
  1  'x, y, z'
loop_
 _atom_site_type_symbol
 _atom_site_label
 _atom_site_symmetry_multiplicity
 _atom_site_fract_x
 _atom_site_fract_y
 _atom_site_fract_z
 _atom_site_occupancy
  Y  Y0  1  0.00000000  0.00000000  0.00000000  1.0
  Ti  Ti1  1  1.25000000  0.75000000  0.50000000  1.0
  Ti  Ti2  1  0.75000000  1.25000000  0.50000000  1.0
  Ga  Ga3  1  0.69738755  0.69738755  0.39477510  1.0
  Ga  Ga4  1  1.30261245  0.69738755  1.00000000  1.0
  Ga  Ga5  1  0.69738755  1.30261245  1.00000000  1.0
  Ga  Ga6  1  0.30261245  0.30261245  0.60522490  1.0
