# generated using pymatgen
data_CsSe
_symmetry_space_group_name_H-M   'P 1'
_cell_length_a   6.28136089
_cell_length_b   6.28136089
_cell_length_c   7.21499667
_cell_angle_alpha   90.00000000
_cell_angle_beta   90.00000000
_cell_angle_gamma   120.00000000
_symmetry_Int_Tables_number   1
_chemical_formula_structural   CsSe
_chemical_formula_sum   'Cs2 Se2'
_cell_volume   246.53254471
_cell_formula_units_Z   2
loop_
 _symmetry_equiv_pos_site_id
 _symmetry_equiv_pos_as_xyz
  1  'x, y, z'
loop_
 _atom_site_type_symbol
 _atom_site_label
 _atom_site_symmetry_multiplicity
 _atom_site_fract_x
 _atom_site_fract_y
 _atom_site_fract_z
 _atom_site_occupancy
  Cs  Cs0  1  0.66666667  0.33333333  0.43699567  1.0
  Cs  Cs1  1  0.33333333  0.66666667  -0.06300433  1.0
  Se  Se2  1  0.66666667  0.33333333  0.93700433  1.0
  Se  Se3  1  0.33333333  0.66666667  0.43700433  1.0
