# generated using pymatgen
data_Rb2SeO4
_symmetry_space_group_name_H-M   'P 1'
_cell_length_a   8.15486393
_cell_length_b   6.32312310
_cell_length_c   11.05214347
_cell_angle_alpha   90.00000000
_cell_angle_beta   90.00000000
_cell_angle_gamma   90.00000000
_symmetry_Int_Tables_number   1
_chemical_formula_structural   Rb2SeO4
_chemical_formula_sum   'Rb8 Se4 O16'
_cell_volume   569.89503028
_cell_formula_units_Z   4
loop_
 _symmetry_equiv_pos_site_id
 _symmetry_equiv_pos_as_xyz
  1  'x, y, z'
loop_
 _atom_site_type_symbol
 _atom_site_label
 _atom_site_symmetry_multiplicity
 _atom_site_fract_x
 _atom_site_fract_y
 _atom_site_fract_z
 _atom_site_occupancy
  Rb  Rb0  1  0.82692201  0.75000000  0.41911949  1.0
  Rb  Rb1  1  0.32692201  0.75000000  0.08088051  1.0
  Rb  Rb2  1  0.17307799  0.25000000  0.58088051  1.0
  Rb  Rb3  1  0.67307799  0.25000000  0.91911949  1.0
  Rb  Rb4  1  0.50057670  0.75000000  0.70443537  1.0
  Rb  Rb5  1  0.00057670  0.75000000  0.79556463  1.0
  Rb  Rb6  1  0.49942330  0.25000000  0.29556463  1.0
  Rb  Rb7  1  0.99942330  0.25000000  0.20443537  1.0
  Se  Se8  1  0.77464888  0.75000000  0.08257329  1.0
  Se  Se9  1  0.27464888  0.75000000  0.41742671  1.0
  Se  Se10  1  0.22535112  0.25000000  0.91742671  1.0
  Se  Se11  1  0.72535112  0.25000000  0.58257329  1.0
  O  O12  1  0.71078124  0.96648262  0.15615432  1.0
  O  O13  1  0.71078124  0.53351738  0.15615432  1.0
  O  O14  1  0.21078124  0.96648262  0.34384568  1.0
  O  O15  1  0.21078124  0.53351738  0.34384568  1.0
  O  O16  1  0.28921876  0.46648262  0.84384568  1.0
  O  O17  1  0.28921876  0.03351738  0.84384568  1.0
  O  O18  1  0.78921876  0.46648262  0.65615432  1.0
  O  O19  1  0.78921876  0.03351738  0.65615432  1.0
  O  O20  1  0.97841048  0.75000000  0.07355378  1.0
  O  O21  1  0.47841048  0.75000000  0.42644622  1.0
  O  O22  1  0.02158952  0.25000000  0.92644622  1.0
  O  O23  1  0.52158952  0.25000000  0.57355378  1.0
  O  O24  1  0.19076524  0.75000000  0.55632036  1.0
  O  O25  1  0.69076524  0.75000000  0.94367964  1.0
  O  O26  1  0.80923476  0.25000000  0.44367964  1.0
  O  O27  1  0.30923476  0.25000000  0.05632036  1.0
