# generated using pymatgen
data_NaMgBO3
_symmetry_space_group_name_H-M   'P 1'
_cell_length_a   5.10871086
_cell_length_b   5.10871086
_cell_length_c   5.58734977
_cell_angle_alpha   85.50631116
_cell_angle_beta   94.49368884
_cell_angle_gamma   59.37761086
_symmetry_Int_Tables_number   1
_chemical_formula_structural   NaMgBO3
_chemical_formula_sum   'Na2 Mg2 B2 O6'
_cell_volume   123.90764940
_cell_formula_units_Z   2
loop_
 _symmetry_equiv_pos_site_id
 _symmetry_equiv_pos_as_xyz
  1  'x, y, z'
loop_
 _atom_site_type_symbol
 _atom_site_label
 _atom_site_symmetry_multiplicity
 _atom_site_fract_x
 _atom_site_fract_y
 _atom_site_fract_z
 _atom_site_occupancy
  Na  Na0  1  0.33437552  0.33437552  0.75000000  1.0
  Na  Na1  1  0.66562448  -0.33437552  0.25000000  1.0
  Mg  Mg2  1  0.00000000  0.00000000  0.00000000  1.0
  Mg  Mg3  1  0.00000000  -0.00000000  0.50000000  1.0
  B  B4  1  0.66770919  -0.33229081  0.75000000  1.0
  B  B5  1  0.33229081  0.33229081  0.25000000  1.0
  O  O6  1  0.36537598  -0.18507322  0.79480432  1.0
  O  O7  1  1.18507322  -0.36537598  0.29480432  1.0
  O  O8  1  0.81492678  -0.63462402  0.70519568  1.0
  O  O9  1  0.63462402  0.18507322  0.20519568  1.0
  O  O10  1  0.82392641  -0.17607359  0.75000000  1.0
  O  O11  1  0.17607359  0.17607359  0.25000000  1.0
