# generated using pymatgen
data_GdMnGe
_symmetry_space_group_name_H-M   'P 1'
_cell_length_a   7.21702440
_cell_length_b   4.15708940
_cell_length_c   7.97847000
_cell_angle_alpha   90.00000000
_cell_angle_beta   90.00000000
_cell_angle_gamma   90.00000000
_symmetry_Int_Tables_number   1
_chemical_formula_structural   GdMnGe
_chemical_formula_sum   'Gd4 Mn4 Ge4'
_cell_volume   239.36858563
_cell_formula_units_Z   4
loop_
 _symmetry_equiv_pos_site_id
 _symmetry_equiv_pos_as_xyz
  1  'x, y, z'
loop_
 _atom_site_type_symbol
 _atom_site_label
 _atom_site_symmetry_multiplicity
 _atom_site_fract_x
 _atom_site_fract_y
 _atom_site_fract_z
 _atom_site_occupancy
  Gd  Gd0  1  0.98367889  0.75000000  0.68319161  1.0
  Gd  Gd1  1  0.48367889  0.75000000  0.81680839  1.0
  Gd  Gd2  1  0.01632111  0.25000000  0.31680839  1.0
  Gd  Gd3  1  0.51632111  0.25000000  0.18319161  1.0
  Mn  Mn4  1  0.87230719  0.75000000  1.05302819  1.0
  Mn  Mn5  1  0.37230719  0.75000000  0.44697181  1.0
  Mn  Mn6  1  0.12769281  0.25000000  -0.05302819  1.0
  Mn  Mn7  1  0.62769281  0.25000000  0.55302819  1.0
  Ge  Ge8  1  0.72382712  0.75000000  0.38469834  1.0
  Ge  Ge9  1  0.22382712  0.75000000  0.11530166  1.0
  Ge  Ge10  1  0.27617288  0.25000000  0.61530166  1.0
  Ge  Ge11  1  0.77617288  0.25000000  0.88469834  1.0
