# generated using pymatgen
data_Mn2P12W
_symmetry_space_group_name_H-M   'P 1'
_cell_length_a   8.50301187
_cell_length_b   8.50301187
_cell_length_c   10.58693235
_cell_angle_alpha   65.74482445
_cell_angle_beta   114.25517555
_cell_angle_gamma   140.57914059
_symmetry_Int_Tables_number   1
_chemical_formula_structural   Mn2P12W
_chemical_formula_sum   'Mn4 P24 W2'
_cell_volume   437.34895154
_cell_formula_units_Z   2
loop_
 _symmetry_equiv_pos_site_id
 _symmetry_equiv_pos_as_xyz
  1  'x, y, z'
loop_
 _atom_site_type_symbol
 _atom_site_label
 _atom_site_symmetry_multiplicity
 _atom_site_fract_x
 _atom_site_fract_y
 _atom_site_fract_z
 _atom_site_occupancy
  Mn  Mn0  1  0.51147651  -0.12772116  0.45475869  1.0
  Mn  Mn1  1  1.12772116  -0.51147651  0.95475869  1.0
  Mn  Mn2  1  0.87227884  0.51147651  0.04524131  1.0
  Mn  Mn3  1  1.48852349  0.12772116  0.54524131  1.0
  P  P4  1  1.83214763  0.06381538  0.99819422  1.0
  P  P5  1  0.93618462  0.16785237  0.49819422  1.0
  P  P6  1  1.06381538  -0.16785237  0.50180578  1.0
  P  P7  1  0.16785237  -0.06381538  0.00180578  1.0
  P  P8  1  0.52531108  -0.17077225  0.26024140  1.0
  P  P9  1  1.17077225  -0.52531108  0.76024140  1.0
  P  P10  1  0.82922775  0.52531108  0.23975860  1.0
  P  P11  1  1.47468892  0.17077225  0.73975860  1.0
  P  P12  1  0.55179077  0.09750341  0.07555393  1.0
  P  P13  1  0.90249659  -0.55179077  0.57555393  1.0
  P  P14  1  1.09750341  0.55179077  0.42444607  1.0
  P  P15  1  1.44820923  -0.09750341  0.92444607  1.0
  P  P16  1  0.50321267  0.14692109  0.33549688  1.0
  P  P17  1  0.85307891  -0.50321267  0.83549688  1.0
  P  P18  1  1.14692109  0.50321267  0.16450312  1.0
  P  P19  1  1.49678733  -0.14692109  0.66450312  1.0
  P  P20  1  0.20090699  0.07856304  0.16619984  1.0
  P  P21  1  0.92143696  0.79909301  0.66619984  1.0
  P  P22  1  1.07856304  -0.79909301  0.33380016  1.0
  P  P23  1  1.79909301  -0.07856304  0.83380016  1.0
  P  P24  1  0.49055138  0.42345195  0.42547583  1.0
  P  P25  1  0.57654805  0.50944862  0.92547583  1.0
  P  P26  1  1.42345195  -0.50944862  0.07452417  1.0
  P  P27  1  1.50944862  -0.42345195  0.57452417  1.0
  W  W28  1  0.80418891  0.80418891  0.25000000  1.0
  W  W29  1  0.19581109  0.19581109  0.75000000  1.0
