# generated using pymatgen
data_Nb2Al
_symmetry_space_group_name_H-M   'P 1'
_cell_length_a   9.97414252
_cell_length_b   9.97414252
_cell_length_c   5.17945418
_cell_angle_alpha   90.00000000
_cell_angle_beta   90.00000000
_cell_angle_gamma   90.00000000
_symmetry_Int_Tables_number   1
_chemical_formula_structural   Nb2Al
_chemical_formula_sum   'Nb20 Al10'
_cell_volume   515.27032855
_cell_formula_units_Z   10
loop_
 _symmetry_equiv_pos_site_id
 _symmetry_equiv_pos_as_xyz
  1  'x, y, z'
loop_
 _atom_site_type_symbol
 _atom_site_label
 _atom_site_symmetry_multiplicity
 _atom_site_fract_x
 _atom_site_fract_y
 _atom_site_fract_z
 _atom_site_occupancy
  Nb  Nb0  1  0.18147676  0.81852324  0.25266708  1.0
  Nb  Nb1  1  0.18147676  0.81852324  0.74733292  1.0
  Nb  Nb2  1  0.68147676  0.68147676  0.75266708  1.0
  Nb  Nb3  1  0.68147676  0.68147676  0.24733292  1.0
  Nb  Nb4  1  0.81852324  0.18147676  0.25266708  1.0
  Nb  Nb5  1  0.81852324  0.18147676  0.74733292  1.0
  Nb  Nb6  1  0.31852324  0.31852324  0.75266708  1.0
  Nb  Nb7  1  0.31852324  0.31852324  0.24733292  1.0
  Nb  Nb8  1  0.37222553  0.03512481  0.50000000  1.0
  Nb  Nb9  1  0.87222553  0.46487519  0.00000000  1.0
  Nb  Nb10  1  0.96487519  0.62777447  0.50000000  1.0
  Nb  Nb11  1  0.46487519  0.87222553  0.00000000  1.0
  Nb  Nb12  1  0.62777447  0.96487519  0.50000000  1.0
  Nb  Nb13  1  0.12777447  0.53512481  0.00000000  1.0
  Nb  Nb14  1  0.03512481  0.37222553  0.50000000  1.0
  Nb  Nb15  1  0.53512481  0.12777447  0.00000000  1.0
  Nb  Nb16  1  0.10387538  0.10387538  0.50000000  1.0
  Nb  Nb17  1  0.60387538  0.39612462  0.00000000  1.0
  Nb  Nb18  1  0.89612462  0.89612462  0.50000000  1.0
  Nb  Nb19  1  0.39612462  0.60387538  0.00000000  1.0
  Al  Al20  1  0.43312041  0.76148435  0.50000000  1.0
  Al  Al21  1  0.93312041  0.73851565  0.00000000  1.0
  Al  Al22  1  0.23851565  0.56687959  0.50000000  1.0
  Al  Al23  1  0.73851565  0.93312041  0.00000000  1.0
  Al  Al24  1  0.56687959  0.23851565  0.50000000  1.0
  Al  Al25  1  0.06687959  0.26148435  0.00000000  1.0
  Al  Al26  1  0.76148435  0.43312041  0.50000000  1.0
  Al  Al27  1  0.26148435  0.06687959  0.00000000  1.0
  Al  Al28  1  0.50000000  0.50000000  0.50000000  1.0
  Al  Al29  1  0.00000000  0.00000000  0.00000000  1.0
