# generated using pymatgen
data_CuAs2PbO7
_symmetry_space_group_name_H-M   'P 1'
_cell_length_a   5.75032973
_cell_length_b   8.55247450
_cell_length_c   14.26626222
_cell_angle_alpha   90.00000000
_cell_angle_beta   111.17821766
_cell_angle_gamma   90.00000000
_symmetry_Int_Tables_number   1
_chemical_formula_structural   CuAs2PbO7
_chemical_formula_sum   'Cu4 As8 Pb4 O28'
_cell_volume   654.22255726
_cell_formula_units_Z   4
loop_
 _symmetry_equiv_pos_site_id
 _symmetry_equiv_pos_as_xyz
  1  'x, y, z'
loop_
 _atom_site_type_symbol
 _atom_site_label
 _atom_site_symmetry_multiplicity
 _atom_site_fract_x
 _atom_site_fract_y
 _atom_site_fract_z
 _atom_site_occupancy
  Cu  Cu0  1  0.67312997  0.86514224  0.38238435  1.0
  Cu  Cu1  1  0.67312997  0.63485776  0.88238435  1.0
  Cu  Cu2  1  0.32687003  0.36514224  0.11761565  1.0
  Cu  Cu3  1  0.32687003  0.13485776  0.61761565  1.0
  As  As4  1  0.66687627  0.18936528  0.49195932  1.0
  As  As5  1  0.66687627  0.31063472  0.99195932  1.0
  As  As6  1  0.33312373  0.68936528  0.00804068  1.0
  As  As7  1  0.33312373  0.81063472  0.50804068  1.0
  As  As8  1  0.58833162  0.47453624  0.33890452  1.0
  As  As9  1  0.58833162  0.02546376  0.83890452  1.0
  As  As10  1  0.41166838  0.97453624  0.16109548  1.0
  As  As11  1  0.41166838  0.52546376  0.66109548  1.0
  Pb  Pb12  1  0.97471638  0.18861110  0.27020152  1.0
  Pb  Pb13  1  0.97471638  0.31138890  0.77020152  1.0
  Pb  Pb14  1  0.02528362  0.68861110  0.22979848  1.0
  Pb  Pb15  1  0.02528362  0.81138890  0.72979848  1.0
  O  O16  1  0.90897142  0.32272103  0.10509541  1.0
  O  O17  1  0.90897142  0.17727897  0.60509541  1.0
  O  O18  1  0.09102858  0.82272103  0.39490459  1.0
  O  O19  1  0.09102858  0.67727897  0.89490459  1.0
  O  O20  1  0.83847313  0.45711640  0.30116173  1.0
  O  O21  1  0.83847313  0.04288360  0.80116173  1.0
  O  O22  1  0.16152687  0.95711640  0.19883827  1.0
  O  O23  1  0.16152687  0.54288360  0.69883827  1.0
  O  O24  1  0.72143537  0.09506047  0.39369101  1.0
  O  O25  1  0.72143537  0.40493953  0.89369101  1.0
  O  O26  1  0.27856463  0.59506047  0.10630899  1.0
  O  O27  1  0.27856463  0.90493953  0.60630899  1.0
  O  O28  1  0.67256320  0.39767307  0.46336269  1.0
  O  O29  1  0.67256320  0.10232693  0.96336269  1.0
  O  O30  1  0.32743680  0.89767307  0.03663731  1.0
  O  O31  1  0.32743680  0.60232693  0.53663731  1.0
  O  O32  1  0.50820442  0.16454064  0.15443632  1.0
  O  O33  1  0.50820442  0.33545936  0.65443632  1.0
  O  O34  1  0.49179558  0.66454064  0.34556368  1.0
  O  O35  1  0.49179558  0.83545936  0.84556368  1.0
  O  O36  1  0.36429191  0.14984936  0.48599099  1.0
  O  O37  1  0.36429191  0.35015064  0.98599099  1.0
  O  O38  1  0.63570809  0.64984936  0.01400901  1.0
  O  O39  1  0.63570809  0.85015064  0.51400901  1.0
  O  O40  1  0.32377615  0.37867891  0.25911395  1.0
  O  O41  1  0.32377615  0.12132109  0.75911395  1.0
  O  O42  1  0.67622385  0.87867891  0.24088605  1.0
  O  O43  1  0.67622385  0.62132109  0.74088605  1.0
