# generated using pymatgen
data_Cr2CdH14(NO2)4
_symmetry_space_group_name_H-M   'P 1'
_cell_length_a   7.06775016
_cell_length_b   7.06775016
_cell_length_c   7.87638166
_cell_angle_alpha   70.74825354
_cell_angle_beta   109.25174646
_cell_angle_gamma   128.10931712
_symmetry_Int_Tables_number   1
_chemical_formula_structural   Cr2CdH14(NO2)4
_chemical_formula_sum   'Cr2 Cd1 H14 N4 O8'
_cell_volume   288.01716555
_cell_formula_units_Z   1
loop_
 _symmetry_equiv_pos_site_id
 _symmetry_equiv_pos_as_xyz
  1  'x, y, z'
loop_
 _atom_site_type_symbol
 _atom_site_label
 _atom_site_symmetry_multiplicity
 _atom_site_fract_x
 _atom_site_fract_y
 _atom_site_fract_z
 _atom_site_occupancy
  Cr  Cr0  1  0.33601076  -0.33601076  0.77353604  1.0
  Cr  Cr1  1  0.66398924  0.33601076  0.22646396  1.0
  Cd  Cd2  1  0.00000000  0.00000000  0.00000000  1.0
  H  H3  1  0.82170962  -0.08842346  0.65151156  1.0
  H  H4  1  1.08842346  0.17829038  0.65151156  1.0
  H  H5  1  0.91157654  0.82170962  0.34848844  1.0
  H  H6  1  0.17829038  0.08842346  0.34848844  1.0
  H  H7  1  0.58504540  0.14810682  0.78639707  1.0
  H  H8  1  0.85189318  0.41495460  0.78639707  1.0
  H  H9  1  1.14810682  0.58504540  0.21360293  1.0
  H  H10  1  0.41495460  -0.14810682  0.21360293  1.0
  H  H11  1  0.92331996  0.07668004  0.29649330  1.0
  H  H12  1  0.07668004  -0.07668004  0.70350670  1.0
  H  H13  1  0.64422615  0.35577385  0.58681068  1.0
  H  H14  1  0.35577385  -0.35577385  0.41318932  1.0
  H  H15  1  0.59471580  0.40528420  0.75756391  1.0
  H  H16  1  0.40528420  -0.40528420  0.24243609  1.0
  N  N17  1  0.99908193  0.00091807  0.71726241  1.0
  N  N18  1  0.00091807  -0.00091807  0.28273759  1.0
  N  N19  1  0.66793010  0.33206990  0.72895611  1.0
  N  N20  1  0.33206990  -0.33206990  0.27104389  1.0
  O  O21  1  0.42366827  -0.42366827  0.65994178  1.0
  O  O22  1  0.57633173  0.42366827  0.34005822  1.0
  O  O23  1  0.57699265  -0.13432845  0.90203331  1.0
  O  O24  1  1.13432846  0.42300735  0.90203331  1.0
  O  O25  1  0.86567155  0.57699265  0.09796669  1.0
  O  O26  1  0.42300735  0.13432846  0.09796669  1.0
  O  O27  1  0.79478864  0.20521136  0.37096125  1.0
  O  O28  1  0.20521136  -0.20521136  0.62903875  1.0
