# generated using pymatgen
data_Nb3Co4B7
_symmetry_space_group_name_H-M   'P 1'
_cell_length_a   9.31248293
_cell_length_b   9.31248293
_cell_length_c   8.86684477
_cell_angle_alpha   90.00000000
_cell_angle_beta   90.00000000
_cell_angle_gamma   160.23156150
_symmetry_Int_Tables_number   1
_chemical_formula_structural   Nb3Co4B7
_chemical_formula_sum   'Nb6 Co8 B14'
_cell_volume   260.07513574
_cell_formula_units_Z   2
loop_
 _symmetry_equiv_pos_site_id
 _symmetry_equiv_pos_as_xyz
  1  'x, y, z'
loop_
 _atom_site_type_symbol
 _atom_site_label
 _atom_site_symmetry_multiplicity
 _atom_site_fract_x
 _atom_site_fract_y
 _atom_site_fract_z
 _atom_site_occupancy
  Nb  Nb0  1  -0.58081069  0.58081069  0.44503032  1.0
  Nb  Nb1  1  -0.58081069  0.58081069  0.05496968  1.0
  Nb  Nb2  1  -0.41918931  1.41918931  0.94503032  1.0
  Nb  Nb3  1  -0.41918931  1.41918931  0.55496968  1.0
  Nb  Nb4  1  -0.30193010  1.30193010  0.25000000  1.0
  Nb  Nb5  1  -0.69806990  0.69806990  0.75000000  1.0
  Co  Co6  1  -0.80113780  0.80113780  0.49433191  1.0
  Co  Co7  1  -0.80113780  0.80113780  0.00566809  1.0
  Co  Co8  1  -0.19886220  1.19886220  0.99433191  1.0
  Co  Co9  1  -0.19886220  1.19886220  0.50566809  1.0
  Co  Co10  1  -0.45798874  1.45798874  0.25000000  1.0
  Co  Co11  1  -0.54201126  0.54201126  0.75000000  1.0
  Co  Co12  1  -0.15629763  1.15629763  0.25000000  1.0
  Co  Co13  1  -0.84370237  0.84370237  0.75000000  1.0
  B  B14  1  -0.98464994  0.98464994  0.40676591  1.0
  B  B15  1  -0.98464994  0.98464994  0.09323409  1.0
  B  B16  1  -0.01535006  1.01535006  0.90676591  1.0
  B  B17  1  -0.01535006  1.01535006  0.59323409  1.0
  B  B18  1  -0.89023646  0.89023646  0.35220460  1.0
  B  B19  1  -0.89023646  0.89023646  0.14779540  1.0
  B  B20  1  -0.10976354  1.10976354  0.85220460  1.0
  B  B21  1  -0.10976354  1.10976354  0.64779540  1.0
  B  B22  1  -0.71011790  0.71011790  0.35542135  1.0
  B  B23  1  -0.71011790  0.71011790  0.14457865  1.0
  B  B24  1  -0.28988210  1.28988210  0.85542135  1.0
  B  B25  1  -0.28988210  1.28988210  0.64457865  1.0
  B  B26  1  -0.04470982  1.04470982  0.25000000  1.0
  B  B27  1  -0.95529018  0.95529018  0.75000000  1.0
