# generated using pymatgen
data_RbSc3F10
_symmetry_space_group_name_H-M   'P 1'
_cell_length_a   6.80739676
_cell_length_b   7.67383462
_cell_length_c   8.12710499
_cell_angle_alpha   90.00000000
_cell_angle_beta   90.00000000
_cell_angle_gamma   90.00000000
_symmetry_Int_Tables_number   1
_chemical_formula_structural   RbSc3F10
_chemical_formula_sum   'Rb2 Sc6 F20'
_cell_volume   424.55051195
_cell_formula_units_Z   2
loop_
 _symmetry_equiv_pos_site_id
 _symmetry_equiv_pos_as_xyz
  1  'x, y, z'
loop_
 _atom_site_type_symbol
 _atom_site_label
 _atom_site_symmetry_multiplicity
 _atom_site_fract_x
 _atom_site_fract_y
 _atom_site_fract_z
 _atom_site_occupancy
  Rb  Rb0  1  -0.00167671  0.50000000  0.50000000  1.0
  Rb  Rb1  1  0.00167671  0.50000000  0.00000000  1.0
  Sc  Sc2  1  0.50000000  0.73072780  0.75000000  1.0
  Sc  Sc3  1  0.50000000  0.26927220  0.25000000  1.0
  Sc  Sc4  1  0.50000000  0.26918734  0.75000000  1.0
  Sc  Sc5  1  0.50000000  0.73081266  0.25000000  1.0
  Sc  Sc6  1  0.00000000  -0.00002442  0.75000000  1.0
  Sc  Sc7  1  0.00000000  0.00002442  0.25000000  1.0
  F  F8  1  0.80116960  0.80497351  0.22377745  1.0
  F  F9  1  0.80116960  0.19502649  0.77622255  1.0
  F  F10  1  0.19883040  0.80497351  0.27622255  1.0
  F  F11  1  0.19883040  0.19502649  0.72377745  1.0
  F  F12  1  0.80120242  0.80487591  0.77609837  1.0
  F  F13  1  0.80120242  0.19512409  0.22390163  1.0
  F  F14  1  0.19879758  0.80487591  0.72390163  1.0
  F  F15  1  0.19879758  0.19512409  0.27609837  1.0
  F  F16  1  0.67530201  0.49995994  0.75776247  1.0
  F  F17  1  0.67530201  0.50004006  0.24223753  1.0
  F  F18  1  0.32469799  0.49995994  0.74223753  1.0
  F  F19  1  0.32469799  0.50004006  0.25776247  1.0
  F  F20  1  0.52993536  0.72335164  0.49998303  1.0
  F  F21  1  0.52993536  0.27664836  0.50001697  1.0
  F  F22  1  0.47006464  0.72335164  1.00001697  1.0
  F  F23  1  0.47006464  0.27664836  -0.00001697  1.0
  F  F24  1  0.50000000  -0.00004578  0.75000000  1.0
  F  F25  1  0.50000000  0.00004578  0.25000000  1.0
  F  F26  1  0.95736914  0.00000000  0.50000000  1.0
  F  F27  1  0.04263086  0.00000000  0.00000000  1.0
