# generated using pymatgen
data_SF6
_symmetry_space_group_name_H-M   'P 1'
_cell_length_a   8.91953169
_cell_length_b   8.91953169
_cell_length_c   5.16935046
_cell_angle_alpha   90.00000000
_cell_angle_beta   90.00000000
_cell_angle_gamma   120.00000000
_symmetry_Int_Tables_number   1
_chemical_formula_structural   SF6
_chemical_formula_sum   'S3 F18'
_cell_volume   356.16456922
_cell_formula_units_Z   3
loop_
 _symmetry_equiv_pos_site_id
 _symmetry_equiv_pos_as_xyz
  1  'x, y, z'
loop_
 _atom_site_type_symbol
 _atom_site_label
 _atom_site_symmetry_multiplicity
 _atom_site_fract_x
 _atom_site_fract_y
 _atom_site_fract_z
 _atom_site_occupancy
  S  S0  1  0.00000000  0.00000000  0.00000000  1.0
  S  S1  1  0.66666667  0.33333333  0.41727621  1.0
  S  S2  1  0.33333333  0.66666667  0.58272379  1.0
  F  F3  1  0.16933219  0.08466610  0.17894532  1.0
  F  F4  1  0.91533390  0.83066781  0.17894532  1.0
  F  F5  1  0.91533390  0.08466610  0.17894532  1.0
  F  F6  1  0.83066781  0.91533390  0.82105468  1.0
  F  F7  1  0.08466610  0.16933219  0.82105468  1.0
  F  F8  1  0.08466610  0.91533390  0.82105468  1.0
  F  F9  1  0.83602392  0.41801196  0.23832824  1.0
  F  F10  1  0.58198804  0.16397608  0.23832824  1.0
  F  F11  1  0.58198804  0.41801196  0.23832824  1.0
  F  F12  1  0.16397608  0.58198804  0.76167176  1.0
  F  F13  1  0.41801196  0.83602392  0.76167176  1.0
  F  F14  1  0.41801196  0.58198804  0.76167176  1.0
  F  F15  1  0.50268940  0.75134470  0.40377332  1.0
  F  F16  1  0.24865530  0.49731060  0.40377332  1.0
  F  F17  1  0.24865530  0.75134470  0.40377332  1.0
  F  F18  1  0.49731060  0.24865530  0.59622668  1.0
  F  F19  1  0.75134470  0.50268940  0.59622668  1.0
  F  F20  1  0.75134470  0.24865530  0.59622668  1.0
