# generated using pymatgen
data_Mn2Fe(CN)6
_symmetry_space_group_name_H-M   'P 1'
_cell_length_a   6.03771099
_cell_length_b   6.03771099
_cell_length_c   6.44126648
_cell_angle_alpha   90.00000000
_cell_angle_beta   90.00000000
_cell_angle_gamma   120.00000000
_symmetry_Int_Tables_number   1
_chemical_formula_structural   Mn2Fe(CN)6
_chemical_formula_sum   'Mn2 Fe1 C6 N6'
_cell_volume   203.35110641
_cell_formula_units_Z   1
loop_
 _symmetry_equiv_pos_site_id
 _symmetry_equiv_pos_as_xyz
  1  'x, y, z'
loop_
 _atom_site_type_symbol
 _atom_site_label
 _atom_site_symmetry_multiplicity
 _atom_site_fract_x
 _atom_site_fract_y
 _atom_site_fract_z
 _atom_site_occupancy
  Mn  Mn0  1  0.33333333  0.66666667  0.50003498  1.0
  Mn  Mn1  1  0.66666667  0.33333333  0.49996502  1.0
  Fe  Fe2  1  0.00000000  0.00000000  0.00000000  1.0
  C  C3  1  0.24251738  -0.00003249  0.17939227  1.0
  C  C4  1  -0.00003249  0.75745013  0.82060773  1.0
  C  C5  1  0.75745013  0.75748262  0.17939227  1.0
  C  C6  1  1.00003249  0.24254987  0.17939227  1.0
  C  C7  1  0.75748262  1.00003249  0.82060773  1.0
  C  C8  1  0.24254987  0.24251738  0.82060773  1.0
  N  N9  1  0.38111046  1.00000643  0.30976991  1.0
  N  N10  1  1.00000643  0.61889596  0.69023009  1.0
  N  N11  1  0.61889596  0.61888954  0.30976991  1.0
  N  N12  1  -0.00000643  0.38110404  0.30976991  1.0
  N  N13  1  0.61888954  -0.00000643  0.69023009  1.0
  N  N14  1  0.38110404  0.38111046  0.69023009  1.0
