# generated using pymatgen
data_MgSn4
_symmetry_space_group_name_H-M   'P 1'
_cell_length_a   7.61544488
_cell_length_b   7.61544488
_cell_length_c   7.61544488
_cell_angle_alpha   60.00000000
_cell_angle_beta   60.00000000
_cell_angle_gamma   60.00000000
_symmetry_Int_Tables_number   1
_chemical_formula_structural   MgSn4
_chemical_formula_sum   'Mg2 Sn8'
_cell_volume   312.29917672
_cell_formula_units_Z   2
loop_
 _symmetry_equiv_pos_site_id
 _symmetry_equiv_pos_as_xyz
  1  'x, y, z'
loop_
 _atom_site_type_symbol
 _atom_site_label
 _atom_site_symmetry_multiplicity
 _atom_site_fract_x
 _atom_site_fract_y
 _atom_site_fract_z
 _atom_site_occupancy
  Mg  Mg0  1  0.50000000  0.50000000  -0.50000000  1.0
  Mg  Mg1  1  0.75000000  -0.25000000  0.75000000  1.0
  Sn  Sn2  1  -0.09889085  0.90110915  0.29667254  1.0
  Sn  Sn3  1  0.90110915  -0.70332746  0.90110915  1.0
  Sn  Sn4  1  0.34889085  0.34889085  0.34889085  1.0
  Sn  Sn5  1  -0.04667254  0.34889085  0.34889085  1.0
  Sn  Sn6  1  -0.70332746  0.90110915  0.90110915  1.0
  Sn  Sn7  1  0.90110915  -0.09889085  0.90110915  1.0
  Sn  Sn8  1  0.34889085  -0.04667254  0.34889085  1.0
  Sn  Sn9  1  0.34889085  0.34889085  -0.04667254  1.0
