# generated using pymatgen
data_PdSe2
_symmetry_space_group_name_H-M   'P 1'
_cell_length_a   5.79259821
_cell_length_b   5.93758699
_cell_length_c   8.33642603
_cell_angle_alpha   90.00000000
_cell_angle_beta   90.00000000
_cell_angle_gamma   90.00000000
_symmetry_Int_Tables_number   1
_chemical_formula_structural   PdSe2
_chemical_formula_sum   'Pd4 Se8'
_cell_volume   286.72350164
_cell_formula_units_Z   4
loop_
 _symmetry_equiv_pos_site_id
 _symmetry_equiv_pos_as_xyz
  1  'x, y, z'
loop_
 _atom_site_type_symbol
 _atom_site_label
 _atom_site_symmetry_multiplicity
 _atom_site_fract_x
 _atom_site_fract_y
 _atom_site_fract_z
 _atom_site_occupancy
  Pd  Pd0  1  0.50000000  0.00000000  0.50000000  1.0
  Pd  Pd1  1  0.00000000  0.50000000  0.50000000  1.0
  Pd  Pd2  1  0.50000000  0.50000000  0.00000000  1.0
  Pd  Pd3  1  -0.00000000  -0.00000000  -0.00000000  1.0
  Se  Se4  1  0.61173000  0.11949316  0.08795442  1.0
  Se  Se5  1  0.11173000  0.38050684  0.91204558  1.0
  Se  Se6  1  0.38827000  0.61949316  0.41204558  1.0
  Se  Se7  1  0.88827000  0.88050684  0.58795442  1.0
  Se  Se8  1  0.38827000  0.88050684  0.91204558  1.0
  Se  Se9  1  0.88827000  0.61949316  0.08795442  1.0
  Se  Se10  1  0.61173000  0.38050684  0.58795442  1.0
  Se  Se11  1  0.11173000  0.11949316  0.41204558  1.0
