# generated using pymatgen
data_CrMoO4
_symmetry_space_group_name_H-M   'P 1'
_cell_length_a   5.48825640
_cell_length_b   5.48825640
_cell_length_c   4.65436072
_cell_angle_alpha   88.52431487
_cell_angle_beta   91.47568513
_cell_angle_gamma   115.62178547
_symmetry_Int_Tables_number   1
_chemical_formula_structural   CrMoO4
_chemical_formula_sum   'Cr2 Mo2 O8'
_cell_volume   126.34975217
_cell_formula_units_Z   2
loop_
 _symmetry_equiv_pos_site_id
 _symmetry_equiv_pos_as_xyz
  1  'x, y, z'
loop_
 _atom_site_type_symbol
 _atom_site_label
 _atom_site_symmetry_multiplicity
 _atom_site_fract_x
 _atom_site_fract_y
 _atom_site_fract_z
 _atom_site_occupancy
  Cr  Cr0  1  0.75995729  -0.75995729  0.99044955  1.0
  Cr  Cr1  1  0.24004271  -0.24004271  0.00955045  1.0
  Mo  Mo2  1  0.72780955  -0.27219045  0.50000000  1.0
  Mo  Mo3  1  1.27219045  0.27219045  0.50000000  1.0
  O  O4  1  1.40410786  0.10710186  0.79982186  1.0
  O  O5  1  0.89289814  -0.40410786  0.79982186  1.0
  O  O6  1  1.10710186  0.40410786  0.20017814  1.0
  O  O7  1  0.59589214  -0.10710186  0.20017814  1.0
  O  O8  1  0.90514102  -0.90514102  0.69458616  1.0
  O  O9  1  0.09485898  -0.09485898  0.30541384  1.0
  O  O10  1  0.38679796  -0.38679796  0.71592614  1.0
  O  O11  1  0.61320204  -0.61320204  0.28407386  1.0
