# generated using pymatgen
data_As2Os
_symmetry_space_group_name_H-M   'P 1'
_cell_length_a   5.47750983
_cell_length_b   6.26011394
_cell_length_c   3.05685259
_cell_angle_alpha   90.00000000
_cell_angle_beta   90.00000000
_cell_angle_gamma   90.00000000
_symmetry_Int_Tables_number   1
_chemical_formula_structural   As2Os
_chemical_formula_sum   'As4 Os2'
_cell_volume   104.81897276
_cell_formula_units_Z   2
loop_
 _symmetry_equiv_pos_site_id
 _symmetry_equiv_pos_as_xyz
  1  'x, y, z'
loop_
 _atom_site_type_symbol
 _atom_site_label
 _atom_site_symmetry_multiplicity
 _atom_site_fract_x
 _atom_site_fract_y
 _atom_site_fract_z
 _atom_site_occupancy
  As  As0  1  0.32888831  0.86531959  0.50000000  1.0
  As  As1  1  0.82888831  0.63468041  0.00000000  1.0
  As  As2  1  0.67111169  0.13468041  0.50000000  1.0
  As  As3  1  0.17111169  0.36531959  0.00000000  1.0
  Os  Os4  1  0.50000000  0.50000000  0.50000000  1.0
  Os  Os5  1  0.00000000  0.00000000  0.00000000  1.0
