# generated using pymatgen
data_NaIr(N2O3)4
_symmetry_space_group_name_H-M   'P 1'
_cell_length_a   7.50594123
_cell_length_b   7.50594123
_cell_length_c   7.50594123
_cell_angle_alpha   60.00000000
_cell_angle_beta   60.00000000
_cell_angle_gamma   60.00000000
_symmetry_Int_Tables_number   1
_chemical_formula_structural   NaIr(N2O3)4
_chemical_formula_sum   'Na1 Ir1 N8 O12'
_cell_volume   299.02016835
_cell_formula_units_Z   1
loop_
 _symmetry_equiv_pos_site_id
 _symmetry_equiv_pos_as_xyz
  1  'x, y, z'
loop_
 _atom_site_type_symbol
 _atom_site_label
 _atom_site_symmetry_multiplicity
 _atom_site_fract_x
 _atom_site_fract_y
 _atom_site_fract_z
 _atom_site_occupancy
  N  N0  1  -0.80138693  0.80138693  0.80138693  1.0
  N  N1  1  0.19861307  -0.19861307  0.19861307  1.0
  N  N2  1  -0.19861307  0.19861307  0.80138693  1.0
  N  N3  1  -0.19861307  0.80138693  0.19861307  1.0
  N  N4  1  0.19861307  1.19861307  -0.19861307  1.0
  N  N5  1  -0.19861307  0.19861307  0.19861307  1.0
  N  N6  1  0.25000000  0.25000000  0.25000000  1.0
  N  N7  1  0.75000000  0.75000000  -0.25000000  1.0
  Na  Na8  1  -0.50000000  0.50000000  0.50000000  1.0
  Ir  Ir9  1  -0.00000000  0.00000000  -0.00000000  1.0
  O  O10  1  1.14989212  0.64502921  -0.64502921  1.0
  O  O11  1  0.64502921  1.14989212  -0.14989212  1.0
  O  O12  1  0.35497079  -0.14989212  0.14989212  1.0
  O  O13  1  -0.14989212  0.35497079  0.64502921  1.0
  O  O14  1  -0.14989212  0.64502921  0.14989212  1.0
  O  O15  1  0.35497079  1.14989212  -0.35497079  1.0
  O  O16  1  -0.64502921  0.64502921  0.85010788  1.0
  O  O17  1  0.14989212  -0.14989212  0.64502921  1.0
  O  O18  1  -0.35497079  0.85010788  0.35497079  1.0
  O  O19  1  0.14989212  1.35497079  -0.14989212  1.0
  O  O20  1  -0.14989212  0.14989212  0.35497079  1.0
  O  O21  1  -0.35497079  0.35497079  1.14989212  1.0
