# generated using pymatgen
data_K2ErSbO7
_symmetry_space_group_name_H-M   'P 1'
_cell_length_a   8.02021693
_cell_length_b   8.02021693
_cell_length_c   8.02021693
_cell_angle_alpha   120.41445084
_cell_angle_beta   91.47671083
_cell_angle_gamma   117.90313052
_symmetry_Int_Tables_number   1
_chemical_formula_structural   K2ErSbO7
_chemical_formula_sum   'K4 Er2 Sb2 O14'
_cell_volume   369.08100882
_cell_formula_units_Z   2
loop_
 _symmetry_equiv_pos_site_id
 _symmetry_equiv_pos_as_xyz
  1  'x, y, z'
loop_
 _atom_site_type_symbol
 _atom_site_label
 _atom_site_symmetry_multiplicity
 _atom_site_fract_x
 _atom_site_fract_y
 _atom_site_fract_z
 _atom_site_occupancy
  K  K0  1  1.61243383  0.86222032  0.75021351  1.0
  K  K1  1  1.11200681  0.86222032  0.24978649  1.0
  K  K2  1  0.61182940  0.36160913  0.74977973  1.0
  K  K3  1  0.61182940  0.86204967  1.25022027  1.0
  Er  Er4  1  1.11230615  0.86227263  0.74996647  1.0
  Er  Er5  1  1.11230615  1.36233968  1.25003353  1.0
  Sb  Sb6  1  1.11224033  1.36225591  0.74998442  1.0
  Sb  Sb7  1  1.61227150  1.36225591  1.25001558  1.0
  O  O8  1  1.07326092  1.25316836  0.45411474  1.0
  O  O9  1  1.79905362  1.25316836  1.17990744  1.0
  O  O10  1  1.07326092  1.61914619  0.82009256  1.0
  O  O11  1  1.79905362  1.61914619  1.54588526  1.0
  O  O12  1  1.15145290  1.10549314  0.67987779  1.0
  O  O13  1  1.42561536  1.10549314  0.95404024  1.0
  O  O14  1  1.15145290  1.47157511  1.04595976  1.0
  O  O15  1  1.42561536  1.47157511  1.32012221  1.0
  O  O16  1  0.40487936  0.56538543  0.83949394  1.0
  O  O17  1  0.72589149  0.56538543  1.16050606  1.0
  O  O18  1  0.81968531  0.15897494  0.66071036  1.0
  O  O19  1  0.49826458  0.15897494  0.33928964  1.0
  O  O20  1  1.21267354  0.71267354  0.50000000  1.0
  O  O21  1  0.01211655  0.01211655  -0.00000000  1.0
