# generated using pymatgen
data_BaIF
_symmetry_space_group_name_H-M   'P 1'
_cell_length_a   4.65767778
_cell_length_b   4.65767778
_cell_length_c   8.38330566
_cell_angle_alpha   90.00000000
_cell_angle_beta   90.00000000
_cell_angle_gamma   90.00000000
_symmetry_Int_Tables_number   1
_chemical_formula_structural   BaIF
_chemical_formula_sum   'Ba2 I2 F2'
_cell_volume   181.86711652
_cell_formula_units_Z   2
loop_
 _symmetry_equiv_pos_site_id
 _symmetry_equiv_pos_as_xyz
  1  'x, y, z'
loop_
 _atom_site_type_symbol
 _atom_site_label
 _atom_site_symmetry_multiplicity
 _atom_site_fract_x
 _atom_site_fract_y
 _atom_site_fract_z
 _atom_site_occupancy
  Ba  Ba0  1  0.50000000  0.00000000  0.16712596  1.0
  Ba  Ba1  1  0.00000000  0.50000000  0.83287404  1.0
  I  I2  1  0.50000000  0.00000000  0.65408599  1.0
  I  I3  1  0.00000000  0.50000000  0.34591401  1.0
  F  F4  1  0.00000000  0.00000000  0.00000000  1.0
  F  F5  1  0.50000000  0.50000000  0.00000000  1.0
