# generated using pymatgen
data_Eu2(Ga3Rh)3
_symmetry_space_group_name_H-M   'P 1'
_cell_length_a   7.58268452
_cell_length_b   7.58268452
_cell_length_c   9.75150004
_cell_angle_alpha   90.00000000
_cell_angle_beta   90.00000000
_cell_angle_gamma   60.58958541
_symmetry_Int_Tables_number   1
_chemical_formula_structural   Eu2(Ga3Rh)3
_chemical_formula_sum   'Eu4 Ga18 Rh6'
_cell_volume   488.42474952
_cell_formula_units_Z   2
loop_
 _symmetry_equiv_pos_site_id
 _symmetry_equiv_pos_as_xyz
  1  'x, y, z'
loop_
 _atom_site_type_symbol
 _atom_site_label
 _atom_site_symmetry_multiplicity
 _atom_site_fract_x
 _atom_site_fract_y
 _atom_site_fract_z
 _atom_site_occupancy
  Eu  Eu0  1  -0.00158476  1.32999677  0.25000000  1.0
  Eu  Eu1  1  0.32999677  0.99841524  0.75000000  1.0
  Eu  Eu2  1  -0.32999677  1.00158476  0.25000000  1.0
  Eu  Eu3  1  0.00158476  0.67000323  0.75000000  1.0
  Ga  Ga4  1  0.00351559  0.66469948  0.42488328  1.0
  Ga  Ga5  1  0.00351559  0.66469948  0.07511672  1.0
  Ga  Ga6  1  -0.33530052  1.00351559  0.92488328  1.0
  Ga  Ga7  1  -0.33530052  1.00351559  0.57511672  1.0
  Ga  Ga8  1  0.33530052  0.99648441  0.42488328  1.0
  Ga  Ga9  1  0.33530052  0.99648441  0.07511672  1.0
  Ga  Ga10  1  -0.00351559  1.33530052  0.92488328  1.0
  Ga  Ga11  1  -0.00351559  1.33530052  0.57511672  1.0
  Ga  Ga12  1  0.33776494  0.45350567  0.25000000  1.0
  Ga  Ga13  1  -0.54649433  1.33776494  0.75000000  1.0
  Ga  Ga14  1  0.54649433  0.66223506  0.25000000  1.0
  Ga  Ga15  1  -0.33776494  1.54649433  0.75000000  1.0
  Ga  Ga16  1  0.33457567  0.66542433  0.94009943  1.0
  Ga  Ga17  1  0.33457567  0.66542433  0.55990057  1.0
  Ga  Ga18  1  -0.33457567  1.33457567  0.44009943  1.0
  Ga  Ga19  1  -0.33457567  1.33457567  0.05990057  1.0
  Ga  Ga20  1  0.12813089  0.87186911  0.25000000  1.0
  Ga  Ga21  1  -0.12813089  1.12813089  0.75000000  1.0
  Rh  Rh22  1  0.67046802  0.67046802  0.50000000  1.0
  Rh  Rh23  1  0.67046802  0.67046802  0.00000000  1.0
  Rh  Rh24  1  0.32953198  0.32953198  0.50000000  1.0
  Rh  Rh25  1  0.32953198  0.32953198  0.00000000  1.0
  Rh  Rh26  1  0.00000000  0.00000000  0.50000000  1.0
  Rh  Rh27  1  0.00000000  0.00000000  0.00000000  1.0
