# generated using pymatgen
data_Cu3AsS3
_symmetry_space_group_name_H-M   'P 1'
_cell_length_a   8.65673385
_cell_length_b   8.65673385
_cell_length_c   8.65673385
_cell_angle_alpha   109.47122063
_cell_angle_beta   109.47122063
_cell_angle_gamma   109.47122063
_symmetry_Int_Tables_number   1
_chemical_formula_structural   Cu3AsS3
_chemical_formula_sum   'Cu12 As4 S12'
_cell_volume   499.39053409
_cell_formula_units_Z   4
loop_
 _symmetry_equiv_pos_site_id
 _symmetry_equiv_pos_as_xyz
  1  'x, y, z'
loop_
 _atom_site_type_symbol
 _atom_site_label
 _atom_site_symmetry_multiplicity
 _atom_site_fract_x
 _atom_site_fract_y
 _atom_site_fract_z
 _atom_site_occupancy
  Cu  Cu0  1  0.50000000  0.75000000  0.25000000  1.0
  Cu  Cu1  1  0.25000000  0.50000000  0.75000000  1.0
  Cu  Cu2  1  0.75000000  0.25000000  0.50000000  1.0
  Cu  Cu3  1  0.75000000  0.50000000  0.25000000  1.0
  Cu  Cu4  1  0.50000000  0.25000000  0.75000000  1.0
  Cu  Cu5  1  0.25000000  0.75000000  0.50000000  1.0
  Cu  Cu6  1  0.00000000  0.81841609  0.81841609  1.0
  Cu  Cu7  1  0.81841609  -0.00000000  0.81841609  1.0
  Cu  Cu8  1  0.81841609  0.81841609  -0.00000000  1.0
  Cu  Cu9  1  0.00000000  0.18158391  0.18158391  1.0
  Cu  Cu10  1  0.18158391  -0.00000000  0.18158391  1.0
  Cu  Cu11  1  0.18158391  0.18158391  -0.00000000  1.0
  As  As12  1  0.47598362  0.47598362  0.47598362  1.0
  As  As13  1  1.00000000  1.00000000  0.52401638  1.0
  As  As14  1  1.00000000  0.52401638  1.00000000  1.0
  As  As15  1  0.52401638  1.00000000  1.00000000  1.0
  S  S16  1  0.53381104  0.53381104  0.77285900  1.0
  S  S17  1  0.77285900  0.53381104  0.53381104  1.0
  S  S18  1  0.53381104  0.77285900  0.53381104  1.0
  S  S19  1  0.76095203  0.76095203  0.22714100  1.0
  S  S20  1  1.00000000  1.23904797  0.46618896  1.0
  S  S21  1  1.23904797  1.00000000  0.46618896  1.0
  S  S22  1  1.23904797  0.46618896  1.00000000  1.0
  S  S23  1  1.00000000  0.46618896  1.23904797  1.0
  S  S24  1  0.76095203  0.22714100  0.76095203  1.0
  S  S25  1  0.46618896  1.23904797  1.00000000  1.0
  S  S26  1  0.22714100  0.76095203  0.76095203  1.0
  S  S27  1  0.46618896  1.00000000  1.23904797  1.0
