# generated using pymatgen
data_Nb10Si2Ni
_symmetry_space_group_name_H-M   'P 1'
_cell_length_a   9.88242320
_cell_length_b   9.88242320
_cell_length_c   9.88242320
_cell_angle_alpha   30.86775893
_cell_angle_beta   30.86775893
_cell_angle_gamma   30.86775893
_symmetry_Int_Tables_number   1
_chemical_formula_structural   Nb10Si2Ni
_chemical_formula_sum   'Nb10 Si2 Ni1'
_cell_volume   225.32889018
_cell_formula_units_Z   1
loop_
 _symmetry_equiv_pos_site_id
 _symmetry_equiv_pos_as_xyz
  1  'x, y, z'
loop_
 _atom_site_type_symbol
 _atom_site_label
 _atom_site_symmetry_multiplicity
 _atom_site_fract_x
 _atom_site_fract_y
 _atom_site_fract_z
 _atom_site_occupancy
  Nb  Nb0  1  0.65044446  0.65044446  -0.34955554  1.0
  Nb  Nb1  1  0.34955554  0.34955554  -0.65044446  1.0
  Nb  Nb2  1  0.83404820  -0.16595180  -0.16595180  1.0
  Nb  Nb3  1  0.16595180  0.16595180  0.16595180  1.0
  Nb  Nb4  1  0.41253495  -0.09142001  -0.09142001  1.0
  Nb  Nb5  1  0.90857999  -0.09142001  -0.58746505  1.0
  Nb  Nb6  1  0.90857999  -0.58746505  -0.09142001  1.0
  Nb  Nb7  1  0.58746505  0.09142001  0.09142001  1.0
  Nb  Nb8  1  1.09142001  0.09142001  -0.41253495  1.0
  Nb  Nb9  1  1.09142001  -0.41253495  0.09142001  1.0
  Si  Si10  1  0.54709883  0.54709883  -0.45290117  1.0
  Si  Si11  1  0.45290117  0.45290117  -0.54709883  1.0
  Ni  Ni12  1  0.00000000  0.00000000  0.00000000  1.0
