# generated using pymatgen
data_H2INO2
_symmetry_space_group_name_H-M   'P 1'
_cell_length_a   8.79979353
_cell_length_b   8.79979353
_cell_length_c   8.79979353
_cell_angle_alpha   134.88100069
_cell_angle_beta   134.88100069
_cell_angle_gamma   65.71515386
_symmetry_Int_Tables_number   1
_chemical_formula_structural   H2INO2
_chemical_formula_sum   'H8 I4 N4 O8'
_cell_volume   336.99367402
_cell_formula_units_Z   4
loop_
 _symmetry_equiv_pos_site_id
 _symmetry_equiv_pos_as_xyz
  1  'x, y, z'
loop_
 _atom_site_type_symbol
 _atom_site_label
 _atom_site_symmetry_multiplicity
 _atom_site_fract_x
 _atom_site_fract_y
 _atom_site_fract_z
 _atom_site_occupancy
  H  H0  1  0.49626828  0.52559475  0.77021282  1.0
  H  H1  1  0.99461806  0.52394454  1.27021282  1.0
  H  H2  1  0.47440525  1.24461806  0.97067352  1.0
  H  H3  1  0.47605546  0.74626828  0.47067352  1.0
  H  H4  1  0.75538194  0.72605546  1.22978718  1.0
  H  H5  1  0.25373172  0.72440525  0.72978718  1.0
  H  H6  1  1.27394454  0.50373172  1.02932648  1.0
  H  H7  1  1.27559475  1.00538194  1.52932648  1.0
  I  I8  1  0.87500000  0.12500000  0.75000000  1.0
  I  I9  1  0.37500000  0.12500000  0.25000000  1.0
  I  I10  1  0.87500000  0.62500000  0.75000000  1.0
  I  I11  1  0.87500000  1.12500000  1.25000000  1.0
  N  N12  1  0.37500000  0.62500000  0.75000000  1.0
  N  N13  1  0.87500000  0.62500000  1.25000000  1.0
  N  N14  1  0.37500000  1.12500000  0.75000000  1.0
  N  N15  1  0.37500000  0.62500000  0.25000000  1.0
  O  O16  1  1.11735725  0.91472769  1.79692174  1.0
  O  O17  1  0.63219406  0.92956449  1.29692174  1.0
  O  O18  1  1.08527231  0.88219406  1.20262957  1.0
  O  O19  1  1.07043551  1.36735725  1.70262957  1.0
  O  O20  1  0.11780594  0.32043551  0.20307826  1.0
  O  O21  1  0.63264275  0.33527231  0.70307826  1.0
  O  O22  1  0.67956449  0.88264275  0.79737043  1.0
  O  O23  1  0.66472769  0.36780594  0.29737043  1.0
