# generated using pymatgen
data_ZnCu3(ClO3)2
_symmetry_space_group_name_H-M   'P 1'
_cell_length_a   5.93002955
_cell_length_b   5.93002955
_cell_length_c   5.93002955
_cell_angle_alpha   63.51229178
_cell_angle_beta   63.51229178
_cell_angle_gamma   63.51229178
_symmetry_Int_Tables_number   1
_chemical_formula_structural   ZnCu3(ClO3)2
_chemical_formula_sum   'Zn1 Cu3 Cl2 O6'
_cell_volume   158.90504372
_cell_formula_units_Z   1
loop_
 _symmetry_equiv_pos_site_id
 _symmetry_equiv_pos_as_xyz
  1  'x, y, z'
loop_
 _atom_site_type_symbol
 _atom_site_label
 _atom_site_symmetry_multiplicity
 _atom_site_fract_x
 _atom_site_fract_y
 _atom_site_fract_z
 _atom_site_occupancy
  Zn  Zn0  1  0.00000000  0.00000000  0.00000000  1.0
  Cu  Cu1  1  1.00000000  1.50000000  -0.00000000  1.0
  Cu  Cu2  1  1.00000000  -0.00000000  -0.50000000  1.0
  Cu  Cu3  1  0.50000000  -0.00000000  0.00000000  1.0
  Cl  Cl4  1  0.69466930  0.69466930  -0.30533070  1.0
  Cl  Cl5  1  1.30533070  1.30533070  0.30533070  1.0
  O  O6  1  0.23996564  0.23996564  -0.16588030  1.0
  O  O7  1  0.23996564  0.83411970  -0.76003436  1.0
  O  O8  1  1.16588030  -0.23996564  -0.23996564  1.0
  O  O9  1  0.76003436  0.16588030  -0.23996564  1.0
  O  O10  1  0.76003436  -0.23996564  0.16588030  1.0
  O  O11  1  0.83411970  0.23996564  -0.76003436  1.0
