# generated using pymatgen
data_CaAg2H4C4S4(N2O)2
_symmetry_space_group_name_H-M   'P 1'
_cell_length_a   12.03608308
_cell_length_b   12.03608308
_cell_length_c   8.27684048
_cell_angle_alpha   81.70294087
_cell_angle_beta   98.29705913
_cell_angle_gamma   140.41969952
_symmetry_Int_Tables_number   1
_chemical_formula_structural   CaAg2H4C4S4(N2O)2
_chemical_formula_sum   'Ca2 Ag4 H8 C8 S8 N8 O4'
_cell_volume   754.94341113
_cell_formula_units_Z   2
loop_
 _symmetry_equiv_pos_site_id
 _symmetry_equiv_pos_as_xyz
  1  'x, y, z'
loop_
 _atom_site_type_symbol
 _atom_site_label
 _atom_site_symmetry_multiplicity
 _atom_site_fract_x
 _atom_site_fract_y
 _atom_site_fract_z
 _atom_site_occupancy
  Ca  Ca0  1  1.06232515  0.06232515  0.25000000  1.0
  Ca  Ca1  1  0.93767485  -0.06232515  0.75000000  1.0
  Ag  Ag2  1  0.76832237  -0.64411440  0.22323036  1.0
  Ag  Ag3  1  1.64411440  0.23167763  0.72323036  1.0
  Ag  Ag4  1  1.35588560  -0.23167763  0.27676964  1.0
  Ag  Ag5  1  1.23167763  -0.35588560  0.77676964  1.0
  H  H6  1  0.74736409  -0.23444789  0.47106900  1.0
  H  H7  1  1.23444789  0.25263591  0.97106900  1.0
  H  H8  1  1.76555211  -0.25263591  0.02893100  1.0
  H  H9  1  1.25263591  -0.76555211  0.52893100  1.0
  H  H10  1  0.83519296  -0.28296241  0.45632709  1.0
  H  H11  1  1.28296241  0.16480704  0.95632709  1.0
  H  H12  1  1.71703759  -0.16480704  0.04367291  1.0
  H  H13  1  1.16480704  -0.71703759  0.54367291  1.0
  C  C14  1  1.07934836  -0.21860102  0.19757788  1.0
  C  C15  1  1.21860102  -0.07934836  0.69757788  1.0
  C  C16  1  1.78139898  0.07934836  0.30242212  1.0
  C  C17  1  0.92065164  -0.78139898  0.80242212  1.0
  C  C18  1  1.32349496  -0.49026469  0.08678425  1.0
  C  C19  1  1.49026469  -0.32349496  0.58678425  1.0
  C  C20  1  1.50973531  0.32349496  0.41321575  1.0
  C  C21  1  0.67650504  -0.50973531  0.91321575  1.0
  S  S22  1  1.07927355  -0.34739770  0.14820119  1.0
  S  S23  1  1.34739770  -0.07927355  0.64820119  1.0
  S  S24  1  1.65260230  0.07927355  0.35179881  1.0
  S  S25  1  0.92072645  -0.65260230  0.85179881  1.0
  S  S26  1  1.28934370  -0.43324106  0.53357824  1.0
  S  S27  1  1.43324106  -0.28934370  0.03357824  1.0
  S  S28  1  1.56675894  0.28934370  0.96642176  1.0
  S  S29  1  0.71065630  -0.56675894  0.46642176  1.0
  N  N30  1  1.07534478  -0.12927695  0.22799066  1.0
  N  N31  1  1.12927695  -0.07534478  0.72799066  1.0
  N  N32  1  1.87072305  0.07534478  0.27200934  1.0
  N  N33  1  0.92465522  -0.87072305  0.77200934  1.0
  N  N34  1  1.24637239  -0.63341634  0.12470444  1.0
  N  N35  1  1.63341634  -0.24637239  0.62470444  1.0
  N  N36  1  1.36658366  0.24637239  0.37529556  1.0
  N  N37  1  0.75362761  -0.36658366  0.87529556  1.0
  O  O38  1  0.85930997  -0.18395944  0.45437140  1.0
  O  O39  1  1.18395944  0.14069003  0.95437140  1.0
  O  O40  1  1.81604056  -0.14069003  0.04562860  1.0
  O  O41  1  1.14069003  -0.81604056  0.54562860  1.0
