# generated using pymatgen
data_FePb2(CN)6
_symmetry_space_group_name_H-M   'P 1'
_cell_length_a   7.06735546
_cell_length_b   7.06735546
_cell_length_c   6.12070553
_cell_angle_alpha   90.00000000
_cell_angle_beta   90.00000000
_cell_angle_gamma   120.00000000
_symmetry_Int_Tables_number   1
_chemical_formula_structural   FePb2(CN)6
_chemical_formula_sum   'Fe1 Pb2 C6 N6'
_cell_volume   264.75610765
_cell_formula_units_Z   1
loop_
 _symmetry_equiv_pos_site_id
 _symmetry_equiv_pos_as_xyz
  1  'x, y, z'
loop_
 _atom_site_type_symbol
 _atom_site_label
 _atom_site_symmetry_multiplicity
 _atom_site_fract_x
 _atom_site_fract_y
 _atom_site_fract_z
 _atom_site_occupancy
  Fe  Fe0  1  -0.00000000  -0.00000000  -0.00000000  1.0
  Pb  Pb1  1  0.33333333  0.66666667  0.46962779  1.0
  Pb  Pb2  1  0.66666667  0.33333333  0.53037221  1.0
  C  C3  1  0.79954629  0.77014922  0.17751784  1.0
  C  C4  1  0.77014922  0.97060293  0.82248216  1.0
  C  C5  1  0.97060293  0.20045371  0.17751784  1.0
  C  C6  1  0.22985078  0.02939707  0.17751784  1.0
  C  C7  1  0.20045371  0.22985078  0.82248216  1.0
  C  C8  1  0.02939707  0.79954629  0.82248216  1.0
  N  N9  1  0.67076447  0.62709848  0.28957710  1.0
  N  N10  1  0.62709848  0.95633401  0.71042290  1.0
  N  N11  1  0.95633401  0.32923553  0.28957710  1.0
  N  N12  1  0.37290152  0.04366599  0.28957710  1.0
  N  N13  1  0.32923553  0.37290152  0.71042290  1.0
  N  N14  1  0.04366599  0.67076447  0.71042290  1.0
