# generated using pymatgen
data_LaTa2ClO6
_symmetry_space_group_name_H-M   'P 1'
_cell_length_a   9.96812486
_cell_length_b   7.38360608
_cell_length_c   8.35902154
_cell_angle_alpha   90.00000000
_cell_angle_beta   90.00000000
_cell_angle_gamma   90.00000000
_symmetry_Int_Tables_number   1
_chemical_formula_structural   LaTa2ClO6
_chemical_formula_sum   'La4 Ta8 Cl4 O24'
_cell_volume   615.22989808
_cell_formula_units_Z   4
loop_
 _symmetry_equiv_pos_site_id
 _symmetry_equiv_pos_as_xyz
  1  'x, y, z'
loop_
 _atom_site_type_symbol
 _atom_site_label
 _atom_site_symmetry_multiplicity
 _atom_site_fract_x
 _atom_site_fract_y
 _atom_site_fract_z
 _atom_site_occupancy
  La  La0  1  0.17961108  0.75000000  0.30875340  1.0
  La  La1  1  0.67961108  0.75000000  0.19124660  1.0
  La  La2  1  0.82038892  0.25000000  0.69124660  1.0
  La  La3  1  0.32038892  0.25000000  0.80875340  1.0
  Ta  Ta4  1  0.26406966  0.75000000  0.76723459  1.0
  Ta  Ta5  1  0.76406966  0.75000000  0.73276541  1.0
  Ta  Ta6  1  0.73593034  0.25000000  0.23276541  1.0
  Ta  Ta7  1  0.23593034  0.25000000  0.26723459  1.0
  Ta  Ta8  1  0.50000000  0.00000000  0.50000000  1.0
  Ta  Ta9  1  0.50000000  0.50000000  0.50000000  1.0
  Ta  Ta10  1  0.00000000  0.00000000  0.00000000  1.0
  Ta  Ta11  1  0.00000000  0.50000000  0.00000000  1.0
  Cl  Cl12  1  0.39341280  0.75000000  0.06528987  1.0
  Cl  Cl13  1  0.89341280  0.75000000  0.43471013  1.0
  Cl  Cl14  1  0.60658720  0.25000000  0.93471013  1.0
  Cl  Cl15  1  0.10658720  0.25000000  0.56528987  1.0
  O  O16  1  0.39347893  0.94437235  0.69757652  1.0
  O  O17  1  0.39347893  0.55562765  0.69757652  1.0
  O  O18  1  0.89347893  0.94437235  0.80242348  1.0
  O  O19  1  0.89347893  0.55562765  0.80242348  1.0
  O  O20  1  0.60652107  0.44437235  0.30242348  1.0
  O  O21  1  0.60652107  0.05562765  0.30242348  1.0
  O  O22  1  0.10652107  0.44437235  0.19757652  1.0
  O  O23  1  0.10652107  0.05562765  0.19757652  1.0
  O  O24  1  0.16974210  0.94879657  0.88146003  1.0
  O  O25  1  0.16974210  0.55120343  0.88146003  1.0
  O  O26  1  0.66974210  0.94879657  0.61853997  1.0
  O  O27  1  0.66974210  0.55120343  0.61853997  1.0
  O  O28  1  0.83025790  0.44879657  0.11853997  1.0
  O  O29  1  0.83025790  0.05120343  0.11853997  1.0
  O  O30  1  0.33025790  0.44879657  0.38146003  1.0
  O  O31  1  0.33025790  0.05120343  0.38146003  1.0
  O  O32  1  0.17156821  0.75000000  0.58094572  1.0
  O  O33  1  0.67156821  0.75000000  0.91905428  1.0
  O  O34  1  0.82843179  0.25000000  0.41905428  1.0
  O  O35  1  0.32843179  0.25000000  0.08094572  1.0
  O  O36  1  0.99539587  0.75000000  0.08005797  1.0
  O  O37  1  0.49539587  0.75000000  0.41994203  1.0
  O  O38  1  0.00460413  0.25000000  0.91994203  1.0
  O  O39  1  0.50460413  0.25000000  0.58005797  1.0
