# generated using pymatgen
data_GdSi3Rh
_symmetry_space_group_name_H-M   'P 1'
_cell_length_a   5.73343438
_cell_length_b   5.73343438
_cell_length_c   5.73343438
_cell_angle_alpha   137.15385348
_cell_angle_beta   137.15385348
_cell_angle_gamma   62.20141480
_symmetry_Int_Tables_number   1
_chemical_formula_structural   GdSi3Rh
_chemical_formula_sum   'Gd1 Si3 Rh1'
_cell_volume   86.11821623
_cell_formula_units_Z   1
loop_
 _symmetry_equiv_pos_site_id
 _symmetry_equiv_pos_as_xyz
  1  'x, y, z'
loop_
 _atom_site_type_symbol
 _atom_site_label
 _atom_site_symmetry_multiplicity
 _atom_site_fract_x
 _atom_site_fract_y
 _atom_site_fract_z
 _atom_site_occupancy
  Gd  Gd0  1  0.57079884  0.57079884  1.00000000  1.0
  Si  Si1  1  0.83691514  0.33691514  0.50000000  1.0
  Si  Si2  1  0.33691514  0.83691514  0.50000000  1.0
  Si  Si3  1  -0.01260382  -0.01260382  -0.00000000  1.0
  Rh  Rh4  1  0.22577472  0.22577472  0.00000000  1.0
