# generated using pymatgen
data_LaSi2
_symmetry_space_group_name_H-M   'P 1'
_cell_length_a   7.60575626
_cell_length_b   7.60575626
_cell_length_c   7.60575626
_cell_angle_alpha   146.89680684
_cell_angle_beta   146.90168891
_cell_angle_gamma   47.51298548
_symmetry_Int_Tables_number   1
_chemical_formula_structural   LaSi2
_chemical_formula_sum   'La2 Si4'
_cell_volume   130.70496118
_cell_formula_units_Z   2
loop_
 _symmetry_equiv_pos_site_id
 _symmetry_equiv_pos_as_xyz
  1  'x, y, z'
loop_
 _atom_site_type_symbol
 _atom_site_label
 _atom_site_symmetry_multiplicity
 _atom_site_fract_x
 _atom_site_fract_y
 _atom_site_fract_z
 _atom_site_occupancy
  La  La0  1  0.62502033  0.37502033  0.25000000  1.0
  La  La1  1  0.37497967  0.62497967  0.75000000  1.0
  Si  Si2  1  1.20979400  0.95979400  1.25000000  1.0
  Si  Si3  1  0.79020600  0.04020600  0.75000000  1.0
  Si  Si4  1  1.04017621  0.79017621  1.25000000  1.0
  Si  Si5  1  0.95982379  0.20982379  0.75000000  1.0
