# generated using pymatgen
data_Gd(P3Ru)4
_symmetry_space_group_name_H-M   'P 1'
_cell_length_a   7.00050716
_cell_length_b   7.00050716
_cell_length_c   7.00050716
_cell_angle_alpha   109.47122063
_cell_angle_beta   109.47122063
_cell_angle_gamma   109.47122063
_symmetry_Int_Tables_number   1
_chemical_formula_structural   Gd(P3Ru)4
_chemical_formula_sum   'Gd1 P12 Ru4'
_cell_volume   264.09891818
_cell_formula_units_Z   1
loop_
 _symmetry_equiv_pos_site_id
 _symmetry_equiv_pos_as_xyz
  1  'x, y, z'
loop_
 _atom_site_type_symbol
 _atom_site_label
 _atom_site_symmetry_multiplicity
 _atom_site_fract_x
 _atom_site_fract_y
 _atom_site_fract_z
 _atom_site_occupancy
  Gd  Gd0  1  0.00000000  0.00000000  0.00000000  1.0
  P  P1  1  0.85651908  1.35704628  1.21356535  1.0
  P  P2  1  0.85651908  0.64295372  0.49947280  1.0
  P  P3  1  0.14348092  0.35704628  0.50052720  1.0
  P  P4  1  0.14348092  0.64295372  0.78643465  1.0
  P  P5  1  0.49947280  0.85651908  0.64295372  1.0
  P  P6  1  1.21356535  0.85651908  1.35704628  1.0
  P  P7  1  0.64295372  0.78643465  0.14348092  1.0
  P  P8  1  0.64295372  0.49947280  0.85651908  1.0
  P  P9  1  0.78643465  0.14348092  0.64295372  1.0
  P  P10  1  0.50052720  0.14348092  0.35704628  1.0
  P  P11  1  0.35704628  0.50052720  0.14348092  1.0
  P  P12  1  1.35704628  1.21356535  0.85651908  1.0
  Ru  Ru13  1  0.50000000  1.00000000  1.00000000  1.0
  Ru  Ru14  1  0.50000000  0.50000000  0.50000000  1.0
  Ru  Ru15  1  1.00000000  1.00000000  0.50000000  1.0
  Ru  Ru16  1  1.00000000  0.50000000  1.00000000  1.0
