# generated using pymatgen
data_K2V(PO4)2
_symmetry_space_group_name_H-M   'P 1'
_cell_length_a   8.39644476
_cell_length_b   8.39644476
_cell_length_c   5.52559260
_cell_angle_alpha   90.00000000
_cell_angle_beta   90.00000000
_cell_angle_gamma   90.00000000
_symmetry_Int_Tables_number   1
_chemical_formula_structural   K2V(PO4)2
_chemical_formula_sum   'K4 V2 P4 O16'
_cell_volume   389.55585022
_cell_formula_units_Z   2
loop_
 _symmetry_equiv_pos_site_id
 _symmetry_equiv_pos_as_xyz
  1  'x, y, z'
loop_
 _atom_site_type_symbol
 _atom_site_label
 _atom_site_symmetry_multiplicity
 _atom_site_fract_x
 _atom_site_fract_y
 _atom_site_fract_z
 _atom_site_occupancy
  K  K0  1  0.82852384  0.67147616  0.76664720  1.0
  K  K1  1  0.32852384  0.82852384  0.76664720  1.0
  K  K2  1  0.17147616  0.32852384  0.76664720  1.0
  K  K3  1  0.67147616  0.17147616  0.76664720  1.0
  V  V4  1  0.50000000  0.50000000  0.29362366  1.0
  V  V5  1  0.00000000  0.00000000  0.29362366  1.0
  P  P6  1  0.37118706  0.12881294  0.28094037  1.0
  P  P7  1  0.87118706  0.37118706  0.28094037  1.0
  P  P8  1  0.62881294  0.87118706  0.28094037  1.0
  P  P9  1  0.12881294  0.62881294  0.28094037  1.0
  O  O10  1  0.28687625  0.57615300  0.40215543  1.0
  O  O11  1  0.78687625  0.92384700  0.40215543  1.0
  O  O12  1  0.42384700  0.28687625  0.40215543  1.0
  O  O13  1  0.92384700  0.21312375  0.40215543  1.0
  O  O14  1  0.71312375  0.42384700  0.40215543  1.0
  O  O15  1  0.21312375  0.07615300  0.40215543  1.0
  O  O16  1  0.57615300  0.71312375  0.40215543  1.0
  O  O17  1  0.07615300  0.78687625  0.40215543  1.0
  O  O18  1  0.37304334  0.12695666  0.00849414  1.0
  O  O19  1  0.87304334  0.37304334  0.00849414  1.0
  O  O20  1  0.62695666  0.87304334  0.00849414  1.0
  O  O21  1  0.12695666  0.62695666  0.00849414  1.0
  O  O22  1  0.00000000  0.50000000  0.39201752  1.0
  O  O23  1  0.50000000  0.00000000  0.39201752  1.0
  O  O24  1  0.50000000  0.50000000  0.00457368  1.0
  O  O25  1  0.00000000  0.00000000  0.00457368  1.0
