# generated using pymatgen
data_Cs(PRu)2
_symmetry_space_group_name_H-M   'P 1'
_cell_length_a   7.62015029
_cell_length_b   7.62015029
_cell_length_c   7.62015029
_cell_angle_alpha   149.08099949
_cell_angle_beta   149.08099949
_cell_angle_gamma   44.29209267
_symmetry_Int_Tables_number   1
_chemical_formula_structural   Cs(PRu)2
_chemical_formula_sum   'Cs1 P2 Ru2'
_cell_volume   116.47917184
_cell_formula_units_Z   1
loop_
 _symmetry_equiv_pos_site_id
 _symmetry_equiv_pos_as_xyz
  1  'x, y, z'
loop_
 _atom_site_type_symbol
 _atom_site_label
 _atom_site_symmetry_multiplicity
 _atom_site_fract_x
 _atom_site_fract_y
 _atom_site_fract_z
 _atom_site_occupancy
  Cs  Cs0  1  0.00000000  0.00000000  0.00000000  1.0
  P  P1  1  0.67153277  0.67153277  1.00000000  1.0
  P  P2  1  0.32846723  0.32846723  0.00000000  1.0
  Ru  Ru3  1  0.25000000  0.75000000  0.50000000  1.0
  Ru  Ru4  1  0.75000000  0.25000000  0.50000000  1.0
