# generated using pymatgen
data_Cs2VCl5O4
_symmetry_space_group_name_H-M   'P 1'
_cell_length_a   8.97736282
_cell_length_b   8.97736282
_cell_length_c   6.90377747
_cell_angle_alpha   76.54017959
_cell_angle_beta   103.45982041
_cell_angle_gamma   142.82581004
_symmetry_Int_Tables_number   1
_chemical_formula_structural   Cs2VCl5O4
_chemical_formula_sum   'Cs2 V1 Cl5 O4'
_cell_volume   325.90217133
_cell_formula_units_Z   1
loop_
 _symmetry_equiv_pos_site_id
 _symmetry_equiv_pos_as_xyz
  1  'x, y, z'
loop_
 _atom_site_type_symbol
 _atom_site_label
 _atom_site_symmetry_multiplicity
 _atom_site_fract_x
 _atom_site_fract_y
 _atom_site_fract_z
 _atom_site_occupancy
  Cs  Cs0  1  0.79906339  -0.79906339  0.28264286  1.0
  Cs  Cs1  1  1.20093661  -0.20093661  0.71735714  1.0
  V  V2  1  0.50000000  0.50000000  0.00000000  1.0
  Cl  Cl3  1  0.83631396  -0.83631396  0.79892212  1.0
  Cl  Cl4  1  1.16368604  -0.16368604  0.20107788  1.0
  Cl  Cl5  1  0.61957820  -0.61957820  0.88151820  1.0
  Cl  Cl6  1  1.38042180  -0.38042180  0.11848180  1.0
  Cl  Cl7  1  0.00000000  -0.00000000  0.50000000  1.0
  O  O8  1  1.67013783  -0.24641197  0.80602988  1.0
  O  O9  1  1.24641197  -0.67013783  0.80602988  1.0
  O  O10  1  0.75358803  -0.32986217  0.19397012  1.0
  O  O11  1  1.32986217  0.24641197  0.19397012  1.0
