# generated using pymatgen
data_SiC
_symmetry_space_group_name_H-M   'P 1'
_cell_length_a   38.03184425
_cell_length_b   38.03184425
_cell_length_c   38.03184425
_cell_angle_alpha   4.66467897
_cell_angle_beta   4.66467897
_cell_angle_gamma   4.66467897
_symmetry_Int_Tables_number   1
_chemical_formula_structural   SiC
_chemical_formula_sum   'Si15 C15'
_cell_volume   315.24710996
_cell_formula_units_Z   15
loop_
 _symmetry_equiv_pos_site_id
 _symmetry_equiv_pos_as_xyz
  1  'x, y, z'
loop_
 _atom_site_type_symbol
 _atom_site_label
 _atom_site_symmetry_multiplicity
 _atom_site_fract_x
 _atom_site_fract_y
 _atom_site_fract_z
 _atom_site_occupancy
  Si  Si0  1  0.00001816  0.00001816  0.00001816  1.0
  Si  Si1  1  0.95556531  -0.04443469  -0.04443469  1.0
  Si  Si2  1  0.91111113  -0.08888887  -0.08888887  1.0
  Si  Si3  1  0.86665663  -0.13334337  -0.13334337  1.0
  Si  Si4  1  0.77780610  -0.22219390  -0.22219390  1.0
  Si  Si5  1  0.73334372  -0.26665628  -0.26665628  1.0
  Si  Si6  1  0.68887762  -0.31112238  -0.31112238  1.0
  Si  Si7  1  0.60000084  0.60000084  -0.39999916  1.0
  Si  Si8  1  0.51112898  0.51112898  -0.48887102  1.0
  Si  Si9  1  0.46666739  0.46666739  -0.53333261  1.0
  Si  Si10  1  0.37777374  0.37777374  -0.62222626  1.0
  Si  Si11  1  0.31112070  0.31112070  0.31112070  1.0
  Si  Si12  1  0.22221557  0.22221557  0.22221557  1.0
  Si  Si13  1  0.15556222  0.15556222  0.15556222  1.0
  Si  Si14  1  0.08890546  0.08890546  0.08890546  1.0
  C  C15  1  0.98335549  -0.01664451  -0.01664451  1.0
  C  C16  1  0.93890602  -0.06109398  -0.06109398  1.0
  C  C17  1  0.89445587  -0.10554413  -0.10554413  1.0
  C  C18  1  0.84999729  -0.15000271  -0.15000271  1.0
  C  C19  1  0.76114339  -0.23885661  -0.23885661  1.0
  C  C20  1  0.71668322  -0.28331678  -0.28331678  1.0
  C  C21  1  0.67221497  -0.32778503  -0.32778503  1.0
  C  C22  1  0.58329032  0.58329032  -0.41670968  1.0
  C  C23  1  0.49446888  0.49446888  -0.50553112  1.0
  C  C24  1  0.45000495  0.45000495  -0.54999505  1.0
  C  C25  1  0.36106225  0.36106225  -0.63893775  1.0
  C  C26  1  0.29440874  0.29440874  0.29440874  1.0
  C  C27  1  0.20550938  0.20550938  0.20550938  1.0
  C  C28  1  0.13885293  0.13885293  0.13885293  1.0
  C  C29  1  0.07219271  0.07219271  0.07219271  1.0
