# generated using pymatgen
data_H6C2N5O4
_symmetry_space_group_name_H-M   'P 1'
_cell_length_a   7.24666787
_cell_length_b   8.56227372
_cell_length_c   7.56503133
_cell_angle_alpha   66.37743651
_cell_angle_beta   55.73626726
_cell_angle_gamma   69.68481108
_symmetry_Int_Tables_number   1
_chemical_formula_structural   H6C2N5O4
_chemical_formula_sum   'H12 C4 N10 O8'
_cell_volume   350.81482560
_cell_formula_units_Z   2
loop_
 _symmetry_equiv_pos_site_id
 _symmetry_equiv_pos_as_xyz
  1  'x, y, z'
loop_
 _atom_site_type_symbol
 _atom_site_label
 _atom_site_symmetry_multiplicity
 _atom_site_fract_x
 _atom_site_fract_y
 _atom_site_fract_z
 _atom_site_occupancy
  H  H0  1  0.13858317  -0.37475545  0.79213223  1.0
  H  H1  1  -0.13858317  -0.62524455  0.20786777  1.0
  H  H2  1  -0.10093762  -0.40485409  0.82869817  1.0
  H  H3  1  0.10093762  -0.59514591  0.17130183  1.0
  H  H4  1  -0.05508575  -0.20370989  0.76114643  1.0
  H  H5  1  0.05508575  -0.79629011  0.23885357  1.0
  H  H6  1  0.10660303  -0.31759422  0.56651585  1.0
  H  H7  1  -0.10660303  -0.68240578  0.43348415  1.0
  H  H8  1  -0.54941747  -0.53262165  0.85353093  1.0
  H  H9  1  0.54941747  -0.46737835  0.14646907  1.0
  H  H10  1  -0.65788080  -0.35696326  0.92141937  1.0
  H  H11  1  0.65788080  -0.64303674  0.07858063  1.0
  C  C12  1  0.42566544  -0.94435189  0.57404802  1.0
  C  C13  1  -0.42566544  -0.05564811  0.42595198  1.0
  C  C14  1  -0.67380825  -0.98297839  0.81336724  1.0
  C  C15  1  0.67380825  -0.01702161  0.18663276  1.0
  N  N16  1  0.36080777  -0.78001914  0.49786398  1.0
  N  N17  1  -0.36080777  -0.21998086  0.50213602  1.0
  N  N18  1  0.02174656  -0.32461479  0.73457372  1.0
  N  N19  1  -0.02174656  -0.67538521  0.26542628  1.0
  N  N20  1  0.64490738  -0.85411649  0.05708628  1.0
  N  N21  1  -0.64490738  -0.14588351  0.94291372  1.0
  N  N22  1  -0.27189352  -0.83546796  0.84390187  1.0
  N  N23  1  0.27189352  -0.16453204  0.15609813  1.0
  N  N24  1  -0.79419872  -0.83760924  0.87264586  1.0
  N  N25  1  0.79419872  -0.16239076  0.12735414  1.0
  O  O26  1  0.22746844  -0.71332103  0.67731568  1.0
  O  O27  1  -0.22746844  -0.28667897  0.32268432  1.0
  O  O28  1  -0.17080523  -0.95568802  0.75085755  1.0
  O  O29  1  0.17080523  -0.04431198  0.24914245  1.0
  O  O30  1  -0.29989539  -0.68079746  0.72953253  1.0
  O  O31  1  0.29989539  -0.31920254  0.27046747  1.0
  O  O32  1  -0.69607797  -0.45865039  0.92404339  1.0
  O  O33  1  0.69607797  -0.54134961  0.07595661  1.0
