# generated using pymatgen
data_Hf2Be17
_symmetry_space_group_name_H-M   'P 1'
_cell_length_a   5.64805891
_cell_length_b   5.64805891
_cell_length_c   5.64805891
_cell_angle_alpha   82.93142995
_cell_angle_beta   82.93142995
_cell_angle_gamma   82.93142995
_symmetry_Int_Tables_number   1
_chemical_formula_structural   Hf2Be17
_chemical_formula_sum   'Hf2 Be17'
_cell_volume   176.37941194
_cell_formula_units_Z   1
loop_
 _symmetry_equiv_pos_site_id
 _symmetry_equiv_pos_as_xyz
  1  'x, y, z'
loop_
 _atom_site_type_symbol
 _atom_site_label
 _atom_site_symmetry_multiplicity
 _atom_site_fract_x
 _atom_site_fract_y
 _atom_site_fract_z
 _atom_site_occupancy
  Hf  Hf0  1  0.66219274  0.66219274  -0.33780726  1.0
  Hf  Hf1  1  1.33780726  1.33780726  0.33780726  1.0
  Be  Be2  1  0.34365617  0.34365617  -0.15950727  1.0
  Be  Be3  1  0.34365617  0.84049273  -0.65634383  1.0
  Be  Be4  1  0.15950727  0.65634383  -0.34365617  1.0
  Be  Be5  1  0.65634383  0.15950727  -0.34365617  1.0
  Be  Be6  1  0.65634383  -0.34365617  0.15950727  1.0
  Be  Be7  1  0.84049273  0.34365617  -0.65634383  1.0
  Be  Be8  1  0.71175434  0.00000000  0.28824566  1.0
  Be  Be9  1  0.71175434  -0.71175434  0.00000000  1.0
  Be  Be10  1  0.00000000  0.71175434  -0.71175434  1.0
  Be  Be11  1  -0.00000000  0.28824566  -0.28824566  1.0
  Be  Be12  1  1.28824566  -0.00000000  -0.28824566  1.0
  Be  Be13  1  0.28824566  -0.28824566  0.00000000  1.0
  Be  Be14  1  1.00000000  1.50000000  0.00000000  1.0
  Be  Be15  1  1.00000000  -0.00000000  -0.50000000  1.0
  Be  Be16  1  0.50000000  -0.00000000  0.00000000  1.0
  Be  Be17  1  0.90326307  0.90326307  -0.09673693  1.0
  Be  Be18  1  1.09673693  1.09673693  0.09673693  1.0
