# generated using pymatgen
data_GdBeGe
_symmetry_space_group_name_H-M   'P 1'
_cell_length_a   3.94518288
_cell_length_b   3.94518288
_cell_length_c   8.23975082
_cell_angle_alpha   90.00000000
_cell_angle_beta   90.00000000
_cell_angle_gamma   120.00000000
_symmetry_Int_Tables_number   1
_chemical_formula_structural   GdBeGe
_chemical_formula_sum   'Gd2 Be2 Ge2'
_cell_volume   111.06545204
_cell_formula_units_Z   2
loop_
 _symmetry_equiv_pos_site_id
 _symmetry_equiv_pos_as_xyz
  1  'x, y, z'
loop_
 _atom_site_type_symbol
 _atom_site_label
 _atom_site_symmetry_multiplicity
 _atom_site_fract_x
 _atom_site_fract_y
 _atom_site_fract_z
 _atom_site_occupancy
  Gd  Gd0  1  0.00000000  0.00000000  0.50000000  1.0
  Gd  Gd1  1  0.00000000  0.00000000  0.00000000  1.0
  Be  Be2  1  0.33333333  0.66666667  0.25000000  1.0
  Be  Be3  1  0.66666667  0.33333333  0.75000000  1.0
  Ge  Ge4  1  0.33333333  0.66666667  0.75000000  1.0
  Ge  Ge5  1  0.66666667  0.33333333  0.25000000  1.0
