# generated using pymatgen
data_BAsO4
_symmetry_space_group_name_H-M   'P 1'
_cell_length_a   4.64285045
_cell_length_b   4.64285045
_cell_length_c   10.55265193
_cell_angle_alpha   90.00000000
_cell_angle_beta   90.00000000
_cell_angle_gamma   120.00000000
_symmetry_Int_Tables_number   1
_chemical_formula_structural   BAsO4
_chemical_formula_sum   'B3 As3 O12'
_cell_volume   196.99791769
_cell_formula_units_Z   3
loop_
 _symmetry_equiv_pos_site_id
 _symmetry_equiv_pos_as_xyz
  1  'x, y, z'
loop_
 _atom_site_type_symbol
 _atom_site_label
 _atom_site_symmetry_multiplicity
 _atom_site_fract_x
 _atom_site_fract_y
 _atom_site_fract_z
 _atom_site_occupancy
  B  B0  1  0.53672692  0.53672692  -0.00000000  1.0
  B  B1  1  0.00000000  0.46327308  0.66666667  1.0
  B  B2  1  0.46327308  0.00000000  0.33333333  1.0
  As  As3  1  0.54176365  0.54176365  0.50000000  1.0
  As  As4  1  0.00000000  0.45823635  0.16666667  1.0
  As  As5  1  0.45823635  -0.00000000  0.83333333  1.0
  O  O6  1  0.08023529  0.68745798  0.77719423  1.0
  O  O7  1  0.68745798  0.08023529  0.22280577  1.0
  O  O8  1  0.60722269  0.91976471  0.44386090  1.0
  O  O9  1  0.31254202  0.39277731  0.11052756  1.0
  O  O10  1  0.91976471  0.60722269  0.55613910  1.0
  O  O11  1  0.39277731  0.31254202  0.88947244  1.0
  O  O12  1  0.87058146  0.59597071  0.03694259  1.0
  O  O13  1  0.59597071  0.87058146  0.96305741  1.0
  O  O14  1  0.72538925  0.12941854  0.70360926  1.0
  O  O15  1  0.40402929  0.27461075  0.37027592  1.0
  O  O16  1  0.12941854  0.72538925  0.29639074  1.0
  O  O17  1  0.27461075  0.40402929  0.62972408  1.0
