# generated using pymatgen
data_Cu2SiP4
_symmetry_space_group_name_H-M   'P 1'
_cell_length_a   8.86568570
_cell_length_b   8.86568570
_cell_length_c   8.86568570
_cell_angle_alpha   98.23709346
_cell_angle_beta   98.23709346
_cell_angle_gamma   135.51718338
_symmetry_Int_Tables_number   1
_chemical_formula_structural   Cu2SiP4
_chemical_formula_sum   'Cu8 Si4 P16'
_cell_volume   451.94780240
_cell_formula_units_Z   4
loop_
 _symmetry_equiv_pos_site_id
 _symmetry_equiv_pos_as_xyz
  1  'x, y, z'
loop_
 _atom_site_type_symbol
 _atom_site_label
 _atom_site_symmetry_multiplicity
 _atom_site_fract_x
 _atom_site_fract_y
 _atom_site_fract_z
 _atom_site_occupancy
  Cu  Cu0  1  1.18253191  1.18663022  0.67509771  1.0
  Cu  Cu1  1  1.23846749  1.74256580  1.17509771  1.0
  Cu  Cu2  1  1.49256580  0.81746809  1.00409831  1.0
  Cu  Cu3  1  0.93663022  0.76153251  0.50409831  1.0
  Cu  Cu4  1  1.51153251  1.50743420  1.32490229  1.0
  Cu  Cu5  1  1.56746809  1.06336978  0.82490229  1.0
  Cu  Cu6  1  0.81336978  1.48846749  0.99590169  1.0
  Cu  Cu7  1  1.25743420  1.43253191  1.49590169  1.0
  Si  Si8  1  0.87500000  0.62500000  0.75000000  1.0
  Si  Si9  1  0.87500000  1.12500000  1.25000000  1.0
  Si  Si10  1  0.87500000  0.12500000  0.75000000  1.0
  Si  Si11  1  0.37500000  0.12500000  0.25000000  1.0
  P  P12  1  1.73599081  1.85565338  1.90811463  1.0
  P  P13  1  0.80246125  1.42212381  1.40811463  1.0
  P  P14  1  1.17212381  1.26400919  1.11966257  1.0
  P  P15  1  0.60565338  0.19753875  0.61966257  1.0
  P  P16  1  0.94753875  0.82787619  0.09188537  1.0
  P  P17  1  1.01400919  0.39434662  0.59188537  1.0
  P  P18  1  1.14434662  1.05246125  0.88033743  1.0
  P  P19  1  0.57787619  0.98599081  1.38033743  1.0
  P  P20  1  1.57840985  1.79219902  1.50291495  1.0
  P  P21  1  1.46071593  1.17450510  1.00291495  1.0
  P  P22  1  0.92450510  1.42159015  1.21378917  1.0
  P  P23  1  1.54219902  1.53928407  1.71378917  1.0
  P  P24  1  1.28928407  1.07549490  0.49708505  1.0
  P  P25  1  1.17159015  1.45780098  0.99708505  1.0
  P  P26  1  1.20780098  0.71071593  0.78621083  1.0
  P  P27  1  0.82549490  0.82840985  0.28621083  1.0
