# generated using pymatgen
data_Sr2YCu3(PbO4)2
_symmetry_space_group_name_H-M   'P 1'
_cell_length_a   5.44857152
_cell_length_b   5.41542943
_cell_length_c   16.00144963
_cell_angle_alpha   90.00000000
_cell_angle_beta   90.00205556
_cell_angle_gamma   90.00000000
_symmetry_Int_Tables_number   1
_chemical_formula_structural   Sr2YCu3(PbO4)2
_chemical_formula_sum   'Sr4 Y2 Cu6 Pb4 O16'
_cell_volume   472.14444649
_cell_formula_units_Z   2
loop_
 _symmetry_equiv_pos_site_id
 _symmetry_equiv_pos_as_xyz
  1  'x, y, z'
loop_
 _atom_site_type_symbol
 _atom_site_label
 _atom_site_symmetry_multiplicity
 _atom_site_fract_x
 _atom_site_fract_y
 _atom_site_fract_z
 _atom_site_occupancy
  Sr  Sr0  1  0.75015602  0.50726714  0.77968952  1.0
  Sr  Sr1  1  0.24984398  0.00726714  0.22031048  1.0
  Sr  Sr2  1  0.24983520  0.00726726  0.77968857  1.0
  Sr  Sr3  1  0.75016480  0.50726726  0.22031143  1.0
  Y  Y4  1  0.75021242  0.50657060  0.00000013  1.0
  Y  Y5  1  0.24978758  0.00657060  -0.00000013  1.0
  Cu  Cu6  1  0.72085964  0.51474684  0.50000430  1.0
  Cu  Cu7  1  0.27914036  0.01474684  0.49999570  1.0
  Cu  Cu8  1  0.24979780  0.50665776  0.89671993  1.0
  Cu  Cu9  1  0.75020220  0.00665776  0.10328007  1.0
  Cu  Cu10  1  0.75018226  0.00665782  0.89671942  1.0
  Cu  Cu11  1  0.24981774  0.50665782  0.10328058  1.0
  Pb  Pb12  1  0.74542567  0.00132092  0.61291849  1.0
  Pb  Pb13  1  0.25457433  0.50132092  0.38708151  1.0
  Pb  Pb14  1  0.25451979  0.50132217  0.61291349  1.0
  Pb  Pb15  1  0.74548021  0.00132217  0.38708651  1.0
  O  O16  1  0.24256569  0.50687899  0.74994345  1.0
  O  O17  1  0.75743431  0.00687899  0.25005655  1.0
  O  O18  1  0.75742324  0.00687954  0.74994850  1.0
  O  O19  1  0.24257676  0.50687954  0.25005150  1.0
  O  O20  1  0.70509509  0.52201006  0.61635362  1.0
  O  O21  1  0.29490491  0.02201006  0.38364638  1.0
  O  O22  1  0.29485811  0.02200467  0.61634624  1.0
  O  O23  1  0.70514189  0.52200467  0.38365376  1.0
  O  O24  1  0.00001862  0.25660542  0.90937107  1.0
  O  O25  1  -0.00001862  0.75660542  0.09062893  1.0
  O  O26  1  0.50002257  0.75660430  0.90870354  1.0
  O  O27  1  0.49997743  0.25660430  0.09129646  1.0
  O  O28  1  -0.00003284  0.75660431  0.90937069  1.0
  O  O29  1  0.00003284  0.25660431  0.09062931  1.0
  O  O30  1  0.49996254  0.25660219  0.90870318  1.0
  O  O31  1  0.50003746  0.75660219  0.09129682  1.0
