# generated using pymatgen
data_GaP
_symmetry_space_group_name_H-M   'P 1'
_cell_length_a   9.36098024
_cell_length_b   9.36098024
_cell_length_c   9.36098024
_cell_angle_alpha   24.00474823
_cell_angle_beta   24.00474823
_cell_angle_gamma   24.00474823
_symmetry_Int_Tables_number   1
_chemical_formula_structural   GaP
_chemical_formula_sum   'Ga2 P2'
_cell_volume   119.28499518
_cell_formula_units_Z   2
loop_
 _symmetry_equiv_pos_site_id
 _symmetry_equiv_pos_as_xyz
  1  'x, y, z'
loop_
 _atom_site_type_symbol
 _atom_site_label
 _atom_site_symmetry_multiplicity
 _atom_site_fract_x
 _atom_site_fract_y
 _atom_site_fract_z
 _atom_site_occupancy
  Ga  Ga0  1  0.58569657  0.58569657  -0.41430343  1.0
  Ga  Ga1  1  0.41430343  0.41430343  -0.58569657  1.0
  P  P2  1  0.90400159  -0.09599841  -0.09599841  1.0
  P  P3  1  0.09599841  0.09599841  0.09599841  1.0
