# generated using pymatgen
data_Ca2MnO4
_symmetry_space_group_name_H-M   'P 1'
_cell_length_a   12.70775191
_cell_length_b   12.70775191
_cell_length_c   12.70775191
_cell_angle_alpha   156.35242201
_cell_angle_beta   156.35242201
_cell_angle_gamma   33.68907186
_symmetry_Int_Tables_number   1
_chemical_formula_structural   Ca2MnO4
_chemical_formula_sum   'Ca8 Mn4 O16'
_cell_volume   329.84913099
_cell_formula_units_Z   4
loop_
 _symmetry_equiv_pos_site_id
 _symmetry_equiv_pos_as_xyz
  1  'x, y, z'
loop_
 _atom_site_type_symbol
 _atom_site_label
 _atom_site_symmetry_multiplicity
 _atom_site_fract_x
 _atom_site_fract_y
 _atom_site_fract_z
 _atom_site_occupancy
  Ca  Ca0  1  0.42544614  0.92544614  0.50000000  1.0
  Ca  Ca1  1  0.92544614  0.42544614  0.50000000  1.0
  Ca  Ca2  1  0.32455386  0.32455386  0.00000000  1.0
  Ca  Ca3  1  0.82455386  0.82455386  1.00000000  1.0
  Ca  Ca4  1  0.07455386  0.57455386  0.50000000  1.0
  Ca  Ca5  1  0.57455386  0.07455386  0.50000000  1.0
  Ca  Ca6  1  0.67544614  0.67544614  1.00000000  1.0
  Ca  Ca7  1  0.17544614  0.17544614  -0.00000000  1.0
  Mn  Mn8  1  0.25000000  0.75000000  0.50000000  1.0
  Mn  Mn9  1  0.75000000  0.25000000  0.50000000  1.0
  Mn  Mn10  1  0.50000000  0.50000000  1.00000000  1.0
  Mn  Mn11  1  0.00000000  0.00000000  0.00000000  1.0
  O  O12  1  0.33027736  0.83027736  0.50000000  1.0
  O  O13  1  0.83027736  0.33027736  0.50000000  1.0
  O  O14  1  0.41972264  0.41972264  0.00000000  1.0
  O  O15  1  0.91972264  0.91972264  1.00000000  1.0
  O  O16  1  0.16972264  0.66972264  0.50000000  1.0
  O  O17  1  0.66972264  0.16972264  0.50000000  1.0
  O  O18  1  0.58027736  0.58027736  1.00000000  1.0
  O  O19  1  0.08027736  0.08027736  0.00000000  1.0
  O  O20  1  0.30189367  0.80189367  1.10378734  1.0
  O  O21  1  0.80189367  0.69810633  1.50000000  1.0
  O  O22  1  1.05189367  1.05189367  1.60378734  1.0
  O  O23  1  0.55189367  0.94810633  1.00000000  1.0
  O  O24  1  0.69810633  0.19810633  0.89621266  1.0
  O  O25  1  0.19810633  0.30189367  0.50000000  1.0
  O  O26  1  0.44810633  0.44810633  0.39621266  1.0
  O  O27  1  0.94810633  0.55189367  1.00000000  1.0
