# generated using pymatgen
data_NaH4CS2N3O2
_symmetry_space_group_name_H-M   'P 1'
_cell_length_a   5.96352078
_cell_length_b   18.49122467
_cell_length_c   7.18021593
_cell_angle_alpha   90.00000000
_cell_angle_beta   115.80018059
_cell_angle_gamma   90.00000000
_symmetry_Int_Tables_number   1
_chemical_formula_structural   NaH4CS2N3O2
_chemical_formula_sum   'Na4 H16 C4 S8 N12 O8'
_cell_volume   712.85559158
_cell_formula_units_Z   4
loop_
 _symmetry_equiv_pos_site_id
 _symmetry_equiv_pos_as_xyz
  1  'x, y, z'
loop_
 _atom_site_type_symbol
 _atom_site_label
 _atom_site_symmetry_multiplicity
 _atom_site_fract_x
 _atom_site_fract_y
 _atom_site_fract_z
 _atom_site_occupancy
  Na  Na0  1  0.32928253  0.50389986  0.64812417  1.0
  Na  Na1  1  0.32928253  0.99610014  0.14812417  1.0
  Na  Na2  1  0.67071747  0.00389986  0.85187583  1.0
  Na  Na3  1  0.67071747  0.49610014  0.35187583  1.0
  H  H4  1  0.58708408  0.37518473  0.60197275  1.0
  H  H5  1  0.58708408  0.12481527  0.10197275  1.0
  H  H6  1  0.41291592  0.87518473  0.89802725  1.0
  H  H7  1  0.41291592  0.62481527  0.39802725  1.0
  H  H8  1  0.81156589  0.42339767  0.74873674  1.0
  H  H9  1  0.81156589  0.07660233  0.24873674  1.0
  H  H10  1  0.18843411  0.92339767  0.75126326  1.0
  H  H11  1  0.18843411  0.57660233  0.25126326  1.0
  H  H12  1  0.93840462  0.57001727  0.75258836  1.0
  H  H13  1  0.93840462  0.92998273  0.25258836  1.0
  H  H14  1  0.06159538  0.07001727  0.74741164  1.0
  H  H15  1  0.06159538  0.42998273  0.24741164  1.0
  H  H16  1  0.94762803  0.62518125  0.59364741  1.0
  H  H17  1  0.94762803  0.87481875  0.09364741  1.0
  H  H18  1  0.05237197  0.12518125  0.90635259  1.0
  H  H19  1  0.05237197  0.37481875  0.40635259  1.0
  C  C20  1  0.72941353  0.83717697  0.49749163  1.0
  C  C21  1  0.72941353  0.66282303  -0.00250837  1.0
  C  C22  1  0.27058647  0.33717697  1.00250837  1.0
  C  C23  1  0.27058647  0.16282303  0.50250837  1.0
  S  S24  1  0.56085462  0.20227425  0.57943294  1.0
  S  S25  1  0.56085462  0.29772575  0.07943294  1.0
  S  S26  1  0.43914538  0.70227425  0.92056706  1.0
  S  S27  1  0.43914538  0.79772575  0.42056706  1.0
  S  S28  1  0.78262658  0.92822945  0.50263688  1.0
  S  S29  1  0.78262658  0.57177055  0.00263688  1.0
  S  S30  1  0.21737342  0.42822945  0.99736312  1.0
  S  S31  1  0.21737342  0.07177055  0.49736312  1.0
  N  N32  1  0.56687270  0.78541635  0.96114097  1.0
  N  N33  1  0.56687270  0.71458365  0.46114097  1.0
  N  N34  1  0.43312730  0.28541635  0.53885903  1.0
  N  N35  1  0.43312730  0.21458365  0.03885903  1.0
  N  N36  1  0.80609097  0.71912665  0.52658988  1.0
  N  N37  1  0.80609097  0.78087335  0.02658988  1.0
  N  N38  1  0.19390903  0.21912665  0.97341012  1.0
  N  N39  1  0.19390903  0.28087335  0.47341012  1.0
  N  N40  1  0.90396137  0.78492481  0.54960529  1.0
  N  N41  1  0.90396137  0.71507519  0.04960529  1.0
  N  N42  1  0.09603863  0.28492481  0.95039471  1.0
  N  N43  1  0.09603863  0.21507519  0.45039471  1.0
  O  O44  1  0.64512162  0.42605217  0.62996619  1.0
  O  O45  1  0.64512162  0.07394783  0.12996619  1.0
  O  O46  1  0.35487838  0.92605217  0.87003381  1.0
  O  O47  1  0.35487838  0.57394783  0.37003381  1.0
  O  O48  1  0.97909786  0.57346863  0.63349994  1.0
  O  O49  1  0.97909786  0.92653137  0.13349994  1.0
  O  O50  1  0.02090214  0.07346863  0.86650006  1.0
  O  O51  1  0.02090214  0.42653137  0.36650006  1.0
