# generated using pymatgen
data_BaBiBrO2
_symmetry_space_group_name_H-M   'P 1'
_cell_length_a   7.51940837
_cell_length_b   7.51940837
_cell_length_c   5.83540859
_cell_angle_alpha   90.00000000
_cell_angle_beta   90.00000000
_cell_angle_gamma   132.58622892
_symmetry_Int_Tables_number   1
_chemical_formula_structural   BaBiBrO2
_chemical_formula_sum   'Ba2 Bi2 Br2 O4'
_cell_volume   242.92358088
_cell_formula_units_Z   2
loop_
 _symmetry_equiv_pos_site_id
 _symmetry_equiv_pos_as_xyz
  1  'x, y, z'
loop_
 _atom_site_type_symbol
 _atom_site_label
 _atom_site_symmetry_multiplicity
 _atom_site_fract_x
 _atom_site_fract_y
 _atom_site_fract_z
 _atom_site_occupancy
  Ba  Ba0  1  0.38973459  0.61026541  0.75000000  1.0
  Ba  Ba1  1  -0.38973459  0.38973459  0.25000000  1.0
  Bi  Bi2  1  0.07162565  0.92837435  0.75000000  1.0
  Bi  Bi3  1  -0.07162565  0.07162565  0.25000000  1.0
  Br  Br4  1  -0.25403530  0.25403530  0.75000000  1.0
  Br  Br5  1  0.25403530  0.74596470  0.25000000  1.0
  O  O6  1  0.77404303  0.77404303  0.00000000  1.0
  O  O7  1  0.77404303  0.77404303  0.50000000  1.0
  O  O8  1  0.22595697  0.22595697  0.00000000  1.0
  O  O9  1  0.22595697  0.22595697  0.50000000  1.0
