# generated using pymatgen
data_Ba9Cu7Cl2O15
_symmetry_space_group_name_H-M   'P 1'
_cell_length_a   10.92202911
_cell_length_b   10.92202911
_cell_length_c   6.16345881
_cell_angle_alpha   90.00000000
_cell_angle_beta   90.00000000
_cell_angle_gamma   120.00000000
_symmetry_Int_Tables_number   1
_chemical_formula_structural   Ba9Cu7Cl2O15
_chemical_formula_sum   'Ba9 Cu7 Cl2 O15'
_cell_volume   636.73949548
_cell_formula_units_Z   1
loop_
 _symmetry_equiv_pos_site_id
 _symmetry_equiv_pos_as_xyz
  1  'x, y, z'
loop_
 _atom_site_type_symbol
 _atom_site_label
 _atom_site_symmetry_multiplicity
 _atom_site_fract_x
 _atom_site_fract_y
 _atom_site_fract_z
 _atom_site_occupancy
  Cu  Cu0  1  0.00000000  0.00000000  0.00000000  1.0
  Cu  Cu1  1  0.13346571  0.86653429  0.50000000  1.0
  Cu  Cu2  1  0.13346571  0.26693142  0.50000000  1.0
  Cu  Cu3  1  0.86653429  0.13346571  0.50000000  1.0
  Cu  Cu4  1  0.86653429  0.73306858  0.50000000  1.0
  Cu  Cu5  1  0.73306858  0.86653429  0.50000000  1.0
  Cu  Cu6  1  0.26693142  0.13346571  0.50000000  1.0
  Cl  Cl7  1  0.33333333  0.66666667  0.50000000  1.0
  Cl  Cl8  1  0.66666667  0.33333333  0.50000000  1.0
  O  O9  1  0.50000000  0.50000000  0.00000000  1.0
  O  O10  1  0.50000000  0.00000000  0.00000000  1.0
  O  O11  1  0.00000000  0.50000000  -0.00000000  1.0
  O  O12  1  0.73290562  0.73290562  0.70604798  1.0
  O  O13  1  0.73290562  0.73290562  0.29395202  1.0
  O  O14  1  0.73290562  0.00000000  0.70604798  1.0
  O  O15  1  0.73290562  -0.00000000  0.29395202  1.0
  O  O16  1  0.00000000  0.73290562  0.70604798  1.0
  O  O17  1  0.00000000  0.73290562  0.29395202  1.0
  O  O18  1  -0.00000000  0.26709438  0.70604798  1.0
  O  O19  1  -0.00000000  0.26709438  0.29395202  1.0
  O  O20  1  0.26709438  0.26709438  0.70604798  1.0
  O  O21  1  0.26709438  0.26709438  0.29395202  1.0
  O  O22  1  0.26709438  -0.00000000  0.70604798  1.0
  O  O23  1  0.26709438  -0.00000000  0.29395202  1.0
  Ba  Ba24  1  0.20094151  0.79905849  -0.00000000  1.0
  Ba  Ba25  1  0.20094151  0.40188303  -0.00000000  1.0
  Ba  Ba26  1  0.79905849  0.20094151  0.00000000  1.0
  Ba  Ba27  1  0.79905849  0.59811697  0.00000000  1.0
  Ba  Ba28  1  0.59811697  0.79905849  0.00000000  1.0
  Ba  Ba29  1  0.40188303  0.20094151  -0.00000000  1.0
  Ba  Ba30  1  0.50000000  0.50000000  0.50000000  1.0
  Ba  Ba31  1  0.50000000  -0.00000000  0.50000000  1.0
  Ba  Ba32  1  0.00000000  0.50000000  0.50000000  1.0
