# generated using pymatgen
data_Hf2(NiAs)3
_symmetry_space_group_name_H-M   'P 1'
_cell_length_a   12.75465530
_cell_length_b   3.73666861
_cell_length_c   10.40939576
_cell_angle_alpha   90.00000000
_cell_angle_beta   90.00000000
_cell_angle_gamma   90.00000000
_symmetry_Int_Tables_number   1
_chemical_formula_structural   Hf2(NiAs)3
_chemical_formula_sum   'Hf8 Ni12 As12'
_cell_volume   496.11096946
_cell_formula_units_Z   4
loop_
 _symmetry_equiv_pos_site_id
 _symmetry_equiv_pos_as_xyz
  1  'x, y, z'
loop_
 _atom_site_type_symbol
 _atom_site_label
 _atom_site_symmetry_multiplicity
 _atom_site_fract_x
 _atom_site_fract_y
 _atom_site_fract_z
 _atom_site_occupancy
  Hf  Hf0  1  0.21110062  0.75000000  0.57332838  1.0
  Hf  Hf1  1  0.71110062  0.75000000  0.92667162  1.0
  Hf  Hf2  1  0.78889938  0.25000000  0.42667162  1.0
  Hf  Hf3  1  0.28889938  0.25000000  0.07332838  1.0
  Hf  Hf4  1  0.49416988  0.75000000  0.67021283  1.0
  Hf  Hf5  1  0.99416988  0.75000000  0.82978717  1.0
  Hf  Hf6  1  0.50583012  0.25000000  0.32978717  1.0
  Hf  Hf7  1  0.00583012  0.25000000  0.17021283  1.0
  Ni  Ni8  1  0.48545407  0.75000000  0.09662697  1.0
  Ni  Ni9  1  0.98545407  0.75000000  0.40337303  1.0
  Ni  Ni10  1  0.51454593  0.25000000  0.90337303  1.0
  Ni  Ni11  1  0.01454593  0.25000000  0.59662697  1.0
  Ni  Ni12  1  0.21628143  0.75000000  0.86241093  1.0
  Ni  Ni13  1  0.71628143  0.75000000  0.63758907  1.0
  Ni  Ni14  1  0.78371857  0.25000000  0.13758907  1.0
  Ni  Ni15  1  0.28371857  0.25000000  0.36241093  1.0
  Ni  Ni16  1  0.16597560  0.75000000  0.27469037  1.0
  Ni  Ni17  1  0.66597560  0.75000000  0.22530963  1.0
  Ni  Ni18  1  0.83402440  0.25000000  0.72530963  1.0
  Ni  Ni19  1  0.33402440  0.25000000  0.77469037  1.0
  As  As20  1  0.35718451  0.75000000  0.25947014  1.0
  As  As21  1  0.85718451  0.75000000  0.24052986  1.0
  As  As22  1  0.64281549  0.25000000  0.74052986  1.0
  As  As23  1  0.14281549  0.25000000  0.75947014  1.0
  As  As24  1  0.12354991  0.75000000  0.05256312  1.0
  As  As25  1  0.62354991  0.75000000  0.44743688  1.0
  As  As26  1  0.87645009  0.25000000  0.94743688  1.0
  As  As27  1  0.37645009  0.25000000  0.55256312  1.0
  As  As28  1  0.39623566  0.75000000  0.90078015  1.0
  As  As29  1  0.89623566  0.75000000  0.59921985  1.0
  As  As30  1  0.60376434  0.25000000  0.09921985  1.0
  As  As31  1  0.10376434  0.25000000  0.40078015  1.0
