# generated using pymatgen
data_LiCaGe
_symmetry_space_group_name_H-M   'P 1'
_cell_length_a   7.24060785
_cell_length_b   4.53123902
_cell_length_c   7.95227996
_cell_angle_alpha   90.00000000
_cell_angle_beta   90.00000000
_cell_angle_gamma   90.00000000
_symmetry_Int_Tables_number   1
_chemical_formula_structural   LiCaGe
_chemical_formula_sum   'Li4 Ca4 Ge4'
_cell_volume   260.90575547
_cell_formula_units_Z   4
loop_
 _symmetry_equiv_pos_site_id
 _symmetry_equiv_pos_as_xyz
  1  'x, y, z'
loop_
 _atom_site_type_symbol
 _atom_site_label
 _atom_site_symmetry_multiplicity
 _atom_site_fract_x
 _atom_site_fract_y
 _atom_site_fract_z
 _atom_site_occupancy
  Li  Li0  1  0.67544308  0.75000000  0.42191204  1.0
  Li  Li1  1  0.17544308  0.75000000  0.07808796  1.0
  Li  Li2  1  0.32455692  0.25000000  0.57808796  1.0
  Li  Li3  1  0.82455692  0.25000000  0.92191204  1.0
  Ca  Ca4  1  1.00315566  0.75000000  0.70545434  1.0
  Ca  Ca5  1  0.50315566  0.75000000  0.79454566  1.0
  Ca  Ca6  1  -0.00315566  0.25000000  0.29454566  1.0
  Ca  Ca7  1  0.49684434  0.25000000  0.20545434  1.0
  Ge  Ge8  1  0.79268647  0.75000000  0.09140985  1.0
  Ge  Ge9  1  0.29268647  0.75000000  0.40859015  1.0
  Ge  Ge10  1  0.20731353  0.25000000  0.90859015  1.0
  Ge  Ge11  1  0.70731353  0.25000000  0.59140985  1.0
