# generated using pymatgen
data_K2CaCu(NO2)6
_symmetry_space_group_name_H-M   'P 1'
_cell_length_a   7.54893958
_cell_length_b   7.54040016
_cell_length_c   7.36601410
_cell_angle_alpha   60.83826331
_cell_angle_beta   60.72232142
_cell_angle_gamma   58.43941527
_symmetry_Int_Tables_number   1
_chemical_formula_structural   K2CaCu(NO2)6
_chemical_formula_sum   'K2 Ca1 Cu1 N6 O12'
_cell_volume   296.15620633
_cell_formula_units_Z   1
loop_
 _symmetry_equiv_pos_site_id
 _symmetry_equiv_pos_as_xyz
  1  'x, y, z'
loop_
 _atom_site_type_symbol
 _atom_site_label
 _atom_site_symmetry_multiplicity
 _atom_site_fract_x
 _atom_site_fract_y
 _atom_site_fract_z
 _atom_site_occupancy
  N  N0  1  -0.21924328  0.78075672  0.21924328  1.0
  N  N1  1  0.21924328  0.21924328  -0.21924328  1.0
  N  N2  1  -0.19963374  0.19963374  0.80036626  1.0
  N  N3  1  0.19963374  -0.19963374  1.19963374  1.0
  N  N4  1  -0.80034457  0.80034457  0.80034457  1.0
  N  N5  1  -0.19965543  0.19965543  0.19965543  1.0
  K  K6  1  -0.25000000  0.75000000  0.75000000  1.0
  K  K7  1  0.25000000  0.25000000  1.25000000  1.0
  O  O8  1  -0.15891041  0.15891041  0.63523764  1.0
  O  O9  1  0.36476236  -0.36476236  1.15891041  1.0
  O  O10  1  -0.36476236  0.36476236  0.84108959  1.0
  O  O11  1  0.15891041  -0.15891041  1.36476236  1.0
  O  O12  1  0.16406660  0.63985026  -0.16406660  1.0
  O  O13  1  -0.63985026  0.83593340  0.63985026  1.0
  O  O14  1  -0.36014974  1.16406660  0.36014974  1.0
  O  O15  1  -0.16406660  0.36014974  0.16406660  1.0
  O  O16  1  0.61678343  -0.17861226  1.17861226  1.0
  O  O17  1  1.17861226  -0.61678343  0.61678343  1.0
  O  O18  1  -0.17861226  0.61678343  0.38321657  1.0
  O  O19  1  0.38321657  0.17861226  -0.17861226  1.0
  Cu  Cu20  1  0.00000000  0.00000000  -0.00000000  1.0
  Ca  Ca21  1  -0.50000000  0.50000000  0.50000000  1.0
