# generated using pymatgen
data_Ba5Y8Zn4O21
_symmetry_space_group_name_H-M   'P 1'
_cell_length_a   10.22040117
_cell_length_b   10.22040117
_cell_length_c   10.22040117
_cell_angle_alpha   94.53169341
_cell_angle_beta   94.53169341
_cell_angle_gamma   147.34968396
_symmetry_Int_Tables_number   1
_chemical_formula_structural   Ba5Y8Zn4O21
_chemical_formula_sum   'Ba5 Y8 Zn4 O21'
_cell_volume   552.75284143
_cell_formula_units_Z   1
loop_
 _symmetry_equiv_pos_site_id
 _symmetry_equiv_pos_as_xyz
  1  'x, y, z'
loop_
 _atom_site_type_symbol
 _atom_site_label
 _atom_site_symmetry_multiplicity
 _atom_site_fract_x
 _atom_site_fract_y
 _atom_site_fract_z
 _atom_site_occupancy
  Ba  Ba0  1  0.86086697  0.53433119  0.39519817  1.0
  Ba  Ba1  1  0.53433119  0.13913303  0.67346422  1.0
  Ba  Ba2  1  1.13913303  1.46566881  1.60480183  1.0
  Ba  Ba3  1  0.46566881  0.86086697  1.32653578  1.0
  Ba  Ba4  1  0.00000000  0.00000000  0.00000000  1.0
  Y  Y5  1  0.75255086  0.83224614  1.58479700  1.0
  Y  Y6  1  0.83224614  1.24744914  1.07969527  1.0
  Y  Y7  1  0.24744914  0.16775386  0.41520300  1.0
  Y  Y8  1  1.16775386  0.75255086  0.92030473  1.0
  Y  Y9  1  0.58883281  0.64208885  1.23092166  1.0
  Y  Y10  1  0.64208885  1.41116719  1.05325604  1.0
  Y  Y11  1  0.41116719  0.35791115  0.76907834  1.0
  Y  Y12  1  1.35791115  0.58883281  0.94674396  1.0
  Zn  Zn13  1  0.95915528  0.74865632  0.70781160  1.0
  Zn  Zn14  1  0.74865632  0.04084472  0.78950103  1.0
  Zn  Zn15  1  1.04084472  1.25134368  1.29218840  1.0
  Zn  Zn16  1  0.25134368  0.95915528  1.21049897  1.0
  O  O17  1  0.50000000  0.50000000  0.00000000  1.0
  O  O18  1  0.62743807  0.96313689  1.59057496  1.0
  O  O19  1  0.96313689  1.37256193  1.33569881  1.0
  O  O20  1  0.37256193  0.03686311  0.40942504  1.0
  O  O21  1  1.03686311  0.62743807  0.66430119  1.0
  O  O22  1  1.07183792  1.20199181  1.77410988  1.0
  O  O23  1  1.57211807  1.70227197  1.77410988  1.0
  O  O24  1  1.20199181  1.42788193  1.13015389  1.0
  O  O25  1  0.70227197  0.92816208  1.13015389  1.0
  O  O26  1  0.42788193  0.29772803  0.22589012  1.0
  O  O27  1  0.92816208  0.79800819  0.22589012  1.0
  O  O28  1  1.29772803  1.07183792  0.86984611  1.0
  O  O29  1  0.79800819  0.57211807  0.86984611  1.0
  O  O30  1  1.10001680  0.99059612  0.59418931  1.0
  O  O31  1  0.60359320  0.49417251  0.59418931  1.0
  O  O32  1  0.99059612  0.39640680  0.89057931  1.0
  O  O33  1  1.49417251  0.89998320  0.89057931  1.0
  O  O34  1  1.39640680  1.50582749  1.40581069  1.0
  O  O35  1  0.89998320  1.00940388  1.40581069  1.0
  O  O36  1  0.50582749  1.10001680  1.10942069  1.0
  O  O37  1  1.00940388  1.60359320  1.10942069  1.0
