# generated using pymatgen
data_BaLi4
_symmetry_space_group_name_H-M   'P 1'
_cell_length_a   10.79525987
_cell_length_b   10.79525987
_cell_length_c   8.82015272
_cell_angle_alpha   90.00000000
_cell_angle_beta   90.00000000
_cell_angle_gamma   120.00000000
_symmetry_Int_Tables_number   1
_chemical_formula_structural   BaLi4
_chemical_formula_sum   'Ba6 Li24'
_cell_volume   890.16997079
_cell_formula_units_Z   6
loop_
 _symmetry_equiv_pos_site_id
 _symmetry_equiv_pos_as_xyz
  1  'x, y, z'
loop_
 _atom_site_type_symbol
 _atom_site_label
 _atom_site_symmetry_multiplicity
 _atom_site_fract_x
 _atom_site_fract_y
 _atom_site_fract_z
 _atom_site_occupancy
  Ba  Ba0  1  0.52809928  0.47190072  0.25000000  1.0
  Ba  Ba1  1  0.52809928  0.05619855  0.25000000  1.0
  Ba  Ba2  1  0.47190072  0.52809928  0.75000000  1.0
  Ba  Ba3  1  0.47190072  0.94380145  0.75000000  1.0
  Ba  Ba4  1  0.94380145  0.47190072  0.25000000  1.0
  Ba  Ba5  1  0.05619855  0.52809928  0.75000000  1.0
  Li  Li6  1  0.16314681  0.83685319  0.43316592  1.0
  Li  Li7  1  0.16314681  0.83685319  0.06683408  1.0
  Li  Li8  1  0.16314681  0.32629362  0.43316592  1.0
  Li  Li9  1  0.16314681  0.32629362  0.06683408  1.0
  Li  Li10  1  0.83685319  0.16314681  0.93316592  1.0
  Li  Li11  1  0.83685319  0.16314681  0.56683408  1.0
  Li  Li12  1  0.83685319  0.67370638  0.93316592  1.0
  Li  Li13  1  0.83685319  0.67370638  0.56683408  1.0
  Li  Li14  1  0.67370638  0.83685319  0.43316592  1.0
  Li  Li15  1  0.67370638  0.83685319  0.06683408  1.0
  Li  Li16  1  0.32629362  0.16314681  0.93316592  1.0
  Li  Li17  1  0.32629362  0.16314681  0.56683408  1.0
  Li  Li18  1  0.90076319  0.09923681  0.25000000  1.0
  Li  Li19  1  0.90076319  0.80152639  0.25000000  1.0
  Li  Li20  1  0.09923681  0.90076319  0.75000000  1.0
  Li  Li21  1  0.09923681  0.19847361  0.75000000  1.0
  Li  Li22  1  0.19847361  0.09923681  0.25000000  1.0
  Li  Li23  1  0.80152639  0.90076319  0.75000000  1.0
  Li  Li24  1  0.33333333  0.66666667  0.41455159  1.0
  Li  Li25  1  0.33333333  0.66666667  0.08544841  1.0
  Li  Li26  1  0.66666667  0.33333333  0.91455159  1.0
  Li  Li27  1  0.66666667  0.33333333  0.58544841  1.0
  Li  Li28  1  0.00000000  0.00000000  0.50000000  1.0
  Li  Li29  1  0.00000000  0.00000000  0.00000000  1.0
