# generated using pymatgen
data_Na2MnH4(SO5)2
_symmetry_space_group_name_H-M   'P 1'
_cell_length_a   5.86692062
_cell_length_b   13.14743860
_cell_length_c   5.59094604
_cell_angle_alpha   90.00000000
_cell_angle_beta   106.47493670
_cell_angle_gamma   90.00000000
_symmetry_Int_Tables_number   1
_chemical_formula_structural   Na2MnH4(SO5)2
_chemical_formula_sum   'Na4 Mn2 H8 S4 O20'
_cell_volume   413.55174447
_cell_formula_units_Z   2
loop_
 _symmetry_equiv_pos_site_id
 _symmetry_equiv_pos_as_xyz
  1  'x, y, z'
loop_
 _atom_site_type_symbol
 _atom_site_label
 _atom_site_symmetry_multiplicity
 _atom_site_fract_x
 _atom_site_fract_y
 _atom_site_fract_z
 _atom_site_occupancy
  Na  Na0  1  0.41534554  0.88121459  0.74031152  1.0
  Na  Na1  1  0.41534554  0.61878541  0.24031152  1.0
  Na  Na2  1  0.58465446  0.38121459  0.75968848  1.0
  Na  Na3  1  0.58465446  0.11878541  0.25968848  1.0
  Mn  Mn4  1  0.00000000  0.00000000  0.00000000  1.0
  Mn  Mn5  1  0.00000000  0.50000000  0.50000000  1.0
  H  H6  1  0.91005356  0.20471731  0.99944617  1.0
  H  H7  1  0.91005356  0.29528269  0.49944617  1.0
  H  H8  1  0.08994644  0.70471731  0.50055383  1.0
  H  H9  1  0.08994644  0.79528269  0.00055383  1.0
  H  H10  1  0.32108113  0.65508015  0.68305065  1.0
  H  H11  1  0.32108113  0.84491985  0.18305065  1.0
  H  H12  1  0.67891887  0.15508015  0.81694935  1.0
  H  H13  1  0.67891887  0.34491985  0.31694935  1.0
  S  S14  1  0.76964118  0.61806011  0.92722867  1.0
  S  S15  1  0.76964118  0.88193989  0.42722867  1.0
  S  S16  1  0.23035882  0.11806011  0.57277133  1.0
  S  S17  1  0.23035882  0.38193989  0.07277133  1.0
  O  O18  1  -0.00010147  0.82786665  0.48562658  1.0
  O  O19  1  -0.00010147  0.67213335  0.98562658  1.0
  O  O20  1  1.00010147  0.32786665  0.01437342  1.0
  O  O21  1  1.00010147  0.17213335  0.51437342  1.0
  O  O22  1  0.81184301  0.35826804  0.47117437  1.0
  O  O23  1  0.81184301  0.14173196  0.97117437  1.0
  O  O24  1  0.18815699  0.85826804  0.02882563  1.0
  O  O25  1  0.18815699  0.64173196  0.52882563  1.0
  O  O26  1  0.76585500  0.95541894  0.63475178  1.0
  O  O27  1  0.76585500  0.54458106  0.13475178  1.0
  O  O28  1  0.23414500  0.45541894  0.86524822  1.0
  O  O29  1  0.23414500  0.04458106  0.36524822  1.0
  O  O30  1  0.72937713  0.55801562  0.68810880  1.0
  O  O31  1  0.72937713  0.94198438  0.18810880  1.0
  O  O32  1  0.27062287  0.05801562  0.81189120  1.0
  O  O33  1  0.27062287  0.44198438  0.31189120  1.0
  O  O34  1  0.56610394  0.69008773  0.90167065  1.0
  O  O35  1  0.56610394  0.80991227  0.40167065  1.0
  O  O36  1  0.43389606  0.19008773  0.59832935  1.0
  O  O37  1  0.43389606  0.30991227  0.09832935  1.0
