# generated using pymatgen
data_C7BrNF4
_symmetry_space_group_name_H-M   'P 1'
_cell_length_a   18.26287780
_cell_length_b   8.12834977
_cell_length_c   6.36662764
_cell_angle_alpha   90.00000000
_cell_angle_beta   90.00000000
_cell_angle_gamma   90.00000000
_symmetry_Int_Tables_number   1
_chemical_formula_structural   C7BrNF4
_chemical_formula_sum   'C28 Br4 N4 F16'
_cell_volume   945.10714693
_cell_formula_units_Z   4
loop_
 _symmetry_equiv_pos_site_id
 _symmetry_equiv_pos_as_xyz
  1  'x, y, z'
loop_
 _atom_site_type_symbol
 _atom_site_label
 _atom_site_symmetry_multiplicity
 _atom_site_fract_x
 _atom_site_fract_y
 _atom_site_fract_z
 _atom_site_occupancy
  C  C0  1  0.41483531  0.27692119  0.48868838  1.0
  C  C1  1  0.91483531  0.22307881  0.48868838  1.0
  C  C2  1  0.58516469  0.72307881  -0.01131162  1.0
  C  C3  1  0.08516469  0.77692119  -0.01131162  1.0
  C  C4  1  0.41243661  0.13981092  0.35801728  1.0
  C  C5  1  0.91243661  0.36018908  0.35801728  1.0
  C  C6  1  0.58756339  0.86018908  0.85801728  1.0
  C  C7  1  0.08756339  0.63981092  0.85801728  1.0
  C  C8  1  0.37763685  0.42141532  0.43513633  1.0
  C  C9  1  0.87763685  0.07858468  0.43513633  1.0
  C  C10  1  0.62236315  0.57858468  0.93513633  1.0
  C  C11  1  0.12236315  0.92141532  0.93513633  1.0
  C  C12  1  0.37297482  0.14325984  0.16847806  1.0
  C  C13  1  0.87297482  0.35674016  0.16847806  1.0
  C  C14  1  0.62702518  0.85674016  0.66847806  1.0
  C  C15  1  0.12702518  0.64325984  0.66847806  1.0
  C  C16  1  0.37086037  0.00478930  0.03271849  1.0
  C  C17  1  0.87086037  0.49521070  0.03271849  1.0
  C  C18  1  0.62913963  0.99521070  0.53271849  1.0
  C  C19  1  0.12913963  0.50478930  0.53271849  1.0
  C  C20  1  0.33802423  0.42581299  0.24708618  1.0
  C  C21  1  0.83802423  0.07418701  0.24708618  1.0
  C  C22  1  0.66197577  0.57418701  0.74708618  1.0
  C  C23  1  0.16197577  0.92581299  0.74708618  1.0
  C  C24  1  0.33583432  0.28903366  0.11602782  1.0
  C  C25  1  0.83583432  0.21096634  0.11602782  1.0
  C  C26  1  0.66416568  0.71096634  0.61602782  1.0
  C  C27  1  0.16416568  0.78903366  0.61602782  1.0
  Br  Br28  1  0.12060970  0.10532680  0.11450952  1.0
  Br  Br29  1  0.62060970  0.39467320  0.11450952  1.0
  Br  Br30  1  0.87939030  0.89467320  0.61450952  1.0
  Br  Br31  1  0.37939030  0.60532680  0.61450952  1.0
  N  N32  1  0.13092990  0.39249751  0.41923030  1.0
  N  N33  1  0.63092990  0.10750249  0.41923030  1.0
  N  N34  1  0.86907010  0.60750249  0.91923030  1.0
  N  N35  1  0.36907010  0.89249751  0.91923030  1.0
  F  F36  1  0.45334475  0.26826672  0.66869716  1.0
  F  F37  1  0.95334475  0.23173328  0.66869716  1.0
  F  F38  1  0.54665525  0.73173328  0.16869716  1.0
  F  F39  1  0.04665525  0.76826672  0.16869716  1.0
  F  F40  1  0.44819479  1.00229609  0.41397217  1.0
  F  F41  1  0.94819479  0.49770391  0.41397217  1.0
  F  F42  1  0.55180521  -0.00229609  0.91397217  1.0
  F  F43  1  0.05180521  0.50229609  0.91397217  1.0
  F  F44  1  0.29742338  0.29652608  0.93622974  1.0
  F  F45  1  0.79742338  0.20347392  0.93622974  1.0
  F  F46  1  0.70257662  0.70347392  0.43622974  1.0
  F  F47  1  0.20257662  0.79652608  0.43622974  1.0
  F  F48  1  0.80132119  0.93801505  0.19050857  1.0
  F  F49  1  0.30132119  0.56198495  0.19050857  1.0
  F  F50  1  0.19867881  0.06198495  0.69050857  1.0
  F  F51  1  0.69867881  0.43801505  0.69050857  1.0
