# generated using pymatgen
data_Al2P3H11O13
_symmetry_space_group_name_H-M   'P 1'
_cell_length_a   7.60345531
_cell_length_b   9.92601375
_cell_length_c   8.39769140
_cell_angle_alpha   90.00000000
_cell_angle_beta   110.55715129
_cell_angle_gamma   90.00000000
_symmetry_Int_Tables_number   1
_chemical_formula_structural   Al2P3H11O13
_chemical_formula_sum   'Al4 P6 H22 O26'
_cell_volume   593.43231768
_cell_formula_units_Z   2
loop_
 _symmetry_equiv_pos_site_id
 _symmetry_equiv_pos_as_xyz
  1  'x, y, z'
loop_
 _atom_site_type_symbol
 _atom_site_label
 _atom_site_symmetry_multiplicity
 _atom_site_fract_x
 _atom_site_fract_y
 _atom_site_fract_z
 _atom_site_occupancy
  Al  Al0  1  0.43369050  0.85346751  0.97226023  1.0
  Al  Al1  1  0.56630950  0.35346751  0.02773977  1.0
  Al  Al2  1  0.91310475  0.57722899  0.62664467  1.0
  Al  Al3  1  0.08689525  0.07722899  0.37335533  1.0
  P  P4  1  0.04294082  0.88461953  0.65824473  1.0
  P  P5  1  0.95705918  0.38461953  0.34175527  1.0
  P  P6  1  0.23964269  0.57500656  -0.00708798  1.0
  P  P7  1  0.76035731  0.07500656  1.00708798  1.0
  P  P8  1  0.29276847  0.13112075  0.09974891  1.0
  P  P9  1  0.70723153  0.63112075  0.90025109  1.0
  H  H10  1  0.94482449  0.90742156  0.76993028  1.0
  H  H11  1  0.05517551  0.40742156  0.23006972  1.0
  H  H12  1  0.11306330  0.54625913  0.07699448  1.0
  H  H13  1  0.88693670  0.04625913  0.92300552  1.0
  H  H14  1  0.16471584  0.17349990  0.94136573  1.0
  H  H15  1  0.83528416  0.67349990  0.05863427  1.0
  H  H16  1  0.73824692  0.88927938  0.22924884  1.0
  H  H17  1  0.26175308  0.38927938  0.77075116  1.0
  H  H18  1  0.65149011  0.75194572  0.28023298  1.0
  H  H19  1  0.34850989  0.25194572  0.71976702  1.0
  H  H20  1  0.64484414  0.53107457  0.34062209  1.0
  H  H21  1  0.35515586  0.03107457  0.65937791  1.0
  H  H22  1  0.54856071  0.61578345  0.45396251  1.0
  H  H23  1  0.45143929  0.11578345  0.54603749  1.0
  H  H24  1  0.75465828  0.40738223  0.75894827  1.0
  H  H25  1  0.24534172  0.90738223  0.24105173  1.0
  H  H26  1  0.75777162  0.32117545  0.59673970  1.0
  H  H27  1  0.24222838  0.82117545  0.40326030  1.0
  H  H28  1  0.59897490  0.19362510  0.37030895  1.0
  H  H29  1  0.40102510  0.69362510  0.62969105  1.0
  H  H30  1  0.75809531  0.11227073  0.50560379  1.0
  H  H31  1  0.24190469  0.61227073  0.49439621  1.0
  O  O32  1  0.25570104  0.89834397  0.75794678  1.0
  O  O33  1  0.74429896  0.39834397  0.24205322  1.0
  O  O34  1  0.98628572  0.74634524  0.57552643  1.0
  O  O35  1  0.01371428  0.24634524  0.42447357  1.0
  O  O36  1  0.98358897  0.99921506  0.52480846  1.0
  O  O37  1  0.01641103  0.49921506  0.47519154  1.0
  O  O38  1  0.28310059  0.72536138  0.02681453  1.0
  O  O39  1  0.71689941  0.22536138  0.97318547  1.0
  O  O40  1  0.14173034  0.53766713  0.80296301  1.0
  O  O41  1  0.85826966  0.03766713  0.19703699  1.0
  O  O42  1  0.41105842  0.48393660  0.07342905  1.0
  O  O43  1  0.58894158  0.98393660  0.92657095  1.0
  O  O44  1  0.32875262  0.97873134  0.08868280  1.0
  O  O45  1  0.67124738  0.47873134  0.91131720  1.0
  O  O46  1  0.47148288  0.21735367  0.13953593  1.0
  O  O47  1  0.52851712  0.71735367  0.86046407  1.0
  O  O48  1  0.20022079  0.15553251  0.23311411  1.0
  O  O49  1  0.79977921  0.65553251  0.76688589  1.0
  O  O50  1  0.63939645  0.81925856  0.19066611  1.0
  O  O51  1  0.36060355  0.31925856  0.80933389  1.0
  O  O52  1  0.66452525  0.60532570  0.42468223  1.0
  O  O53  1  0.33547475  0.10532570  0.57531777  1.0
  O  O54  1  0.81003576  0.40218948  0.66784272  1.0
  O  O55  1  0.18996424  0.90218948  0.33215728  1.0
  O  O56  1  0.64979435  0.17126881  0.49346264  1.0
  O  O57  1  0.35020565  0.67126881  0.50653736  1.0
