# generated using pymatgen
data_AsCS3BrNF6
_symmetry_space_group_name_H-M   'P 1'
_cell_length_a   10.20599359
_cell_length_b   8.36971354
_cell_length_c   6.70774453
_cell_angle_alpha   109.75485545
_cell_angle_beta   93.93965801
_cell_angle_gamma   90.70284925
_symmetry_Int_Tables_number   1
_chemical_formula_structural   AsCS3BrNF6
_chemical_formula_sum   'As2 C2 S6 Br2 N2 F12'
_cell_volume   537.60353436
_cell_formula_units_Z   2
loop_
 _symmetry_equiv_pos_site_id
 _symmetry_equiv_pos_as_xyz
  1  'x, y, z'
loop_
 _atom_site_type_symbol
 _atom_site_label
 _atom_site_symmetry_multiplicity
 _atom_site_fract_x
 _atom_site_fract_y
 _atom_site_fract_z
 _atom_site_occupancy
  As  As0  1  0.24434402  0.26504062  -0.01407325  1.0
  As  As1  1  0.75565598  0.73495938  -0.98592675  1.0
  C  C2  1  0.23814333  0.76511488  -0.47687073  1.0
  C  C3  1  0.76185667  0.23488512  -0.52312927  1.0
  S  S4  1  0.48039633  0.76820303  -0.54097713  1.0
  S  S5  1  0.51960367  0.23179697  -0.45902287  1.0
  S  S6  1  0.39151341  0.88808074  -0.74492165  1.0
  S  S7  1  0.60848659  0.11191926  -0.25507835  1.0
  S  S8  1  0.20300746  0.86340909  -0.66643216  1.0
  S  S9  1  0.79699254  0.13659091  -0.33356784  1.0
  Br  Br10  1  0.09088466  0.71798647  -0.35278611  1.0
  Br  Br11  1  0.90911534  0.28201353  -0.64721389  1.0
  N  N12  1  0.35530532  0.72693020  -0.42953126  1.0
  N  N13  1  0.64469468  0.27306980  -0.57046874  1.0
  F  F14  1  0.14148479  0.38738985  -0.81630304  1.0
  F  F15  1  0.85851521  0.61261015  -0.18369696  1.0
  F  F16  1  0.34895137  0.13532506  -0.21498868  1.0
  F  F17  1  0.65104863  0.86467494  -0.78501132  1.0
  F  F18  1  0.38559441  0.32226902  -0.82567916  1.0
  F  F19  1  0.61440559  0.67773098  -0.17432084  1.0
  F  F20  1  0.21518710  0.08108670  -0.93805408  1.0
  F  F21  1  0.78481290  0.91891330  -0.06194592  1.0
  F  F22  1  0.10716642  0.19901013  -0.20740346  1.0
  F  F23  1  0.89283358  0.80098987  -0.79259654  1.0
  F  F24  1  0.27908892  0.44308616  -0.09321048  1.0
  F  F25  1  0.72091108  0.55691384  -0.90678952  1.0
