# generated using pymatgen
data_Yb(GeRh2)2
_symmetry_space_group_name_H-M   'P 1'
_cell_length_a   11.50698908
_cell_length_b   4.17529318
_cell_length_c   9.16467695
_cell_angle_alpha   90.00000000
_cell_angle_beta   90.00000000
_cell_angle_gamma   90.00000000
_symmetry_Int_Tables_number   1
_chemical_formula_structural   Yb(GeRh2)2
_chemical_formula_sum   'Yb4 Ge8 Rh16'
_cell_volume   440.31738928
_cell_formula_units_Z   4
loop_
 _symmetry_equiv_pos_site_id
 _symmetry_equiv_pos_as_xyz
  1  'x, y, z'
loop_
 _atom_site_type_symbol
 _atom_site_label
 _atom_site_symmetry_multiplicity
 _atom_site_fract_x
 _atom_site_fract_y
 _atom_site_fract_z
 _atom_site_occupancy
  Yb  Yb0  1  0.17496731  0.75000000  0.85436550  1.0
  Yb  Yb1  1  0.67496731  0.75000000  0.64563450  1.0
  Yb  Yb2  1  0.82503269  0.25000000  0.14563450  1.0
  Yb  Yb3  1  0.32503269  0.25000000  0.35436550  1.0
  Ge  Ge4  1  0.43786661  0.75000000  0.11822238  1.0
  Ge  Ge5  1  0.93786661  0.75000000  0.38177762  1.0
  Ge  Ge6  1  0.56213339  0.25000000  0.88177762  1.0
  Ge  Ge7  1  0.06213339  0.25000000  0.61822238  1.0
  Ge  Ge8  1  0.36298133  0.75000000  0.58688223  1.0
  Ge  Ge9  1  0.86298133  0.75000000  0.91311777  1.0
  Ge  Ge10  1  0.63701867  0.25000000  0.41311777  1.0
  Ge  Ge11  1  0.13701867  0.25000000  0.08688223  1.0
  Rh  Rh12  1  0.44154301  0.75000000  0.83134349  1.0
  Rh  Rh13  1  0.94154301  0.75000000  0.66865651  1.0
  Rh  Rh14  1  0.55845699  0.25000000  0.16865651  1.0
  Rh  Rh15  1  0.05845699  0.25000000  0.33134349  1.0
  Rh  Rh16  1  0.22914453  0.75000000  0.19273270  1.0
  Rh  Rh17  1  0.72914453  0.75000000  0.30726730  1.0
  Rh  Rh18  1  0.77085547  0.25000000  0.80726730  1.0
  Rh  Rh19  1  0.27085547  0.25000000  0.69273270  1.0
  Rh  Rh20  1  0.15693198  0.75000000  0.50437860  1.0
  Rh  Rh21  1  0.65693198  0.75000000  0.99562140  1.0
  Rh  Rh22  1  0.84306802  0.25000000  0.49562140  1.0
  Rh  Rh23  1  0.34306802  0.25000000  0.00437860  1.0
  Rh  Rh24  1  0.00144020  0.75000000  0.11680391  1.0
  Rh  Rh25  1  0.50144020  0.75000000  0.38319609  1.0
  Rh  Rh26  1  0.99855980  0.25000000  0.88319609  1.0
  Rh  Rh27  1  0.49855980  0.25000000  0.61680391  1.0
