# generated using pymatgen
data_Zr5AlSn2
_symmetry_space_group_name_H-M   'P 1'
_cell_length_a   8.42587692
_cell_length_b   8.42587692
_cell_length_c   8.42587692
_cell_angle_alpha   96.18806226
_cell_angle_beta   96.18806226
_cell_angle_gamma   141.66665714
_symmetry_Int_Tables_number   1
_chemical_formula_structural   Zr5AlSn2
_chemical_formula_sum   'Zr10 Al2 Sn4'
_cell_volume   350.45724445
_cell_formula_units_Z   2
loop_
 _symmetry_equiv_pos_site_id
 _symmetry_equiv_pos_as_xyz
  1  'x, y, z'
loop_
 _atom_site_type_symbol
 _atom_site_label
 _atom_site_symmetry_multiplicity
 _atom_site_fract_x
 _atom_site_fract_y
 _atom_site_fract_z
 _atom_site_occupancy
  Zr  Zr0  1  0.28519145  0.42327027  0.70846173  1.0
  Zr  Zr1  1  1.21480855  0.92327027  1.13807882  1.0
  Zr  Zr2  1  0.92327027  0.78519145  1.70846173  1.0
  Zr  Zr3  1  0.57672973  1.28519145  0.86192118  1.0
  Zr  Zr4  1  0.78519145  1.07672973  0.86192118  1.0
  Zr  Zr5  1  0.71480855  0.57672973  1.29153827  1.0
  Zr  Zr6  1  1.42327027  0.71480855  1.13807882  1.0
  Zr  Zr7  1  0.07672973  0.21480855  0.29153827  1.0
  Zr  Zr8  1  0.75000000  1.25000000  0.50000000  1.0
  Zr  Zr9  1  0.25000000  0.75000000  0.50000000  1.0
  Al  Al10  1  0.25000000  0.25000000  0.00000000  1.0
  Al  Al11  1  0.75000000  0.75000000  0.00000000  1.0
  Sn  Sn12  1  0.83605109  0.33605109  1.17210218  1.0
  Sn  Sn13  1  0.66394891  0.83605109  0.50000000  1.0
  Sn  Sn14  1  1.33605109  1.16394891  1.50000000  1.0
  Sn  Sn15  1  0.16394891  0.66394891  0.82789782  1.0
