# generated using pymatgen
data_La2Pd2O5
_symmetry_space_group_name_H-M   'P 1'
_cell_length_a   6.75808435
_cell_length_b   6.75808435
_cell_length_c   5.66384302
_cell_angle_alpha   90.00000000
_cell_angle_beta   90.00000000
_cell_angle_gamma   90.00000000
_symmetry_Int_Tables_number   1
_chemical_formula_structural   La2Pd2O5
_chemical_formula_sum   'La4 Pd4 O10'
_cell_volume   258.67736200
_cell_formula_units_Z   2
loop_
 _symmetry_equiv_pos_site_id
 _symmetry_equiv_pos_as_xyz
  1  'x, y, z'
loop_
 _atom_site_type_symbol
 _atom_site_label
 _atom_site_symmetry_multiplicity
 _atom_site_fract_x
 _atom_site_fract_y
 _atom_site_fract_z
 _atom_site_occupancy
  La  La0  1  0.73794473  0.89121298  0.00000000  1.0
  La  La1  1  0.89121298  0.26205527  0.50000000  1.0
  La  La2  1  0.26205527  0.10878702  0.00000000  1.0
  La  La3  1  0.10878702  0.73794473  0.50000000  1.0
  Pd  Pd4  1  0.68958142  0.40537055  0.00000000  1.0
  Pd  Pd5  1  0.40537055  0.31041858  0.50000000  1.0
  Pd  Pd6  1  0.31041858  0.59462945  0.00000000  1.0
  Pd  Pd7  1  0.59462945  0.68958142  0.50000000  1.0
  O  O8  1  0.79910938  0.59488581  0.74207214  1.0
  O  O9  1  0.79910938  0.59488581  0.25792786  1.0
  O  O10  1  0.59488581  0.20089062  0.24207214  1.0
  O  O11  1  0.59488581  0.20089062  0.75792786  1.0
  O  O12  1  0.20089062  0.40511419  0.74207214  1.0
  O  O13  1  0.20089062  0.40511419  0.25792786  1.0
  O  O14  1  0.40511419  0.79910938  0.24207214  1.0
  O  O15  1  0.40511419  0.79910938  0.75792786  1.0
  O  O16  1  0.00000000  0.00000000  0.75000000  1.0
  O  O17  1  0.00000000  0.00000000  0.25000000  1.0
