# generated using pymatgen
data_NaHoO2
_symmetry_space_group_name_H-M   'P 1'
_cell_length_a   5.92578157
_cell_length_b   5.92578157
_cell_length_c   5.92578157
_cell_angle_alpha   33.58729263
_cell_angle_beta   33.58729263
_cell_angle_gamma   33.58729263
_symmetry_Int_Tables_number   1
_chemical_formula_structural   NaHoO2
_chemical_formula_sum   'Na1 Ho1 O2'
_cell_volume   56.72523434
_cell_formula_units_Z   1
loop_
 _symmetry_equiv_pos_site_id
 _symmetry_equiv_pos_as_xyz
  1  'x, y, z'
loop_
 _atom_site_type_symbol
 _atom_site_label
 _atom_site_symmetry_multiplicity
 _atom_site_fract_x
 _atom_site_fract_y
 _atom_site_fract_z
 _atom_site_occupancy
  Na  Na0  1  0.00000000  0.00000000  0.00000000  1.0
  Ho  Ho1  1  1.50000000  0.50000000  0.50000000  1.0
  O  O2  1  0.76294955  0.76294955  0.76294955  1.0
  O  O3  1  1.23705045  1.23705045  0.23705045  1.0
