# generated using pymatgen
data_CdIn2O4
_symmetry_space_group_name_H-M   'P 1'
_cell_length_a   6.58885992
_cell_length_b   6.58885992
_cell_length_c   6.58885992
_cell_angle_alpha   120.02774249
_cell_angle_beta   120.02774249
_cell_angle_gamma   89.95195531
_symmetry_Int_Tables_number   1
_chemical_formula_structural   CdIn2O4
_chemical_formula_sum   'Cd2 In4 O8'
_cell_volume   202.17781999
_cell_formula_units_Z   2
loop_
 _symmetry_equiv_pos_site_id
 _symmetry_equiv_pos_as_xyz
  1  'x, y, z'
loop_
 _atom_site_type_symbol
 _atom_site_label
 _atom_site_symmetry_multiplicity
 _atom_site_fract_x
 _atom_site_fract_y
 _atom_site_fract_z
 _atom_site_occupancy
  Cd  Cd0  1  0.75000000  0.25000000  0.50000000  1.0
  Cd  Cd1  1  0.00000000  0.00000000  0.00000000  1.0
  In  In2  1  0.37500000  0.62500000  0.25000000  1.0
  In  In3  1  0.37500000  1.12500000  0.75000000  1.0
  In  In4  1  0.37500000  0.62500000  0.75000000  1.0
  In  In5  1  0.87500000  0.62500000  1.25000000  1.0
  O  O6  1  0.13807326  0.86212939  0.72405612  1.0
  O  O7  1  0.13807326  0.41401714  0.27594388  1.0
  O  O8  1  0.61192674  0.83598286  1.22405612  1.0
  O  O9  1  0.61192674  0.38787061  0.77594388  1.0
  O  O10  1  1.13787061  0.86192674  1.27594388  1.0
  O  O11  1  0.58598286  0.86192674  0.72405612  1.0
  O  O12  1  1.16401714  0.38807326  0.77594388  1.0
  O  O13  1  0.61212939  0.38807326  0.22405612  1.0
