# generated using pymatgen
data_Ti12Zn5N
_symmetry_space_group_name_H-M   'P 1'
_cell_length_a   10.61725599
_cell_length_b   10.61725599
_cell_length_c   10.61725599
_cell_angle_alpha   60.00000000
_cell_angle_beta   60.00000000
_cell_angle_gamma   60.00000000
_symmetry_Int_Tables_number   1
_chemical_formula_structural   Ti12Zn5N
_chemical_formula_sum   'Ti24 Zn10 N2'
_cell_volume   846.29518193
_cell_formula_units_Z   2
loop_
 _symmetry_equiv_pos_site_id
 _symmetry_equiv_pos_as_xyz
  1  'x, y, z'
loop_
 _atom_site_type_symbol
 _atom_site_label
 _atom_site_symmetry_multiplicity
 _atom_site_fract_x
 _atom_site_fract_y
 _atom_site_fract_z
 _atom_site_occupancy
  Ti  Ti0  1  0.99756396  -0.74922390  0.75409597  1.0
  Ti  Ti1  1  -0.00243604  0.75409597  0.25077610  1.0
  Ti  Ti2  1  -0.00077610  0.25243604  0.25243604  1.0
  Ti  Ti3  1  0.49590403  0.25243604  0.25243604  1.0
  Ti  Ti4  1  -0.74922390  0.99756396  0.75409597  1.0
  Ti  Ti5  1  0.99756396  -0.00243604  0.75409597  1.0
  Ti  Ti6  1  0.99756396  -0.24590403  0.99756396  1.0
  Ti  Ti7  1  -0.74922390  0.75409597  0.99756396  1.0
  Ti  Ti8  1  0.25243604  -0.00077610  0.25243604  1.0
  Ti  Ti9  1  0.25243604  0.25243604  -0.00077610  1.0
  Ti  Ti10  1  0.49590403  0.25243604  -0.00077610  1.0
  Ti  Ti11  1  0.49590403  -0.00077610  0.25243604  1.0
  Ti  Ti12  1  0.75409597  -0.00243604  0.99756396  1.0
  Ti  Ti13  1  -0.74922390  0.99756396  0.99756396  1.0
  Ti  Ti14  1  0.25243604  0.49590403  -0.00077610  1.0
  Ti  Ti15  1  0.25243604  -0.00077610  0.49590403  1.0
  Ti  Ti16  1  -0.24590403  0.99756396  0.25077610  1.0
  Ti  Ti17  1  0.75409597  -0.74922390  0.99756396  1.0
  Ti  Ti18  1  0.99756396  -0.74922390  0.99756396  1.0
  Ti  Ti19  1  -0.00243604  0.99756396  0.25077610  1.0
  Ti  Ti20  1  0.25243604  0.49590403  0.25243604  1.0
  Ti  Ti21  1  -0.00077610  0.49590403  0.25243604  1.0
  Ti  Ti22  1  -0.00077610  0.25243604  0.49590403  1.0
  Ti  Ti23  1  0.25243604  0.25243604  0.49590403  1.0
  Zn  Zn24  1  0.66667965  -0.33332035  0.99996104  1.0
  Zn  Zn25  1  0.66667965  -0.00003896  0.66667965  1.0
  Zn  Zn26  1  0.58332035  -0.41667965  0.58332035  1.0
  Zn  Zn27  1  1.25003896  -0.41667965  0.58332035  1.0
  Zn  Zn28  1  0.99996104  -0.33332035  0.66667965  1.0
  Zn  Zn29  1  0.66667965  -0.33332035  0.66667965  1.0
  Zn  Zn30  1  0.58332035  0.25003896  0.58332035  1.0
  Zn  Zn31  1  0.58332035  -0.41667965  1.25003896  1.0
  Zn  Zn32  1  0.50000000  0.50000000  -0.50000000  1.0
  Zn  Zn33  1  0.75000000  -0.25000000  0.75000000  1.0
  N  N34  1  0.00000000  1.00000000  0.00000000  1.0
  N  N35  1  0.25000000  0.25000000  0.25000000  1.0
