# generated using pymatgen
data_Hf9FeRe4
_symmetry_space_group_name_H-M   'P 1'
_cell_length_a   8.56654845
_cell_length_b   8.56654845
_cell_length_c   8.48581385
_cell_angle_alpha   90.00000000
_cell_angle_beta   90.00000000
_cell_angle_gamma   120.00000000
_symmetry_Int_Tables_number   1
_chemical_formula_structural   Hf9FeRe4
_chemical_formula_sum   'Hf18 Fe2 Re8'
_cell_volume   539.30678378
_cell_formula_units_Z   2
loop_
 _symmetry_equiv_pos_site_id
 _symmetry_equiv_pos_as_xyz
  1  'x, y, z'
loop_
 _atom_site_type_symbol
 _atom_site_label
 _atom_site_symmetry_multiplicity
 _atom_site_fract_x
 _atom_site_fract_y
 _atom_site_fract_z
 _atom_site_occupancy
  Hf  Hf0  1  0.20012486  0.79987514  0.44136226  1.0
  Hf  Hf1  1  0.20012486  0.40024973  0.44136226  1.0
  Hf  Hf2  1  0.59975027  0.79987514  0.44136226  1.0
  Hf  Hf3  1  0.79987514  0.20012486  0.55863774  1.0
  Hf  Hf4  1  0.79987514  0.59975027  0.55863774  1.0
  Hf  Hf5  1  0.40024973  0.20012486  0.55863774  1.0
  Hf  Hf6  1  0.79987514  0.20012486  0.94136226  1.0
  Hf  Hf7  1  0.79987514  0.59975027  0.94136226  1.0
  Hf  Hf8  1  0.40024973  0.20012486  0.94136226  1.0
  Hf  Hf9  1  0.20012486  0.79987514  0.05863774  1.0
  Hf  Hf10  1  0.20012486  0.40024973  0.05863774  1.0
  Hf  Hf11  1  0.59975027  0.79987514  0.05863774  1.0
  Hf  Hf12  1  0.54055406  0.45944594  0.25000000  1.0
  Hf  Hf13  1  0.54055406  0.08110811  0.25000000  1.0
  Hf  Hf14  1  0.91889189  0.45944594  0.25000000  1.0
  Hf  Hf15  1  0.45944594  0.54055406  0.75000000  1.0
  Hf  Hf16  1  0.45944594  0.91889189  0.75000000  1.0
  Hf  Hf17  1  0.08110811  0.54055406  0.75000000  1.0
  Fe  Fe18  1  0.33333333  0.66666667  0.25000000  1.0
  Fe  Fe19  1  0.66666667  0.33333333  0.75000000  1.0
  Re  Re20  1  0.88980070  0.11019930  0.25000000  1.0
  Re  Re21  1  0.88980070  0.77960141  0.25000000  1.0
  Re  Re22  1  0.22039859  0.11019930  0.25000000  1.0
  Re  Re23  1  0.11019930  0.88980070  0.75000000  1.0
  Re  Re24  1  0.11019930  0.22039859  0.75000000  1.0
  Re  Re25  1  0.77960141  0.88980070  0.75000000  1.0
  Re  Re26  1  0.00000000  0.00000000  0.50000000  1.0
  Re  Re27  1  0.00000000  0.00000000  0.00000000  1.0
