# generated using pymatgen
data_La6Si4Se17
_symmetry_space_group_name_H-M   'P 1'
_cell_length_a   10.53417808
_cell_length_b   9.55930953
_cell_length_c   15.18526841
_cell_angle_alpha   87.67131923
_cell_angle_beta   81.82735276
_cell_angle_gamma   89.06835235
_symmetry_Int_Tables_number   1
_chemical_formula_structural   La6Si4Se17
_chemical_formula_sum   'La12 Si8 Se34'
_cell_volume   1512.28381146
_cell_formula_units_Z   2
loop_
 _symmetry_equiv_pos_site_id
 _symmetry_equiv_pos_as_xyz
  1  'x, y, z'
loop_
 _atom_site_type_symbol
 _atom_site_label
 _atom_site_symmetry_multiplicity
 _atom_site_fract_x
 _atom_site_fract_y
 _atom_site_fract_z
 _atom_site_occupancy
  La  La0  1  -0.91939335  -0.91339953  -0.33608294  1.0
  La  La1  1  -0.08060665  -0.08660047  -0.66391706  1.0
  La  La2  1  -0.61615821  -0.89631538  -0.68756650  1.0
  La  La3  1  -0.38384179  -0.10368462  -0.31243350  1.0
  La  La4  1  -0.94000585  -0.63692546  -0.82166727  1.0
  La  La5  1  -0.05999415  -0.36307454  -0.17833273  1.0
  La  La6  1  -0.73805432  -0.45361116  -0.50162690  1.0
  La  La7  1  -0.26194568  -0.54638884  -0.49837310  1.0
  La  La8  1  -0.41181360  -0.33378462  -0.84162318  1.0
  La  La9  1  -0.58818640  -0.66621538  -0.15837682  1.0
  La  La10  1  -0.76315895  -0.00952540  -0.96690370  1.0
  La  La11  1  -0.23684105  -0.99047460  -0.03309630  1.0
  Si  Si12  1  -0.55957256  -0.76678888  -0.40029339  1.0
  Si  Si13  1  -0.44042744  -0.23321112  -0.59970661  1.0
  Si  Si14  1  -0.49721532  -0.75042139  -0.91642364  1.0
  Si  Si15  1  -0.50278468  -0.24957861  -0.08357636  1.0
  Si  Si16  1  -0.94086496  -0.75090329  -0.57854465  1.0
  Si  Si17  1  -0.05913504  -0.24909671  -0.42145535  1.0
  Si  Si18  1  -0.94402350  -0.72010435  -0.10881331  1.0
  Si  Si19  1  -0.05597650  -0.27989565  -0.89118669  1.0
  Se  Se20  1  -0.62590259  -0.99170504  -0.38616198  1.0
  Se  Se21  1  -0.37409741  -0.00829496  -0.61383802  1.0
  Se  Se22  1  -0.50643571  -0.98840187  -0.87917646  1.0
  Se  Se23  1  -0.49356429  -0.01159813  -0.12082354  1.0
  Se  Se24  1  -0.85058320  -0.96406718  -0.55009970  1.0
  Se  Se25  1  -0.14941680  -0.03593282  -0.44990030  1.0
  Se  Se26  1  -0.85927855  -0.93736138  -0.78144784  1.0
  Se  Se27  1  -0.14072145  -0.06263862  -0.21855216  1.0
  Se  Se28  1  -0.79628222  -0.89161487  -0.15860482  1.0
  Se  Se29  1  -0.20371778  -0.10838513  -0.84139518  1.0
  Se  Se30  1  -0.02201574  -0.81619296  -0.96960520  1.0
  Se  Se31  1  -0.97798426  -0.18380704  -0.03039480  1.0
  Se  Se32  1  -0.12225867  -0.74574731  -0.64852399  1.0
  Se  Se33  1  -0.87774133  -0.25425269  -0.35147601  1.0
  Se  Se34  1  -0.69276728  -0.69548461  -0.95954992  1.0
  Se  Se35  1  -0.30723272  -0.30451539  -0.04045008  1.0
  Se  Se36  1  -0.51498944  -0.67918014  -0.54517074  1.0
  Se  Se37  1  -0.48501056  -0.32081986  -0.45482926  1.0
  Se  Se38  1  -0.99863932  -0.65643221  -0.44230538  1.0
  Se  Se39  1  -0.00136068  -0.34356779  -0.55769463  1.0
  Se  Se40  1  -0.46327235  -0.64646470  -0.79038298  1.0
  Se  Se41  1  -0.53672765  -0.35353530  -0.20961702  1.0
  Se  Se42  1  -0.72016594  -0.62785676  -0.33140385  1.0
  Se  Se43  1  -0.27983406  -0.37214324  -0.66859615  1.0
  Se  Se44  1  -0.78420990  -0.61934480  -0.66461860  1.0
  Se  Se45  1  -0.21579010  -0.38065520  -0.33538140  1.0
  Se  Se46  1  -0.15476287  -0.48847337  -0.89996274  1.0
  Se  Se47  1  -0.84523713  -0.51152663  -0.10003726  1.0
  Se  Se48  1  -0.64011656  -0.30356279  -0.95829608  1.0
  Se  Se49  1  -0.35988344  -0.69643721  -0.04170392  1.0
  Se  Se50  1  -0.91280432  -0.31516603  -0.79408426  1.0
  Se  Se51  1  -0.08719568  -0.68483397  -0.20591574  1.0
  Se  Se52  1  -0.61950424  -0.25022042  -0.66963040  1.0
  Se  Se53  1  -0.38049576  -0.74977958  -0.33036960  1.0
