# generated using pymatgen
data_Co(MoS2)2
_symmetry_space_group_name_H-M   'P 1'
_cell_length_a   6.72755073
_cell_length_b   6.72755073
_cell_length_c   12.37866959
_cell_angle_alpha   68.47883336
_cell_angle_beta   111.52116664
_cell_angle_gamma   123.22277714
_symmetry_Int_Tables_number   1
_chemical_formula_structural   Co(MoS2)2
_chemical_formula_sum   'Co4 Mo8 S16'
_cell_volume   425.98983844
_cell_formula_units_Z   4
loop_
 _symmetry_equiv_pos_site_id
 _symmetry_equiv_pos_as_xyz
  1  'x, y, z'
loop_
 _atom_site_type_symbol
 _atom_site_label
 _atom_site_symmetry_multiplicity
 _atom_site_fract_x
 _atom_site_fract_y
 _atom_site_fract_z
 _atom_site_occupancy
  Co  Co0  1  1.85761423  -0.10763488  0.13680905  1.0
  Co  Co1  1  1.10763488  -0.85761423  0.63680905  1.0
  Co  Co2  1  1.35765034  -0.60766071  0.13682213  1.0
  Co  Co3  1  1.60766071  -0.35765034  0.63682213  1.0
  Mo  Mo4  1  0.69873128  0.05118469  0.87583616  1.0
  Mo  Mo5  1  0.94881531  -0.69873128  0.37583616  1.0
  Mo  Mo6  1  1.44870482  -0.19883011  0.37583454  1.0
  Mo  Mo7  1  1.19883011  0.55129518  0.87583454  1.0
  Mo  Mo8  1  1.01648270  0.73348165  0.39782074  1.0
  Mo  Mo9  1  0.26651835  -0.01648270  0.89782074  1.0
  Mo  Mo10  1  0.51652603  0.23345860  0.39783018  1.0
  Mo  Mo11  1  0.76654140  0.48347397  0.89783018  1.0
  S  S12  1  0.86940453  0.88053603  0.50505394  1.0
  S  S13  1  0.11946397  0.13059547  0.00505394  1.0
  S  S14  1  1.59580626  -0.34586079  0.26860419  1.0
  S  S15  1  1.34586079  -0.59580626  0.76860419  1.0
  S  S16  1  1.64354539  0.10642388  0.03892454  1.0
  S  S17  1  0.89357612  -0.64354539  0.53892454  1.0
  S  S18  1  1.14358138  -0.39353743  0.03892376  1.0
  S  S19  1  0.39353743  -0.14358138  0.53892376  1.0
  S  S20  1  1.07168731  -0.32170738  0.23472360  1.0
  S  S21  1  0.32170738  -0.07168731  0.73472360  1.0
  S  S22  1  1.57174995  0.17825082  0.23475020  1.0
  S  S23  1  0.82174918  0.42825005  0.73475020  1.0
  S  S24  1  1.36945501  -0.61946834  0.50505114  1.0
  S  S25  1  0.61946834  -0.36945501  1.00505114  1.0
  S  S26  1  1.09585733  -0.84583948  0.26861583  1.0
  S  S27  1  1.84583948  -0.09585733  0.76861583  1.0
