# generated using pymatgen
data_KSn
_symmetry_space_group_name_H-M   'P 1'
_cell_length_a   12.47224896
_cell_length_b   12.47224896
_cell_length_c   12.47224896
_cell_angle_alpha   125.00593374
_cell_angle_beta   125.00593374
_cell_angle_gamma   81.52820474
_symmetry_Int_Tables_number   1
_chemical_formula_structural   KSn
_chemical_formula_sum   'K16 Sn16'
_cell_volume   1252.98785970
_cell_formula_units_Z   16
loop_
 _symmetry_equiv_pos_site_id
 _symmetry_equiv_pos_as_xyz
  1  'x, y, z'
loop_
 _atom_site_type_symbol
 _atom_site_label
 _atom_site_symmetry_multiplicity
 _atom_site_fract_x
 _atom_site_fract_y
 _atom_site_fract_z
 _atom_site_occupancy
  K  K0  1  1.49040862  1.37500000  1.61540862  1.0
  K  K1  1  0.99040862  1.37500000  1.11540862  1.0
  K  K2  1  1.62500000  1.24040862  1.11540862  1.0
  K  K3  1  1.12500000  1.00959138  0.38459138  1.0
  K  K4  1  1.25959138  0.87500000  0.88459138  1.0
  K  K5  1  0.75959138  0.87500000  0.38459138  1.0
  K  K6  1  1.62500000  1.74040862  1.61540862  1.0
  K  K7  1  1.12500000  1.50959138  0.88459138  1.0
  K  K8  1  1.12637100  1.12637100  0.75274199  1.0
  K  K9  1  1.62637100  0.87362900  1.00000000  1.0
  K  K10  1  0.37637100  0.87637100  1.25274199  1.0
  K  K11  1  0.87637100  0.62362900  1.50000000  1.0
  K  K12  1  0.62362900  0.12362900  0.74725801  1.0
  K  K13  1  0.12362900  0.37637100  0.50000000  1.0
  K  K14  1  1.37362900  1.37362900  1.24725801  1.0
  K  K15  1  0.87362900  1.62637100  1.00000000  1.0
  Sn  Sn16  1  1.00746732  1.83001629  0.95056338  1.0
  Sn  Sn17  1  1.50746732  1.55690394  1.17745103  1.0
  Sn  Sn18  1  1.08001629  0.75746732  0.45056338  1.0
  Sn  Sn19  1  1.58001629  1.12945292  1.32254897  1.0
  Sn  Sn20  1  1.74253268  1.41998371  1.54943662  1.0
  Sn  Sn21  1  1.24253268  1.69309606  1.32254897  1.0
  Sn  Sn22  1  0.66998371  0.49253268  1.04943662  1.0
  Sn  Sn23  1  0.16998371  0.12054708  0.17745103  1.0
  Sn  Sn24  1  1.37945292  1.33001629  0.82254897  1.0
  Sn  Sn25  1  1.87945292  1.05690394  1.04943662  1.0
  Sn  Sn26  1  0.80690394  1.25746732  0.67745103  1.0
  Sn  Sn27  1  1.30690394  1.62945292  1.54943662  1.0
  Sn  Sn28  1  1.37054708  0.91998371  0.67745103  1.0
  Sn  Sn29  1  0.87054708  1.19309606  0.45056338  1.0
  Sn  Sn30  1  0.94309606  0.99253268  1.82254897  1.0
  Sn  Sn31  1  0.44309606  0.62054708  0.95056338  1.0
