# generated using pymatgen
data_LiH6ClO7
_symmetry_space_group_name_H-M   'P 1'
_cell_length_a   7.72431342
_cell_length_b   7.72431342
_cell_length_c   5.66038872
_cell_angle_alpha   90.00000000
_cell_angle_beta   90.00000000
_cell_angle_gamma   120.00000000
_symmetry_Int_Tables_number   1
_chemical_formula_structural   LiH6ClO7
_chemical_formula_sum   'Li2 H12 Cl2 O14'
_cell_volume   292.48032934
_cell_formula_units_Z   2
loop_
 _symmetry_equiv_pos_site_id
 _symmetry_equiv_pos_as_xyz
  1  'x, y, z'
loop_
 _atom_site_type_symbol
 _atom_site_label
 _atom_site_symmetry_multiplicity
 _atom_site_fract_x
 _atom_site_fract_y
 _atom_site_fract_z
 _atom_site_occupancy
  Li  Li0  1  -0.00000000  -0.00000000  0.00666426  1.0
  Li  Li1  1  -0.00000000  -0.00000000  0.50666426  1.0
  H  H2  1  0.73425616  0.67032907  0.25008896  1.0
  H  H3  1  0.73425616  0.06392709  0.25008896  1.0
  H  H4  1  0.67032907  0.73425616  0.75008896  1.0
  H  H5  1  0.67032907  0.93607291  0.75008896  1.0
  H  H6  1  0.93607291  0.67032907  0.25008896  1.0
  H  H7  1  0.93607291  0.26574384  0.25008896  1.0
  H  H8  1  0.32967093  0.26574384  0.25008896  1.0
  H  H9  1  0.32967093  0.06392709  0.25008896  1.0
  H  H10  1  0.26574384  0.93607291  0.75008896  1.0
  H  H11  1  0.26574384  0.32967093  0.75008896  1.0
  H  H12  1  0.06392709  0.73425616  0.75008896  1.0
  H  H13  1  0.06392709  0.32967093  0.75008896  1.0
  Cl  Cl14  1  0.33333333  0.66666667  0.29956263  1.0
  Cl  Cl15  1  0.66666667  0.33333333  0.79956263  1.0
  O  O16  1  0.12638261  0.56319130  0.21037877  1.0
  O  O17  1  0.56319130  0.12638261  0.71037877  1.0
  O  O18  1  0.56319130  0.43680870  0.71037877  1.0
  O  O19  1  0.43680870  0.56319130  0.21037877  1.0
  O  O20  1  0.43680870  0.87361739  0.21037877  1.0
  O  O21  1  0.87361739  0.43680870  0.71037877  1.0
  O  O22  1  0.24145878  0.12072939  0.25662446  1.0
  O  O23  1  0.12072939  0.24145878  0.75662446  1.0
  O  O24  1  0.12072939  0.87927061  0.75662446  1.0
  O  O25  1  0.87927061  0.12072939  0.25662446  1.0
  O  O26  1  0.87927061  0.75854122  0.25662446  1.0
  O  O27  1  0.75854122  0.87927061  0.75662446  1.0
  O  O28  1  0.33333333  0.66666667  0.55742968  1.0
  O  O29  1  0.66666667  0.33333333  0.05742968  1.0
