# generated using pymatgen
data_Li3Ga2
_symmetry_space_group_name_H-M   'P 1'
_cell_length_a   5.25013235
_cell_length_b   5.25013235
_cell_length_c   5.25013235
_cell_angle_alpha   49.18123303
_cell_angle_beta   49.18123303
_cell_angle_gamma   49.18123303
_symmetry_Int_Tables_number   1
_chemical_formula_structural   Li3Ga2
_chemical_formula_sum   'Li3 Ga2'
_cell_volume   76.13042305
_cell_formula_units_Z   1
loop_
 _symmetry_equiv_pos_site_id
 _symmetry_equiv_pos_as_xyz
  1  'x, y, z'
loop_
 _atom_site_type_symbol
 _atom_site_label
 _atom_site_symmetry_multiplicity
 _atom_site_fract_x
 _atom_site_fract_y
 _atom_site_fract_z
 _atom_site_occupancy
  Li  Li0  1  1.59631108  0.59631108  0.59631108  1.0
  Li  Li1  1  1.40368892  0.40368892  0.40368892  1.0
  Li  Li2  1  0.00000000  0.00000000  0.00000000  1.0
  Ga  Ga3  1  0.79924808  0.79924808  0.79924808  1.0
  Ga  Ga4  1  1.20075192  1.20075192  0.20075192  1.0
