# generated using pymatgen
data_Ta2Bi2PbO9
_symmetry_space_group_name_H-M   'P 1'
_cell_length_a   12.98741070
_cell_length_b   12.98741070
_cell_length_c   5.60005805
_cell_angle_alpha   90.00000000
_cell_angle_beta   90.00000000
_cell_angle_gamma   24.93815404
_symmetry_Int_Tables_number   1
_chemical_formula_structural   Ta2Bi2PbO9
_chemical_formula_sum   'Ta4 Bi4 Pb2 O18'
_cell_volume   398.27147959
_cell_formula_units_Z   2
loop_
 _symmetry_equiv_pos_site_id
 _symmetry_equiv_pos_as_xyz
  1  'x, y, z'
loop_
 _atom_site_type_symbol
 _atom_site_label
 _atom_site_symmetry_multiplicity
 _atom_site_fract_x
 _atom_site_fract_y
 _atom_site_fract_z
 _atom_site_occupancy
  Ta  Ta0  1  0.16381355  1.66680894  0.25000000  1.0
  Ta  Ta1  1  0.66680894  1.16381355  0.75000000  1.0
  Ta  Ta2  1  0.33319106  0.83618645  0.25000000  1.0
  Ta  Ta3  1  -0.16381355  1.33319106  0.75000000  1.0
  Bi  Bi4  1  -0.00707240  1.40793090  0.25000000  1.0
  Bi  Bi5  1  0.40793090  0.99292760  0.75000000  1.0
  Bi  Bi6  1  0.59206910  1.00707240  0.25000000  1.0
  Bi  Bi7  1  0.00707240  1.59206910  0.75000000  1.0
  Pb  Pb8  1  -0.25032962  0.25032962  0.25000000  1.0
  Pb  Pb9  1  -0.74967038  0.74967038  0.75000000  1.0
  O  O10  1  0.01461046  1.67066974  0.25000000  1.0
  O  O11  1  0.67066974  1.01461046  0.75000000  1.0
  O  O12  1  0.32933026  0.98538954  0.25000000  1.0
  O  O13  1  -0.01461046  1.32933026  0.75000000  1.0
  O  O14  1  0.93094279  0.93094279  0.50000000  1.0
  O  O15  1  0.93094279  0.93094279  0.00000000  1.0
  O  O16  1  0.06905721  1.06905721  0.50000000  1.0
  O  O17  1  0.06905721  1.06905721  0.00000000  1.0
  O  O18  1  0.74896206  0.74896206  0.50000000  1.0
  O  O19  1  0.74896206  0.74896206  0.00000000  1.0
  O  O20  1  0.25103794  1.25103794  0.50000000  1.0
  O  O21  1  0.25103794  1.25103794  0.00000000  1.0
  O  O22  1  0.58751859  0.58751859  0.50000000  1.0
  O  O23  1  0.58751859  0.58751859  0.00000000  1.0
  O  O24  1  0.41248141  1.41248141  0.50000000  1.0
  O  O25  1  0.41248141  1.41248141  0.00000000  1.0
  O  O26  1  -0.70546432  0.70546432  0.25000000  1.0
  O  O27  1  -0.29453568  0.29453568  0.75000000  1.0
