# generated using pymatgen
data_PN3OF2
_symmetry_space_group_name_H-M   'P 1'
_cell_length_a   6.00841750
_cell_length_b   6.04958003
_cell_length_c   13.28924327
_cell_angle_alpha   91.19718439
_cell_angle_beta   96.77285007
_cell_angle_gamma   90.13084807
_symmetry_Int_Tables_number   1
_chemical_formula_structural   PN3OF2
_chemical_formula_sum   'P4 N12 O4 F8'
_cell_volume   479.56166050
_cell_formula_units_Z   4
loop_
 _symmetry_equiv_pos_site_id
 _symmetry_equiv_pos_as_xyz
  1  'x, y, z'
loop_
 _atom_site_type_symbol
 _atom_site_label
 _atom_site_symmetry_multiplicity
 _atom_site_fract_x
 _atom_site_fract_y
 _atom_site_fract_z
 _atom_site_occupancy
  P  P0  1  -0.37847345  -0.74478030  -0.90434605  1.0
  P  P1  1  -0.62152655  -0.25521970  -0.09565395  1.0
  P  P2  1  -0.73033253  -0.67447967  -0.42430548  1.0
  P  P3  1  -0.26966747  -0.32552033  -0.57569452  1.0
  N  N4  1  -0.75592253  -0.85029317  -0.52289665  1.0
  N  N5  1  -0.24407747  -0.14970683  -0.47710335  1.0
  N  N6  1  -0.77648634  -0.78572975  -0.61090208  1.0
  N  N7  1  -0.22351366  -0.21427025  -0.38909792  1.0
  N  N8  1  -0.14711620  -0.74763473  -0.96195860  1.0
  N  N9  1  -0.85288380  -0.25236527  -0.03804140  1.0
  N  N10  1  -0.79637857  -0.74850480  -0.69473188  1.0
  N  N11  1  -0.20362143  -0.25149520  -0.30526812  1.0
  N  N12  1  -0.84158707  -0.24605790  -0.94452164  1.0
  N  N13  1  -0.15841293  -0.75394210  -0.05547836  1.0
  N  N14  1  -0.85367375  -0.24045401  -0.86008754  1.0
  N  N15  1  -0.14632625  -0.75954599  -0.13991246  1.0
  O  O16  1  -0.59946423  -0.74984814  -0.96486978  1.0
  O  O17  1  -0.40053577  -0.25015186  -0.03513022  1.0
  O  O18  1  -0.73361552  -0.43494073  -0.44033291  1.0
  O  O19  1  -0.26638448  -0.56505927  -0.55966709  1.0
  F  F20  1  -0.33301615  -0.93532739  -0.82682308  1.0
  F  F21  1  -0.66698385  -0.06467261  -0.17317692  1.0
  F  F22  1  -0.91211712  -0.76306223  -0.35986082  1.0
  F  F23  1  -0.08788288  -0.23693777  -0.64013918  1.0
  F  F24  1  -0.51611597  -0.76315417  -0.35915574  1.0
  F  F25  1  -0.48388403  -0.23684583  -0.64084426  1.0
  F  F26  1  -0.33450709  -0.54251151  -0.82908701  1.0
  F  F27  1  -0.66549291  -0.45748849  -0.17091299  1.0
