# generated using pymatgen
data_NbSeCl3
_symmetry_space_group_name_H-M   'P 1'
_cell_length_a   6.73348492
_cell_length_b   7.25096946
_cell_length_c   12.16907793
_cell_angle_alpha   90.00000000
_cell_angle_beta   98.16047272
_cell_angle_gamma   90.00000000
_symmetry_Int_Tables_number   1
_chemical_formula_structural   NbSeCl3
_chemical_formula_sum   'Nb4 Se4 Cl12'
_cell_volume   588.13053695
_cell_formula_units_Z   4
loop_
 _symmetry_equiv_pos_site_id
 _symmetry_equiv_pos_as_xyz
  1  'x, y, z'
loop_
 _atom_site_type_symbol
 _atom_site_label
 _atom_site_symmetry_multiplicity
 _atom_site_fract_x
 _atom_site_fract_y
 _atom_site_fract_z
 _atom_site_occupancy
  Nb  Nb0  1  0.92856183  0.62822720  0.85310984  1.0
  Nb  Nb1  1  0.92856183  0.37177280  0.35310984  1.0
  Nb  Nb2  1  0.07143817  0.62822720  0.64689016  1.0
  Nb  Nb3  1  0.07143817  0.37177280  0.14689016  1.0
  Se  Se4  1  0.84011379  0.89144435  0.69953072  1.0
  Se  Se5  1  0.84011379  0.10855565  0.19953072  1.0
  Se  Se6  1  0.15988621  0.89144435  0.80046928  1.0
  Se  Se7  1  0.15988621  0.10855565  0.30046928  1.0
  Cl  Cl8  1  0.85903111  0.66902987  0.46111570  1.0
  Cl  Cl9  1  0.85903111  0.33097013  0.96111570  1.0
  Cl  Cl10  1  0.14096889  0.66902987  0.03888430  1.0
  Cl  Cl11  1  0.14096889  0.33097013  0.53888430  1.0
  Cl  Cl12  1  0.76954965  0.44241375  0.69851944  1.0
  Cl  Cl13  1  0.76954965  0.55758625  0.19851944  1.0
  Cl  Cl14  1  0.23045035  0.44241375  0.80148056  1.0
  Cl  Cl15  1  0.23045035  0.55758625  0.30148056  1.0
  Cl  Cl16  1  0.64824132  0.75467151  0.92332109  1.0
  Cl  Cl17  1  0.64824132  0.24532849  0.42332109  1.0
  Cl  Cl18  1  0.35175868  0.75467151  0.57667891  1.0
  Cl  Cl19  1  0.35175868  0.24532849  0.07667891  1.0
