# generated using pymatgen
data_Ba2PBr
_symmetry_space_group_name_H-M   'P 1'
_cell_length_a   8.40384079
_cell_length_b   8.40384079
_cell_length_c   8.40384079
_cell_angle_alpha   32.49060986
_cell_angle_beta   32.49060986
_cell_angle_gamma   32.49060986
_symmetry_Int_Tables_number   1
_chemical_formula_structural   Ba2PBr
_chemical_formula_sum   'Ba2 P1 Br1'
_cell_volume   152.27731699
_cell_formula_units_Z   1
loop_
 _symmetry_equiv_pos_site_id
 _symmetry_equiv_pos_as_xyz
  1  'x, y, z'
loop_
 _atom_site_type_symbol
 _atom_site_label
 _atom_site_symmetry_multiplicity
 _atom_site_fract_x
 _atom_site_fract_y
 _atom_site_fract_z
 _atom_site_occupancy
  Ba  Ba0  1  0.76283830  0.76283830  0.76283830  1.0
  Ba  Ba1  1  1.23716170  1.23716170  0.23716170  1.0
  P  P2  1  1.50000000  0.50000000  0.50000000  1.0
  Br  Br3  1  0.00000000  0.00000000  0.00000000  1.0
