# generated using pymatgen
data_Rb2EuCl5
_symmetry_space_group_name_H-M   'P 1'
_cell_length_a   13.45886013
_cell_length_b   8.98276472
_cell_length_c   8.32181369
_cell_angle_alpha   90.00000000
_cell_angle_beta   90.00000000
_cell_angle_gamma   90.00000000
_symmetry_Int_Tables_number   1
_chemical_formula_structural   Rb2EuCl5
_chemical_formula_sum   'Rb8 Eu4 Cl20'
_cell_volume   1006.08874983
_cell_formula_units_Z   4
loop_
 _symmetry_equiv_pos_site_id
 _symmetry_equiv_pos_as_xyz
  1  'x, y, z'
loop_
 _atom_site_type_symbol
 _atom_site_label
 _atom_site_symmetry_multiplicity
 _atom_site_fract_x
 _atom_site_fract_y
 _atom_site_fract_z
 _atom_site_occupancy
  Rb  Rb0  1  0.66996499  0.99571778  0.44384569  1.0
  Rb  Rb1  1  0.66996499  0.50428222  0.44384569  1.0
  Rb  Rb2  1  0.16996499  0.99571778  0.05615431  1.0
  Rb  Rb3  1  0.16996499  0.50428222  0.05615431  1.0
  Rb  Rb4  1  0.33003501  0.49571778  0.55615431  1.0
  Rb  Rb5  1  0.33003501  0.00428222  0.55615431  1.0
  Rb  Rb6  1  0.83003501  0.49571778  0.94384569  1.0
  Rb  Rb7  1  0.83003501  0.00428222  0.94384569  1.0
  Eu  Eu8  1  0.99800429  0.25000000  0.43990295  1.0
  Eu  Eu9  1  0.49800429  0.25000000  0.06009705  1.0
  Eu  Eu10  1  0.00199571  0.75000000  0.56009705  1.0
  Eu  Eu11  1  0.50199571  0.75000000  0.93990295  1.0
  Cl  Cl12  1  0.92594995  0.96090258  0.34253296  1.0
  Cl  Cl13  1  0.92594995  0.53909742  0.34253296  1.0
  Cl  Cl14  1  0.42594995  0.96090258  0.15746704  1.0
  Cl  Cl15  1  0.42594995  0.53909742  0.15746704  1.0
  Cl  Cl16  1  0.07405005  0.46090258  0.65746704  1.0
  Cl  Cl17  1  0.07405005  0.03909742  0.65746704  1.0
  Cl  Cl18  1  0.57405005  0.46090258  0.84253296  1.0
  Cl  Cl19  1  0.57405005  0.03909742  0.84253296  1.0
  Cl  Cl20  1  0.98834680  0.25000000  0.10125046  1.0
  Cl  Cl21  1  0.48834680  0.25000000  0.39874954  1.0
  Cl  Cl22  1  0.01165320  0.75000000  0.89874954  1.0
  Cl  Cl23  1  0.51165320  0.75000000  0.60125046  1.0
  Cl  Cl24  1  0.82530717  0.25000000  0.61535806  1.0
  Cl  Cl25  1  0.32530717  0.25000000  0.88464194  1.0
  Cl  Cl26  1  0.17469283  0.75000000  0.38464194  1.0
  Cl  Cl27  1  0.67469283  0.75000000  0.11535806  1.0
  Cl  Cl28  1  0.69523218  0.25000000  0.15053866  1.0
  Cl  Cl29  1  0.19523218  0.25000000  0.34946134  1.0
  Cl  Cl30  1  0.30476782  0.75000000  0.84946134  1.0
  Cl  Cl31  1  0.80476782  0.75000000  0.65053866  1.0
