# generated using pymatgen
data_BaAs2
_symmetry_space_group_name_H-M   'P 1'
_cell_length_a   6.66444424
_cell_length_b   12.71749533
_cell_length_c   8.19367711
_cell_angle_alpha   90.00000000
_cell_angle_beta   127.92768942
_cell_angle_gamma   90.00000000
_symmetry_Int_Tables_number   1
_chemical_formula_structural   BaAs2
_chemical_formula_sum   'Ba6 As12'
_cell_volume   547.77749384
_cell_formula_units_Z   6
loop_
 _symmetry_equiv_pos_site_id
 _symmetry_equiv_pos_as_xyz
  1  'x, y, z'
loop_
 _atom_site_type_symbol
 _atom_site_label
 _atom_site_symmetry_multiplicity
 _atom_site_fract_x
 _atom_site_fract_y
 _atom_site_fract_z
 _atom_site_occupancy
  Ba  Ba0  1  0.87753344  0.58130271  0.20175787  1.0
  Ba  Ba1  1  0.87753344  0.41869729  0.70175787  1.0
  Ba  Ba2  1  0.42789735  0.92396117  0.40652560  1.0
  Ba  Ba3  1  0.42789735  0.07603883  0.90652560  1.0
  Ba  Ba4  1  0.15087114  0.72554502  0.83792770  1.0
  Ba  Ba5  1  0.15087114  0.27445498  0.33792770  1.0
  As  As6  1  -0.00409450  0.92112638  0.49999985  1.0
  As  As7  1  -0.00409450  0.07887362  -0.00000015  1.0
  As  As8  1  0.85595600  0.89136823  0.94420100  1.0
  As  As9  1  0.85595600  0.10863177  0.44420100  1.0
  As  As10  1  0.70668953  0.84360698  0.15203809  1.0
  As  As11  1  0.70668953  0.15639302  0.65203809  1.0
  As  As12  1  0.58123343  0.65809536  0.40157934  1.0
  As  As13  1  0.58123343  0.34190464  0.90157934  1.0
  As  As14  1  0.54022726  0.34479426  0.19551816  1.0
  As  As15  1  0.54022726  0.65520574  0.69551816  1.0
  As  As16  1  0.32938636  0.50946155  0.17105239  1.0
  As  As17  1  0.32938636  0.49053845  0.67105239  1.0
