# generated using pymatgen
data_NO4
_symmetry_space_group_name_H-M   'P 1'
_cell_length_a   7.49165439
_cell_length_b   7.46714972
_cell_length_c   4.91063316
_cell_angle_alpha   90.00000000
_cell_angle_beta   90.00000000
_cell_angle_gamma   90.00000000
_symmetry_Int_Tables_number   1
_chemical_formula_structural   NO4
_chemical_formula_sum   'N4 O16'
_cell_volume   274.70722743
_cell_formula_units_Z   4
loop_
 _symmetry_equiv_pos_site_id
 _symmetry_equiv_pos_as_xyz
  1  'x, y, z'
loop_
 _atom_site_type_symbol
 _atom_site_label
 _atom_site_symmetry_multiplicity
 _atom_site_fract_x
 _atom_site_fract_y
 _atom_site_fract_z
 _atom_site_occupancy
  O  O0  1  0.43079624  0.81780991  0.14389482  1.0
  O  O1  1  0.93079624  0.68219009  0.14389482  1.0
  O  O2  1  0.56920376  0.18219009  0.64389482  1.0
  O  O3  1  0.06920376  0.31780991  0.64389482  1.0
  O  O4  1  0.27908141  0.50615642  0.50906008  1.0
  O  O5  1  0.77908141  0.99384358  0.50906008  1.0
  O  O6  1  0.72091859  0.49384358  0.00906008  1.0
  O  O7  1  0.22091859  0.00615642  0.00906008  1.0
  O  O8  1  0.30501649  0.59419215  0.93041992  1.0
  O  O9  1  0.80501649  0.90580785  0.93041992  1.0
  O  O10  1  0.69498351  0.40580785  0.43041992  1.0
  O  O11  1  0.19498351  0.09419215  0.43041992  1.0
  O  O12  1  0.41913195  0.75470122  0.60033776  1.0
  O  O13  1  0.91913195  0.74529878  0.60033776  1.0
  O  O14  1  0.58086805  0.24529878  0.10033776  1.0
  O  O15  1  0.08086805  0.25470122  0.10033776  1.0
  N  N16  1  0.33438002  0.61956348  0.67928742  1.0
  N  N17  1  0.83438002  0.88043652  0.67928742  1.0
  N  N18  1  0.66561998  0.38043652  0.17928742  1.0
  N  N19  1  0.16561998  0.11956348  0.17928742  1.0
