# generated using pymatgen
data_Li2RuO3
_symmetry_space_group_name_H-M   'P 1'
_cell_length_a   5.08744811
_cell_length_b   5.08744811
_cell_length_c   9.94763068
_cell_angle_alpha   85.30177957
_cell_angle_beta   94.69822043
_cell_angle_gamma   59.48440526
_symmetry_Int_Tables_number   1
_chemical_formula_structural   Li2RuO3
_chemical_formula_sum   'Li8 Ru4 O12'
_cell_volume   218.76052315
_cell_formula_units_Z   4
loop_
 _symmetry_equiv_pos_site_id
 _symmetry_equiv_pos_as_xyz
  1  'x, y, z'
loop_
 _atom_site_type_symbol
 _atom_site_label
 _atom_site_symmetry_multiplicity
 _atom_site_fract_x
 _atom_site_fract_y
 _atom_site_fract_z
 _atom_site_occupancy
  Li  Li0  1  0.90994016  -0.09005984  0.75000000  1.0
  Li  Li1  1  0.09005984  0.09005984  0.25000000  1.0
  Li  Li2  1  0.59009382  -0.40990618  0.75000000  1.0
  Li  Li3  1  0.40990618  0.40990618  0.25000000  1.0
  Li  Li4  1  0.25006721  0.25006721  0.75000000  1.0
  Li  Li5  1  0.74993279  -0.25006721  0.25000000  1.0
  Li  Li6  1  0.50000000  0.00000000  0.50000000  1.0
  Li  Li7  1  1.00000000  -0.50000000  -0.00000000  1.0
  O  O8  1  0.61499146  -0.11497653  0.88417266  1.0
  O  O9  1  1.11497653  -0.61499146  0.38417266  1.0
  O  O10  1  0.88502347  -0.38500854  0.61582734  1.0
  O  O11  1  0.38500854  0.11497653  0.11582734  1.0
  O  O12  1  0.19914459  -0.04257722  0.61956372  1.0
  O  O13  1  1.04257722  -0.19914459  0.11956372  1.0
  O  O14  1  0.95742278  -0.80085541  0.88043628  1.0
  O  O15  1  0.80085541  0.04257722  0.38043628  1.0
  O  O16  1  0.54255823  0.30090476  0.61953952  1.0
  O  O17  1  0.69909524  -0.54255823  0.11953952  1.0
  O  O18  1  1.30090476  -0.45744177  0.88046048  1.0
  O  O19  1  0.45744177  -0.30090476  0.38046048  1.0
  Ru  Ru20  1  0.67063206  0.17057160  1.00000355  1.0
  Ru  Ru21  1  0.82942840  -0.67063206  0.50000355  1.0
  Ru  Ru22  1  1.17057160  -0.32936794  0.49999645  1.0
  Ru  Ru23  1  0.32936794  -0.17057160  -0.00000355  1.0
