# generated using pymatgen
data_CaH12(IO7)2
_symmetry_space_group_name_H-M   'P 1'
_cell_length_a   10.61833150
_cell_length_b   10.61833150
_cell_length_c   11.66048252
_cell_angle_alpha   60.42775996
_cell_angle_beta   119.57224004
_cell_angle_gamma   148.90560479
_symmetry_Int_Tables_number   1
_chemical_formula_structural   CaH12(IO7)2
_chemical_formula_sum   'Ca2 H24 I4 O28'
_cell_volume   583.12696183
_cell_formula_units_Z   2
loop_
 _symmetry_equiv_pos_site_id
 _symmetry_equiv_pos_as_xyz
  1  'x, y, z'
loop_
 _atom_site_type_symbol
 _atom_site_label
 _atom_site_symmetry_multiplicity
 _atom_site_fract_x
 _atom_site_fract_y
 _atom_site_fract_z
 _atom_site_occupancy
  Ca  Ca0  1  0.56445829  0.56445829  0.25000000  1.0
  Ca  Ca1  1  0.43554171  0.43554171  0.75000000  1.0
  H  H2  1  0.72149859  -0.21491353  0.46279080  1.0
  H  H3  1  1.21491353  -0.72149859  0.96279080  1.0
  H  H4  1  0.78508647  0.72149859  0.03720920  1.0
  H  H5  1  1.27850141  0.21491353  0.53720920  1.0
  H  H6  1  0.64586054  -0.12712068  0.33174337  1.0
  H  H7  1  1.12712068  -0.64586054  0.83174337  1.0
  H  H8  1  0.87287932  0.64586054  0.16825663  1.0
  H  H9  1  1.35413946  0.12712068  0.66825663  1.0
  H  H10  1  0.65389137  0.16455384  0.31238352  1.0
  H  H11  1  0.83544616  -0.65389137  0.81238352  1.0
  H  H12  1  1.16455384  0.65389137  0.18761648  1.0
  H  H13  1  1.34610863  -0.16455384  0.68761648  1.0
  H  H14  1  0.48683493  0.14912434  0.48562790  1.0
  H  H15  1  0.85087566  0.51316507  0.98562790  1.0
  H  H16  1  1.14912434  -0.51316507  0.01437210  1.0
  H  H17  1  1.51316507  -0.14912434  0.51437210  1.0
  H  H18  1  0.37825937  0.21341096  0.15069610  1.0
  H  H19  1  0.78658904  0.62174063  0.65069610  1.0
  H  H20  1  1.21341096  -0.62174063  0.34930390  1.0
  H  H21  1  1.62174063  -0.21341096  0.84930390  1.0
  H  H22  1  1.05149331  -0.87923075  0.34534375  1.0
  H  H23  1  1.87923075  -0.05149331  0.84534375  1.0
  H  H24  1  0.12076925  0.05149331  0.15465625  1.0
  H  H25  1  0.94850669  0.87923075  0.65465625  1.0
  I  I26  1  1.57957603  -0.06355563  0.97735069  1.0
  I  I27  1  1.06355563  0.42042397  0.47735069  1.0
  I  I28  1  0.93644437  -0.42042397  0.52264931  1.0
  I  I29  1  0.42042397  0.06355563  0.02264931  1.0
  O  O30  1  1.70749583  -0.17419075  0.36377947  1.0
  O  O31  1  1.17419075  -0.70749583  0.86377947  1.0
  O  O32  1  0.82580925  0.70749583  0.13622053  1.0
  O  O33  1  0.29250417  0.17419075  0.63622053  1.0
  O  O34  1  1.78710477  -0.05046429  0.09610979  1.0
  O  O35  1  1.05046429  -0.78710477  0.59610979  1.0
  O  O36  1  0.94953571  0.78710477  0.40389021  1.0
  O  O37  1  0.21289523  0.05046429  0.90389021  1.0
  O  O38  1  0.70943143  0.12335036  0.40408179  1.0
  O  O39  1  0.87664964  -0.70943143  0.90408179  1.0
  O  O40  1  1.12335036  0.70943143  0.09591821  1.0
  O  O41  1  1.29056857  -0.12335036  0.59591821  1.0
  O  O42  1  0.63470336  0.05766439  0.11438315  1.0
  O  O43  1  0.94233561  -0.63470336  0.61438315  1.0
  O  O44  1  1.05766439  0.63470336  0.38561685  1.0
  O  O45  1  1.36529664  -0.05766439  0.88561685  1.0
  O  O46  1  0.52695459  0.18500670  0.16724824  1.0
  O  O47  1  0.81499330  -0.52695459  0.66724824  1.0
  O  O48  1  1.18500670  0.52695459  0.33275176  1.0
  O  O49  1  1.47304541  -0.18500670  0.83275176  1.0
  O  O50  1  0.59400672  0.30933212  0.42278786  1.0
  O  O51  1  0.69066788  0.40599328  0.92278786  1.0
  O  O52  1  1.30933212  -0.40599328  0.07721214  1.0
  O  O53  1  1.40599328  -0.30933212  0.57721214  1.0
  O  O54  1  1.22578651  -0.71068675  0.36081690  1.0
  O  O55  1  1.71068675  -0.22578651  0.86081690  1.0
  O  O56  1  0.28931325  0.22578651  0.13918310  1.0
  O  O57  1  0.77421349  0.71068675  0.63918310  1.0
