# generated using pymatgen
data_K2SeBr6
_symmetry_space_group_name_H-M   'P 1'
_cell_length_a   7.44331551
_cell_length_b   7.44331551
_cell_length_c   11.03380425
_cell_angle_alpha   90.00000000
_cell_angle_beta   90.00000000
_cell_angle_gamma   90.00000000
_symmetry_Int_Tables_number   1
_chemical_formula_structural   K2SeBr6
_chemical_formula_sum   'K4 Se2 Br12'
_cell_volume   611.30525864
_cell_formula_units_Z   2
loop_
 _symmetry_equiv_pos_site_id
 _symmetry_equiv_pos_as_xyz
  1  'x, y, z'
loop_
 _atom_site_type_symbol
 _atom_site_label
 _atom_site_symmetry_multiplicity
 _atom_site_fract_x
 _atom_site_fract_y
 _atom_site_fract_z
 _atom_site_occupancy
  K  K0  1  0.50000000  0.00000000  0.25000000  1.0
  K  K1  1  0.50000000  0.00000000  0.75000000  1.0
  K  K2  1  0.00000000  0.50000000  0.75000000  1.0
  K  K3  1  0.00000000  0.50000000  0.25000000  1.0
  Se  Se4  1  0.50000000  0.50000000  0.50000000  1.0
  Se  Se5  1  0.00000000  0.00000000  0.00000000  1.0
  Br  Br6  1  0.30321675  0.78974246  0.50000000  1.0
  Br  Br7  1  0.80321675  0.71025754  0.00000000  1.0
  Br  Br8  1  0.21025754  0.30321675  0.50000000  1.0
  Br  Br9  1  0.71025754  0.19678325  0.00000000  1.0
  Br  Br10  1  0.69678325  0.21025754  0.50000000  1.0
  Br  Br11  1  0.19678325  0.28974246  0.00000000  1.0
  Br  Br12  1  0.78974246  0.69678325  0.50000000  1.0
  Br  Br13  1  0.28974246  0.80321675  0.00000000  1.0
  Br  Br14  1  0.50000000  0.50000000  0.26355096  1.0
  Br  Br15  1  0.50000000  0.50000000  0.73644904  1.0
  Br  Br16  1  0.00000000  0.00000000  0.76355096  1.0
  Br  Br17  1  0.00000000  0.00000000  0.23644904  1.0
