# generated using pymatgen
data_Zr9BW4
_symmetry_space_group_name_H-M   'P 1'
_cell_length_a   8.62995584
_cell_length_b   8.62995584
_cell_length_c   8.61265663
_cell_angle_alpha   90.00000000
_cell_angle_beta   90.00000000
_cell_angle_gamma   120.00000000
_symmetry_Int_Tables_number   1
_chemical_formula_structural   Zr9BW4
_chemical_formula_sum   'Zr18 B2 W8'
_cell_volume   555.50108534
_cell_formula_units_Z   2
loop_
 _symmetry_equiv_pos_site_id
 _symmetry_equiv_pos_as_xyz
  1  'x, y, z'
loop_
 _atom_site_type_symbol
 _atom_site_label
 _atom_site_symmetry_multiplicity
 _atom_site_fract_x
 _atom_site_fract_y
 _atom_site_fract_z
 _atom_site_occupancy
  Zr  Zr0  1  0.20288282  0.79711718  0.44303347  1.0
  Zr  Zr1  1  0.20288282  0.79711718  0.05696653  1.0
  Zr  Zr2  1  0.20288282  0.40576564  0.44303347  1.0
  Zr  Zr3  1  0.20288282  0.40576564  0.05696653  1.0
  Zr  Zr4  1  0.79711718  0.20288282  0.94303347  1.0
  Zr  Zr5  1  0.79711718  0.20288282  0.55696653  1.0
  Zr  Zr6  1  0.79711718  0.59423436  0.94303347  1.0
  Zr  Zr7  1  0.79711718  0.59423436  0.55696653  1.0
  Zr  Zr8  1  0.59423436  0.79711718  0.44303347  1.0
  Zr  Zr9  1  0.59423436  0.79711718  0.05696653  1.0
  Zr  Zr10  1  0.40576564  0.20288282  0.94303347  1.0
  Zr  Zr11  1  0.40576564  0.20288282  0.55696653  1.0
  Zr  Zr12  1  0.53974427  0.46025573  0.25000000  1.0
  Zr  Zr13  1  0.53974427  0.07948854  0.25000000  1.0
  Zr  Zr14  1  0.46025573  0.53974427  0.75000000  1.0
  Zr  Zr15  1  0.46025573  0.92051146  0.75000000  1.0
  Zr  Zr16  1  0.92051146  0.46025573  0.25000000  1.0
  Zr  Zr17  1  0.07948854  0.53974427  0.75000000  1.0
  B  B18  1  0.33333333  0.66666667  0.25000000  1.0
  B  B19  1  0.66666667  0.33333333  0.75000000  1.0
  W  W20  1  0.88997211  0.11002789  0.25000000  1.0
  W  W21  1  0.88997211  0.77994421  0.25000000  1.0
  W  W22  1  0.11002789  0.88997211  0.75000000  1.0
  W  W23  1  0.11002789  0.22005579  0.75000000  1.0
  W  W24  1  0.22005579  0.11002789  0.25000000  1.0
  W  W25  1  0.77994421  0.88997211  0.75000000  1.0
  W  W26  1  0.00000000  0.00000000  0.50000000  1.0
  W  W27  1  -0.00000000  -0.00000000  -0.00000000  1.0
