# generated using pymatgen
data_CsLu(WO4)2
_symmetry_space_group_name_H-M   'P 1'
_cell_length_a   9.87941158
_cell_length_b   5.06477580
_cell_length_c   8.08187656
_cell_angle_alpha   90.00000000
_cell_angle_beta   93.58715091
_cell_angle_gamma   90.00000000
_symmetry_Int_Tables_number   1
_chemical_formula_structural   CsLu(WO4)2
_chemical_formula_sum   'Cs2 Lu2 W4 O16'
_cell_volume   403.60060304
_cell_formula_units_Z   2
loop_
 _symmetry_equiv_pos_site_id
 _symmetry_equiv_pos_as_xyz
  1  'x, y, z'
loop_
 _atom_site_type_symbol
 _atom_site_label
 _atom_site_symmetry_multiplicity
 _atom_site_fract_x
 _atom_site_fract_y
 _atom_site_fract_z
 _atom_site_occupancy
  Cs  Cs0  1  0.50000000  0.41518368  0.75000000  1.0
  Cs  Cs1  1  0.50000000  0.58481632  0.25000000  1.0
  Lu  Lu2  1  0.00000000  0.50160271  0.75000000  1.0
  Lu  Lu3  1  0.00000000  0.49839729  0.25000000  1.0
  W  W4  1  0.81207182  0.97589687  0.48535157  1.0
  W  W5  1  0.81207182  0.02410313  -0.01464843  1.0
  W  W6  1  0.18792818  0.97589687  1.01464843  1.0
  W  W7  1  0.18792818  0.02410313  0.51464843  1.0
  O  O8  1  0.93568140  0.74669431  0.99581397  1.0
  O  O9  1  0.93568140  0.25330569  0.49581397  1.0
  O  O10  1  0.06431860  0.74669431  0.50418603  1.0
  O  O11  1  0.06431860  0.25330569  0.00418603  1.0
  O  O12  1  0.64629916  0.89639348  0.97087726  1.0
  O  O13  1  0.64629916  0.10360652  0.47087726  1.0
  O  O14  1  0.35370084  0.89639348  0.52912274  1.0
  O  O15  1  0.35370084  0.10360652  0.02912274  1.0
  O  O16  1  0.82422260  0.76337124  0.66524739  1.0
  O  O17  1  0.82422260  0.23662876  0.16524739  1.0
  O  O18  1  0.17577740  0.76337124  0.83475261  1.0
  O  O19  1  0.17577740  0.23662876  0.33475261  1.0
  O  O20  1  0.82257429  0.75354533  0.31151665  1.0
  O  O21  1  0.82257429  0.24645467  0.81151665  1.0
  O  O22  1  0.17742571  0.75354533  0.18848335  1.0
  O  O23  1  0.17742571  0.24645467  0.68848335  1.0
