# generated using pymatgen
data_SnWO4
_symmetry_space_group_name_H-M   'P 1'
_cell_length_a   7.58028011
_cell_length_b   7.58028011
_cell_length_c   7.58028011
_cell_angle_alpha   90.00000000
_cell_angle_beta   90.00000000
_cell_angle_gamma   90.00000000
_symmetry_Int_Tables_number   1
_chemical_formula_structural   SnWO4
_chemical_formula_sum   'Sn4 W4 O16'
_cell_volume   435.56779675
_cell_formula_units_Z   4
loop_
 _symmetry_equiv_pos_site_id
 _symmetry_equiv_pos_as_xyz
  1  'x, y, z'
loop_
 _atom_site_type_symbol
 _atom_site_label
 _atom_site_symmetry_multiplicity
 _atom_site_fract_x
 _atom_site_fract_y
 _atom_site_fract_z
 _atom_site_occupancy
  Sn  Sn0  1  0.42174876  0.92174876  0.57825124  1.0
  Sn  Sn1  1  0.92174876  0.57825124  0.42174876  1.0
  Sn  Sn2  1  0.57825124  0.42174876  0.92174876  1.0
  Sn  Sn3  1  0.07825124  0.07825124  0.07825124  1.0
  W  W4  1  0.08194236  0.58194236  0.91805764  1.0
  W  W5  1  0.58194236  0.91805764  0.08194236  1.0
  W  W6  1  0.91805764  0.08194236  0.58194236  1.0
  W  W7  1  0.41805764  0.41805764  0.41805764  1.0
  O  O8  1  0.29364273  0.47684839  0.89376699  1.0
  O  O9  1  0.79364273  0.02315161  0.10623301  1.0
  O  O10  1  0.97684839  0.60623301  0.70635727  1.0
  O  O11  1  0.47684839  0.89376699  0.29364273  1.0
  O  O12  1  0.10623301  0.79364273  0.02315161  1.0
  O  O13  1  0.60623301  0.70635727  0.97684839  1.0
  O  O14  1  0.70635727  0.97684839  0.60623301  1.0
  O  O15  1  0.20635727  0.52315161  0.39376699  1.0
  O  O16  1  0.02315161  0.10623301  0.79364273  1.0
  O  O17  1  0.52315161  0.39376699  0.20635727  1.0
  O  O18  1  0.89376699  0.29364273  0.47684839  1.0
  O  O19  1  0.39376699  0.20635727  0.52315161  1.0
  O  O20  1  0.94651851  0.44651851  0.05348149  1.0
  O  O21  1  0.44651851  0.05348149  0.94651851  1.0
  O  O22  1  0.05348149  0.94651851  0.44651851  1.0
  O  O23  1  0.55348149  0.55348149  0.55348149  1.0
