# generated using pymatgen
data_Ni2Mo3O8
_symmetry_space_group_name_H-M   'P 1'
_cell_length_a   5.77030984
_cell_length_b   5.77030984
_cell_length_c   9.98173022
_cell_angle_alpha   90.00000000
_cell_angle_beta   90.00000000
_cell_angle_gamma   120.00000000
_symmetry_Int_Tables_number   1
_chemical_formula_structural   Ni2Mo3O8
_chemical_formula_sum   'Ni4 Mo6 O16'
_cell_volume   287.82911836
_cell_formula_units_Z   2
loop_
 _symmetry_equiv_pos_site_id
 _symmetry_equiv_pos_as_xyz
  1  'x, y, z'
loop_
 _atom_site_type_symbol
 _atom_site_label
 _atom_site_symmetry_multiplicity
 _atom_site_fract_x
 _atom_site_fract_y
 _atom_site_fract_z
 _atom_site_occupancy
  Ni  Ni0  1  0.33333333  0.66666667  0.62445662  1.0
  Ni  Ni1  1  0.66666667  0.33333333  0.12445662  1.0
  Ni  Ni2  1  0.33333333  0.66666667  0.06089198  1.0
  Ni  Ni3  1  0.66666667  0.33333333  0.56089198  1.0
  Mo  Mo4  1  0.70764489  0.85382245  0.36024909  1.0
  Mo  Mo5  1  0.85382245  0.70764489  0.86024909  1.0
  Mo  Mo6  1  0.85382245  0.14617755  0.86024909  1.0
  Mo  Mo7  1  0.14617755  0.85382245  0.36024909  1.0
  Mo  Mo8  1  0.14617755  0.29235511  0.36024909  1.0
  Mo  Mo9  1  0.29235511  0.14617755  0.86024909  1.0
  O  O10  1  0.33926560  0.16963280  0.24453008  1.0
  O  O11  1  0.16963280  0.33926560  0.74453008  1.0
  O  O12  1  0.16963280  0.83036720  0.74453008  1.0
  O  O13  1  0.83036720  0.16963280  0.24453008  1.0
  O  O14  1  0.83036720  0.66073440  0.24453008  1.0
  O  O15  1  0.66073440  0.83036720  0.74453008  1.0
  O  O16  1  0.33333333  0.66666667  0.25792645  1.0
  O  O17  1  0.66666667  0.33333333  0.75792645  1.0
  O  O18  1  0.00000000  0.00000000  0.00082923  1.0
  O  O19  1  0.00000000  0.00000000  0.50082923  1.0
  O  O20  1  0.02065415  0.51032707  0.47765274  1.0
  O  O21  1  0.51032707  0.02065415  0.97765274  1.0
  O  O22  1  0.51032707  0.48967293  0.97765274  1.0
  O  O23  1  0.48967293  0.51032707  0.47765274  1.0
  O  O24  1  0.48967293  0.97934585  0.47765274  1.0
  O  O25  1  0.97934585  0.48967293  0.97765274  1.0
