# generated using pymatgen
data_SrCuH6O5
_symmetry_space_group_name_H-M   'P 1'
_cell_length_a   5.46692532
_cell_length_b   6.26654665
_cell_length_c   8.03960327
_cell_angle_alpha   90.00000000
_cell_angle_beta   107.89831154
_cell_angle_gamma   90.00000000
_symmetry_Int_Tables_number   1
_chemical_formula_structural   SrCuH6O5
_chemical_formula_sum   'Sr2 Cu2 H12 O10'
_cell_volume   262.09699945
_cell_formula_units_Z   2
loop_
 _symmetry_equiv_pos_site_id
 _symmetry_equiv_pos_as_xyz
  1  'x, y, z'
loop_
 _atom_site_type_symbol
 _atom_site_label
 _atom_site_symmetry_multiplicity
 _atom_site_fract_x
 _atom_site_fract_y
 _atom_site_fract_z
 _atom_site_occupancy
  O  O0  1  0.84815556  0.71938741  0.99707605  1.0
  O  O1  1  0.84815556  0.28061259  0.49707605  1.0
  O  O2  1  0.15184444  0.71938741  0.50292395  1.0
  O  O3  1  0.15184444  0.28061259  0.00292395  1.0
  O  O4  1  0.50000000  0.38335831  0.75000000  1.0
  O  O5  1  0.50000000  0.61664169  0.25000000  1.0
  O  O6  1  0.71706370  0.84330451  0.55265928  1.0
  O  O7  1  0.71706370  0.15669549  0.05265928  1.0
  O  O8  1  0.28293630  0.84330451  0.94734072  1.0
  O  O9  1  0.28293630  0.15669549  0.44734072  1.0
  Sr  Sr10  1  0.00000000  0.54930244  0.75000000  1.0
  Sr  Sr11  1  0.00000000  0.45069756  0.25000000  1.0
  Cu  Cu12  1  0.00000000  0.00000000  0.00000000  1.0
  Cu  Cu13  1  0.00000000  0.00000000  0.50000000  1.0
  H  H14  1  0.66206462  0.73260165  0.96999946  1.0
  H  H15  1  0.66206462  0.26739835  0.46999946  1.0
  H  H16  1  0.33793538  0.73260165  0.53000054  1.0
  H  H17  1  0.33793538  0.26739835  0.03000054  1.0
  H  H18  1  0.63068119  0.95034718  0.60214267  1.0
  H  H19  1  0.63068119  0.04965282  0.10214267  1.0
  H  H20  1  0.36931881  0.95034718  0.89785733  1.0
  H  H21  1  0.36931881  0.04965282  0.39785733  1.0
  H  H22  1  0.56676064  0.28842301  0.85365998  1.0
  H  H23  1  0.56676064  0.71157699  0.35365998  1.0
  H  H24  1  0.43323936  0.28842301  0.64634002  1.0
  H  H25  1  0.43323936  0.71157699  0.14634002  1.0
