# generated using pymatgen
data_Ni3B7ClO13
_symmetry_space_group_name_H-M   'P 1'
_cell_length_a   8.53725851
_cell_length_b   8.53725851
_cell_length_c   8.53725851
_cell_angle_alpha   60.00000000
_cell_angle_beta   60.00000000
_cell_angle_gamma   60.00000000
_symmetry_Int_Tables_number   1
_chemical_formula_structural   Ni3B7ClO13
_chemical_formula_sum   'Ni6 B14 Cl2 O26'
_cell_volume   439.98745990
_cell_formula_units_Z   2
loop_
 _symmetry_equiv_pos_site_id
 _symmetry_equiv_pos_as_xyz
  1  'x, y, z'
loop_
 _atom_site_type_symbol
 _atom_site_label
 _atom_site_symmetry_multiplicity
 _atom_site_fract_x
 _atom_site_fract_y
 _atom_site_fract_z
 _atom_site_occupancy
  Ni  Ni0  1  0.50000000  0.00000000  -0.00000000  1.0
  Ni  Ni1  1  1.00000000  0.50000000  -0.50000000  1.0
  Ni  Ni2  1  -0.50000000  0.50000000  1.00000000  1.0
  Ni  Ni3  1  0.00000000  0.50000000  -0.00000000  1.0
  Ni  Ni4  1  0.00000000  -0.00000000  0.50000000  1.0
  Ni  Ni5  1  0.50000000  1.00000000  -0.50000000  1.0
  B  B6  1  0.91917547  0.91917547  -0.08082453  1.0
  B  B7  1  0.41917547  1.41917547  0.41917547  1.0
  B  B8  1  0.24247359  0.91917547  -0.08082453  1.0
  B  B9  1  -0.25752641  0.41917547  0.41917547  1.0
  B  B10  1  0.91917547  0.91917547  -0.75752641  1.0
  B  B11  1  0.41917547  1.41917547  -0.25752641  1.0
  B  B12  1  0.91917547  0.24247359  -0.08082453  1.0
  B  B13  1  0.41917547  -0.25752641  0.41917547  1.0
  B  B14  1  -0.75000000  0.75000000  0.75000000  1.0
  B  B15  1  -0.25000000  0.25000000  0.25000000  1.0
  B  B16  1  0.25000000  1.25000000  -0.25000000  1.0
  B  B17  1  -0.25000000  0.25000000  0.75000000  1.0
  B  B18  1  -0.25000000  0.75000000  0.25000000  1.0
  B  B19  1  0.25000000  -0.25000000  0.25000000  1.0
  Cl  Cl20  1  0.75000000  0.75000000  -0.25000000  1.0
  Cl  Cl21  1  0.25000000  0.25000000  0.25000000  1.0
  O  O22  1  0.73978448  1.06365758  -0.10075093  1.0
  O  O23  1  0.23978448  1.39924907  0.56365758  1.0
  O  O24  1  -0.70269112  0.89924907  1.06365758  1.0
  O  O25  1  -0.20269112  0.56365758  0.39924907  1.0
  O  O26  1  0.39924907  1.56365758  0.23978448  1.0
  O  O27  1  -0.10075093  0.73978448  1.06365758  1.0
  O  O28  1  -0.20269112  0.23978448  0.56365758  1.0
  O  O29  1  0.29730888  1.06365758  -0.26021552  1.0
  O  O30  1  1.06365758  0.89924907  -0.26021552  1.0
  O  O31  1  0.56365758  1.23978448  0.39924907  1.0
  O  O32  1  -0.70269112  0.73978448  0.89924907  1.0
  O  O33  1  -0.20269112  0.39924907  0.23978448  1.0
  O  O34  1  1.06365758  0.73978448  -0.70269112  1.0
  O  O35  1  0.39924907  1.23978448  -0.20269112  1.0
  O  O36  1  -0.10075093  0.29730888  0.73978448  1.0
  O  O37  1  0.56365758  -0.20269112  0.23978448  1.0
  O  O38  1  0.56365758  1.39924907  -0.20269112  1.0
  O  O39  1  -0.26021552  0.89924907  0.29730888  1.0
  O  O40  1  0.23978448  -0.20269112  0.39924907  1.0
  O  O41  1  1.06365758  0.29730888  -0.10075093  1.0
  O  O42  1  0.89924907  1.06365758  -0.70269112  1.0
  O  O43  1  0.23978448  1.56365758  -0.20269112  1.0
  O  O44  1  -0.26021552  0.29730888  1.06365758  1.0
  O  O45  1  0.39924907  -0.20269112  0.56365758  1.0
  O  O46  1  0.00000000  0.00000000  0.00000000  1.0
  O  O47  1  -0.50000000  0.50000000  0.50000000  1.0
