# generated using pymatgen
data_AlSCl
_symmetry_space_group_name_H-M   'P 1'
_cell_length_a   9.45070617
_cell_length_b   3.33740650
_cell_length_c   11.58895797
_cell_angle_alpha   90.00000000
_cell_angle_beta   90.00000000
_cell_angle_gamma   90.00000000
_symmetry_Int_Tables_number   1
_chemical_formula_structural   AlSCl
_chemical_formula_sum   'Al4 S4 Cl4'
_cell_volume   365.52556407
_cell_formula_units_Z   4
loop_
 _symmetry_equiv_pos_site_id
 _symmetry_equiv_pos_as_xyz
  1  'x, y, z'
loop_
 _atom_site_type_symbol
 _atom_site_label
 _atom_site_symmetry_multiplicity
 _atom_site_fract_x
 _atom_site_fract_y
 _atom_site_fract_z
 _atom_site_occupancy
  Al  Al0  1  0.95398900  0.75000000  0.10122036  1.0
  Al  Al1  1  0.45398900  0.75000000  0.39877964  1.0
  Al  Al2  1  0.04601100  0.25000000  0.89877964  1.0
  Al  Al3  1  0.54601100  0.25000000  0.60122036  1.0
  S  S4  1  0.66522867  0.75000000  0.49850583  1.0
  S  S5  1  0.16522867  0.75000000  0.00149417  1.0
  S  S6  1  0.33477133  0.25000000  0.50149417  1.0
  S  S7  1  0.83477133  0.25000000  0.99850583  1.0
  Cl  Cl8  1  1.01359989  0.75000000  0.75487038  1.0
  Cl  Cl9  1  0.51359989  0.75000000  0.74512962  1.0
  Cl  Cl10  1  -0.01359989  0.25000000  0.24512962  1.0
  Cl  Cl11  1  0.48640011  0.25000000  0.25487038  1.0
