# generated using pymatgen
data_Rb2H2PtC4(N2O)2
_symmetry_space_group_name_H-M   'P 1'
_cell_length_a   9.03568342
_cell_length_b   9.03568342
_cell_length_c   7.01041913
_cell_angle_alpha   78.46207534
_cell_angle_beta   101.53792466
_cell_angle_gamma   101.02053769
_symmetry_Int_Tables_number   1
_chemical_formula_structural   Rb2H2PtC4(N2O)2
_chemical_formula_sum   'Rb4 H4 Pt2 C8 N8 O4'
_cell_volume   542.60396397
_cell_formula_units_Z   2
loop_
 _symmetry_equiv_pos_site_id
 _symmetry_equiv_pos_as_xyz
  1  'x, y, z'
loop_
 _atom_site_type_symbol
 _atom_site_label
 _atom_site_symmetry_multiplicity
 _atom_site_fract_x
 _atom_site_fract_y
 _atom_site_fract_z
 _atom_site_occupancy
  Rb  Rb0  1  0.80858817  0.47319616  0.19940439  1.0
  Rb  Rb1  1  0.52680384  0.19141183  0.69940439  1.0
  Rb  Rb2  1  1.47319616  -0.19141183  0.30059561  1.0
  Rb  Rb3  1  1.19141183  -0.47319616  0.80059561  1.0
  H  H4  1  1.30037624  -0.55850244  0.30956239  1.0
  H  H5  1  1.55850244  -0.30037624  0.80956239  1.0
  H  H6  1  0.44149756  0.30037624  0.19043761  1.0
  H  H7  1  0.69962376  0.55850244  0.69043761  1.0
  Pt  Pt8  1  0.00000000  0.00000000  0.00000000  1.0
  Pt  Pt9  1  -0.00000000  0.00000000  0.50000000  1.0
  C  C10  1  0.89046227  0.78682019  0.51852428  1.0
  C  C11  1  0.21317981  0.10953773  0.01852428  1.0
  C  C12  1  1.78682019  -0.10953773  0.98147572  1.0
  C  C13  1  1.10953773  -0.78682019  0.48147572  1.0
  C  C14  1  1.07707813  -0.19875177  0.06860830  1.0
  C  C15  1  1.19875177  -0.07707813  0.56860830  1.0
  C  C16  1  0.80124823  0.07707813  0.43139170  1.0
  C  C17  1  0.92292187  0.19875177  0.93139170  1.0
  N  N18  1  0.82468079  0.66098279  0.52903026  1.0
  N  N19  1  0.33901721  0.17531921  0.02903026  1.0
  N  N20  1  1.66098279  -0.17531921  0.97096974  1.0
  N  N21  1  1.17531921  -0.66098279  0.47096974  1.0
  N  N22  1  1.12241222  -0.31634931  0.10903512  1.0
  N  N23  1  1.31634931  -0.12241222  0.60903512  1.0
  N  N24  1  0.68365069  0.12241222  0.39096488  1.0
  N  N25  1  0.87758778  0.31634931  0.89096488  1.0
  O  O26  1  1.37680583  -0.51466896  0.21877160  1.0
  O  O27  1  1.51466896  -0.37680583  0.71877160  1.0
  O  O28  1  0.48533104  0.37680583  0.28122840  1.0
  O  O29  1  0.62319417  0.51466896  0.78122840  1.0
