# generated using pymatgen
data_Sr2LiCI3N2
_symmetry_space_group_name_H-M   'P 1'
_cell_length_a   10.88269608
_cell_length_b   10.88269608
_cell_length_c   10.88269608
_cell_angle_alpha   60.00000000
_cell_angle_beta   60.00000000
_cell_angle_gamma   60.00000000
_symmetry_Int_Tables_number   1
_chemical_formula_structural   Sr2LiCI3N2
_chemical_formula_sum   'Sr8 Li4 C4 I12 N8'
_cell_volume   911.36953130
_cell_formula_units_Z   4
loop_
 _symmetry_equiv_pos_site_id
 _symmetry_equiv_pos_as_xyz
  1  'x, y, z'
loop_
 _atom_site_type_symbol
 _atom_site_label
 _atom_site_symmetry_multiplicity
 _atom_site_fract_x
 _atom_site_fract_y
 _atom_site_fract_z
 _atom_site_occupancy
  Sr  Sr0  1  -0.15817408  0.47452223  0.84182592  1.0
  Sr  Sr1  1  -0.52547777  0.84182592  0.84182592  1.0
  Sr  Sr2  1  0.84182592  0.84182592  -0.15817408  1.0
  Sr  Sr3  1  0.84182592  0.84182592  -0.52547777  1.0
  Sr  Sr4  1  0.40817408  -0.22452223  0.40817408  1.0
  Sr  Sr5  1  -0.22452223  0.40817408  1.40817408  1.0
  Sr  Sr6  1  0.40817408  0.40817408  0.77547777  1.0
  Sr  Sr7  1  0.40817408  0.40817408  0.40817408  1.0
  Li  Li8  1  0.12500000  0.12500000  0.12500000  1.0
  Li  Li9  1  0.12500000  0.12500000  0.62500000  1.0
  Li  Li10  1  0.12500000  0.62500000  0.12500000  1.0
  Li  Li11  1  0.62500000  1.12500000  0.12500000  1.0
  C  C12  1  0.12500000  0.62500000  0.62500000  1.0
  C  C13  1  0.62500000  1.12500000  -0.37500000  1.0
  C  C14  1  -0.37500000  0.62500000  1.12500000  1.0
  C  C15  1  -0.37500000  0.62500000  0.62500000  1.0
  I  I16  1  -0.19755031  0.19755031  1.19755031  1.0
  I  I17  1  0.19755031  -0.19755031  0.80244969  1.0
  I  I18  1  0.19755031  -0.19755031  0.19755031  1.0
  I  I19  1  -0.19755031  0.19755031  0.80244969  1.0
  I  I20  1  0.19755031  0.19755031  0.80244969  1.0
  I  I21  1  0.80244969  0.80244969  0.19755031  1.0
  I  I22  1  0.44755031  0.05244969  0.44755031  1.0
  I  I23  1  0.05244969  0.44755031  1.05244969  1.0
  I  I24  1  0.05244969  0.44755031  0.44755031  1.0
  I  I25  1  0.44755031  0.05244969  0.05244969  1.0
  I  I26  1  0.05244969  0.05244969  0.44755031  1.0
  I  I27  1  0.44755031  0.44755031  0.05244969  1.0
  N  N28  1  0.98565336  0.67144888  -0.32855112  1.0
  N  N29  1  0.67144888  0.98565336  -0.32855112  1.0
  N  N30  1  0.67144888  0.67144888  -0.01434664  1.0
  N  N31  1  0.67144888  0.67144888  -0.32855112  1.0
  N  N32  1  0.26434664  0.57855112  0.57855112  1.0
  N  N33  1  0.57855112  0.26434664  0.57855112  1.0
  N  N34  1  0.57855112  0.57855112  0.57855112  1.0
  N  N35  1  0.57855112  0.57855112  0.26434664  1.0
