# generated using pymatgen
data_Mg2Sb3
_symmetry_space_group_name_H-M   'P 1'
_cell_length_a   4.74975988
_cell_length_b   4.74975988
_cell_length_c   7.21093524
_cell_angle_alpha   90.00000000
_cell_angle_beta   90.00000000
_cell_angle_gamma   120.00000000
_symmetry_Int_Tables_number   1
_chemical_formula_structural   Mg2Sb3
_chemical_formula_sum   'Mg2 Sb3'
_cell_volume   140.88525285
_cell_formula_units_Z   1
loop_
 _symmetry_equiv_pos_site_id
 _symmetry_equiv_pos_as_xyz
  1  'x, y, z'
loop_
 _atom_site_type_symbol
 _atom_site_label
 _atom_site_symmetry_multiplicity
 _atom_site_fract_x
 _atom_site_fract_y
 _atom_site_fract_z
 _atom_site_occupancy
  Mg  Mg0  1  0.33333333  0.66666667  0.16182533  1.0
  Mg  Mg1  1  0.66666667  0.33333333  0.83817467  1.0
  Sb  Sb2  1  0.33333333  0.66666667  0.58423941  1.0
  Sb  Sb3  1  0.66666667  0.33333333  0.41576059  1.0
  Sb  Sb4  1  0.00000000  -0.00000000  -0.00000000  1.0
