# generated using pymatgen
data_Cs3TaO8
_symmetry_space_group_name_H-M   'P 1'
_cell_length_a   6.80940602
_cell_length_b   6.80940602
_cell_length_c   6.80940602
_cell_angle_alpha   113.10616236
_cell_angle_beta   113.10616236
_cell_angle_gamma   102.42303168
_symmetry_Int_Tables_number   1
_chemical_formula_structural   Cs3TaO8
_chemical_formula_sum   'Cs3 Ta1 O8'
_cell_volume   240.34446932
_cell_formula_units_Z   1
loop_
 _symmetry_equiv_pos_site_id
 _symmetry_equiv_pos_as_xyz
  1  'x, y, z'
loop_
 _atom_site_type_symbol
 _atom_site_label
 _atom_site_symmetry_multiplicity
 _atom_site_fract_x
 _atom_site_fract_y
 _atom_site_fract_z
 _atom_site_occupancy
  Cs  Cs0  1  0.75000000  1.25000000  0.50000000  1.0
  Cs  Cs1  1  1.25000000  0.75000000  0.50000000  1.0
  Cs  Cs2  1  0.50000000  0.50000000  -0.00000000  1.0
  Ta  Ta3  1  0.00000000  0.00000000  0.00000000  1.0
  O  O4  1  1.04617299  1.04617299  0.74262203  1.0
  O  O5  1  0.95382701  1.69644904  1.00000000  1.0
  O  O6  1  1.69644904  0.95382701  1.00000000  1.0
  O  O7  1  0.30355096  0.30355096  0.25737797  1.0
  O  O8  1  0.82354733  0.82354733  0.60973099  1.0
  O  O9  1  1.17645267  0.78618366  1.00000000  1.0
  O  O10  1  0.78618366  1.17645267  1.00000000  1.0
  O  O11  1  0.21381634  0.21381634  0.39026901  1.0
