# generated using pymatgen
data_Sc2InPd2
_symmetry_space_group_name_H-M   'P 1'
_cell_length_a   7.58766246
_cell_length_b   7.58766246
_cell_length_c   6.73509294
_cell_angle_alpha   90.00000000
_cell_angle_beta   90.00000000
_cell_angle_gamma   90.00000000
_symmetry_Int_Tables_number   1
_chemical_formula_structural   Sc2InPd2
_chemical_formula_sum   'Sc8 In4 Pd8'
_cell_volume   387.75695750
_cell_formula_units_Z   4
loop_
 _symmetry_equiv_pos_site_id
 _symmetry_equiv_pos_as_xyz
  1  'x, y, z'
loop_
 _atom_site_type_symbol
 _atom_site_label
 _atom_site_symmetry_multiplicity
 _atom_site_fract_x
 _atom_site_fract_y
 _atom_site_fract_z
 _atom_site_occupancy
  Sc  Sc0  1  0.17521741  0.17521741  0.50000000  1.0
  Sc  Sc1  1  0.67521741  0.32478259  0.00000000  1.0
  Sc  Sc2  1  0.82478259  0.82478259  0.50000000  1.0
  Sc  Sc3  1  0.32478259  0.67521741  0.00000000  1.0
  Sc  Sc4  1  0.33681487  0.66318513  0.50000000  1.0
  Sc  Sc5  1  0.83681487  0.83681487  0.00000000  1.0
  Sc  Sc6  1  0.66318513  0.33681487  0.50000000  1.0
  Sc  Sc7  1  0.16318513  0.16318513  0.00000000  1.0
  In  In8  1  0.50000000  0.00000000  0.25000000  1.0
  In  In9  1  0.50000000  0.00000000  0.75000000  1.0
  In  In10  1  0.00000000  0.50000000  0.75000000  1.0
  In  In11  1  0.00000000  0.50000000  0.25000000  1.0
  Pd  Pd12  1  0.12970279  0.87029721  0.26192462  1.0
  Pd  Pd13  1  0.12970279  0.87029721  0.73807538  1.0
  Pd  Pd14  1  0.62970279  0.62970279  0.76192462  1.0
  Pd  Pd15  1  0.62970279  0.62970279  0.23807538  1.0
  Pd  Pd16  1  0.87029721  0.12970279  0.26192462  1.0
  Pd  Pd17  1  0.87029721  0.12970279  0.73807538  1.0
  Pd  Pd18  1  0.37029721  0.37029721  0.76192462  1.0
  Pd  Pd19  1  0.37029721  0.37029721  0.23807538  1.0
