# generated using pymatgen
data_Zr3Fe3C
_symmetry_space_group_name_H-M   'P 1'
_cell_length_a   8.42827570
_cell_length_b   8.42827570
_cell_length_c   8.42827570
_cell_angle_alpha   60.00000000
_cell_angle_beta   60.00000000
_cell_angle_gamma   60.00000000
_symmetry_Int_Tables_number   1
_chemical_formula_structural   Zr3Fe3C
_chemical_formula_sum   'Zr12 Fe12 C4'
_cell_volume   423.35159713
_cell_formula_units_Z   4
loop_
 _symmetry_equiv_pos_site_id
 _symmetry_equiv_pos_as_xyz
  1  'x, y, z'
loop_
 _atom_site_type_symbol
 _atom_site_label
 _atom_site_symmetry_multiplicity
 _atom_site_fract_x
 _atom_site_fract_y
 _atom_site_fract_z
 _atom_site_occupancy
  Zr  Zr0  1  0.80245975  0.80245975  -0.80245975  1.0
  Zr  Zr1  1  0.19754025  1.19754025  -0.19754025  1.0
  Zr  Zr2  1  0.80245975  -0.80245975  0.80245975  1.0
  Zr  Zr3  1  0.19754025  -0.19754025  0.19754025  1.0
  Zr  Zr4  1  -0.80245975  0.80245975  0.80245975  1.0
  Zr  Zr5  1  -0.19754025  0.19754025  0.19754025  1.0
  Zr  Zr6  1  0.44754025  1.44754025  0.05245975  1.0
  Zr  Zr7  1  0.05245975  0.05245975  0.44754025  1.0
  Zr  Zr8  1  0.44754025  1.05245975  0.44754025  1.0
  Zr  Zr9  1  0.05245975  1.44754025  0.05245975  1.0
  Zr  Zr10  1  0.05245975  1.44754025  0.44754025  1.0
  Zr  Zr11  1  0.44754025  1.05245975  0.05245975  1.0
  Fe  Fe12  1  1.12500000  0.62500000  0.62500000  1.0
  Fe  Fe13  1  0.62500000  1.12500000  -0.37500000  1.0
  Fe  Fe14  1  -0.37500000  0.62500000  1.12500000  1.0
  Fe  Fe15  1  -0.37500000  0.62500000  0.62500000  1.0
  Fe  Fe16  1  -0.27276331  0.42425444  0.42425444  1.0
  Fe  Fe17  1  0.42425444  -0.27276331  0.42425444  1.0
  Fe  Fe18  1  0.42425444  1.42425444  -0.27276331  1.0
  Fe  Fe19  1  0.42425444  1.42425444  0.42425444  1.0
  Fe  Fe20  1  0.52276331  0.82574556  -0.17425444  1.0
  Fe  Fe21  1  0.82574556  0.52276331  0.82574556  1.0
  Fe  Fe22  1  0.82574556  0.82574556  -0.47723669  1.0
  Fe  Fe23  1  0.82574556  0.82574556  0.82574556  1.0
  C  C24  1  0.62500000  1.12500000  0.12500000  1.0
  C  C25  1  0.12500000  1.62500000  0.12500000  1.0
  C  C26  1  0.12500000  0.12500000  1.62500000  1.0
  C  C27  1  0.12500000  0.12500000  0.12500000  1.0
