# generated using pymatgen
data_YCd3
_symmetry_space_group_name_H-M   'P 1'
_cell_length_a   6.53540315
_cell_length_b   6.53540315
_cell_length_c   4.88383943
_cell_angle_alpha   90.00000000
_cell_angle_beta   90.00000000
_cell_angle_gamma   113.87677928
_symmetry_Int_Tables_number   1
_chemical_formula_structural   YCd3
_chemical_formula_sum   'Y2 Cd6'
_cell_volume   190.74402592
_cell_formula_units_Z   2
loop_
 _symmetry_equiv_pos_site_id
 _symmetry_equiv_pos_as_xyz
  1  'x, y, z'
loop_
 _atom_site_type_symbol
 _atom_site_label
 _atom_site_symmetry_multiplicity
 _atom_site_fract_x
 _atom_site_fract_y
 _atom_site_fract_z
 _atom_site_occupancy
  Y  Y0  1  0.13693194  0.86306806  0.25000000  1.0
  Y  Y1  1  -0.13693194  1.13693194  0.75000000  1.0
  Cd  Cd2  1  0.18992787  0.37691834  0.25000000  1.0
  Cd  Cd3  1  -0.62308166  1.18992787  0.75000000  1.0
  Cd  Cd4  1  0.62308166  0.81007213  0.25000000  1.0
  Cd  Cd5  1  -0.18992787  1.62308166  0.75000000  1.0
  Cd  Cd6  1  -0.32550391  1.32550391  0.25000000  1.0
  Cd  Cd7  1  0.32550391  0.67449609  0.75000000  1.0
