# generated using pymatgen
data_Mn(InTe2)2
_symmetry_space_group_name_H-M   'P 1'
_cell_length_a   7.71538511
_cell_length_b   7.71538511
_cell_length_c   7.71538511
_cell_angle_alpha   131.69408340
_cell_angle_beta   131.69408340
_cell_angle_gamma   70.71262014
_symmetry_Int_Tables_number   1
_chemical_formula_structural   Mn(InTe2)2
_chemical_formula_sum   'Mn1 In2 Te4'
_cell_volume   250.84749514
_cell_formula_units_Z   1
loop_
 _symmetry_equiv_pos_site_id
 _symmetry_equiv_pos_as_xyz
  1  'x, y, z'
loop_
 _atom_site_type_symbol
 _atom_site_label
 _atom_site_symmetry_multiplicity
 _atom_site_fract_x
 _atom_site_fract_y
 _atom_site_fract_z
 _atom_site_occupancy
  Mn  Mn0  1  0.00000000  0.00000000  0.00000000  1.0
  In  In1  1  0.75000000  0.25000000  0.50000000  1.0
  In  In2  1  0.25000000  0.75000000  0.50000000  1.0
  Te  Te3  1  0.37502894  0.84320435  1.00000000  1.0
  Te  Te4  1  0.84320435  0.37502894  1.00000000  1.0
  Te  Te5  1  0.62497106  0.62497106  0.46817542  1.0
  Te  Te6  1  1.15679565  1.15679565  1.53182458  1.0
