# generated using pymatgen
data_Ti5Si4
_symmetry_space_group_name_H-M   'P 1'
_cell_length_a   6.51233206
_cell_length_b   12.67487828
_cell_length_c   6.64061659
_cell_angle_alpha   90.00000000
_cell_angle_beta   90.00000000
_cell_angle_gamma   90.00000000
_symmetry_Int_Tables_number   1
_chemical_formula_structural   Ti5Si4
_chemical_formula_sum   'Ti20 Si16'
_cell_volume   548.13652220
_cell_formula_units_Z   4
loop_
 _symmetry_equiv_pos_site_id
 _symmetry_equiv_pos_as_xyz
  1  'x, y, z'
loop_
 _atom_site_type_symbol
 _atom_site_label
 _atom_site_symmetry_multiplicity
 _atom_site_fract_x
 _atom_site_fract_y
 _atom_site_fract_z
 _atom_site_occupancy
  Ti  Ti0  1  0.50276321  0.90471572  0.67664199  1.0
  Ti  Ti1  1  0.50276321  0.59528428  0.67664199  1.0
  Ti  Ti2  1  1.00276321  0.90471572  0.82335801  1.0
  Ti  Ti3  1  1.00276321  0.59528428  0.82335801  1.0
  Ti  Ti4  1  0.49723679  0.40471572  0.32335801  1.0
  Ti  Ti5  1  0.49723679  0.09528428  0.32335801  1.0
  Ti  Ti6  1  -0.00276321  0.40471572  0.17664199  1.0
  Ti  Ti7  1  -0.00276321  0.09528428  0.17664199  1.0
  Ti  Ti8  1  0.15848803  0.37382016  0.67259705  1.0
  Ti  Ti9  1  0.15848803  0.12617984  0.67259705  1.0
  Ti  Ti10  1  0.65848803  0.37382016  0.82740295  1.0
  Ti  Ti11  1  0.65848803  0.12617984  0.82740295  1.0
  Ti  Ti12  1  0.84151197  0.87382016  0.32740295  1.0
  Ti  Ti13  1  0.84151197  0.62617984  0.32740295  1.0
  Ti  Ti14  1  0.34151197  0.87382016  0.17259705  1.0
  Ti  Ti15  1  0.34151197  0.62617984  0.17259705  1.0
  Ti  Ti16  1  0.33531052  0.25000000  -0.00415706  1.0
  Ti  Ti17  1  0.83531052  0.25000000  0.50415706  1.0
  Ti  Ti18  1  0.66468948  0.75000000  1.00415706  1.0
  Ti  Ti19  1  0.16468948  0.75000000  0.49584294  1.0
  Si  Si20  1  0.32445335  0.46166035  0.96607829  1.0
  Si  Si21  1  0.32445335  0.03833965  0.96607829  1.0
  Si  Si22  1  0.82445335  0.46166035  0.53392171  1.0
  Si  Si23  1  0.82445335  0.03833965  0.53392171  1.0
  Si  Si24  1  0.67554665  0.96166035  0.03392171  1.0
  Si  Si25  1  0.67554665  0.53833965  0.03392171  1.0
  Si  Si26  1  0.17554665  0.96166035  0.46607829  1.0
  Si  Si27  1  0.17554665  0.53833965  0.46607829  1.0
  Si  Si28  1  0.46003559  0.25000000  0.60688255  1.0
  Si  Si29  1  0.96003559  0.25000000  0.89311745  1.0
  Si  Si30  1  0.53996441  0.75000000  0.39311745  1.0
  Si  Si31  1  0.03996441  0.75000000  0.10688255  1.0
  Si  Si32  1  0.19891812  0.25000000  0.35608541  1.0
  Si  Si33  1  0.69891812  0.25000000  0.14391459  1.0
  Si  Si34  1  0.80108188  0.75000000  0.64391459  1.0
  Si  Si35  1  0.30108188  0.75000000  0.85608541  1.0
