# generated using pymatgen
data_K2B3SbO8
_symmetry_space_group_name_H-M   'P 1'
_cell_length_a   5.97161954
_cell_length_b   11.23177866
_cell_length_c   11.19484955
_cell_angle_alpha   90.00000000
_cell_angle_beta   103.61896672
_cell_angle_gamma   90.00000000
_symmetry_Int_Tables_number   1
_chemical_formula_structural   K2B3SbO8
_chemical_formula_sum   'K8 B12 Sb4 O32'
_cell_volume   729.74808192
_cell_formula_units_Z   4
loop_
 _symmetry_equiv_pos_site_id
 _symmetry_equiv_pos_as_xyz
  1  'x, y, z'
loop_
 _atom_site_type_symbol
 _atom_site_label
 _atom_site_symmetry_multiplicity
 _atom_site_fract_x
 _atom_site_fract_y
 _atom_site_fract_z
 _atom_site_occupancy
  K  K0  1  0.70094660  0.10015948  0.40943591  1.0
  K  K1  1  0.29905340  0.60015948  0.09056409  1.0
  K  K2  1  0.29905340  0.89984052  0.59056409  1.0
  K  K3  1  0.70094660  0.39984052  0.90943591  1.0
  K  K4  1  0.24845757  0.89728040  0.98068900  1.0
  K  K5  1  0.75154243  0.39728040  0.51931100  1.0
  K  K6  1  0.75154243  0.10271960  0.01931100  1.0
  K  K7  1  0.24845757  0.60271960  0.48068900  1.0
  B  B8  1  0.17398395  0.03148158  0.30313816  1.0
  B  B9  1  0.82601605  0.53148158  0.19686184  1.0
  B  B10  1  0.82601605  0.96851842  0.69686184  1.0
  B  B11  1  0.17398395  0.46851842  0.80313816  1.0
  B  B12  1  0.39969419  0.83823150  0.29189359  1.0
  B  B13  1  0.60030581  0.33823150  0.20810641  1.0
  B  B14  1  0.60030581  0.16176850  0.70810641  1.0
  B  B15  1  0.39969419  0.66176850  0.79189359  1.0
  B  B16  1  0.74023510  0.73410839  0.44184751  1.0
  B  B17  1  0.25976490  0.23410839  0.05815249  1.0
  B  B18  1  0.25976490  0.26589161  0.55815249  1.0
  B  B19  1  0.74023510  0.76589161  0.94184751  1.0
  Sb  Sb20  1  0.86769979  0.81995450  0.21597654  1.0
  Sb  Sb21  1  0.13230021  0.31995450  0.28402346  1.0
  Sb  Sb22  1  0.13230021  0.18004550  0.78402346  1.0
  Sb  Sb23  1  0.86769979  0.68004550  0.71597654  1.0
  O  O24  1  0.95512287  0.99685471  0.24153616  1.0
  O  O25  1  0.04487713  0.49685471  0.25846384  1.0
  O  O26  1  0.04487713  0.00314529  0.75846384  1.0
  O  O27  1  0.95512287  0.50314529  0.74153616  1.0
  O  O28  1  0.23161778  0.14919117  0.32867268  1.0
  O  O29  1  0.76838222  0.64919117  0.17132732  1.0
  O  O30  1  0.76838222  0.85080883  0.67132732  1.0
  O  O31  1  0.23161778  0.35080883  0.82867268  1.0
  O  O32  1  0.34571404  0.95054402  0.35035507  1.0
  O  O33  1  0.65428596  0.45054402  0.14964493  1.0
  O  O34  1  0.65428596  0.04945598  0.64964493  1.0
  O  O35  1  0.34571404  0.54945598  0.85035507  1.0
  O  O36  1  0.54603279  0.86652421  0.20630249  1.0
  O  O37  1  0.45396721  0.36652421  0.29369751  1.0
  O  O38  1  0.45396721  0.13347579  0.79369751  1.0
  O  O39  1  0.54603279  0.63347579  0.70630249  1.0
  O  O40  1  0.51227525  0.75683470  0.39368638  1.0
  O  O41  1  0.48772475  0.25683470  0.10631362  1.0
  O  O42  1  0.48772475  0.24316530  0.60631362  1.0
  O  O43  1  0.51227525  0.74316530  0.89368638  1.0
  O  O44  1  0.19000992  0.78006829  0.21844625  1.0
  O  O45  1  0.80999008  0.28006829  0.28155375  1.0
  O  O46  1  0.80999008  0.21993171  0.78155375  1.0
  O  O47  1  0.19000992  0.71993171  0.71844625  1.0
  O  O48  1  0.80204514  0.64696180  0.53277494  1.0
  O  O49  1  0.19795486  0.14696180  0.96722506  1.0
  O  O50  1  0.19795486  0.35303820  0.46722506  1.0
  O  O51  1  0.80204514  0.85303820  0.03277494  1.0
  O  O52  1  0.91859940  0.78615076  0.39956571  1.0
  O  O53  1  0.08140060  0.28615076  0.10043429  1.0
  O  O54  1  0.08140060  0.21384924  0.60043429  1.0
  O  O55  1  0.91859940  0.71384924  0.89956571  1.0
