# generated using pymatgen
data_Ni3(BiS)2
_symmetry_space_group_name_H-M   'P 1'
_cell_length_a   6.89610408
_cell_length_b   6.89610408
_cell_length_c   8.01707102
_cell_angle_alpha   55.95929981
_cell_angle_beta   124.04070019
_cell_angle_gamma   107.69117023
_symmetry_Int_Tables_number   1
_chemical_formula_structural   Ni3(BiS)2
_chemical_formula_sum   'Ni6 Bi4 S4'
_cell_volume   261.76644673
_cell_formula_units_Z   2
loop_
 _symmetry_equiv_pos_site_id
 _symmetry_equiv_pos_as_xyz
  1  'x, y, z'
loop_
 _atom_site_type_symbol
 _atom_site_label
 _atom_site_symmetry_multiplicity
 _atom_site_fract_x
 _atom_site_fract_y
 _atom_site_fract_z
 _atom_site_occupancy
  Ni  Ni0  1  0.26164399  0.26164399  0.00000000  1.0
  Ni  Ni1  1  0.73835601  0.73835601  0.00000000  1.0
  Ni  Ni2  1  1.00000000  0.50000000  -0.00000000  1.0
  Ni  Ni3  1  1.50000000  0.00000000  -0.00000000  1.0
  Ni  Ni4  1  -0.01564598  0.01564598  0.72046445  1.0
  Ni  Ni5  1  1.01564598  -0.01564598  0.27953555  1.0
  Bi  Bi6  1  0.76212561  0.23787439  0.76998722  1.0
  Bi  Bi7  1  0.23787439  -0.23787439  0.23001278  1.0
  Bi  Bi8  1  0.74758485  0.25241515  0.24615191  1.0
  Bi  Bi9  1  0.25241515  -0.25241515  0.75384809  1.0
  S  S10  1  1.24884344  0.28745276  0.71002286  1.0
  S  S11  1  0.71254724  -0.24884344  0.71002286  1.0
  S  S12  1  0.75115656  0.71254724  0.28997714  1.0
  S  S13  1  0.28745276  0.24884344  0.28997714  1.0
