# generated using pymatgen
data_NaB(HO)4
_symmetry_space_group_name_H-M   'P 1'
_cell_length_a   5.47767653
_cell_length_b   6.53492205
_cell_length_c   9.50195836
_cell_angle_alpha   90.00000000
_cell_angle_beta   90.00000000
_cell_angle_gamma   90.00000000
_symmetry_Int_Tables_number   1
_chemical_formula_structural   NaB(HO)4
_chemical_formula_sum   'Na4 B4 H16 O16'
_cell_volume   340.13389852
_cell_formula_units_Z   4
loop_
 _symmetry_equiv_pos_site_id
 _symmetry_equiv_pos_as_xyz
  1  'x, y, z'
loop_
 _atom_site_type_symbol
 _atom_site_label
 _atom_site_symmetry_multiplicity
 _atom_site_fract_x
 _atom_site_fract_y
 _atom_site_fract_z
 _atom_site_occupancy
  Na  Na0  1  0.05309924  0.72034911  0.77332601  1.0
  Na  Na1  1  0.55309924  0.77965089  0.22667399  1.0
  Na  Na2  1  0.94690076  0.22034911  0.72667399  1.0
  Na  Na3  1  0.44690076  0.27965089  0.27332601  1.0
  B  B4  1  0.47860244  0.98730545  0.55868214  1.0
  B  B5  1  0.97860244  0.51269455  0.44131786  1.0
  B  B6  1  0.52139756  0.48730545  0.94131786  1.0
  B  B7  1  0.02139756  0.01269455  0.05868214  1.0
  H  H8  1  0.50321850  0.76401730  0.71696261  1.0
  H  H9  1  1.00321850  0.73598270  0.28303739  1.0
  H  H10  1  0.49678150  0.26401730  0.78303739  1.0
  H  H11  1  -0.00321850  0.23598270  0.21696261  1.0
  H  H12  1  0.16262317  0.72377128  0.06333155  1.0
  H  H13  1  0.66262317  0.77622872  0.93666845  1.0
  H  H14  1  0.83737683  0.22377128  0.43666845  1.0
  H  H15  1  0.33737683  0.27622872  0.56333155  1.0
  H  H16  1  0.81846260  0.90481933  0.49656922  1.0
  H  H17  1  0.31846260  0.59518067  0.50343078  1.0
  H  H18  1  0.18153740  0.40481933  1.00343078  1.0
  H  H19  1  0.68153740  0.09518067  -0.00343078  1.0
  H  H20  1  0.72247876  0.56875827  0.59236725  1.0
  H  H21  1  0.22247876  0.93124173  0.40763275  1.0
  H  H22  1  0.27752124  0.06875827  0.90763275  1.0
  H  H23  1  0.77752124  0.43124173  0.09236725  1.0
  O  O24  1  0.41086409  0.79278000  0.62864110  1.0
  O  O25  1  0.91086409  0.70722000  0.37135890  1.0
  O  O26  1  0.58913591  0.29278000  0.87135890  1.0
  O  O27  1  0.08913591  0.20722000  0.12864110  1.0
  O  O28  1  0.25173119  0.51608470  0.94535719  1.0
  O  O29  1  0.75173119  0.98391530  0.05464281  1.0
  O  O30  1  0.74826881  0.01608470  0.55464281  1.0
  O  O31  1  0.24826881  0.48391530  0.44535719  1.0
  O  O32  1  0.13496075  0.83519999  0.13240597  1.0
  O  O33  1  0.63496075  0.66480001  0.86759403  1.0
  O  O34  1  0.86503925  0.33519999  0.36759403  1.0
  O  O35  1  0.36503925  0.16480001  0.63240597  1.0
  O  O36  1  0.89116737  0.52128067  0.58964287  1.0
  O  O37  1  0.39116737  0.97871933  0.41035713  1.0
  O  O38  1  0.10883263  0.02128067  0.91035713  1.0
  O  O39  1  0.60883263  0.47871933  0.08964287  1.0
