# generated using pymatgen
data_KIn5S8
_symmetry_space_group_name_H-M   'P 1'
_cell_length_a   9.84126012
_cell_length_b   9.84126012
_cell_length_c   9.42463569
_cell_angle_alpha   77.46095913
_cell_angle_beta   102.53904087
_cell_angle_gamma   157.06168414
_symmetry_Int_Tables_number   1
_chemical_formula_structural   KIn5S8
_chemical_formula_sum   'K1 In5 S8'
_cell_volume   346.90777822
_cell_formula_units_Z   1
loop_
 _symmetry_equiv_pos_site_id
 _symmetry_equiv_pos_as_xyz
  1  'x, y, z'
loop_
 _atom_site_type_symbol
 _atom_site_label
 _atom_site_symmetry_multiplicity
 _atom_site_fract_x
 _atom_site_fract_y
 _atom_site_fract_z
 _atom_site_occupancy
  K  K0  1  0.50000000  0.50000000  0.00000000  1.0
  In  In1  1  0.71539869  -0.71539869  0.83771270  1.0
  In  In2  1  1.28460131  -0.28460131  0.16228730  1.0
  In  In3  1  0.64216607  -0.64216607  0.39942021  1.0
  In  In4  1  1.35783393  -0.35783393  0.60057979  1.0
  In  In5  1  -0.00000000  0.00000000  0.50000000  1.0
  S  S6  1  0.93403049  -0.93403049  0.72155463  1.0
  S  S7  1  1.06596951  -0.06596951  0.27844537  1.0
  S  S8  1  0.83545186  -0.83545186  0.02915535  1.0
  S  S9  1  1.16454814  -0.16454814  0.97084465  1.0
  S  S10  1  0.76023045  -0.76023045  0.34384746  1.0
  S  S11  1  1.23976955  -0.23976955  0.65615254  1.0
  S  S12  1  0.58692830  -0.58692830  0.61837140  1.0
  S  S13  1  1.41307170  -0.41307170  0.38162860  1.0
