# generated using pymatgen
data_Mg3Si2O9
_symmetry_space_group_name_H-M   'P 1'
_cell_length_a   5.41349606
_cell_length_b   5.41349606
_cell_length_c   15.06135623
_cell_angle_alpha   88.39690417
_cell_angle_beta   91.60309583
_cell_angle_gamma   59.94621286
_symmetry_Int_Tables_number   1
_chemical_formula_structural   Mg3Si2O9
_chemical_formula_sum   'Mg6 Si4 O18'
_cell_volume   381.44572765
_cell_formula_units_Z   2
loop_
 _symmetry_equiv_pos_site_id
 _symmetry_equiv_pos_as_xyz
  1  'x, y, z'
loop_
 _atom_site_type_symbol
 _atom_site_label
 _atom_site_symmetry_multiplicity
 _atom_site_fract_x
 _atom_site_fract_y
 _atom_site_fract_z
 _atom_site_occupancy
  O  O0  1  -0.00075871  0.00075871  1.00067446  1.0
  O  O1  1  0.50197607  -0.00532300  0.00077867  1.0
  O  O2  1  1.00532300  0.49802393  0.00077867  1.0
  O  O3  1  0.01524943  -0.01524943  0.50047675  1.0
  O  O4  1  0.51826210  -0.02164038  0.50058462  1.0
  O  O5  1  1.02164038  0.48173790  0.50058462  1.0
  O  O6  1  0.24054372  -0.24054372  0.28407150  1.0
  O  O7  1  0.86964385  -0.56253099  0.78395163  1.0
  O  O8  1  1.56253099  0.13035615  0.78395163  1.0
  O  O9  1  0.85326865  -0.54619817  0.28412119  1.0
  O  O10  1  1.54619817  0.14673135  0.28412119  1.0
  O  O11  1  0.52914685  -0.52914685  0.17284270  1.0
  O  O12  1  0.54557239  -0.54557239  0.67270840  1.0
  O  O13  1  0.25696617  -0.25696617  0.78390542  1.0
  O  O14  1  1.20742190  0.12553690  0.64537280  1.0
  O  O15  1  0.87446310  -0.20742190  0.64537280  1.0
  O  O16  1  1.19108112  0.14189944  0.14555653  1.0
  O  O17  1  0.85810056  -0.19108112  0.14555653  1.0
  Mg  Mg18  1  0.89279938  -0.89279938  0.22395065  1.0
  Mg  Mg19  1  0.53698355  -0.18118966  0.22356095  1.0
  Mg  Mg20  1  1.18118966  0.46301645  0.22356095  1.0
  Mg  Mg21  1  0.90923116  -0.90923116  0.72380382  1.0
  Mg  Mg22  1  0.55338275  -0.19756172  0.72339636  1.0
  Mg  Mg23  1  1.19756172  0.44661725  0.72339636  1.0
  Si  Si24  1  1.17393543  0.15911641  0.03581936  1.0
  Si  Si25  1  0.84088359  -0.17393543  0.03581936  1.0
  Si  Si26  1  1.19023619  0.14283319  0.53564104  1.0
  Si  Si27  1  0.85716681  -0.19023619  0.53564104  1.0
