# generated using pymatgen
data_K2Ti4O9
_symmetry_space_group_name_H-M   'P 1'
_cell_length_a   9.52033179
_cell_length_b   9.52033179
_cell_length_c   12.13147898
_cell_angle_alpha   73.33517394
_cell_angle_beta   106.66482606
_cell_angle_gamma   156.99791875
_symmetry_Int_Tables_number   1
_chemical_formula_structural   K2Ti4O9
_chemical_formula_sum   'K4 Ti8 O18'
_cell_volume   410.85724810
_cell_formula_units_Z   2
loop_
 _symmetry_equiv_pos_site_id
 _symmetry_equiv_pos_as_xyz
  1  'x, y, z'
loop_
 _atom_site_type_symbol
 _atom_site_label
 _atom_site_symmetry_multiplicity
 _atom_site_fract_x
 _atom_site_fract_y
 _atom_site_fract_z
 _atom_site_occupancy
  K  K0  1  0.58403416  0.41596584  0.58471642  1.0
  K  K1  1  0.41596584  -0.41596584  0.41528358  1.0
  K  K2  1  0.52079450  0.47920550  0.83406682  1.0
  K  K3  1  0.47920550  -0.47920550  0.16593318  1.0
  Ti  Ti4  1  0.87787321  0.12212679  0.63917471  1.0
  Ti  Ti5  1  0.12212679  -0.12212679  0.36082529  1.0
  Ti  Ti6  1  0.83801965  0.16198035  0.87707021  1.0
  Ti  Ti7  1  0.16198035  -0.16198035  0.12292979  1.0
  Ti  Ti8  1  0.75414890  0.24585110  0.33378064  1.0
  Ti  Ti9  1  0.24585110  -0.24585110  0.66621936  1.0
  Ti  Ti10  1  0.20288946  -0.20288946  0.89551362  1.0
  Ti  Ti11  1  0.79711054  0.20288946  0.10448638  1.0
  O  O12  1  0.12250805  -0.12250805  0.96041232  1.0
  O  O13  1  0.87749195  0.12250805  0.03958768  1.0
  O  O14  1  0.81758462  0.18241538  0.47321275  1.0
  O  O15  1  0.18241538  -0.18241538  0.52678725  1.0
  O  O16  1  0.83797205  0.16202795  0.25773447  1.0
  O  O17  1  0.16202795  -0.16202795  0.74226553  1.0
  O  O18  1  0.96608597  0.03391403  0.62177398  1.0
  O  O19  1  0.03391403  -0.03391403  0.37822602  1.0
  O  O20  1  0.91485087  0.08514913  0.81864881  1.0
  O  O21  1  0.08514913  -0.08514913  0.18135119  1.0
  O  O22  1  0.76679611  0.23320389  0.69993789  1.0
  O  O23  1  0.23320389  -0.23320389  0.30006211  1.0
  O  O24  1  0.72984285  0.27015715  0.92125671  1.0
  O  O25  1  0.27015715  -0.27015715  0.07874329  1.0
  O  O26  1  0.65110197  0.34889803  0.35635654  1.0
  O  O27  1  0.34889803  -0.34889803  0.64364346  1.0
  O  O28  1  0.30818051  -0.30818051  0.85954105  1.0
  O  O29  1  0.69181949  0.30818051  0.14045895  1.0
