# generated using pymatgen
data_Sr3DyRhO6
_symmetry_space_group_name_H-M   'P 1'
_cell_length_a   6.84743866
_cell_length_b   6.84743866
_cell_length_c   6.84743866
_cell_angle_alpha   92.05444655
_cell_angle_beta   92.05444655
_cell_angle_gamma   92.05444655
_symmetry_Int_Tables_number   1
_chemical_formula_structural   Sr3DyRhO6
_chemical_formula_sum   'Sr6 Dy2 Rh2 O12'
_cell_volume   320.42436859
_cell_formula_units_Z   2
loop_
 _symmetry_equiv_pos_site_id
 _symmetry_equiv_pos_as_xyz
  1  'x, y, z'
loop_
 _atom_site_type_symbol
 _atom_site_label
 _atom_site_symmetry_multiplicity
 _atom_site_fract_x
 _atom_site_fract_y
 _atom_site_fract_z
 _atom_site_occupancy
  Sr  Sr0  1  0.88157206  1.25000000  -0.38157206  1.0
  Sr  Sr1  1  1.38157206  0.11842794  -0.25000000  1.0
  Sr  Sr2  1  0.75000000  0.38157206  0.11842794  1.0
  Sr  Sr3  1  1.25000000  0.61842794  -0.11842794  1.0
  Sr  Sr4  1  1.11842794  -0.25000000  0.38157206  1.0
  Sr  Sr5  1  0.61842794  0.88157206  0.25000000  1.0
  Dy  Dy6  1  0.25000000  0.25000000  0.25000000  1.0
  Dy  Dy7  1  0.75000000  0.75000000  0.75000000  1.0
  Rh  Rh8  1  0.50000000  0.50000000  0.50000000  1.0
  Rh  Rh9  1  0.00000000  0.00000000  0.00000000  1.0
  O  O10  1  1.20889275  0.41048663  -0.45514090  1.0
  O  O11  1  0.70889275  1.04485910  -0.08951337  1.0
  O  O12  1  0.95514090  0.08951337  0.29110725  1.0
  O  O13  1  1.45514090  -0.20889275  0.58951337  1.0
  O  O14  1  1.58951337  0.45514090  -0.20889275  1.0
  O  O15  1  1.08951337  0.29110725  -0.04485910  1.0
  O  O16  1  0.79110725  0.58951337  0.45514090  1.0
  O  O17  1  1.29110725  -0.04485910  0.08951337  1.0
  O  O18  1  0.54485910  1.20889275  -0.58951337  1.0
  O  O19  1  1.04485910  0.91048663  -0.29110725  1.0
  O  O20  1  0.91048663  0.70889275  0.04485910  1.0
  O  O21  1  0.41048663  0.54485910  0.20889275  1.0
