# generated using pymatgen
data_Zr7(NO2)4
_symmetry_space_group_name_H-M   'P 1'
_cell_length_a   6.32700875
_cell_length_b   6.22687838
_cell_length_c   6.25121876
_cell_angle_alpha   99.20634711
_cell_angle_beta   99.71952697
_cell_angle_gamma   99.24542788
_symmetry_Int_Tables_number   1
_chemical_formula_structural   Zr7(NO2)4
_chemical_formula_sum   'Zr7 N4 O8'
_cell_volume   235.12032195
_cell_formula_units_Z   1
loop_
 _symmetry_equiv_pos_site_id
 _symmetry_equiv_pos_as_xyz
  1  'x, y, z'
loop_
 _atom_site_type_symbol
 _atom_site_label
 _atom_site_symmetry_multiplicity
 _atom_site_fract_x
 _atom_site_fract_y
 _atom_site_fract_z
 _atom_site_occupancy
  Zr  Zr0  1  0.01275778  0.99550430  0.00870202  1.0
  Zr  Zr1  1  0.31838922  0.13417352  0.59875120  1.0
  Zr  Zr2  1  0.59199093  0.31058811  0.12651104  1.0
  Zr  Zr3  1  0.14354646  0.61529831  0.29155743  1.0
  Zr  Zr4  1  0.70320203  0.85684251  0.38243326  1.0
  Zr  Zr5  1  0.38359778  0.70515030  0.86765077  1.0
  Zr  Zr6  1  0.87099698  0.40069121  0.70084570  1.0
  N  N7  1  0.07109027  0.93779114  0.33777575  1.0
  N  N8  1  0.32387741  0.07479653  0.92202824  1.0
  N  N9  1  0.06382475  0.67158185  0.93076203  1.0
  N  N10  1  0.43501645  0.57967640  0.17792272  1.0
  O  O11  1  0.92322820  0.32317510  0.09641707  1.0
  O  O12  1  0.88376038  0.06915942  0.69118883  1.0
  O  O13  1  0.68174857  0.91025362  0.05897106  1.0
  O  O14  1  0.57305631  0.17224412  0.41071996  1.0
  O  O15  1  0.18211629  0.42396346  0.58143053  1.0
  O  O16  1  0.43206680  0.81726985  0.56881716  1.0
  O  O17  1  0.58132632  0.42687571  0.80760135  1.0
  O  O18  1  0.82450706  0.57483122  0.43964721  1.0
