# generated using pymatgen
data_TlP(HO2)2
_symmetry_space_group_name_H-M   'P 1'
_cell_length_a   9.20825475
_cell_length_b   6.56874016
_cell_length_c   15.37495303
_cell_angle_alpha   91.69915630
_cell_angle_beta   106.37192240
_cell_angle_gamma   89.87874398
_symmetry_Int_Tables_number   1
_chemical_formula_structural   TlP(HO2)2
_chemical_formula_sum   'Tl8 P8 H16 O32'
_cell_volume   891.85932447
_cell_formula_units_Z   8
loop_
 _symmetry_equiv_pos_site_id
 _symmetry_equiv_pos_as_xyz
  1  'x, y, z'
loop_
 _atom_site_type_symbol
 _atom_site_label
 _atom_site_symmetry_multiplicity
 _atom_site_fract_x
 _atom_site_fract_y
 _atom_site_fract_z
 _atom_site_occupancy
  Tl  Tl0  1  0.93478951  0.76911590  -0.13868642  1.0
  Tl  Tl1  1  0.06521049  0.23088410  -0.86131358  1.0
  Tl  Tl2  1  0.45369862  0.73087529  -0.62118338  1.0
  Tl  Tl3  1  0.54630138  0.26912471  -0.37881662  1.0
  Tl  Tl4  1  0.93499279  0.73344220  -0.64676546  1.0
  Tl  Tl5  1  0.06500721  0.26655780  -0.35323454  1.0
  Tl  Tl6  1  0.56201999  0.28133011  -0.86873053  1.0
  Tl  Tl7  1  0.43798001  0.71866989  -0.13126947  1.0
  P  P8  1  0.82427009  0.75740494  -0.87907975  1.0
  P  P9  1  0.17572991  0.24259506  -0.12092025  1.0
  P  P10  1  0.33020531  0.76557169  -0.87610627  1.0
  P  P11  1  0.66979469  0.23442831  -0.12389373  1.0
  P  P12  1  0.79802956  0.74999379  -0.37855848  1.0
  P  P13  1  0.20197044  0.25000621  -0.62144152  1.0
  P  P14  1  0.70059710  0.23063076  -0.62380743  1.0
  P  P15  1  0.29940290  0.76936924  -0.37619257  1.0
  H  H16  1  0.73722988  0.97920586  -0.99328534  1.0
  H  H17  1  0.26277012  0.02079414  -0.00671466  1.0
  H  H18  1  0.76661861  0.98687814  -0.48674841  1.0
  H  H19  1  0.23338139  0.01312186  -0.51325159  1.0
  H  H20  1  0.59672230  0.75845114  -0.32006490  1.0
  H  H21  1  0.40327770  0.24154886  -0.67993510  1.0
  H  H22  1  0.58349933  0.75195042  -0.81622191  1.0
  H  H23  1  0.41650067  0.24804958  -0.18377809  1.0
  H  H24  1  0.12870037  0.74052839  -0.82120009  1.0
  H  H25  1  0.87129963  0.25947161  -0.17879991  1.0
  H  H26  1  0.76866799  0.52079857  -0.99451458  1.0
  H  H27  1  0.23133201  0.47920143  -0.00548542  1.0
  H  H28  1  0.76367262  0.47412716  -0.51194421  1.0
  H  H29  1  0.23632738  0.52587284  -0.48805579  1.0
  H  H30  1  0.90119414  0.23738505  -0.68252511  1.0
  H  H31  1  0.09880586  0.76261495  -0.31747489  1.0
  O  O32  1  0.32911784  0.95889418  -0.42488369  1.0
  O  O33  1  0.67088216  0.04110582  -0.57511631  1.0
  O  O34  1  0.25703814  0.96439116  -0.91682471  1.0
  O  O35  1  0.74296186  0.03560884  -0.08317529  1.0
  O  O36  1  0.72511811  0.94017719  -0.93005483  1.0
  O  O37  1  0.27488189  0.05982281  -0.06994517  1.0
  O  O38  1  0.83732585  0.95157323  -0.42251102  1.0
  O  O39  1  0.16267415  0.04842677  -0.57748898  1.0
  O  O40  1  0.97868677  0.83604657  -0.81980238  1.0
  O  O41  1  0.02131323  0.16395343  -0.18019762  1.0
  O  O42  1  0.70276994  0.82423564  -0.31114391  1.0
  O  O43  1  0.29723006  0.17576436  -0.68885609  1.0
  O  O44  1  0.48883038  0.81502910  -0.80309981  1.0
  O  O45  1  0.51116962  0.18497090  -0.19690019  1.0
  O  O46  1  0.23223358  0.67282357  -0.81585570  1.0
  O  O47  1  0.76776642  0.32717643  -0.18414430  1.0
  O  O48  1  0.73048337  0.65370151  -0.82432691  1.0
  O  O49  1  0.26951663  0.34629849  -0.17567309  1.0
  O  O50  1  0.94875691  0.66590976  -0.32020484  1.0
  O  O51  1  0.05124309  0.33409024  -0.67979516  1.0
  O  O52  1  0.35525855  0.60539029  -0.94490306  1.0
  O  O53  1  0.64474145  0.39460971  -0.05509694  1.0
  O  O54  1  0.85830448  0.60719927  -0.95390711  1.0
  O  O55  1  0.14169552  0.39280073  -0.04609289  1.0
  O  O56  1  0.70081317  0.60307979  -0.45105239  1.0
  O  O57  1  0.29918683  0.39692021  -0.54894761  1.0
  O  O58  1  0.81063627  0.38712813  -0.55493434  1.0
  O  O59  1  0.18936373  0.61287187  -0.44506566  1.0
  O  O60  1  0.55412469  0.33472840  -0.67706160  1.0
  O  O61  1  0.44587531  0.66527160  -0.32293840  1.0
  O  O62  1  0.79659297  0.16730437  -0.69200686  1.0
  O  O63  1  0.20340703  0.83269563  -0.30799314  1.0
