# generated using pymatgen
data_Ca(BC)2
_symmetry_space_group_name_H-M   'P 1'
_cell_length_a   5.30522205
_cell_length_b   5.30522205
_cell_length_c   5.30522205
_cell_angle_alpha   119.31116623
_cell_angle_beta   119.31116623
_cell_angle_gamma   91.19729416
_symmetry_Int_Tables_number   1
_chemical_formula_structural   Ca(BC)2
_chemical_formula_sum   'Ca2 B4 C4'
_cell_volume   106.65751289
_cell_formula_units_Z   2
loop_
 _symmetry_equiv_pos_site_id
 _symmetry_equiv_pos_as_xyz
  1  'x, y, z'
loop_
 _atom_site_type_symbol
 _atom_site_label
 _atom_site_symmetry_multiplicity
 _atom_site_fract_x
 _atom_site_fract_y
 _atom_site_fract_z
 _atom_site_occupancy
  Ca  Ca0  1  0.25000000  0.25000000  -0.00000000  1.0
  Ca  Ca1  1  0.75000000  0.75000000  -0.00000000  1.0
  B  B2  1  0.86108882  0.36108882  1.22217764  1.0
  B  B3  1  0.63891118  0.86108882  0.50000000  1.0
  B  B4  1  0.36108882  0.13891118  0.50000000  1.0
  B  B5  1  1.13891118  0.63891118  0.77782236  1.0
  C  C6  1  0.34063532  0.84063532  1.18127064  1.0
  C  C7  1  0.15936468  0.34063532  0.50000000  1.0
  C  C8  1  0.84063532  0.65936468  0.50000000  1.0
  C  C9  1  0.65936468  1.15936468  0.81872936  1.0
