# generated using pymatgen
data_RbY2Cl7
_symmetry_space_group_name_H-M   'P 1'
_cell_length_a   13.75688667
_cell_length_b   7.00604617
_cell_length_c   12.69398419
_cell_angle_alpha   90.00000000
_cell_angle_beta   90.00000000
_cell_angle_gamma   90.00000000
_symmetry_Int_Tables_number   1
_chemical_formula_structural   RbY2Cl7
_chemical_formula_sum   'Rb4 Y8 Cl28'
_cell_volume   1223.46375428
_cell_formula_units_Z   4
loop_
 _symmetry_equiv_pos_site_id
 _symmetry_equiv_pos_as_xyz
  1  'x, y, z'
loop_
 _atom_site_type_symbol
 _atom_site_label
 _atom_site_symmetry_multiplicity
 _atom_site_fract_x
 _atom_site_fract_y
 _atom_site_fract_z
 _atom_site_occupancy
  Rb  Rb0  1  0.46701942  0.75000000  0.29896325  1.0
  Rb  Rb1  1  0.96701942  0.75000000  0.20103675  1.0
  Rb  Rb2  1  0.53298058  0.25000000  0.70103675  1.0
  Rb  Rb3  1  0.03298058  0.25000000  0.79896325  1.0
  Y  Y4  1  0.25987857  0.75000000  0.95856347  1.0
  Y  Y5  1  0.75987857  0.75000000  0.54143653  1.0
  Y  Y6  1  0.74012143  0.25000000  0.04143653  1.0
  Y  Y7  1  0.24012143  0.25000000  0.45856347  1.0
  Y  Y8  1  0.25282652  0.75000000  0.65545995  1.0
  Y  Y9  1  0.75282652  0.75000000  0.84454005  1.0
  Y  Y10  1  0.74717348  0.25000000  0.34454005  1.0
  Y  Y11  1  0.24717348  0.25000000  0.15545995  1.0
  Cl  Cl12  1  0.37155967  0.98925347  0.07626800  1.0
  Cl  Cl13  1  0.37155967  0.51074653  0.07626800  1.0
  Cl  Cl14  1  0.87155967  0.98925347  0.42373200  1.0
  Cl  Cl15  1  0.87155967  0.51074653  0.42373200  1.0
  Cl  Cl16  1  0.62844033  0.48925347  0.92373200  1.0
  Cl  Cl17  1  0.62844033  0.01074653  0.92373200  1.0
  Cl  Cl18  1  0.12844033  0.48925347  0.57626800  1.0
  Cl  Cl19  1  0.12844033  0.01074653  0.57626800  1.0
  Cl  Cl20  1  0.36700766  0.99014860  0.53836826  1.0
  Cl  Cl21  1  0.36700766  0.50985140  0.53836826  1.0
  Cl  Cl22  1  0.86700766  0.99014860  0.96163174  1.0
  Cl  Cl23  1  0.86700766  0.50985140  0.96163174  1.0
  Cl  Cl24  1  0.63299234  0.49014860  0.46163174  1.0
  Cl  Cl25  1  0.63299234  0.00985140  0.46163174  1.0
  Cl  Cl26  1  0.13299234  0.49014860  0.03836826  1.0
  Cl  Cl27  1  0.13299234  0.00985140  0.03836826  1.0
  Cl  Cl28  1  0.32331255  0.98952213  0.80587148  1.0
  Cl  Cl29  1  0.32331255  0.51047787  0.80587148  1.0
  Cl  Cl30  1  0.82331255  0.98952213  0.69412852  1.0
  Cl  Cl31  1  0.82331255  0.51047787  0.69412852  1.0
  Cl  Cl32  1  0.67668745  0.48952213  0.19412852  1.0
  Cl  Cl33  1  0.67668745  0.01047787  0.19412852  1.0
  Cl  Cl34  1  0.17668745  0.48952213  0.30587148  1.0
  Cl  Cl35  1  0.17668745  0.01047787  0.30587148  1.0
  Cl  Cl36  1  0.11298787  0.75000000  0.80889589  1.0
  Cl  Cl37  1  0.61298787  0.75000000  0.69110411  1.0
  Cl  Cl38  1  0.88701213  0.25000000  0.19110411  1.0
  Cl  Cl39  1  0.38701213  0.25000000  0.30889589  1.0
