# generated using pymatgen
data_Y12Al7Si
_symmetry_space_group_name_H-M   'P 1'
_cell_length_a   11.24549030
_cell_length_b   11.24549030
_cell_length_c   11.24549030
_cell_angle_alpha   117.26221120
_cell_angle_beta   117.26221120
_cell_angle_gamma   94.81123524
_symmetry_Int_Tables_number   1
_chemical_formula_structural   Y12Al7Si
_chemical_formula_sum   'Y24 Al14 Si2'
_cell_volume   1043.22135172
_cell_formula_units_Z   2
loop_
 _symmetry_equiv_pos_site_id
 _symmetry_equiv_pos_as_xyz
  1  'x, y, z'
loop_
 _atom_site_type_symbol
 _atom_site_label
 _atom_site_symmetry_multiplicity
 _atom_site_fract_x
 _atom_site_fract_y
 _atom_site_fract_z
 _atom_site_occupancy
  Y  Y0  1  1.16212800  1.29850820  1.73524694  1.0
  Y  Y1  1  0.43673874  0.57311894  0.73524694  1.0
  Y  Y2  1  1.06326126  1.79850820  1.13638020  1.0
  Y  Y3  1  0.33787200  1.07311894  1.13638020  1.0
  Y  Y4  1  0.79850820  0.66212800  0.73524694  1.0
  Y  Y5  1  1.07311894  0.93673874  0.73524694  1.0
  Y  Y6  1  0.42688106  1.16212800  0.86361980  1.0
  Y  Y7  1  0.70149180  0.43673874  0.86361980  1.0
  Y  Y8  1  0.66212800  0.92688106  0.86361980  1.0
  Y  Y9  1  0.93673874  1.20149180  0.86361980  1.0
  Y  Y10  1  0.56326126  0.42688106  0.26475306  1.0
  Y  Y11  1  0.83787200  0.70149180  1.26475306  1.0
  Y  Y12  1  1.29850820  0.56326126  1.13638020  1.0
  Y  Y13  1  0.57311894  0.83787200  1.13638020  1.0
  Y  Y14  1  0.92688106  1.06326126  0.26475306  1.0
  Y  Y15  1  0.20149180  0.33787200  0.26475306  1.0
  Y  Y16  1  0.82882914  0.32882914  1.15765828  1.0
  Y  Y17  1  0.67117086  0.82882914  0.50000000  1.0
  Y  Y18  1  0.32882914  0.17117086  0.50000000  1.0
  Y  Y19  1  1.17117086  0.67117086  0.84234172  1.0
  Y  Y20  1  0.85301327  0.35301327  0.50000000  1.0
  Y  Y21  1  0.14698673  0.64698673  0.50000000  1.0
  Y  Y22  1  0.35301327  0.85301327  0.50000000  1.0
  Y  Y23  1  0.64698673  0.14698673  0.50000000  1.0
  Al  Al24  1  0.61856352  1.11856352  1.14293721  1.0
  Al  Al25  1  1.02437369  0.52437369  1.14293721  1.0
  Al  Al26  1  0.47562631  0.61856352  0.50000000  1.0
  Al  Al27  1  0.88143648  1.02437369  1.50000000  1.0
  Al  Al28  1  1.11856352  0.97562631  1.50000000  1.0
  Al  Al29  1  0.52437369  0.38143648  0.50000000  1.0
  Al  Al30  1  0.97562631  0.47562631  0.85706279  1.0
  Al  Al31  1  0.38143648  0.88143648  0.85706279  1.0
  Al  Al32  1  0.38091615  0.88091615  1.26183231  1.0
  Al  Al33  1  0.11908385  0.38091615  0.50000000  1.0
  Al  Al34  1  0.88091615  0.61908385  0.50000000  1.0
  Al  Al35  1  0.61908385  1.11908385  0.73816769  1.0
  Al  Al36  1  0.50000000  0.50000000  -0.00000000  1.0
  Al  Al37  1  0.00000000  0.00000000  0.00000000  1.0
  Si  Si38  1  0.25000000  0.25000000  -0.00000000  1.0
  Si  Si39  1  0.75000000  0.75000000  0.00000000  1.0
