# generated using pymatgen
data_KNaTe(HO)6
_symmetry_space_group_name_H-M   'P 1'
_cell_length_a   6.81794288
_cell_length_b   6.81794288
_cell_length_c   8.86973639
_cell_angle_alpha   90.00000000
_cell_angle_beta   90.00000000
_cell_angle_gamma   120.00000000
_symmetry_Int_Tables_number   1
_chemical_formula_structural   KNaTe(HO)6
_chemical_formula_sum   'K2 Na2 Te2 H12 O12'
_cell_volume   357.06564091
_cell_formula_units_Z   2
loop_
 _symmetry_equiv_pos_site_id
 _symmetry_equiv_pos_as_xyz
  1  'x, y, z'
loop_
 _atom_site_type_symbol
 _atom_site_label
 _atom_site_symmetry_multiplicity
 _atom_site_fract_x
 _atom_site_fract_y
 _atom_site_fract_z
 _atom_site_occupancy
  K  K0  1  0.33333333  0.66666667  0.03445434  1.0
  K  K1  1  0.66666667  0.33333333  0.53445434  1.0
  Na  Na2  1  0.33333333  0.66666667  0.46297208  1.0
  Na  Na3  1  0.66666667  0.33333333  0.96297208  1.0
  Te  Te4  1  0.00000000  0.00000000  0.02092638  1.0
  Te  Te5  1  0.00000000  0.00000000  0.52092638  1.0
  H  H6  1  0.65924730  0.60924373  0.23872978  1.0
  H  H7  1  0.60924373  0.65924730  0.73872978  1.0
  H  H8  1  0.94999643  0.34075270  0.23872978  1.0
  H  H9  1  0.39075627  0.05000357  0.23872978  1.0
  H  H10  1  0.34075270  0.94999643  0.73872978  1.0
  H  H11  1  0.05000357  0.39075627  0.73872978  1.0
  H  H12  1  0.42000994  0.38944522  0.24287090  1.0
  H  H13  1  0.38944522  0.42000994  0.74287090  1.0
  H  H14  1  0.96943528  0.57999006  0.24287090  1.0
  H  H15  1  0.61055478  0.03056472  0.24287090  1.0
  H  H16  1  0.57999006  0.96943528  0.74287090  1.0
  H  H17  1  0.03056472  0.61055478  0.74287090  1.0
  O  O18  1  0.47282341  0.99381865  0.30341687  1.0
  O  O19  1  0.99381865  0.47282341  0.80341687  1.0
  O  O20  1  0.52099524  0.52717659  0.30341687  1.0
  O  O21  1  0.00618135  0.47900476  0.30341687  1.0
  O  O22  1  0.52717659  0.52099524  0.80341687  1.0
  O  O23  1  0.47900476  0.00618135  0.80341687  1.0
  O  O24  1  0.87965092  0.70546098  0.11543153  1.0
  O  O25  1  0.70546098  0.87965092  0.61543153  1.0
  O  O26  1  0.82581006  0.12034908  0.11543153  1.0
  O  O27  1  0.29453902  0.17418994  0.11543153  1.0
  O  O28  1  0.12034908  0.82581006  0.61543153  1.0
  O  O29  1  0.17418994  0.29453902  0.61543153  1.0
