# generated using pymatgen
data_C
_symmetry_space_group_name_H-M   'P 1'
_cell_length_a   5.21439001
_cell_length_b   5.21439001
_cell_length_c   5.21439001
_cell_angle_alpha   90.00000000
_cell_angle_beta   90.00000000
_cell_angle_gamma   90.00000000
_symmetry_Int_Tables_number   1
_chemical_formula_structural   C
_chemical_formula_sum   C20
_cell_volume   141.77855052
_cell_formula_units_Z   20
loop_
 _symmetry_equiv_pos_site_id
 _symmetry_equiv_pos_as_xyz
  1  'x, y, z'
loop_
 _atom_site_type_symbol
 _atom_site_label
 _atom_site_symmetry_multiplicity
 _atom_site_fract_x
 _atom_site_fract_y
 _atom_site_fract_z
 _atom_site_occupancy
  C  C0  1  0.50000000  0.15153986  0.84846014  1.0
  C  C1  1  0.15153986  0.15153986  0.50000000  1.0
  C  C2  1  0.15153986  0.50000000  0.84846014  1.0
  C  C3  1  0.50000000  0.84846014  0.15153986  1.0
  C  C4  1  0.15153986  0.84846014  0.50000000  1.0
  C  C5  1  0.15153986  0.50000000  0.15153986  1.0
  C  C6  1  0.50000000  0.15153986  0.15153986  1.0
  C  C7  1  0.84846014  0.15153986  0.50000000  1.0
  C  C8  1  0.84846014  0.50000000  0.15153986  1.0
  C  C9  1  0.50000000  0.84846014  0.84846014  1.0
  C  C10  1  0.84846014  0.84846014  0.50000000  1.0
  C  C11  1  0.84846014  0.50000000  0.84846014  1.0
  C  C12  1  0.26241688  0.26241688  0.73758312  1.0
  C  C13  1  0.26241688  0.73758312  0.26241688  1.0
  C  C14  1  0.73758312  0.26241688  0.26241688  1.0
  C  C15  1  0.73758312  0.73758312  0.73758312  1.0
  C  C16  1  0.73758312  0.73758312  0.26241688  1.0
  C  C17  1  0.73758312  0.26241688  0.73758312  1.0
  C  C18  1  0.26241688  0.73758312  0.73758312  1.0
  C  C19  1  0.26241688  0.26241688  0.26241688  1.0
