# generated using pymatgen
data_CdI2
_symmetry_space_group_name_H-M   'P 1'
_cell_length_a   4.32799447
_cell_length_b   4.32799447
_cell_length_c   60.69127565
_cell_angle_alpha   90.00000000
_cell_angle_beta   90.00000000
_cell_angle_gamma   120.00000000
_symmetry_Int_Tables_number   1
_chemical_formula_structural   CdI2
_chemical_formula_sum   'Cd8 I16'
_cell_volume   984.53303192
_cell_formula_units_Z   8
loop_
 _symmetry_equiv_pos_site_id
 _symmetry_equiv_pos_as_xyz
  1  'x, y, z'
loop_
 _atom_site_type_symbol
 _atom_site_label
 _atom_site_symmetry_multiplicity
 _atom_site_fract_x
 _atom_site_fract_y
 _atom_site_fract_z
 _atom_site_occupancy
  Cd  Cd0  1  0.00000000  0.00000000  0.03122829  1.0
  Cd  Cd1  1  0.00000000  0.00000000  0.28123105  1.0
  Cd  Cd2  1  0.00000000  0.00000000  0.65625352  1.0
  Cd  Cd3  1  0.00000000  0.00000000  0.78121120  1.0
  Cd  Cd4  1  0.66666667  0.33333333  0.15623307  1.0
  Cd  Cd5  1  0.66666667  0.33333333  0.40624851  1.0
  Cd  Cd6  1  0.66666667  0.33333333  0.53121544  1.0
  Cd  Cd7  1  0.33333333  0.66666667  0.90622452  1.0
  I  I8  1  0.00000000  0.00000000  0.18456237  1.0
  I  I9  1  0.00000000  0.00000000  0.43457795  1.0
  I  I10  1  0.00000000  0.00000000  0.55954841  1.0
  I  I11  1  0.00000000  0.00000000  0.87790113  1.0
  I  I12  1  0.66666667  0.33333333  0.05955835  1.0
  I  I13  1  0.66666667  0.33333333  0.30955904  1.0
  I  I14  1  0.66666667  0.33333333  0.68458246  1.0
  I  I15  1  0.66666667  0.33333333  0.80953827  1.0
  I  I16  1  0.66666667  0.33333333  0.93455101  1.0
  I  I17  1  0.33333333  0.66666667  0.00290341  1.0
  I  I18  1  0.33333333  0.66666667  0.12791352  1.0
  I  I19  1  0.33333333  0.66666667  0.25291021  1.0
  I  I20  1  0.33333333  0.66666667  0.37793007  1.0
  I  I21  1  0.33333333  0.66666667  0.50289426  1.0
  I  I22  1  0.33333333  0.66666667  0.62793357  1.0
  I  I23  1  0.33333333  0.66666667  0.75289040  1.0
