# generated using pymatgen
data_Na2Sr(PO3)4
_symmetry_space_group_name_H-M   'P 1'
_cell_length_a   10.00844216
_cell_length_b   10.00844216
_cell_length_c   5.07481022
_cell_angle_alpha   90.00000000
_cell_angle_beta   90.00000000
_cell_angle_gamma   90.00000000
_symmetry_Int_Tables_number   1
_chemical_formula_structural   Na2Sr(PO3)4
_chemical_formula_sum   'Na4 Sr2 P8 O24'
_cell_volume   508.33823100
_cell_formula_units_Z   2
loop_
 _symmetry_equiv_pos_site_id
 _symmetry_equiv_pos_as_xyz
  1  'x, y, z'
loop_
 _atom_site_type_symbol
 _atom_site_label
 _atom_site_symmetry_multiplicity
 _atom_site_fract_x
 _atom_site_fract_y
 _atom_site_fract_z
 _atom_site_occupancy
  Na  Na0  1  0.25000000  0.25000000  0.50000000  1.0
  Na  Na1  1  0.75000000  0.25000000  0.50000000  1.0
  Na  Na2  1  0.25000000  0.75000000  0.50000000  1.0
  Na  Na3  1  0.75000000  0.75000000  0.50000000  1.0
  Sr  Sr4  1  0.50000000  0.50000000  0.50000000  1.0
  Sr  Sr5  1  0.00000000  0.00000000  0.50000000  1.0
  P  P6  1  0.50000000  0.78762393  0.00000000  1.0
  P  P7  1  0.00000000  0.71237607  0.00000000  1.0
  P  P8  1  0.00000000  0.28762393  0.00000000  1.0
  P  P9  1  0.50000000  0.21237607  0.00000000  1.0
  P  P10  1  0.78762393  0.50000000  0.00000000  1.0
  P  P11  1  0.71237607  0.00000000  0.00000000  1.0
  P  P12  1  0.28762393  0.00000000  0.00000000  1.0
  P  P13  1  0.21237607  0.50000000  0.00000000  1.0
  O  O14  1  0.61029237  0.88970763  0.12909671  1.0
  O  O15  1  0.11029237  0.61029237  0.12909671  1.0
  O  O16  1  0.88970763  0.38970763  0.12909671  1.0
  O  O17  1  0.38970763  0.11029237  0.12909671  1.0
  O  O18  1  0.88970763  0.61029237  0.87090329  1.0
  O  O19  1  0.38970763  0.88970763  0.87090329  1.0
  O  O20  1  0.61029237  0.11029237  0.87090329  1.0
  O  O21  1  0.11029237  0.38970763  0.87090329  1.0
  O  O22  1  0.28649971  0.44020186  0.22904526  1.0
  O  O23  1  0.78649971  0.05979814  0.22904526  1.0
  O  O24  1  0.21350029  0.94020186  0.22904526  1.0
  O  O25  1  0.71350029  0.55979814  0.22904526  1.0
  O  O26  1  0.21350029  0.05979814  0.77095474  1.0
  O  O27  1  0.71350029  0.44020186  0.77095474  1.0
  O  O28  1  0.28649971  0.55979814  0.77095474  1.0
  O  O29  1  0.78649971  0.94020186  0.77095474  1.0
  O  O30  1  0.44020186  0.28649971  0.77095474  1.0
  O  O31  1  0.05979814  0.78649971  0.77095474  1.0
  O  O32  1  0.94020186  0.21350029  0.77095474  1.0
  O  O33  1  0.55979814  0.71350029  0.77095474  1.0
  O  O34  1  0.05979814  0.21350029  0.22904526  1.0
  O  O35  1  0.44020186  0.71350029  0.22904526  1.0
  O  O36  1  0.55979814  0.28649971  0.22904526  1.0
  O  O37  1  0.94020186  0.78649971  0.22904526  1.0
