# generated using pymatgen
data_Zn3(InS3)2
_symmetry_space_group_name_H-M   'P 1'
_cell_length_a   3.91068612
_cell_length_b   3.91068612
_cell_length_c   18.44310657
_cell_angle_alpha   90.00000000
_cell_angle_beta   90.00000000
_cell_angle_gamma   120.00000000
_symmetry_Int_Tables_number   1
_chemical_formula_structural   Zn3(InS3)2
_chemical_formula_sum   'Zn3 In2 S6'
_cell_volume   244.27027888
_cell_formula_units_Z   1
loop_
 _symmetry_equiv_pos_site_id
 _symmetry_equiv_pos_as_xyz
  1  'x, y, z'
loop_
 _atom_site_type_symbol
 _atom_site_label
 _atom_site_symmetry_multiplicity
 _atom_site_fract_x
 _atom_site_fract_y
 _atom_site_fract_z
 _atom_site_occupancy
  Zn  Zn0  1  0.00000000  0.00000000  0.20438546  1.0
  Zn  Zn1  1  0.33333333  0.66666667  0.03668645  1.0
  Zn  Zn2  1  0.33333333  0.66666667  0.61323973  1.0
  In  In3  1  0.00000000  0.00000000  0.79728909  1.0
  In  In4  1  0.66666667  0.33333333  0.41027973  1.0
  S  S5  1  0.33333333  0.66666667  0.49014337  1.0
  S  S6  1  0.00000000  0.00000000  0.65939748  1.0
  S  S7  1  0.00000000  0.00000000  0.33851287  1.0
  S  S8  1  0.00000000  0.00000000  -0.00022333  1.0
  S  S9  1  0.33333333  0.66666667  0.85314807  1.0
  S  S10  1  0.33333333  0.66666667  0.17094107  1.0
