# generated using pymatgen
data_CeSiGe
_symmetry_space_group_name_H-M   'P 1'
_cell_length_a   7.96019581
_cell_length_b   7.96019581
_cell_length_c   7.96019581
_cell_angle_alpha   149.80291322
_cell_angle_beta   149.80291322
_cell_angle_gamma   43.23078176
_symmetry_Int_Tables_number   1
_chemical_formula_structural   CeSiGe
_chemical_formula_sum   'Ce2 Si2 Ge2'
_cell_volume   127.26595478
_cell_formula_units_Z   2
loop_
 _symmetry_equiv_pos_site_id
 _symmetry_equiv_pos_as_xyz
  1  'x, y, z'
loop_
 _atom_site_type_symbol
 _atom_site_label
 _atom_site_symmetry_multiplicity
 _atom_site_fract_x
 _atom_site_fract_y
 _atom_site_fract_z
 _atom_site_occupancy
  Ce  Ce0  1  0.58206041  0.58206041  1.00000000  1.0
  Ce  Ce1  1  0.33206041  0.83206041  0.50000000  1.0
  Si  Si2  1  -0.00008468  -0.00008468  -0.00000000  1.0
  Si  Si3  1  0.74991532  0.24991532  0.50000000  1.0
  Ge  Ge4  1  0.16502427  0.16502427  -0.00000000  1.0
  Ge  Ge5  1  0.91502427  0.41502427  0.50000000  1.0
