# generated using pymatgen
data_Y(Fe2Ge)2
_symmetry_space_group_name_H-M   'P 1'
_cell_length_a   7.26152255
_cell_length_b   7.26152255
_cell_length_c   3.85515441
_cell_angle_alpha   90.00000000
_cell_angle_beta   90.00000000
_cell_angle_gamma   90.00000000
_symmetry_Int_Tables_number   1
_chemical_formula_structural   Y(Fe2Ge)2
_chemical_formula_sum   'Y2 Fe8 Ge4'
_cell_volume   203.28117269
_cell_formula_units_Z   2
loop_
 _symmetry_equiv_pos_site_id
 _symmetry_equiv_pos_as_xyz
  1  'x, y, z'
loop_
 _atom_site_type_symbol
 _atom_site_label
 _atom_site_symmetry_multiplicity
 _atom_site_fract_x
 _atom_site_fract_y
 _atom_site_fract_z
 _atom_site_occupancy
  Y  Y0  1  0.50000000  0.50000000  0.50000000  1.0
  Y  Y1  1  0.00000000  0.00000000  0.00000000  1.0
  Fe  Fe2  1  0.35623028  0.09031713  0.50000000  1.0
  Fe  Fe3  1  0.85623028  0.40968288  0.00000000  1.0
  Fe  Fe4  1  0.90968288  0.64376972  0.50000000  1.0
  Fe  Fe5  1  0.40968288  0.85623028  0.00000000  1.0
  Fe  Fe6  1  0.64376972  0.90968288  0.50000000  1.0
  Fe  Fe7  1  0.14376972  0.59031713  0.00000000  1.0
  Fe  Fe8  1  0.09031713  0.35623028  0.50000000  1.0
  Fe  Fe9  1  0.59031713  0.14376972  0.00000000  1.0
  Ge  Ge10  1  0.21566328  0.78433672  0.50000000  1.0
  Ge  Ge11  1  0.71566328  0.71566328  0.00000000  1.0
  Ge  Ge12  1  0.78433672  0.21566328  0.50000000  1.0
  Ge  Ge13  1  0.28433672  0.28433672  0.00000000  1.0
