# generated using pymatgen
data_Ge
_symmetry_space_group_name_H-M   'P 1'
_cell_length_a   4.06253521
_cell_length_b   4.06253521
_cell_length_c   13.33693789
_cell_angle_alpha   90.00000000
_cell_angle_beta   90.00000000
_cell_angle_gamma   120.00000000
_symmetry_Int_Tables_number   1
_chemical_formula_structural   Ge
_chemical_formula_sum   Ge8
_cell_volume   190.62551793
_cell_formula_units_Z   8
loop_
 _symmetry_equiv_pos_site_id
 _symmetry_equiv_pos_as_xyz
  1  'x, y, z'
loop_
 _atom_site_type_symbol
 _atom_site_label
 _atom_site_symmetry_multiplicity
 _atom_site_fract_x
 _atom_site_fract_y
 _atom_site_fract_z
 _atom_site_occupancy
  Ge  Ge0  1  0.33333333  0.66666667  0.15584892  1.0
  Ge  Ge1  1  0.66666667  0.33333333  0.65584892  1.0
  Ge  Ge2  1  0.33333333  0.66666667  0.34415108  1.0
  Ge  Ge3  1  0.66666667  0.33333333  0.84415108  1.0
  Ge  Ge4  1  -0.00000000  -0.00000000  0.90682558  1.0
  Ge  Ge5  1  0.00000000  0.00000000  0.40682558  1.0
  Ge  Ge6  1  0.00000000  0.00000000  0.09317442  1.0
  Ge  Ge7  1  -0.00000000  -0.00000000  0.59317442  1.0
