# generated using pymatgen
data_BaCu9Ge4
_symmetry_space_group_name_H-M   'P 1'
_cell_length_a   8.46500464
_cell_length_b   8.46500464
_cell_length_c   8.46500464
_cell_angle_alpha   120.58998006
_cell_angle_beta   120.58998006
_cell_angle_gamma   88.98112644
_symmetry_Int_Tables_number   1
_chemical_formula_structural   BaCu9Ge4
_chemical_formula_sum   'Ba2 Cu18 Ge8'
_cell_volume   425.01272261
_cell_formula_units_Z   2
loop_
 _symmetry_equiv_pos_site_id
 _symmetry_equiv_pos_as_xyz
  1  'x, y, z'
loop_
 _atom_site_type_symbol
 _atom_site_label
 _atom_site_symmetry_multiplicity
 _atom_site_fract_x
 _atom_site_fract_y
 _atom_site_fract_z
 _atom_site_occupancy
  Ba  Ba0  1  0.75000000  0.75000000  1.00000000  1.0
  Ba  Ba1  1  0.25000000  0.25000000  0.00000000  1.0
  Cu  Cu2  1  0.70535872  1.20535872  1.26646551  1.0
  Cu  Cu3  1  1.06110679  0.56110679  1.26646551  1.0
  Cu  Cu4  1  0.43889321  0.70535872  0.50000000  1.0
  Cu  Cu5  1  0.79464128  1.06110679  1.50000000  1.0
  Cu  Cu6  1  1.20535872  0.93889321  1.50000000  1.0
  Cu  Cu7  1  0.56110679  0.29464128  0.50000000  1.0
  Cu  Cu8  1  0.93889321  0.43889321  0.73353449  1.0
  Cu  Cu9  1  0.29464128  0.79464128  0.73353449  1.0
  Cu  Cu10  1  0.79578455  0.93886849  1.73465304  1.0
  Cu  Cu11  1  0.70421545  0.43886849  1.14308394  1.0
  Cu  Cu12  1  0.43886849  0.29578455  0.73465304  1.0
  Cu  Cu13  1  0.06113151  0.79578455  0.85691606  1.0
  Cu  Cu14  1  0.29578455  0.56113151  0.85691606  1.0
  Cu  Cu15  1  0.20421545  0.06113151  0.26534696  1.0
  Cu  Cu16  1  0.93886849  0.20421545  1.14308394  1.0
  Cu  Cu17  1  0.56113151  0.70421545  1.26534696  1.0
  Cu  Cu18  1  0.50000000  -0.00000000  0.50000000  1.0
  Cu  Cu19  1  0.00000000  0.50000000  0.50000000  1.0
  Ge  Ge20  1  1.20048568  0.70048568  1.14248524  1.0
  Ge  Ge21  1  0.44199956  0.94199956  1.14248524  1.0
  Ge  Ge22  1  1.05800044  1.20048568  1.50000000  1.0
  Ge  Ge23  1  0.29951432  0.44199956  0.50000000  1.0
  Ge  Ge24  1  0.70048568  0.55800044  0.50000000  1.0
  Ge  Ge25  1  0.94199956  0.79951432  1.50000000  1.0
  Ge  Ge26  1  0.55800044  1.05800044  0.85751476  1.0
  Ge  Ge27  1  0.79951432  0.29951432  0.85751476  1.0
