# generated using pymatgen
data_K2HgS(ClO2)2
_symmetry_space_group_name_H-M   'P 1'
_cell_length_a   6.12064626
_cell_length_b   10.66261261
_cell_length_c   7.54252822
_cell_angle_alpha   98.48688819
_cell_angle_beta   114.04364997
_cell_angle_gamma   89.87550668
_symmetry_Int_Tables_number   1
_chemical_formula_structural   K2HgS(ClO2)2
_chemical_formula_sum   'K4 Hg2 S2 Cl4 O8'
_cell_volume   443.69317243
_cell_formula_units_Z   2
loop_
 _symmetry_equiv_pos_site_id
 _symmetry_equiv_pos_as_xyz
  1  'x, y, z'
loop_
 _atom_site_type_symbol
 _atom_site_label
 _atom_site_symmetry_multiplicity
 _atom_site_fract_x
 _atom_site_fract_y
 _atom_site_fract_z
 _atom_site_occupancy
  Hg  Hg0  1  0.34079639  0.94190553  -0.81861028  1.0
  Hg  Hg1  1  0.65920361  0.05809447  -0.18138972  1.0
  S  S2  1  0.30002821  0.70999750  -0.90273334  1.0
  S  S3  1  0.69997179  0.29000250  -0.09726666  1.0
  O  O4  1  0.14044089  0.65898080  -0.81971601  1.0
  O  O5  1  0.85955911  0.34101920  -0.18028399  1.0
  O  O6  1  0.54338042  0.65921477  -0.81769298  1.0
  O  O7  1  0.45661958  0.34078523  -0.18230702  1.0
  O  O8  1  0.19132476  0.67844385  -0.12239551  1.0
  O  O9  1  0.80867524  0.32155615  -0.87760449  1.0
  O  O10  1  0.90089950  0.49918595  -0.49826532  1.0
  O  O11  1  0.09910050  0.50081405  -0.50173468  1.0
  Cl  Cl12  1  0.15945051  0.03829602  -0.18029719  1.0
  Cl  Cl13  1  0.84054949  0.96170398  -0.81970281  1.0
  Cl  Cl14  1  0.43322855  0.15990881  -0.63280986  1.0
  Cl  Cl15  1  0.56677145  0.84009119  -0.36719014  1.0
  K  K16  1  0.00026464  0.78658240  -0.50031832  1.0
  K  K17  1  0.99973536  0.21341760  -0.49968168  1.0
  K  K18  1  0.69152614  0.61304909  -0.11684709  1.0
  K  K19  1  0.30847386  0.38695091  -0.88315291  1.0
