# generated using pymatgen
data_FeH12C2(N5O3)2
_symmetry_space_group_name_H-M   'P 1'
_cell_length_a   7.68822067
_cell_length_b   7.25192334
_cell_length_c   6.38496435
_cell_angle_alpha   67.02396917
_cell_angle_beta   72.69890260
_cell_angle_gamma   75.27695392
_symmetry_Int_Tables_number   1
_chemical_formula_structural   FeH12C2(N5O3)2
_chemical_formula_sum   'Fe1 H12 C2 N10 O6'
_cell_volume   309.03573316
_cell_formula_units_Z   1
loop_
 _symmetry_equiv_pos_site_id
 _symmetry_equiv_pos_as_xyz
  1  'x, y, z'
loop_
 _atom_site_type_symbol
 _atom_site_label
 _atom_site_symmetry_multiplicity
 _atom_site_fract_x
 _atom_site_fract_y
 _atom_site_fract_z
 _atom_site_occupancy
  Fe  Fe0  1  0.00000000  0.00000000  0.00000000  1.0
  H  H1  1  -0.83207888  -0.81099648  -0.82773563  1.0
  H  H2  1  -0.16792112  -0.18900352  -0.17226437  1.0
  H  H3  1  -0.04877000  -0.72558911  -0.76503256  1.0
  H  H4  1  -0.95123000  -0.27441089  -0.23496744  1.0
  H  H5  1  -0.76171090  -0.37874509  -0.52006480  1.0
  H  H6  1  -0.23828910  -0.62125491  -0.47993520  1.0
  H  H7  1  -0.80096978  -0.84473896  -0.40546726  1.0
  H  H8  1  -0.19903022  -0.15526104  -0.59453274  1.0
  H  H9  1  -0.88893404  -0.65321537  -0.32385493  1.0
  H  H10  1  -0.11106596  -0.34678463  -0.67614507  1.0
  H  H11  1  -0.69625728  -0.51639636  -0.28076439  1.0
  H  H12  1  -0.30374272  -0.48360364  -0.71923561  1.0
  C  C13  1  -0.43850129  -0.87792056  -0.80165543  1.0
  C  C14  1  -0.56149871  -0.12207944  -0.19834457  1.0
  N  N15  1  -0.28553891  -0.85149214  -0.97951100  1.0
  N  N16  1  -0.71446109  -0.14850786  -0.02048900  1.0
  N  N17  1  -0.47083340  -0.31905339  -0.89002780  1.0
  N  N18  1  -0.52916660  -0.68094661  -0.10997220  1.0
  N  N19  1  -0.59131464  -0.77299669  -0.88295042  1.0
  N  N20  1  -0.40868536  -0.22700331  -0.11704958  1.0
  N  N21  1  -0.65216943  -0.27345019  -0.83104828  1.0
  N  N22  1  -0.34783057  -0.72654981  -0.16895172  1.0
  N  N23  1  -0.42366564  -0.99695723  -0.57809319  1.0
  N  N24  1  -0.57633436  -0.00304277  -0.42190681  1.0
  O  O25  1  -0.95641752  -0.82610752  -0.82951737  1.0
  O  O26  1  -0.04358248  -0.17389248  -0.17048263  1.0
  O  O27  1  -0.80657665  -0.44769882  -0.34943655  1.0
  O  O28  1  -0.19342335  -0.55230118  -0.65056345  1.0
  O  O29  1  -0.91826228  -0.78090967  -0.32343871  1.0
  O  O30  1  -0.08173772  -0.21909033  -0.67656129  1.0
