# generated using pymatgen
data_MoBr2
_symmetry_space_group_name_H-M   'P 1'
_cell_length_a   10.14726979
_cell_length_b   10.14726979
_cell_length_c   12.09432929
_cell_angle_alpha   90.00000000
_cell_angle_beta   90.00000000
_cell_angle_gamma   73.16056118
_symmetry_Int_Tables_number   1
_chemical_formula_structural   MoBr2
_chemical_formula_sum   'Mo12 Br24'
_cell_volume   1191.91899171
_cell_formula_units_Z   12
loop_
 _symmetry_equiv_pos_site_id
 _symmetry_equiv_pos_as_xyz
  1  'x, y, z'
loop_
 _atom_site_type_symbol
 _atom_site_label
 _atom_site_symmetry_multiplicity
 _atom_site_fract_x
 _atom_site_fract_y
 _atom_site_fract_z
 _atom_site_occupancy
  Mo  Mo0  1  -0.36312015  1.36312015  0.42927724  1.0
  Mo  Mo1  1  0.13687985  0.86312015  0.07072276  1.0
  Mo  Mo2  1  0.36312015  0.63687985  0.57072276  1.0
  Mo  Mo3  1  -0.13687985  1.13687985  0.92927724  1.0
  Mo  Mo4  1  -0.07077245  1.07077245  0.13687027  1.0
  Mo  Mo5  1  0.42922755  0.57077245  0.36312973  1.0
  Mo  Mo6  1  0.07077245  0.92922755  0.86312973  1.0
  Mo  Mo7  1  -0.42922755  1.42922755  0.63687027  1.0
  Mo  Mo8  1  0.38501840  1.38501840  0.50000000  1.0
  Mo  Mo9  1  -0.11498160  0.88501840  -0.00000000  1.0
  Mo  Mo10  1  -0.38501840  0.61498160  0.50000000  1.0
  Mo  Mo11  1  0.11498160  1.11498160  0.00000000  1.0
  Br  Br12  1  0.45301498  1.32045636  0.29311621  1.0
  Br  Br13  1  -0.04698502  0.82045636  0.20688379  1.0
  Br  Br14  1  0.32045636  1.45301498  0.70688379  1.0
  Br  Br15  1  -0.17954364  0.95301498  0.79311621  1.0
  Br  Br16  1  -0.32045636  0.54698502  0.29311621  1.0
  Br  Br17  1  0.17954364  1.04698502  0.20688379  1.0
  Br  Br18  1  -0.45301498  0.67954364  0.70688379  1.0
  Br  Br19  1  0.04698502  1.17954364  0.79311621  1.0
  Br  Br20  1  0.40646693  0.82014576  0.43373193  1.0
  Br  Br21  1  -0.09353307  1.32014576  0.06626807  1.0
  Br  Br22  1  -0.17985424  1.40646693  0.56626807  1.0
  Br  Br23  1  0.32014576  0.90646693  0.93373193  1.0
  Br  Br24  1  0.17985424  0.59353307  0.43373193  1.0
  Br  Br25  1  -0.32014576  1.09353307  0.06626807  1.0
  Br  Br26  1  -0.40646693  1.17985424  0.56626807  1.0
  Br  Br27  1  0.09353307  0.67985424  0.93373193  1.0
  Br  Br28  1  -0.15785134  1.15785134  0.34216679  1.0
  Br  Br29  1  0.34214866  0.65785134  0.15783321  1.0
  Br  Br30  1  0.15785134  0.84214866  0.65783321  1.0
  Br  Br31  1  -0.34214866  1.34214866  0.84216679  1.0
  Br  Br32  1  0.22711410  1.22711410  0.50000000  1.0
  Br  Br33  1  -0.27288590  0.72711410  0.00000000  1.0
  Br  Br34  1  -0.22711410  0.77288590  0.50000000  1.0
  Br  Br35  1  0.27288590  1.27288590  -0.00000000  1.0
