# generated using pymatgen
data_C2SeN2
_symmetry_space_group_name_H-M   'P 1'
_cell_length_a   7.33411920
_cell_length_b   15.25972043
_cell_length_c   8.87541819
_cell_angle_alpha   90.00000000
_cell_angle_beta   90.00000000
_cell_angle_gamma   90.00000000
_symmetry_Int_Tables_number   1
_chemical_formula_structural   C2SeN2
_chemical_formula_sum   'C16 Se8 N16'
_cell_volume   993.30670382
_cell_formula_units_Z   8
loop_
 _symmetry_equiv_pos_site_id
 _symmetry_equiv_pos_as_xyz
  1  'x, y, z'
loop_
 _atom_site_type_symbol
 _atom_site_label
 _atom_site_symmetry_multiplicity
 _atom_site_fract_x
 _atom_site_fract_y
 _atom_site_fract_z
 _atom_site_occupancy
  C  C0  1  0.17098860  0.12425373  0.34960973  1.0
  C  C1  1  0.17098860  0.37574627  0.84960973  1.0
  C  C2  1  0.67098860  0.12425373  0.15039027  1.0
  C  C3  1  0.67098860  0.37574627  0.65039027  1.0
  C  C4  1  0.82901140  0.62425373  0.15039027  1.0
  C  C5  1  0.82901140  0.87574627  0.65039027  1.0
  C  C6  1  0.32901140  0.62425373  0.34960973  1.0
  C  C7  1  0.32901140  0.87574627  0.84960973  1.0
  C  C8  1  0.16918379  0.37663616  0.14932359  1.0
  C  C9  1  0.16918379  0.12336384  0.64932359  1.0
  C  C10  1  0.66918379  0.37663616  0.35067641  1.0
  C  C11  1  0.66918379  0.12336384  0.85067641  1.0
  C  C12  1  0.83081621  0.87663616  0.35067641  1.0
  C  C13  1  0.83081621  0.62336384  0.85067641  1.0
  C  C14  1  0.33081621  0.87663616  0.14932359  1.0
  C  C15  1  0.33081621  0.62336384  0.64932359  1.0
  Se  Se16  1  0.35040752  0.37607655  0.00021643  1.0
  Se  Se17  1  0.35040752  0.12392345  0.50021643  1.0
  Se  Se18  1  0.85040752  0.37607655  0.49978357  1.0
  Se  Se19  1  0.85040752  0.12392345  0.99978357  1.0
  Se  Se20  1  0.64959248  0.87607655  0.49978357  1.0
  Se  Se21  1  0.64959248  0.62392345  0.99978357  1.0
  Se  Se22  1  0.14959248  0.87607655  0.00021643  1.0
  Se  Se23  1  0.14959248  0.62392345  0.50021643  1.0
  N  N24  1  0.56109459  0.37707900  0.25447252  1.0
  N  N25  1  0.56109459  0.12292100  0.75447252  1.0
  N  N26  1  1.06109459  0.37707900  0.24552748  1.0
  N  N27  1  1.06109459  0.12292100  0.74552748  1.0
  N  N28  1  0.43890541  0.87707900  0.24552748  1.0
  N  N29  1  0.43890541  0.62292100  0.74552748  1.0
  N  N30  1  -0.06109459  0.87707900  0.25447252  1.0
  N  N31  1  -0.06109459  0.62292100  0.75447252  1.0
  N  N32  1  0.06402519  0.12436538  0.25254619  1.0
  N  N33  1  0.06402519  0.37563462  0.75254619  1.0
  N  N34  1  0.56402519  0.12436538  0.24745381  1.0
  N  N35  1  0.56402519  0.37563462  0.74745381  1.0
  N  N36  1  0.93597481  0.62436538  0.24745381  1.0
  N  N37  1  0.93597481  0.87563462  0.74745381  1.0
  N  N38  1  0.43597481  0.62436538  0.25254619  1.0
  N  N39  1  0.43597481  0.87563462  0.75254619  1.0
