# generated using pymatgen
data_La3SiAgS7
_symmetry_space_group_name_H-M   'P 1'
_cell_length_a   10.50301336
_cell_length_b   10.50301336
_cell_length_c   5.83993137
_cell_angle_alpha   90.00000000
_cell_angle_beta   90.00000000
_cell_angle_gamma   120.00000000
_symmetry_Int_Tables_number   1
_chemical_formula_structural   La3SiAgS7
_chemical_formula_sum   'La6 Si2 Ag2 S14'
_cell_volume   557.91265279
_cell_formula_units_Z   2
loop_
 _symmetry_equiv_pos_site_id
 _symmetry_equiv_pos_as_xyz
  1  'x, y, z'
loop_
 _atom_site_type_symbol
 _atom_site_label
 _atom_site_symmetry_multiplicity
 _atom_site_fract_x
 _atom_site_fract_y
 _atom_site_fract_z
 _atom_site_occupancy
  La  La0  1  0.23824825  0.87900577  0.02779955  1.0
  La  La1  1  0.87900577  0.64075752  0.52779955  1.0
  La  La2  1  0.64075752  0.76175175  0.02779955  1.0
  La  La3  1  0.12099423  0.35924248  0.02779955  1.0
  La  La4  1  0.76175175  0.12099423  0.52779955  1.0
  La  La5  1  0.35924248  0.23824825  0.52779955  1.0
  Si  Si6  1  0.33333333  0.66666667  0.61557553  1.0
  Si  Si7  1  0.66666667  0.33333333  0.11557553  1.0
  Ag  Ag8  1  -0.00000000  -0.00000000  -0.00807198  1.0
  Ag  Ag9  1  -0.00000000  -0.00000000  0.49192802  1.0
  S  S10  1  0.91277490  0.73536329  0.01577998  1.0
  S  S11  1  0.73536329  0.82258838  0.51577998  1.0
  S  S12  1  0.82258838  0.08722510  0.01577998  1.0
  S  S13  1  0.26463671  0.17741162  0.01577998  1.0
  S  S14  1  0.08722510  0.26463671  0.51577998  1.0
  S  S15  1  0.17741162  0.91277490  0.51577998  1.0
  S  S16  1  0.59362578  0.47494143  0.25892071  1.0
  S  S17  1  0.47494143  0.88131565  0.75892071  1.0
  S  S18  1  0.88131565  0.40637422  0.25892071  1.0
  S  S19  1  0.52505857  0.11868435  0.25892071  1.0
  S  S20  1  0.40637422  0.52505857  0.75892071  1.0
  S  S21  1  0.11868435  0.59362578  0.75892071  1.0
  S  S22  1  0.33333333  0.66666667  0.25299574  1.0
  S  S23  1  0.66666667  0.33333333  0.75299574  1.0
