# generated using pymatgen
data_Sr(AsPt)2
_symmetry_space_group_name_H-M   'P 1'
_cell_length_a   4.51771034
_cell_length_b   4.51771034
_cell_length_c   10.06727378
_cell_angle_alpha   90.00000000
_cell_angle_beta   90.00000000
_cell_angle_gamma   90.00000000
_symmetry_Int_Tables_number   1
_chemical_formula_structural   Sr(AsPt)2
_chemical_formula_sum   'Sr2 As4 Pt4'
_cell_volume   205.47010516
_cell_formula_units_Z   2
loop_
 _symmetry_equiv_pos_site_id
 _symmetry_equiv_pos_as_xyz
  1  'x, y, z'
loop_
 _atom_site_type_symbol
 _atom_site_label
 _atom_site_symmetry_multiplicity
 _atom_site_fract_x
 _atom_site_fract_y
 _atom_site_fract_z
 _atom_site_occupancy
  Sr  Sr0  1  0.00000000  0.50000000  0.25000303  1.0
  Sr  Sr1  1  0.50000000  0.00000000  0.74999697  1.0
  As  As2  1  0.00000000  0.50000000  0.87037561  1.0
  As  As3  1  0.50000000  0.00000000  0.12962439  1.0
  As  As4  1  0.50000000  0.50000000  0.50000000  1.0
  As  As5  1  0.00000000  0.00000000  0.50000000  1.0
  Pt  Pt6  1  0.50000000  0.50000000  0.00000000  1.0
  Pt  Pt7  1  0.00000000  0.00000000  0.00000000  1.0
  Pt  Pt8  1  0.00000000  0.50000000  0.62045834  1.0
  Pt  Pt9  1  0.50000000  0.00000000  0.37954166  1.0
