# generated using pymatgen
data_SiBH3CNCl3
_symmetry_space_group_name_H-M   'P 1'
_cell_length_a   11.32381285
_cell_length_b   11.32381285
_cell_length_c   11.32381285
_cell_angle_alpha   105.10340286
_cell_angle_beta   105.10340286
_cell_angle_gamma   105.10340286
_symmetry_Int_Tables_number   1
_chemical_formula_structural   SiBH3CNCl3
_chemical_formula_sum   'Si6 B6 H18 C6 N6 Cl18'
_cell_volume   1266.64199183
_cell_formula_units_Z   6
loop_
 _symmetry_equiv_pos_site_id
 _symmetry_equiv_pos_as_xyz
  1  'x, y, z'
loop_
 _atom_site_type_symbol
 _atom_site_label
 _atom_site_symmetry_multiplicity
 _atom_site_fract_x
 _atom_site_fract_y
 _atom_site_fract_z
 _atom_site_occupancy
  Si  Si0  1  1.11402010  0.53478901  -0.64407381  1.0
  Si  Si1  1  0.53478901  0.35592619  0.11402010  1.0
  Si  Si2  1  0.35592619  1.11402010  -0.46521099  1.0
  Si  Si3  1  0.61402010  0.85592619  0.03478901  1.0
  Si  Si4  1  0.85592619  1.03478901  -0.38597990  1.0
  Si  Si5  1  1.03478901  0.61402010  -0.14407381  1.0
  B  B6  1  1.12625671  0.28837478  -0.78683261  1.0
  B  B7  1  0.28837478  0.21316739  0.12625671  1.0
  B  B8  1  0.21316739  1.12625671  -0.71162522  1.0
  B  B9  1  1.62625671  0.71316739  -0.21162522  1.0
  B  B10  1  0.71316739  0.78837478  0.62625671  1.0
  B  B11  1  0.78837478  1.62625671  -0.28683261  1.0
  H  H12  1  1.07873791  0.20341766  -0.65192407  1.0
  H  H13  1  1.20341766  -0.65192407  0.07873791  1.0
  H  H14  1  0.34807593  0.07873791  0.20341766  1.0
  H  H15  1  1.57873791  -0.15192407  0.70341766  1.0
  H  H16  1  0.84807593  0.70341766  0.57873791  1.0
  H  H17  1  1.70341766  0.57873791  -0.15192407  1.0
  H  H18  1  1.01074715  0.39973442  0.12912701  1.0
  H  H19  1  1.39973442  0.12912701  0.01074715  1.0
  H  H20  1  1.12912701  0.01074715  0.39973442  1.0
  H  H21  1  1.51074715  0.62912701  -0.10026558  1.0
  H  H22  1  1.62912701  -0.10026558  0.51074715  1.0
  H  H23  1  0.89973442  0.51074715  0.62912701  1.0
  H  H24  1  0.94516828  0.32596583  0.22930665  1.0
  H  H25  1  1.32596583  0.22930665  -0.05483172  1.0
  H  H26  1  1.22930665  -0.05483172  0.32596583  1.0
  H  H27  1  1.44516828  0.72930665  -0.17403417  1.0
  H  H28  1  0.72930665  0.82596583  0.44516828  1.0
  H  H29  1  0.82596583  1.44516828  -0.27069335  1.0
  C  C30  1  1.03718915  0.37601884  -0.78139283  1.0
  C  C31  1  0.37601884  0.21860717  0.03718915  1.0
  C  C32  1  0.21860717  1.03718915  -0.62398116  1.0
  C  C33  1  1.53718915  0.71860717  -0.12398116  1.0
  C  C34  1  0.71860717  0.87601884  0.53718915  1.0
  C  C35  1  0.87601884  1.53718915  -0.28139283  1.0
  N  N36  1  1.13278981  0.20535685  -0.71070206  1.0
  N  N37  1  1.20535685  -0.71070206  0.13278981  1.0
  N  N38  1  0.28929794  0.13278981  0.20535685  1.0
  N  N39  1  1.63278981  -0.21070206  0.70535685  1.0
  N  N40  1  0.78929794  0.70535685  0.63278981  1.0
  N  N41  1  1.70535685  0.63278981  -0.21070206  1.0
  Cl  Cl42  1  0.99152774  0.64190293  -0.64315555  1.0
  Cl  Cl43  1  0.64190293  0.35684445  -0.00847226  1.0
  Cl  Cl44  1  0.35684445  0.99152774  -0.35809707  1.0
  Cl  Cl45  1  1.49152774  -0.14315555  0.14190293  1.0
  Cl  Cl46  1  0.85684445  0.14190293  0.49152774  1.0
  Cl  Cl47  1  1.14190293  0.49152774  -0.14315555  1.0
  Cl  Cl48  1  1.28390878  -0.35194370  0.34701137  1.0
  Cl  Cl49  1  0.64805630  0.34701137  0.28390878  1.0
  Cl  Cl50  1  1.34701137  0.28390878  -0.35194370  1.0
  Cl  Cl51  1  0.78390878  0.84701137  0.14805630  1.0
  Cl  Cl52  1  0.84701137  1.14805630  -0.21609122  1.0
  Cl  Cl53  1  1.14805630  0.78390878  -0.15298863  1.0
  Cl  Cl54  1  1.15899312  0.50871251  -0.46644199  1.0
  Cl  Cl55  1  0.50871251  0.53355801  0.15899312  1.0
  Cl  Cl56  1  0.53355801  1.15899312  -0.49128749  1.0
  Cl  Cl57  1  0.65899312  0.03355801  0.00871251  1.0
  Cl  Cl58  1  1.03355801  0.00871251  -0.34100688  1.0
  Cl  Cl59  1  1.00871251  -0.34100688  0.03355801  1.0
