# generated using pymatgen
data_NaAlSiO4
_symmetry_space_group_name_H-M   'P 1'
_cell_length_a   7.42755874
_cell_length_b   7.42755874
_cell_length_c   7.42755874
_cell_angle_alpha   90.00000000
_cell_angle_beta   90.00000000
_cell_angle_gamma   90.00000000
_symmetry_Int_Tables_number   1
_chemical_formula_structural   NaAlSiO4
_chemical_formula_sum   'Na4 Al4 Si4 O16'
_cell_volume   409.76823102
_cell_formula_units_Z   4
loop_
 _symmetry_equiv_pos_site_id
 _symmetry_equiv_pos_as_xyz
  1  'x, y, z'
loop_
 _atom_site_type_symbol
 _atom_site_label
 _atom_site_symmetry_multiplicity
 _atom_site_fract_x
 _atom_site_fract_y
 _atom_site_fract_z
 _atom_site_occupancy
  Na  Na0  1  0.72872106  0.22872106  0.27127894  1.0
  Na  Na1  1  0.22872106  0.27127894  0.72872106  1.0
  Na  Na2  1  0.27127894  0.72872106  0.22872106  1.0
  Na  Na3  1  0.77127894  0.77127894  0.77127894  1.0
  Al  Al4  1  0.21698245  0.71698245  0.78301755  1.0
  Al  Al5  1  0.71698245  0.78301755  0.21698245  1.0
  Al  Al6  1  0.78301755  0.21698245  0.71698245  1.0
  Al  Al7  1  0.28301755  0.28301755  0.28301755  1.0
  Si  Si8  1  0.47798475  -0.02201525  0.52201525  1.0
  Si  Si9  1  -0.02201525  0.52201525  0.47798475  1.0
  Si  Si10  1  0.52201525  0.47798475  -0.02201525  1.0
  Si  Si11  1  0.02201525  0.02201525  0.02201525  1.0
  O  O12  1  0.33554411  0.52968223  0.87102679  1.0
  O  O13  1  0.83554411  0.97031777  0.12897321  1.0
  O  O14  1  0.02968223  0.62897321  0.66445589  1.0
  O  O15  1  0.52968223  0.87102679  0.33554411  1.0
  O  O16  1  0.12897321  0.83554411  0.97031777  1.0
  O  O17  1  0.62897321  0.66445589  0.02968223  1.0
  O  O18  1  0.66445589  0.02968223  0.62897321  1.0
  O  O19  1  0.16445589  0.47031777  0.37102679  1.0
  O  O20  1  0.97031777  0.12897321  0.83554411  1.0
  O  O21  1  0.47031777  0.37102679  0.16445589  1.0
  O  O22  1  0.87102679  0.33554411  0.52968223  1.0
  O  O23  1  0.37102679  0.16445589  0.47031777  1.0
  O  O24  1  0.35228391  0.85228391  0.64771609  1.0
  O  O25  1  0.85228391  0.64771609  0.35228391  1.0
  O  O26  1  0.64771609  0.35228391  0.85228391  1.0
  O  O27  1  0.14771609  0.14771609  0.14771609  1.0
