# generated using pymatgen
data_RbTiP2O7
_symmetry_space_group_name_H-M   'P 1'
_cell_length_a   7.68671078
_cell_length_b   10.43742634
_cell_length_c   8.37264460
_cell_angle_alpha   90.00000000
_cell_angle_beta   105.90650302
_cell_angle_gamma   90.00000000
_symmetry_Int_Tables_number   1
_chemical_formula_structural   RbTiP2O7
_chemical_formula_sum   'Rb4 Ti4 P8 O28'
_cell_volume   646.01238964
_cell_formula_units_Z   4
loop_
 _symmetry_equiv_pos_site_id
 _symmetry_equiv_pos_as_xyz
  1  'x, y, z'
loop_
 _atom_site_type_symbol
 _atom_site_label
 _atom_site_symmetry_multiplicity
 _atom_site_fract_x
 _atom_site_fract_y
 _atom_site_fract_z
 _atom_site_occupancy
  Rb  Rb0  1  0.81098951  0.81762222  0.44377548  1.0
  Rb  Rb1  1  0.81098951  0.68237778  0.94377548  1.0
  Rb  Rb2  1  0.18901049  0.31762222  0.05622452  1.0
  Rb  Rb3  1  0.18901049  0.18237778  0.55622452  1.0
  Ti  Ti4  1  0.76194852  0.39822948  0.24139780  1.0
  Ti  Ti5  1  0.76194852  0.10177052  0.74139780  1.0
  Ti  Ti6  1  0.23805148  0.89822948  0.25860220  1.0
  Ti  Ti7  1  0.23805148  0.60177052  0.75860220  1.0
  P  P8  1  0.86886541  0.09770415  0.17181587  1.0
  P  P9  1  0.86886541  0.40229585  0.67181587  1.0
  P  P10  1  0.13113459  0.59770415  0.32818413  1.0
  P  P11  1  0.13113459  0.90229585  0.82818413  1.0
  P  P12  1  0.56476037  0.13412811  0.31370874  1.0
  P  P13  1  0.56476037  0.36587189  0.81370874  1.0
  P  P14  1  0.43523963  0.63412811  0.18629126  1.0
  P  P15  1  0.43523963  0.86587189  0.68629126  1.0
  O  O16  1  -0.00393125  0.49965858  0.22870969  1.0
  O  O17  1  -0.00393125  0.00034142  0.72870969  1.0
  O  O18  1  0.00393125  0.99965858  0.27129031  1.0
  O  O19  1  0.00393125  0.50034142  0.77129031  1.0
  O  O20  1  0.91639084  0.23426590  0.23966580  1.0
  O  O21  1  0.91639084  0.26573410  0.73966580  1.0
  O  O22  1  0.08360916  0.73426590  0.26033420  1.0
  O  O23  1  0.08360916  0.76573410  0.76033420  1.0
  O  O24  1  0.84610407  0.41020986  0.48477096  1.0
  O  O25  1  0.84610407  0.08979014  0.98477096  1.0
  O  O26  1  0.15389593  0.91020986  0.01522904  1.0
  O  O27  1  0.15389593  0.58979014  0.51522904  1.0
  O  O28  1  0.67629030  0.10761466  0.49388889  1.0
  O  O29  1  0.67629030  0.39238534  0.99388889  1.0
  O  O30  1  0.32370970  0.60761466  0.00611111  1.0
  O  O31  1  0.32370970  0.89238534  0.50611111  1.0
  O  O32  1  0.67257100  0.05832098  0.19773439  1.0
  O  O33  1  0.67257100  0.44167902  0.69773439  1.0
  O  O34  1  0.32742900  0.55832098  0.30226561  1.0
  O  O35  1  0.32742900  0.94167902  0.80226561  1.0
  O  O36  1  0.55488521  0.27680833  0.26623400  1.0
  O  O37  1  0.55488521  0.22319167  0.76623400  1.0
  O  O38  1  0.44511479  0.77680833  0.23376600  1.0
  O  O39  1  0.44511479  0.72319167  0.73376600  1.0
  O  O40  1  0.37539472  0.07527916  0.27095240  1.0
  O  O41  1  0.37539472  0.42472084  0.77095240  1.0
  O  O42  1  0.62460528  0.57527916  0.22904760  1.0
  O  O43  1  0.62460528  0.92472084  0.72904760  1.0
