# generated using pymatgen
data_Ba2LiSi3
_symmetry_space_group_name_H-M   'P 1'
_cell_length_a   12.37057384
_cell_length_b   10.69254042
_cell_length_c   8.77313742
_cell_angle_alpha   78.23091913
_cell_angle_beta   57.79880509
_cell_angle_gamma   43.97027579
_symmetry_Int_Tables_number   1
_chemical_formula_structural   Ba2LiSi3
_chemical_formula_sum   'Ba8 Li4 Si12'
_cell_volume   649.13141098
_cell_formula_units_Z   4
loop_
 _symmetry_equiv_pos_site_id
 _symmetry_equiv_pos_as_xyz
  1  'x, y, z'
loop_
 _atom_site_type_symbol
 _atom_site_label
 _atom_site_symmetry_multiplicity
 _atom_site_fract_x
 _atom_site_fract_y
 _atom_site_fract_z
 _atom_site_occupancy
  Ba  Ba0  1  0.37503083  1.37503083  -0.37503083  1.0
  Ba  Ba1  1  0.62496917  0.62496917  -0.62496917  1.0
  Ba  Ba2  1  0.87496917  0.87496917  0.62503083  1.0
  Ba  Ba3  1  0.62503083  -0.37496917  0.87496917  1.0
  Ba  Ba4  1  0.12426028  0.12426028  -0.12426028  1.0
  Ba  Ba5  1  0.87573972  0.87573972  -0.87573972  1.0
  Ba  Ba6  1  1.12573972  0.12573972  0.37426028  1.0
  Ba  Ba7  1  1.37426028  0.37426028  0.12573972  1.0
  Li  Li8  1  0.16761845  -0.16761845  1.16761845  1.0
  Li  Li9  1  0.83238155  -0.83238155  0.83238155  1.0
  Li  Li10  1  0.08238155  1.41761845  0.08238155  1.0
  Li  Li11  1  1.41761845  0.08238155  0.41761845  1.0
  Si  Si12  1  0.34186081  -0.34186081  1.34186081  1.0
  Si  Si13  1  0.65813919  -0.65813919  0.65813919  1.0
  Si  Si14  1  0.90813919  0.59186081  0.90813919  1.0
  Si  Si15  1  0.59186081  0.90813919  -0.40813919  1.0
  Si  Si16  1  1.65454063  0.33806427  0.18782073  1.0
  Si  Si17  1  -0.18042564  0.18782073  0.33806427  1.0
  Si  Si18  1  0.18782073  -0.18042564  1.65454063  1.0
  Si  Si19  1  0.33806427  1.65454063  -0.18042564  1.0
  Si  Si20  1  0.59545937  0.91193573  1.06217927  1.0
  Si  Si21  1  0.43042564  1.06217927  0.91193573  1.0
  Si  Si22  1  1.06217927  0.43042564  0.59545937  1.0
  Si  Si23  1  0.91193573  0.59545937  0.43042564  1.0
