# generated using pymatgen
data_Na5As4
_symmetry_space_group_name_H-M   'P 1'
_cell_length_a   5.76583315
_cell_length_b   5.76583315
_cell_length_c   9.65592036
_cell_angle_alpha   71.54410450
_cell_angle_beta   108.45589550
_cell_angle_gamma   132.20817680
_symmetry_Int_Tables_number   1
_chemical_formula_structural   Na5As4
_chemical_formula_sum   'Na5 As4'
_cell_volume   223.06591535
_cell_formula_units_Z   1
loop_
 _symmetry_equiv_pos_site_id
 _symmetry_equiv_pos_as_xyz
  1  'x, y, z'
loop_
 _atom_site_type_symbol
 _atom_site_label
 _atom_site_symmetry_multiplicity
 _atom_site_fract_x
 _atom_site_fract_y
 _atom_site_fract_z
 _atom_site_occupancy
  Na  Na0  1  0.90014088  -0.90014088  0.61385688  1.0
  Na  Na1  1  0.09985912  -0.09985912  0.38614312  1.0
  Na  Na2  1  0.24517812  -0.24517812  0.83716164  1.0
  Na  Na3  1  0.75482188  -0.75482188  0.16283836  1.0
  Na  Na4  1  0.00000000  0.00000000  0.00000000  1.0
  As  As5  1  0.54385938  0.45614062  0.82962676  1.0
  As  As6  1  1.45614062  -0.45614062  0.17037324  1.0
  As  As7  1  0.60689478  0.39310522  0.60732065  1.0
  As  As8  1  1.39310522  -0.39310522  0.39267935  1.0
