# generated using pymatgen
data_Cs2CdBr4
_symmetry_space_group_name_H-M   'P 1'
_cell_length_a   10.84204288
_cell_length_b   8.02198903
_cell_length_c   20.51827137
_cell_angle_alpha   90.00000000
_cell_angle_beta   134.81121568
_cell_angle_gamma   90.00000000
_symmetry_Int_Tables_number   1
_chemical_formula_structural   Cs2CdBr4
_chemical_formula_sum   'Cs8 Cd4 Br16'
_cell_volume   1266.03354153
_cell_formula_units_Z   4
loop_
 _symmetry_equiv_pos_site_id
 _symmetry_equiv_pos_as_xyz
  1  'x, y, z'
loop_
 _atom_site_type_symbol
 _atom_site_label
 _atom_site_symmetry_multiplicity
 _atom_site_fract_x
 _atom_site_fract_y
 _atom_site_fract_z
 _atom_site_occupancy
  Cs  Cs0  1  0.71222260  0.24627030  0.83171645  1.0
  Cs  Cs1  1  0.71222260  0.25372970  0.33171645  1.0
  Cs  Cs2  1  0.28777740  0.74627030  0.66828355  1.0
  Cs  Cs3  1  0.28777740  0.75372970  0.16828355  1.0
  Cs  Cs4  1  0.77983903  0.25037849  0.60391248  1.0
  Cs  Cs5  1  0.77983903  0.24962151  0.10391248  1.0
  Cs  Cs6  1  0.22016097  0.75037849  0.89608752  1.0
  Cs  Cs7  1  0.22016097  0.74962151  0.39608752  1.0
  Cd  Cd8  1  0.28077818  0.24884305  0.53708853  1.0
  Cd  Cd9  1  0.28077818  0.25115695  0.03708853  1.0
  Cd  Cd10  1  0.71922182  0.74884305  0.96291147  1.0
  Cd  Cd11  1  0.71922182  0.75115695  0.46291147  1.0
  Br  Br12  1  0.88973913  0.75103161  0.91527853  1.0
  Br  Br13  1  0.88973913  0.74896839  0.41527853  1.0
  Br  Br14  1  0.11026087  0.25103161  0.58472147  1.0
  Br  Br15  1  0.11026087  0.24896839  0.08472147  1.0
  Br  Br16  1  0.49747311  -0.00598694  0.61573781  1.0
  Br  Br17  1  0.49747311  0.50598694  0.11573781  1.0
  Br  Br18  1  0.50252689  0.49401306  0.88426219  1.0
  Br  Br19  1  0.50252689  1.00598694  0.38426219  1.0
  Br  Br20  1  0.49902002  0.50257589  0.61604721  1.0
  Br  Br21  1  0.49902002  0.99742411  0.11604721  1.0
  Br  Br22  1  0.50097998  0.00257589  0.88395279  1.0
  Br  Br23  1  0.50097998  0.49742411  0.38395279  1.0
  Br  Br24  1  0.08197957  0.25081575  0.85897531  1.0
  Br  Br25  1  0.08197957  0.24918425  0.35897531  1.0
  Br  Br26  1  0.91802043  0.75081575  0.64102469  1.0
  Br  Br27  1  0.91802043  0.74918425  0.14102469  1.0
