# generated using pymatgen
data_MgCrF6
_symmetry_space_group_name_H-M   'P 1'
_cell_length_a   5.39448102
_cell_length_b   5.39448102
_cell_length_c   5.39448102
_cell_angle_alpha   59.10080596
_cell_angle_beta   59.10080596
_cell_angle_gamma   59.10080596
_symmetry_Int_Tables_number   1
_chemical_formula_structural   MgCrF6
_chemical_formula_sum   'Mg1 Cr1 F6'
_cell_volume   108.72738146
_cell_formula_units_Z   1
loop_
 _symmetry_equiv_pos_site_id
 _symmetry_equiv_pos_as_xyz
  1  'x, y, z'
loop_
 _atom_site_type_symbol
 _atom_site_label
 _atom_site_symmetry_multiplicity
 _atom_site_fract_x
 _atom_site_fract_y
 _atom_site_fract_z
 _atom_site_occupancy
  Mg  Mg0  1  0.50000000  0.50000000  -0.50000000  1.0
  Cr  Cr1  1  -0.00000000  0.00000000  0.00000000  1.0
  F  F2  1  0.17870582  0.76149525  -0.70049990  1.0
  F  F3  1  0.70049990  -0.17870582  0.23850475  1.0
  F  F4  1  1.23850475  -0.29950010  -0.17870582  1.0
  F  F5  1  0.82129418  0.23850475  -0.29950010  1.0
  F  F6  1  0.29950010  0.17870582  -0.23850475  1.0
  F  F7  1  0.76149525  0.29950010  -0.82129418  1.0
