# generated using pymatgen
data_NiBr2
_symmetry_space_group_name_H-M   'P 1'
_cell_length_a   7.18259970
_cell_length_b   7.18259970
_cell_length_c   7.18259970
_cell_angle_alpha   29.73886005
_cell_angle_beta   29.73886005
_cell_angle_gamma   29.73886005
_symmetry_Int_Tables_number   1
_chemical_formula_structural   NiBr2
_chemical_formula_sum   'Ni1 Br2'
_cell_volume   80.73302985
_cell_formula_units_Z   1
loop_
 _symmetry_equiv_pos_site_id
 _symmetry_equiv_pos_as_xyz
  1  'x, y, z'
loop_
 _atom_site_type_symbol
 _atom_site_label
 _atom_site_symmetry_multiplicity
 _atom_site_fract_x
 _atom_site_fract_y
 _atom_site_fract_z
 _atom_site_occupancy
  Ni  Ni0  1  0.00000000  0.00000000  0.00000000  1.0
  Br  Br1  1  0.73494467  0.73494467  0.73494467  1.0
  Br  Br2  1  1.26505533  1.26505533  0.26505533  1.0
