# generated using pymatgen
data_EuCdAu
_symmetry_space_group_name_H-M   'P 1'
_cell_length_a   7.53852070
_cell_length_b   4.48288854
_cell_length_c   8.92659561
_cell_angle_alpha   90.00000000
_cell_angle_beta   90.00000000
_cell_angle_gamma   90.00000000
_symmetry_Int_Tables_number   1
_chemical_formula_structural   EuCdAu
_chemical_formula_sum   'Eu4 Cd4 Au4'
_cell_volume   301.66847872
_cell_formula_units_Z   4
loop_
 _symmetry_equiv_pos_site_id
 _symmetry_equiv_pos_as_xyz
  1  'x, y, z'
loop_
 _atom_site_type_symbol
 _atom_site_label
 _atom_site_symmetry_multiplicity
 _atom_site_fract_x
 _atom_site_fract_y
 _atom_site_fract_z
 _atom_site_occupancy
  Eu  Eu0  1  0.95808845  0.75000000  0.68267947  1.0
  Eu  Eu1  1  0.45808845  0.75000000  0.81732053  1.0
  Eu  Eu2  1  0.04191155  0.25000000  0.31732053  1.0
  Eu  Eu3  1  0.54191155  0.25000000  0.18267947  1.0
  Cd  Cd4  1  0.85752851  0.75000000  0.05983373  1.0
  Cd  Cd5  1  0.35752851  0.75000000  0.44016627  1.0
  Cd  Cd6  1  0.14247149  0.25000000  0.94016627  1.0
  Cd  Cd7  1  0.64247149  0.25000000  0.55983373  1.0
  Au  Au8  1  0.74853310  0.75000000  0.37279885  1.0
  Au  Au9  1  0.24853310  0.75000000  0.12720115  1.0
  Au  Au10  1  0.25146690  0.25000000  0.62720115  1.0
  Au  Au11  1  0.75146690  0.25000000  0.87279885  1.0
