# generated using pymatgen
data_Eu(GePt)2
_symmetry_space_group_name_H-M   'P 1'
_cell_length_a   4.38591855
_cell_length_b   4.38634118
_cell_length_c   10.11890521
_cell_angle_alpha   90.00000000
_cell_angle_beta   90.00813984
_cell_angle_gamma   90.00000000
_symmetry_Int_Tables_number   1
_chemical_formula_structural   Eu(GePt)2
_chemical_formula_sum   'Eu2 Ge4 Pt4'
_cell_volume   194.66886357
_cell_formula_units_Z   2
loop_
 _symmetry_equiv_pos_site_id
 _symmetry_equiv_pos_as_xyz
  1  'x, y, z'
loop_
 _atom_site_type_symbol
 _atom_site_label
 _atom_site_symmetry_multiplicity
 _atom_site_fract_x
 _atom_site_fract_y
 _atom_site_fract_z
 _atom_site_occupancy
  Eu  Eu0  1  0.75006243  0.51942713  0.25372508  1.0
  Eu  Eu1  1  0.24993757  0.01942713  0.74627492  1.0
  Ge  Ge2  1  0.75018913  0.51940722  0.87066458  1.0
  Ge  Ge3  1  0.24981087  0.01940722  0.12933542  1.0
  Ge  Ge4  1  0.74998116  0.01944792  0.49998387  1.0
  Ge  Ge5  1  0.25001884  0.51944792  0.50001613  1.0
  Pt  Pt6  1  0.75003054  0.51936703  0.62567541  1.0
  Pt  Pt7  1  0.24996946  0.01936703  0.37432459  1.0
  Pt  Pt8  1  0.74979115  1.01945070  0.99998256  1.0
  Pt  Pt9  1  0.25020885  0.51945070  0.00001744  1.0
