# generated using pymatgen
data_Tl2CoP4(HO2)8
_symmetry_space_group_name_H-M   'P 1'
_cell_length_a   7.52756615
_cell_length_b   7.12888042
_cell_length_c   7.71721286
_cell_angle_alpha   73.22722560
_cell_angle_beta   81.67596615
_cell_angle_gamma   87.32690501
_symmetry_Int_Tables_number   1
_chemical_formula_structural   Tl2CoP4(HO2)8
_chemical_formula_sum   'Tl2 Co1 P4 H8 O16'
_cell_volume   392.32892995
_cell_formula_units_Z   1
loop_
 _symmetry_equiv_pos_site_id
 _symmetry_equiv_pos_as_xyz
  1  'x, y, z'
loop_
 _atom_site_type_symbol
 _atom_site_label
 _atom_site_symmetry_multiplicity
 _atom_site_fract_x
 _atom_site_fract_y
 _atom_site_fract_z
 _atom_site_occupancy
  Tl  Tl0  1  -0.21937569  -0.61968881  -0.80179532  1.0
  Tl  Tl1  1  -0.78062431  -0.38031119  -0.19820468  1.0
  Co  Co2  1  0.00000000  0.00000000  0.00000000  1.0
  P  P3  1  -0.76265643  -0.83379949  -0.74058668  1.0
  P  P4  1  -0.23734357  -0.16620051  -0.25941332  1.0
  P  P5  1  -0.69850704  -0.24188344  -0.74598043  1.0
  P  P6  1  -0.30149296  -0.75811656  -0.25401957  1.0
  H  H7  1  -0.68028358  -0.88425789  -0.20573958  1.0
  H  H8  1  -0.31971642  -0.11574211  -0.79426042  1.0
  H  H9  1  -0.81470274  -0.87342149  -0.35017844  1.0
  H  H10  1  -0.18529726  -0.12657851  -0.64982156  1.0
  H  H11  1  -0.53944886  -0.76268619  -0.97291447  1.0
  H  H12  1  -0.46055114  -0.23731381  -0.02708553  1.0
  H  H13  1  -0.76339500  -0.55318656  -0.58362003  1.0
  H  H14  1  -0.23660500  -0.44681344  -0.41637997  1.0
  O  O15  1  -0.79279862  -0.94057505  -0.22288382  1.0
  O  O16  1  -0.20720138  -0.05942495  -0.77711618  1.0
  O  O17  1  -0.26610837  -0.93291598  -0.35307267  1.0
  O  O18  1  -0.73389163  -0.06708402  -0.64692733  1.0
  O  O19  1  -0.89422448  -0.80640528  -0.87915784  1.0
  O  O20  1  -0.10577552  -0.19359472  -0.12084216  1.0
  O  O21  1  -0.81968246  -0.75082187  -0.58041237  1.0
  O  O22  1  -0.18031754  -0.24917813  -0.41958763  1.0
  O  O23  1  -0.57274726  -0.74772893  -0.84063028  1.0
  O  O24  1  -0.42725274  -0.25227107  -0.15936972  1.0
  O  O25  1  -0.72396824  -0.42136226  -0.56890096  1.0
  O  O26  1  -0.27603176  -0.57863774  -0.43109904  1.0
  O  O27  1  -0.50372099  -0.22534234  -0.83930409  1.0
  O  O28  1  -0.49627901  -0.77465766  -0.16069591  1.0
  O  O29  1  -0.83879248  -0.23538274  -0.87141179  1.0
  O  O30  1  -0.16120752  -0.76461726  -0.12858821  1.0
