# generated using pymatgen
data_Ba2Li3TaN4
_symmetry_space_group_name_H-M   'P 1'
_cell_length_a   6.33319809
_cell_length_b   6.33319809
_cell_length_c   11.10967635
_cell_angle_alpha   64.53021632
_cell_angle_beta   115.46978368
_cell_angle_gamma   126.44892555
_symmetry_Int_Tables_number   1
_chemical_formula_structural   Ba2Li3TaN4
_chemical_formula_sum   'Ba4 Li6 Ta2 N8'
_cell_volume   314.11463758
_cell_formula_units_Z   2
loop_
 _symmetry_equiv_pos_site_id
 _symmetry_equiv_pos_as_xyz
  1  'x, y, z'
loop_
 _atom_site_type_symbol
 _atom_site_label
 _atom_site_symmetry_multiplicity
 _atom_site_fract_x
 _atom_site_fract_y
 _atom_site_fract_z
 _atom_site_occupancy
  Ba  Ba0  1  0.42779671  0.12500883  0.11024105  1.0
  Ba  Ba1  1  0.87499117  -0.42779671  0.61024105  1.0
  Ba  Ba2  1  1.12500883  0.42779671  0.38975895  1.0
  Ba  Ba3  1  1.57220329  -0.12500883  0.88975895  1.0
  Li  Li4  1  0.60737036  -0.03366391  0.45389704  1.0
  Li  Li5  1  1.03366391  -0.60737036  0.95389704  1.0
  Li  Li6  1  0.96633609  0.60737036  0.04610296  1.0
  Li  Li7  1  1.39262964  0.03366391  0.54610296  1.0
  Li  Li8  1  0.11122132  0.11122132  0.25000000  1.0
  Li  Li9  1  0.88877868  0.88877868  0.75000000  1.0
  Ta  Ta10  1  0.63397861  0.63397861  0.25000000  1.0
  Ta  Ta11  1  0.36602139  0.36602139  0.75000000  1.0
  N  N12  1  1.75900498  -0.08449261  0.33676964  1.0
  N  N13  1  1.08449261  -0.75900498  0.83676964  1.0
  N  N14  1  0.91550739  0.75900498  0.16323036  1.0
  N  N15  1  0.24099502  0.08449261  0.66323036  1.0
  N  N16  1  0.56631583  0.29051792  0.38775182  1.0
  N  N17  1  0.70948208  0.43368417  0.88775182  1.0
  N  N18  1  1.29051792  -0.43368417  0.11224818  1.0
  N  N19  1  1.43368417  -0.29051792  0.61224818  1.0
