# generated using pymatgen
data_YZnPt
_symmetry_space_group_name_H-M   'P 1'
_cell_length_a   6.93328636
_cell_length_b   4.18606501
_cell_length_c   8.14319956
_cell_angle_alpha   90.00000000
_cell_angle_beta   90.00000000
_cell_angle_gamma   90.00000000
_symmetry_Int_Tables_number   1
_chemical_formula_structural   YZnPt
_chemical_formula_sum   'Y4 Zn4 Pt4'
_cell_volume   236.34160728
_cell_formula_units_Z   4
loop_
 _symmetry_equiv_pos_site_id
 _symmetry_equiv_pos_as_xyz
  1  'x, y, z'
loop_
 _atom_site_type_symbol
 _atom_site_label
 _atom_site_symmetry_multiplicity
 _atom_site_fract_x
 _atom_site_fract_y
 _atom_site_fract_z
 _atom_site_occupancy
  Y  Y0  1  1.03797604  0.75000000  0.68729018  1.0
  Y  Y1  1  0.53797604  0.75000000  0.81270982  1.0
  Y  Y2  1  -0.03797604  0.25000000  0.31270982  1.0
  Y  Y3  1  0.46202396  0.25000000  0.18729018  1.0
  Zn  Zn4  1  0.64305431  0.75000000  0.43494592  1.0
  Zn  Zn5  1  0.14305431  0.75000000  0.06505408  1.0
  Zn  Zn6  1  0.35694569  0.25000000  0.56505408  1.0
  Zn  Zn7  1  0.85694569  0.25000000  0.93494592  1.0
  Pt  Pt8  1  0.75553623  0.75000000  0.11830379  1.0
  Pt  Pt9  1  0.25553623  0.75000000  0.38169621  1.0
  Pt  Pt10  1  0.24446377  0.25000000  0.88169621  1.0
  Pt  Pt11  1  0.74446377  0.25000000  0.61830379  1.0
