# generated using pymatgen
data_BaCuSF
_symmetry_space_group_name_H-M   'P 1'
_cell_length_a   4.12993340
_cell_length_b   4.12993340
_cell_length_c   9.11322997
_cell_angle_alpha   90.00000000
_cell_angle_beta   90.00000000
_cell_angle_gamma   90.00000000
_symmetry_Int_Tables_number   1
_chemical_formula_structural   BaCuSF
_chemical_formula_sum   'Ba2 Cu2 S2 F2'
_cell_volume   155.43843936
_cell_formula_units_Z   2
loop_
 _symmetry_equiv_pos_site_id
 _symmetry_equiv_pos_as_xyz
  1  'x, y, z'
loop_
 _atom_site_type_symbol
 _atom_site_label
 _atom_site_symmetry_multiplicity
 _atom_site_fract_x
 _atom_site_fract_y
 _atom_site_fract_z
 _atom_site_occupancy
  Ba  Ba0  1  0.50000000  0.00000000  0.17958845  1.0
  Ba  Ba1  1  0.00000000  0.50000000  0.82041155  1.0
  Cu  Cu2  1  0.00000000  0.00000000  0.50000000  1.0
  Cu  Cu3  1  0.50000000  0.50000000  0.50000000  1.0
  S  S4  1  0.50000000  0.00000000  0.64360606  1.0
  S  S5  1  0.00000000  0.50000000  0.35639394  1.0
  F  F6  1  0.00000000  0.00000000  0.00000000  1.0
  F  F7  1  0.50000000  0.50000000  0.00000000  1.0
