# generated using pymatgen
data_Mg3Si2H4O9
_symmetry_space_group_name_H-M   'P 1'
_cell_length_a   5.36682688
_cell_length_b   5.36682688
_cell_length_c   14.81880097
_cell_angle_alpha   90.00000000
_cell_angle_beta   90.00000000
_cell_angle_gamma   120.00000000
_symmetry_Int_Tables_number   1
_chemical_formula_structural   Mg3Si2H4O9
_chemical_formula_sum   'Mg6 Si4 H8 O18'
_cell_volume   369.63992189
_cell_formula_units_Z   2
loop_
 _symmetry_equiv_pos_site_id
 _symmetry_equiv_pos_as_xyz
  1  'x, y, z'
loop_
 _atom_site_type_symbol
 _atom_site_label
 _atom_site_symmetry_multiplicity
 _atom_site_fract_x
 _atom_site_fract_y
 _atom_site_fract_z
 _atom_site_occupancy
  Mg  Mg0  1  0.33122234  0.33122234  0.72214627  1.0
  Mg  Mg1  1  0.66877766  0.00000000  0.72214627  1.0
  Mg  Mg2  1  0.00000000  0.66877766  0.72214627  1.0
  Mg  Mg3  1  0.66877766  0.66877766  0.22214627  1.0
  Mg  Mg4  1  0.33122234  0.00000000  0.22214627  1.0
  Mg  Mg5  1  -0.00000000  0.33122234  0.22214627  1.0
  Si  Si6  1  0.33333333  0.66666667  0.53260462  1.0
  Si  Si7  1  0.66666667  0.33333333  0.53260462  1.0
  Si  Si8  1  0.66666667  0.33333333  0.03260462  1.0
  Si  Si9  1  0.33333333  0.66666667  0.03260462  1.0
  H  H10  1  0.65112122  0.65112122  0.85322994  1.0
  H  H11  1  0.34887878  0.00000000  0.85322994  1.0
  H  H12  1  0.00000000  0.34887878  0.85322994  1.0
  H  H13  1  0.34887878  0.34887878  0.35322994  1.0
  H  H14  1  0.65112122  0.00000000  0.35322994  1.0
  H  H15  1  -0.00000000  0.65112122  0.35322994  1.0
  H  H16  1  0.00000000  0.00000000  0.58213872  1.0
  H  H17  1  0.00000000  0.00000000  0.08213872  1.0
  O  O18  1  0.33333333  0.66666667  0.64124958  1.0
  O  O19  1  0.66666667  0.33333333  0.64124958  1.0
  O  O20  1  0.66666667  0.33333333  0.14124958  1.0
  O  O21  1  0.33333333  0.66666667  0.14124958  1.0
  O  O22  1  0.48584498  0.48584498  0.49122285  1.0
  O  O23  1  0.51415502  0.00000000  0.49122285  1.0
  O  O24  1  -0.00000000  0.51415502  0.49122285  1.0
  O  O25  1  0.51415502  0.51415502  0.99122285  1.0
  O  O26  1  0.48584498  0.00000000  0.99122285  1.0
  O  O27  1  0.00000000  0.48584498  0.99122285  1.0
  O  O28  1  0.66421298  0.66421298  0.78798207  1.0
  O  O29  1  0.33578702  0.00000000  0.78798207  1.0
  O  O30  1  -0.00000000  0.33578702  0.78798207  1.0
  O  O31  1  0.33578702  0.33578702  0.28798207  1.0
  O  O32  1  0.66421298  0.00000000  0.28798207  1.0
  O  O33  1  0.00000000  0.66421298  0.28798207  1.0
  O  O34  1  0.00000000  0.00000000  0.64730946  1.0
  O  O35  1  0.00000000  0.00000000  0.14730946  1.0
