# generated using pymatgen
data_ZnS
_symmetry_space_group_name_H-M   'P 1'
_cell_length_a   3.84960475
_cell_length_b   3.84960475
_cell_length_c   56.63261386
_cell_angle_alpha   90.00000000
_cell_angle_beta   90.00000000
_cell_angle_gamma   120.00000000
_symmetry_Int_Tables_number   1
_chemical_formula_structural   ZnS
_chemical_formula_sum   'Zn18 S18'
_cell_volume   726.82443902
_cell_formula_units_Z   18
loop_
 _symmetry_equiv_pos_site_id
 _symmetry_equiv_pos_as_xyz
  1  'x, y, z'
loop_
 _atom_site_type_symbol
 _atom_site_label
 _atom_site_symmetry_multiplicity
 _atom_site_fract_x
 _atom_site_fract_y
 _atom_site_fract_z
 _atom_site_occupancy
  Zn  Zn0  1  0.00000000  0.00000000  0.12501527  1.0
  Zn  Zn1  1  0.00000000  0.00000000  0.29167301  1.0
  Zn  Zn2  1  0.00000000  0.00000000  0.45832469  1.0
  Zn  Zn3  1  0.00000000  0.00000000  0.68056497  1.0
  Zn  Zn4  1  0.00000000  0.00000000  0.90277401  1.0
  Zn  Zn5  1  0.66666667  0.33333333  0.01388934  1.0
  Zn  Zn6  1  0.66666667  0.33333333  0.18055814  1.0
  Zn  Zn7  1  0.66666667  0.33333333  0.40278415  1.0
  Zn  Zn8  1  0.66666667  0.33333333  0.56945206  1.0
  Zn  Zn9  1  0.66666667  0.33333333  0.73608213  1.0
  Zn  Zn10  1  0.66666667  0.33333333  0.84726701  1.0
  Zn  Zn11  1  0.33333333  0.66666667  0.06949555  1.0
  Zn  Zn12  1  0.33333333  0.66666667  0.23608149  1.0
  Zn  Zn13  1  0.33333333  0.66666667  0.34726780  1.0
  Zn  Zn14  1  0.33333333  0.66666667  0.51384924  1.0
  Zn  Zn15  1  0.33333333  0.66666667  0.62505333  1.0
  Zn  Zn16  1  0.33333333  0.66666667  0.79167358  1.0
  Zn  Zn17  1  0.33333333  0.66666667  0.95829406  1.0
  S  S18  1  0.00000000  0.00000000  0.16666568  1.0
  S  S19  1  0.00000000  0.00000000  0.33338034  1.0
  S  S20  1  0.00000000  0.00000000  0.49997081  1.0
  S  S21  1  0.00000000  0.00000000  0.72220575  1.0
  S  S22  1  0.00000000  0.00000000  0.94441500  1.0
  S  S23  1  0.66666667  0.33333333  0.05560336  1.0
  S  S24  1  0.66666667  0.33333333  0.22220274  1.0
  S  S25  1  0.66666667  0.33333333  0.44443244  1.0
  S  S26  1  0.66666667  0.33333333  0.61116391  1.0
  S  S27  1  0.66666667  0.33333333  0.77772035  1.0
  S  S28  1  0.66666667  0.33333333  0.88889737  1.0
  S  S29  1  0.33333333  0.66666667  -0.00006664  1.0
  S  S30  1  0.33333333  0.66666667  0.11113049  1.0
  S  S31  1  0.33333333  0.66666667  0.27772070  1.0
  S  S32  1  0.33333333  0.66666667  0.38890058  1.0
  S  S33  1  0.33333333  0.66666667  0.55549141  1.0
  S  S34  1  0.33333333  0.66666667  0.66668520  1.0
  S  S35  1  0.33333333  0.66666667  0.83338071  1.0
