# generated using pymatgen
data_Sr4CN4
_symmetry_space_group_name_H-M   'P 1'
_cell_length_a   12.22671335
_cell_length_b   3.81381179
_cell_length_c   14.81269421
_cell_angle_alpha   90.00000000
_cell_angle_beta   90.00000000
_cell_angle_gamma   90.00000000
_symmetry_Int_Tables_number   1
_chemical_formula_structural   Sr4CN4
_chemical_formula_sum   'Sr16 C4 N16'
_cell_volume   690.72161245
_cell_formula_units_Z   4
loop_
 _symmetry_equiv_pos_site_id
 _symmetry_equiv_pos_as_xyz
  1  'x, y, z'
loop_
 _atom_site_type_symbol
 _atom_site_label
 _atom_site_symmetry_multiplicity
 _atom_site_fract_x
 _atom_site_fract_y
 _atom_site_fract_z
 _atom_site_occupancy
  Sr  Sr0  1  0.88471905  0.75000000  0.60630574  1.0
  Sr  Sr1  1  0.38471905  0.75000000  0.89369426  1.0
  Sr  Sr2  1  0.11528095  0.25000000  0.39369426  1.0
  Sr  Sr3  1  0.61528095  0.25000000  0.10630574  1.0
  Sr  Sr4  1  0.87576770  0.75000000  0.03753066  1.0
  Sr  Sr5  1  0.37576770  0.75000000  0.46246934  1.0
  Sr  Sr6  1  0.12423230  0.25000000  0.96246934  1.0
  Sr  Sr7  1  0.62423230  0.25000000  0.53753066  1.0
  Sr  Sr8  1  0.64897818  0.75000000  0.74023227  1.0
  Sr  Sr9  1  0.14897818  0.75000000  0.75976773  1.0
  Sr  Sr10  1  0.35102182  0.25000000  0.25976773  1.0
  Sr  Sr11  1  0.85102182  0.25000000  0.24023227  1.0
  Sr  Sr12  1  0.60705429  0.75000000  0.32405251  1.0
  Sr  Sr13  1  0.10705429  0.75000000  0.17594749  1.0
  Sr  Sr14  1  0.39294571  0.25000000  0.67594749  1.0
  Sr  Sr15  1  0.89294571  0.25000000  0.82405251  1.0
  C  C16  1  0.85451245  0.75000000  0.41043311  1.0
  C  C17  1  0.35451245  0.75000000  0.08956689  1.0
  C  C18  1  0.14548755  0.25000000  0.58956689  1.0
  C  C19  1  0.64548755  0.25000000  0.91043311  1.0
  N  N20  1  0.94479115  0.75000000  0.37164609  1.0
  N  N21  1  0.44479115  0.75000000  0.12835391  1.0
  N  N22  1  0.05520885  0.25000000  0.62835391  1.0
  N  N23  1  0.55520885  0.25000000  0.87164609  1.0
  N  N24  1  0.76531465  0.75000000  0.45077300  1.0
  N  N25  1  0.26531465  0.75000000  0.04922700  1.0
  N  N26  1  0.23468535  0.25000000  0.54922700  1.0
  N  N27  1  0.73468535  0.25000000  0.95077300  1.0
  N  N28  1  0.72468893  0.75000000  0.17855632  1.0
  N  N29  1  0.22468893  0.75000000  0.32144368  1.0
  N  N30  1  0.27531107  0.25000000  0.82144368  1.0
  N  N31  1  0.77531107  0.25000000  0.67855632  1.0
  N  N32  1  0.50763200  0.75000000  0.61926637  1.0
  N  N33  1  0.00763200  0.75000000  0.88073363  1.0
  N  N34  1  0.49236800  0.25000000  0.38073363  1.0
  N  N35  1  0.99236800  0.25000000  0.11926637  1.0
