# generated using pymatgen
data_K4(XeO4)3
_symmetry_space_group_name_H-M   'P 1'
_cell_length_a   10.59072728
_cell_length_b   10.59072728
_cell_length_c   10.59072728
_cell_angle_alpha   33.34399437
_cell_angle_beta   33.34399437
_cell_angle_gamma   33.34399437
_symmetry_Int_Tables_number   1
_chemical_formula_structural   K4(XeO4)3
_chemical_formula_sum   'K4 Xe3 O12'
_cell_volume   319.56826487
_cell_formula_units_Z   1
loop_
 _symmetry_equiv_pos_site_id
 _symmetry_equiv_pos_as_xyz
  1  'x, y, z'
loop_
 _atom_site_type_symbol
 _atom_site_label
 _atom_site_symmetry_multiplicity
 _atom_site_fract_x
 _atom_site_fract_y
 _atom_site_fract_z
 _atom_site_occupancy
  K  K0  1  0.70670277  -0.29329723  -0.29329723  1.0
  K  K1  1  0.29329723  0.29329723  0.29329723  1.0
  K  K2  1  0.12892668  0.12892668  0.12892668  1.0
  K  K3  1  0.87107332  -0.12892668  -0.12892668  1.0
  Xe  Xe4  1  0.42298463  0.42298463  -0.57701537  1.0
  Xe  Xe5  1  0.57701537  0.57701537  -0.42298463  1.0
  Xe  Xe6  1  0.00000000  -0.00000000  -0.00000000  1.0
  O  O7  1  0.73493077  0.18766970  -0.81233030  1.0
  O  O8  1  0.18766970  0.18766970  -0.26506923  1.0
  O  O9  1  0.18766970  0.73493077  -0.81233030  1.0
  O  O10  1  1.26506923  -0.18766970  -0.18766970  1.0
  O  O11  1  0.81233030  -0.18766970  0.26506923  1.0
  O  O12  1  0.81233030  0.26506923  -0.18766970  1.0
  O  O13  1  0.60796812  0.13851832  -0.39203188  1.0
  O  O14  1  0.13851832  0.60796812  -0.39203188  1.0
  O  O15  1  0.60796812  0.60796812  -0.86148168  1.0
  O  O16  1  0.39203188  0.86148168  -0.60796812  1.0
  O  O17  1  0.86148168  0.39203188  -0.60796812  1.0
  O  O18  1  0.39203188  0.39203188  -0.13851832  1.0
