# generated using pymatgen
data_TcBr4
_symmetry_space_group_name_H-M   'P 1'
_cell_length_a   6.46481313
_cell_length_b   13.23144009
_cell_length_c   15.74074472
_cell_angle_alpha   90.00000000
_cell_angle_beta   90.00000000
_cell_angle_gamma   90.00000000
_symmetry_Int_Tables_number   1
_chemical_formula_structural   TcBr4
_chemical_formula_sum   'Tc8 Br32'
_cell_volume   1346.44421974
_cell_formula_units_Z   8
loop_
 _symmetry_equiv_pos_site_id
 _symmetry_equiv_pos_as_xyz
  1  'x, y, z'
loop_
 _atom_site_type_symbol
 _atom_site_label
 _atom_site_symmetry_multiplicity
 _atom_site_fract_x
 _atom_site_fract_y
 _atom_site_fract_z
 _atom_site_occupancy
  Br  Br0  1  0.42418551  0.76243696  0.69539310  1.0
  Br  Br1  1  0.42418551  0.73756304  0.19539310  1.0
  Br  Br2  1  0.92418551  0.76243696  0.80460690  1.0
  Br  Br3  1  0.92418551  0.73756304  0.30460690  1.0
  Br  Br4  1  0.57581449  0.26243696  0.80460690  1.0
  Br  Br5  1  0.57581449  0.23756304  0.30460690  1.0
  Br  Br6  1  0.07581449  0.26243696  0.69539310  1.0
  Br  Br7  1  0.07581449  0.23756304  0.19539310  1.0
  Br  Br8  1  0.27243994  0.97788124  0.80520293  1.0
  Br  Br9  1  0.27243994  0.52211876  0.30520293  1.0
  Br  Br10  1  0.77243994  0.97788124  0.69479707  1.0
  Br  Br11  1  0.77243994  0.52211876  0.19479707  1.0
  Br  Br12  1  0.72756006  0.47788124  0.69479707  1.0
  Br  Br13  1  0.72756006  0.02211876  0.19479707  1.0
  Br  Br14  1  0.22756006  0.47788124  0.80520293  1.0
  Br  Br15  1  0.22756006  0.02211876  0.30520293  1.0
  Br  Br16  1  0.45679645  0.75568593  0.92239042  1.0
  Br  Br17  1  0.45679645  0.74431407  0.42239042  1.0
  Br  Br18  1  0.95679645  0.75568593  0.57760958  1.0
  Br  Br19  1  0.95679645  0.74431407  0.07760958  1.0
  Br  Br20  1  0.54320355  0.25568593  0.57760958  1.0
  Br  Br21  1  0.54320355  0.24431407  0.07760958  1.0
  Br  Br22  1  0.04320355  0.25568593  0.92239042  1.0
  Br  Br23  1  0.04320355  0.24431407  0.42239042  1.0
  Br  Br24  1  0.24157491  0.98502655  0.57804456  1.0
  Br  Br25  1  0.24157491  0.51497345  0.07804456  1.0
  Br  Br26  1  0.74157491  0.98502655  0.92195544  1.0
  Br  Br27  1  0.74157491  0.51497345  0.42195544  1.0
  Br  Br28  1  0.75842509  0.48502655  0.92195544  1.0
  Br  Br29  1  0.75842509  0.01497345  0.42195544  1.0
  Br  Br30  1  0.25842509  0.48502655  0.57804456  1.0
  Br  Br31  1  0.25842509  0.01497345  0.07804456  1.0
  Tc  Tc32  1  0.09854580  0.87018538  0.68237316  1.0
  Tc  Tc33  1  0.09854580  0.62981462  0.18237316  1.0
  Tc  Tc34  1  0.59854580  0.87018538  0.81762684  1.0
  Tc  Tc35  1  0.59854580  0.62981462  0.31762684  1.0
  Tc  Tc36  1  0.90145420  0.37018538  0.81762684  1.0
  Tc  Tc37  1  0.90145420  0.12981462  0.31762684  1.0
  Tc  Tc38  1  0.40145420  0.37018538  0.68237316  1.0
  Tc  Tc39  1  0.40145420  0.12981462  0.18237316  1.0
