# generated using pymatgen
data_KSi2HO5
_symmetry_space_group_name_H-M   'P 1'
_cell_length_a   12.57826645
_cell_length_b   8.29625707
_cell_length_c   4.82486289
_cell_angle_alpha   90.00000000
_cell_angle_beta   90.00000000
_cell_angle_gamma   90.00000000
_symmetry_Int_Tables_number   1
_chemical_formula_structural   KSi2HO5
_chemical_formula_sum   'K4 Si8 H4 O20'
_cell_volume   503.48665862
_cell_formula_units_Z   4
loop_
 _symmetry_equiv_pos_site_id
 _symmetry_equiv_pos_as_xyz
  1  'x, y, z'
loop_
 _atom_site_type_symbol
 _atom_site_label
 _atom_site_symmetry_multiplicity
 _atom_site_fract_x
 _atom_site_fract_y
 _atom_site_fract_z
 _atom_site_occupancy
  K  K0  1  0.53942881  0.25000000  0.02919454  1.0
  K  K1  1  0.03942881  0.25000000  0.47080546  1.0
  K  K2  1  0.46057119  0.75000000  0.97080546  1.0
  K  K3  1  0.96057119  0.75000000  0.52919454  1.0
  Si  Si4  1  0.81269735  0.43703683  0.02886627  1.0
  Si  Si5  1  0.81269735  0.06296317  0.02886627  1.0
  Si  Si6  1  0.31269735  0.43703683  0.47113373  1.0
  Si  Si7  1  0.31269735  0.06296317  0.47113373  1.0
  Si  Si8  1  0.18730265  0.93703683  0.97113373  1.0
  Si  Si9  1  0.18730265  0.56296317  0.97113373  1.0
  Si  Si10  1  0.68730265  0.93703683  0.52886627  1.0
  Si  Si11  1  0.68730265  0.56296317  0.52886627  1.0
  H  H12  1  -0.00000000  0.50000000  -0.00000000  1.0
  H  H13  1  -0.00000000  -0.00000000  0.00000000  1.0
  H  H14  1  0.50000000  0.50000000  0.50000000  1.0
  H  H15  1  0.50000000  0.00000000  0.50000000  1.0
  O  O16  1  0.92563685  0.48877266  0.15858153  1.0
  O  O17  1  0.92563685  0.01122734  0.15858153  1.0
  O  O18  1  0.42563685  0.48877266  0.34141847  1.0
  O  O19  1  0.42563685  0.01122734  0.34141847  1.0
  O  O20  1  0.07436315  0.98877266  0.84141847  1.0
  O  O21  1  0.07436315  0.51122734  0.84141847  1.0
  O  O22  1  0.57436315  0.98877266  0.65858153  1.0
  O  O23  1  0.57436315  0.51122734  0.65858153  1.0
  O  O24  1  0.71555937  0.45015641  0.25710159  1.0
  O  O25  1  0.71555937  0.04984359  0.25710159  1.0
  O  O26  1  0.21555937  0.45015641  0.24289841  1.0
  O  O27  1  0.21555937  0.04984359  0.24289841  1.0
  O  O28  1  0.28444063  0.95015641  0.74289841  1.0
  O  O29  1  0.28444063  0.54984359  0.74289841  1.0
  O  O30  1  0.78444063  0.95015641  0.75710159  1.0
  O  O31  1  0.78444063  0.54984359  0.75710159  1.0
  O  O32  1  0.31070178  0.25000000  0.58653021  1.0
  O  O33  1  0.81070178  0.25000000  0.91346979  1.0
  O  O34  1  0.68929822  0.75000000  0.41346979  1.0
  O  O35  1  0.18929822  0.75000000  0.08653021  1.0
