# generated using pymatgen
data_Cu(SbO2)2
_symmetry_space_group_name_H-M   'P 1'
_cell_length_a   9.13456709
_cell_length_b   9.13456709
_cell_length_c   5.89944532
_cell_angle_alpha   90.00000000
_cell_angle_beta   90.00000000
_cell_angle_gamma   90.00000000
_symmetry_Int_Tables_number   1
_chemical_formula_structural   Cu(SbO2)2
_chemical_formula_sum   'Cu4 Sb8 O16'
_cell_volume   492.25158098
_cell_formula_units_Z   4
loop_
 _symmetry_equiv_pos_site_id
 _symmetry_equiv_pos_as_xyz
  1  'x, y, z'
loop_
 _atom_site_type_symbol
 _atom_site_label
 _atom_site_symmetry_multiplicity
 _atom_site_fract_x
 _atom_site_fract_y
 _atom_site_fract_z
 _atom_site_occupancy
  O  O0  1  0.29643427  0.79639245  0.26687562  1.0
  O  O1  1  0.20356573  0.29639245  0.26687562  1.0
  O  O2  1  0.79639245  0.70356573  0.76687562  1.0
  O  O3  1  0.29639245  0.79643427  0.76687562  1.0
  O  O4  1  0.70356573  0.20360755  0.26687562  1.0
  O  O5  1  0.79643427  0.70360755  0.26687562  1.0
  O  O6  1  0.20360755  0.29643427  0.76687562  1.0
  O  O7  1  0.70360755  0.20356573  0.76687562  1.0
  O  O8  1  0.38407034  0.08747657  0.51683986  1.0
  O  O9  1  0.11592966  0.58747657  0.51683986  1.0
  O  O10  1  0.08747657  0.61592966  0.01683986  1.0
  O  O11  1  0.58747657  0.88407034  0.01683986  1.0
  O  O12  1  0.61592966  0.91252343  0.51683986  1.0
  O  O13  1  0.88407034  0.41252343  0.51683986  1.0
  O  O14  1  0.91252343  0.38407034  0.01683986  1.0
  O  O15  1  0.41252343  0.11592966  0.01683986  1.0
  Sb  Sb16  1  0.35142585  0.30283457  0.51685604  1.0
  Sb  Sb17  1  0.14857415  0.80283457  0.51685604  1.0
  Sb  Sb18  1  0.30283457  0.64857415  0.01685604  1.0
  Sb  Sb19  1  0.80283457  0.85142585  0.01685604  1.0
  Sb  Sb20  1  0.64857415  0.69716543  0.51685604  1.0
  Sb  Sb21  1  0.85142585  0.19716543  0.51685604  1.0
  Sb  Sb22  1  0.69716543  0.35142585  0.01685604  1.0
  Sb  Sb23  1  0.19716543  0.14857415  0.01685604  1.0
  Cu  Cu24  1  0.00000000  0.50000000  0.26685697  1.0
  Cu  Cu25  1  0.50000000  0.00000000  0.26685697  1.0
  Cu  Cu26  1  0.50000000  0.00000000  0.76685697  1.0
  Cu  Cu27  1  0.00000000  0.50000000  0.76685697  1.0
