# generated using pymatgen
data_H2CN3
_symmetry_space_group_name_H-M   'P 1'
_cell_length_a   11.85461265
_cell_length_b   12.01102657
_cell_length_c   4.74764487
_cell_angle_alpha   90.00000000
_cell_angle_beta   90.00000000
_cell_angle_gamma   90.00000000
_symmetry_Int_Tables_number   1
_chemical_formula_structural   H2CN3
_chemical_formula_sum   'H16 C8 N24'
_cell_volume   675.99848299
_cell_formula_units_Z   8
loop_
 _symmetry_equiv_pos_site_id
 _symmetry_equiv_pos_as_xyz
  1  'x, y, z'
loop_
 _atom_site_type_symbol
 _atom_site_label
 _atom_site_symmetry_multiplicity
 _atom_site_fract_x
 _atom_site_fract_y
 _atom_site_fract_z
 _atom_site_occupancy
  H  H0  1  0.21610405  0.46489956  0.29195190  1.0
  H  H1  1  0.21610405  0.53510044  0.70804810  1.0
  H  H2  1  0.71610405  0.96489956  0.70804810  1.0
  H  H3  1  0.71610405  0.03510044  0.29195190  1.0
  H  H4  1  0.78389595  0.46489956  0.70804810  1.0
  H  H5  1  0.78389595  0.53510044  0.29195190  1.0
  H  H6  1  0.28389595  0.96489956  0.29195190  1.0
  H  H7  1  0.28389595  0.03510044  0.70804810  1.0
  H  H8  1  0.41768079  0.93063127  0.30038083  1.0
  H  H9  1  0.41768079  0.06936873  0.69961917  1.0
  H  H10  1  0.91768079  0.43063127  0.69961917  1.0
  H  H11  1  0.91768079  0.56936873  0.30038083  1.0
  H  H12  1  0.58231921  0.93063127  0.69961917  1.0
  H  H13  1  0.58231921  0.06936873  0.30038083  1.0
  H  H14  1  0.08231921  0.43063127  0.30038083  1.0
  H  H15  1  0.08231921  0.56936873  0.69961917  1.0
  C  C16  1  0.29166431  0.26283600  -0.08107338  1.0
  C  C17  1  0.29166431  0.73716400  0.08107338  1.0
  C  C18  1  0.79166431  0.76283600  0.08107338  1.0
  C  C19  1  0.79166431  0.23716400  -0.08107338  1.0
  C  C20  1  0.70833569  0.26283600  0.08107338  1.0
  C  C21  1  0.70833569  0.73716400  -0.08107338  1.0
  C  C22  1  0.20833569  0.76283600  -0.08107338  1.0
  C  C23  1  0.20833569  0.23716400  0.08107338  1.0
  N  N24  1  0.34447985  0.32608535  0.70338263  1.0
  N  N25  1  0.34447985  0.67391465  0.29661737  1.0
  N  N26  1  0.84447985  0.82608535  0.29661737  1.0
  N  N27  1  0.84447985  0.17391465  0.70338263  1.0
  N  N28  1  0.65552015  0.32608535  0.29661737  1.0
  N  N29  1  0.65552015  0.67391465  0.70338263  1.0
  N  N30  1  0.15552015  0.82608535  0.70338263  1.0
  N  N31  1  0.15552015  0.17391465  0.29661737  1.0
  N  N32  1  0.90113298  0.25516276  0.80178342  1.0
  N  N33  1  0.90113298  0.74483724  0.19821658  1.0
  N  N34  1  0.40113298  0.75516276  0.19821658  1.0
  N  N35  1  0.40113298  0.24483724  0.80178342  1.0
  N  N36  1  0.09886702  0.25516276  0.19821658  1.0
  N  N37  1  0.09886702  0.74483724  0.80178342  1.0
  N  N38  1  0.59886702  0.75516276  0.80178342  1.0
  N  N39  1  0.59886702  0.24483724  0.19821658  1.0
  N  N40  1  0.36183575  0.99310413  0.34958986  1.0
  N  N41  1  0.36183575  0.00689587  0.65041014  1.0
  N  N42  1  0.86183575  0.49310413  0.65041014  1.0
  N  N43  1  0.86183575  0.50689587  0.34958986  1.0
  N  N44  1  0.63816425  0.99310413  0.65041014  1.0
  N  N45  1  0.63816425  0.00689587  0.34958986  1.0
  N  N46  1  0.13816425  0.49310413  0.34958986  1.0
  N  N47  1  0.13816425  0.50689587  0.65041014  1.0
