# generated using pymatgen
data_AgSbS(OF3)2
_symmetry_space_group_name_H-M   'P 1'
_cell_length_a   7.88112882
_cell_length_b   8.50073340
_cell_length_c   13.89789650
_cell_angle_alpha   90.00000000
_cell_angle_beta   124.26824840
_cell_angle_gamma   90.00000000
_symmetry_Int_Tables_number   1
_chemical_formula_structural   AgSbS(OF3)2
_chemical_formula_sum   'Ag4 Sb4 S4 O8 F24'
_cell_volume   769.46646920
_cell_formula_units_Z   4
loop_
 _symmetry_equiv_pos_site_id
 _symmetry_equiv_pos_as_xyz
  1  'x, y, z'
loop_
 _atom_site_type_symbol
 _atom_site_label
 _atom_site_symmetry_multiplicity
 _atom_site_fract_x
 _atom_site_fract_y
 _atom_site_fract_z
 _atom_site_occupancy
  Ag  Ag0  1  0.28633063  0.74682962  0.53585910  1.0
  Ag  Ag1  1  0.28633063  0.75317038  0.03585910  1.0
  Ag  Ag2  1  0.71366937  0.25317038  0.46414090  1.0
  Ag  Ag3  1  0.71366937  0.24682962  0.96414090  1.0
  Sb  Sb4  1  0.62963754  0.75740977  0.37928198  1.0
  Sb  Sb5  1  0.62963754  0.74259023  0.87928198  1.0
  Sb  Sb6  1  0.37036246  0.24259023  0.62071802  1.0
  Sb  Sb7  1  0.37036246  0.25740977  0.12071802  1.0
  S  S8  1  -0.00755709  0.60492414  0.23685143  1.0
  S  S9  1  -0.00755709  0.89507586  0.73685143  1.0
  S  S10  1  1.00755709  0.39507586  0.76314857  1.0
  S  S11  1  1.00755709  0.10492414  0.26314857  1.0
  O  O12  1  0.11992124  0.57739075  0.36278559  1.0
  O  O13  1  0.11992124  0.92260925  0.86278559  1.0
  O  O14  1  0.88007876  0.42260925  0.63721441  1.0
  O  O15  1  0.88007876  0.07739075  0.13721441  1.0
  O  O16  1  0.92274567  0.46467048  0.16410846  1.0
  O  O17  1  0.92274567  0.03532952  0.66410846  1.0
  O  O18  1  0.07725433  0.53532952  0.83589154  1.0
  O  O19  1  0.07725433  0.96467048  0.33589154  1.0
  F  F20  1  0.92199719  0.74786019  0.49675869  1.0
  F  F21  1  0.92199719  0.75213981  0.99675869  1.0
  F  F22  1  0.07800281  0.25213981  0.50324131  1.0
  F  F23  1  0.07800281  0.24786019  0.00324131  1.0
  F  F24  1  0.33951354  0.76801193  0.25776884  1.0
  F  F25  1  0.33951354  0.73198807  0.75776884  1.0
  F  F26  1  0.66048646  0.23198807  0.74223116  1.0
  F  F27  1  0.66048646  0.26801193  0.24223116  1.0
  F  F28  1  0.61443037  0.53122554  0.38297663  1.0
  F  F29  1  0.61443037  0.96877446  0.88297663  1.0
  F  F30  1  0.38556963  0.46877446  0.61702337  1.0
  F  F31  1  0.38556963  0.03122554  0.11702337  1.0
  F  F32  1  0.67772709  0.74471578  0.25760072  1.0
  F  F33  1  0.67772709  0.75528422  0.75760072  1.0
  F  F34  1  0.32227291  0.25528422  0.74239928  1.0
  F  F35  1  0.32227291  0.24471578  0.24239928  1.0
  F  F36  1  0.65033481  0.98463690  0.38138430  1.0
  F  F37  1  0.65033481  0.51536310  0.88138430  1.0
  F  F38  1  0.34966519  0.01536310  0.61861570  1.0
  F  F39  1  0.34966519  0.48463690  0.11861570  1.0
  F  F40  1  0.57044247  0.77187683  0.49658824  1.0
  F  F41  1  0.57044247  0.72812317  0.99658824  1.0
  F  F42  1  0.42955753  0.22812317  0.50341176  1.0
  F  F43  1  0.42955753  0.27187683  0.00341176  1.0
