# generated using pymatgen
data_MgPd3
_symmetry_space_group_name_H-M   'P 1'
_cell_length_a   8.39514316
_cell_length_b   8.39514316
_cell_length_c   8.39514316
_cell_angle_alpha   152.68390493
_cell_angle_beta   152.68390493
_cell_angle_gamma   39.01540630
_symmetry_Int_Tables_number   1
_chemical_formula_structural   MgPd3
_chemical_formula_sum   'Mg2 Pd6'
_cell_volume   124.38281994
_cell_formula_units_Z   2
loop_
 _symmetry_equiv_pos_site_id
 _symmetry_equiv_pos_as_xyz
  1  'x, y, z'
loop_
 _atom_site_type_symbol
 _atom_site_label
 _atom_site_symmetry_multiplicity
 _atom_site_fract_x
 _atom_site_fract_y
 _atom_site_fract_z
 _atom_site_occupancy
  Mg  Mg0  1  0.87645177  0.87645177  1.00000000  1.0
  Mg  Mg1  1  0.12354823  0.12354823  -0.00000000  1.0
  Pd  Pd2  1  0.62544085  0.62544085  1.00000000  1.0
  Pd  Pd3  1  0.37455915  0.37455915  -0.00000000  1.0
  Pd  Pd4  1  0.25000000  0.75000000  0.50000000  1.0
  Pd  Pd5  1  0.75000000  0.25000000  0.50000000  1.0
  Pd  Pd6  1  0.50000000  0.00000000  0.50000000  1.0
  Pd  Pd7  1  -0.00000000  0.50000000  0.50000000  1.0
