# generated using pymatgen
data_HfTiF6
_symmetry_space_group_name_H-M   'P 1'
_cell_length_a   5.81759223
_cell_length_b   5.81759223
_cell_length_c   5.81759223
_cell_angle_alpha   60.00000000
_cell_angle_beta   60.00000000
_cell_angle_gamma   60.00000000
_symmetry_Int_Tables_number   1
_chemical_formula_structural   HfTiF6
_chemical_formula_sum   'Hf1 Ti1 F6'
_cell_volume   139.22423306
_cell_formula_units_Z   1
loop_
 _symmetry_equiv_pos_site_id
 _symmetry_equiv_pos_as_xyz
  1  'x, y, z'
loop_
 _atom_site_type_symbol
 _atom_site_label
 _atom_site_symmetry_multiplicity
 _atom_site_fract_x
 _atom_site_fract_y
 _atom_site_fract_z
 _atom_site_occupancy
  Hf  Hf0  1  0.00000000  0.00000000  0.00000000  1.0
  Ti  Ti1  1  -0.50000000  0.50000000  0.50000000  1.0
  F  F2  1  -0.75411122  0.75411122  0.75411122  1.0
  F  F3  1  -0.24588878  0.24588878  0.75411122  1.0
  F  F4  1  0.75411122  0.75411122  -0.75411122  1.0
  F  F5  1  0.24588878  1.24588878  -0.24588878  1.0
  F  F6  1  0.24588878  -0.24588878  1.24588878  1.0
  F  F7  1  -0.24588878  0.24588878  0.24588878  1.0
