# generated using pymatgen
data_Na2Co5Mo4(ClO4)4
_symmetry_space_group_name_H-M   'P 1'
_cell_length_a   6.94562272
_cell_length_b   6.94562272
_cell_length_c   10.67104197
_cell_angle_alpha   75.11021559
_cell_angle_beta   104.88978441
_cell_angle_gamma   101.59652517
_symmetry_Int_Tables_number   1
_chemical_formula_structural   Na2Co5Mo4(ClO4)4
_chemical_formula_sum   'Na2 Co5 Mo4 Cl4 O16'
_cell_volume   475.74969753
_cell_formula_units_Z   1
loop_
 _symmetry_equiv_pos_site_id
 _symmetry_equiv_pos_as_xyz
  1  'x, y, z'
loop_
 _atom_site_type_symbol
 _atom_site_label
 _atom_site_symmetry_multiplicity
 _atom_site_fract_x
 _atom_site_fract_y
 _atom_site_fract_z
 _atom_site_occupancy
  Na  Na0  1  0.82631076  0.17368924  0.99004355  1.0
  Na  Na1  1  1.17368924  -0.17368924  0.00995645  1.0
  Co  Co2  1  0.50000000  0.50000000  -0.00000000  1.0
  Co  Co3  1  1.41052183  -0.06493751  0.63310130  1.0
  Co  Co4  1  1.06493751  -0.41052183  0.63310130  1.0
  Co  Co5  1  0.93506249  0.41052183  0.36689870  1.0
  Co  Co6  1  0.58947817  0.06493751  0.36689870  1.0
  Cl  Cl7  1  1.52786672  -0.14281145  0.87365016  1.0
  Cl  Cl8  1  1.14281145  -0.52786672  0.87365016  1.0
  Cl  Cl9  1  0.85718855  0.52786672  0.12634984  1.0
  Cl  Cl10  1  0.47213328  0.14281145  0.12634984  1.0
  O  O11  1  0.97557742  0.02442258  0.82629685  1.0
  O  O12  1  1.02442258  -0.02442258  0.17370315  1.0
  O  O13  1  1.68483955  -0.01617607  0.58493510  1.0
  O  O14  1  1.01617607  -0.68483955  0.58493510  1.0
  O  O15  1  0.98382393  0.68483955  0.41506490  1.0
  O  O16  1  0.31516045  0.01617607  0.41506490  1.0
  O  O17  1  0.63617253  0.36382747  0.37362959  1.0
  O  O18  1  1.36382747  -0.36382747  0.62637041  1.0
  O  O19  1  0.89358656  0.10641344  0.37000837  1.0
  O  O20  1  1.10641344  -0.10641344  0.62999163  1.0
  O  O21  1  0.59386618  0.40613382  0.87006217  1.0
  O  O22  1  1.40613382  -0.40613382  0.12993783  1.0
  O  O23  1  0.44664711  0.22433698  0.64462182  1.0
  O  O24  1  0.77566302  0.55335289  0.64462182  1.0
  O  O25  1  1.22433698  -0.55335289  0.35537818  1.0
  O  O26  1  1.55335289  -0.22433698  0.35537818  1.0
  Mo  Mo27  1  0.94643359  0.05356641  0.65672720  1.0
  Mo  Mo28  1  1.05356641  -0.05356641  0.34327280  1.0
  Mo  Mo29  1  0.54392918  0.45607082  0.69229297  1.0
  Mo  Mo30  1  1.45607082  -0.45607082  0.30770703  1.0
