# generated using pymatgen
data_Na4Sc2(PO4)3
_symmetry_space_group_name_H-M   'P 1'
_cell_length_a   9.31860160
_cell_length_b   9.31860160
_cell_length_c   8.88142921
_cell_angle_alpha   58.35841095
_cell_angle_beta   121.64158905
_cell_angle_gamma   120.00010884
_symmetry_Int_Tables_number   1
_chemical_formula_structural   Na4Sc2(PO4)3
_chemical_formula_sum   'Na8 Sc4 P6 O24'
_cell_volume   531.41655752
_cell_formula_units_Z   2
loop_
 _symmetry_equiv_pos_site_id
 _symmetry_equiv_pos_as_xyz
  1  'x, y, z'
loop_
 _atom_site_type_symbol
 _atom_site_label
 _atom_site_symmetry_multiplicity
 _atom_site_fract_x
 _atom_site_fract_y
 _atom_site_fract_z
 _atom_site_occupancy
  Na  Na0  1  0.61207372  -0.38792628  0.75000000  1.0
  Na  Na1  1  1.38792628  0.38792628  0.25000000  1.0
  Na  Na2  1  0.88790820  -0.75000200  0.74997227  1.0
  Na  Na3  1  0.24999800  -0.11209180  0.75002773  1.0
  Na  Na4  1  1.11209180  0.75000200  0.25002773  1.0
  Na  Na5  1  1.75000200  0.11209180  0.24997227  1.0
  Na  Na6  1  1.00000000  -0.50000000  -0.00000000  1.0
  Na  Na7  1  1.50000000  0.00000000  0.50000000  1.0
  Sc  Sc8  1  0.84423322  -0.34423210  0.53269848  1.0
  Sc  Sc9  1  0.65576790  -0.15576678  0.96730152  1.0
  Sc  Sc10  1  1.15576678  0.34423210  0.46730152  1.0
  Sc  Sc11  1  1.34423210  0.15576678  0.03269848  1.0
  P  P12  1  1.24999953  0.55840982  0.75000865  1.0
  P  P13  1  1.55840982  0.24999953  0.74999135  1.0
  P  P14  1  0.75000047  -0.55840982  0.24999135  1.0
  P  P15  1  0.44159018  -0.24999953  0.25000865  1.0
  P  P16  1  0.94158677  -0.05841323  0.75000000  1.0
  P  P17  1  1.05841323  0.05841323  0.25000000  1.0
  O  O18  1  1.08998373  0.57651305  0.74550219  1.0
  O  O19  1  1.57651305  0.08998373  0.75449781  1.0
  O  O20  1  0.91001627  -0.57651305  0.25449781  1.0
  O  O21  1  0.42348695  -0.08998373  0.24550219  1.0
  O  O22  1  1.29772086  0.39645178  0.93000383  1.0
  O  O23  1  1.39645178  0.29772086  0.56999617  1.0
  O  O24  1  0.70227914  -0.39645178  0.06999617  1.0
  O  O25  1  0.60354822  -0.29772086  0.43000383  1.0
  O  O26  1  1.20227954  0.52871706  0.57001766  1.0
  O  O27  1  1.52871706  0.20227954  0.92998234  1.0
  O  O28  1  0.79772046  -0.52871706  0.42998234  1.0
  O  O29  1  0.47128294  -0.20227954  0.07001766  1.0
  O  O30  1  0.41001128  -0.26797271  0.75450768  1.0
  O  O31  1  0.73202729  -0.58998872  0.74549232  1.0
  O  O32  1  1.58998872  0.26797271  0.24549232  1.0
  O  O33  1  1.26797271  0.58998872  0.25450768  1.0
  O  O34  1  0.76797492  -0.07651748  0.75450921  1.0
  O  O35  1  0.92348252  -0.23202508  0.74549079  1.0
  O  O36  1  1.23202508  0.07651748  0.24549079  1.0
  O  O37  1  1.07651748  0.23202508  0.25450921  1.0
  O  O38  1  0.97126728  -0.89644635  0.57000656  1.0
  O  O39  1  0.10355365  -0.02873272  0.92999344  1.0
  O  O40  1  1.02873272  0.89644635  0.42999344  1.0
  O  O41  1  1.89644635  0.02873272  0.07000656  1.0
