# generated using pymatgen
data_Ti3As
_symmetry_space_group_name_H-M   'P 1'
_cell_length_a   10.16935740
_cell_length_b   10.16935740
_cell_length_c   5.11222263
_cell_angle_alpha   90.00000000
_cell_angle_beta   90.00000000
_cell_angle_gamma   90.00000000
_symmetry_Int_Tables_number   1
_chemical_formula_structural   Ti3As
_chemical_formula_sum   'Ti24 As8'
_cell_volume   528.68474591
_cell_formula_units_Z   8
loop_
 _symmetry_equiv_pos_site_id
 _symmetry_equiv_pos_as_xyz
  1  'x, y, z'
loop_
 _atom_site_type_symbol
 _atom_site_label
 _atom_site_symmetry_multiplicity
 _atom_site_fract_x
 _atom_site_fract_y
 _atom_site_fract_z
 _atom_site_occupancy
  Ti  Ti0  1  0.58161824  0.89566538  0.03637280  1.0
  Ti  Ti1  1  0.41838176  0.10433462  0.03637280  1.0
  Ti  Ti2  1  0.39566538  0.91838176  0.53637280  1.0
  Ti  Ti3  1  0.60433462  0.08161824  0.53637280  1.0
  Ti  Ti4  1  0.91838176  0.60433462  0.46362720  1.0
  Ti  Ti5  1  0.08161824  0.39566538  0.46362720  1.0
  Ti  Ti6  1  0.10433462  0.58161824  0.96362720  1.0
  Ti  Ti7  1  0.89566538  0.41838176  0.96362720  1.0
  Ti  Ti8  1  0.02740108  0.85730855  0.71331099  1.0
  Ti  Ti9  1  0.97259892  0.14269145  0.71331099  1.0
  Ti  Ti10  1  0.35730855  0.47259892  0.21331099  1.0
  Ti  Ti11  1  0.64269145  0.52740108  0.21331099  1.0
  Ti  Ti12  1  0.47259892  0.64269145  0.78668901  1.0
  Ti  Ti13  1  0.52740108  0.35730855  0.78668901  1.0
  Ti  Ti14  1  0.14269145  0.02740108  0.28668901  1.0
  Ti  Ti15  1  0.85730855  0.97259892  0.28668901  1.0
  Ti  Ti16  1  0.18279209  0.28445794  0.99560778  1.0
  Ti  Ti17  1  0.81720791  0.71554206  0.99560778  1.0
  Ti  Ti18  1  0.78445794  0.31720791  0.49560778  1.0
  Ti  Ti19  1  0.21554206  0.68279209  0.49560778  1.0
  Ti  Ti20  1  0.31720791  0.21554206  0.50439222  1.0
  Ti  Ti21  1  0.68279209  0.78445794  0.50439222  1.0
  Ti  Ti22  1  0.71554206  0.18279209  0.00439222  1.0
  Ti  Ti23  1  0.28445794  0.81720791  0.00439222  1.0
  As  As24  1  0.04083458  0.79408775  0.21153847  1.0
  As  As25  1  0.95916542  0.20591225  0.21153847  1.0
  As  As26  1  0.29408775  0.45916542  0.71153847  1.0
  As  As27  1  0.70591225  0.54083458  0.71153847  1.0
  As  As28  1  0.45916542  0.70591225  0.28846153  1.0
  As  As29  1  0.54083458  0.29408775  0.28846153  1.0
  As  As30  1  0.20591225  0.04083458  0.78846153  1.0
  As  As31  1  0.79408775  0.95916542  0.78846153  1.0
