# generated using pymatgen
data_CuH8C4(NO)10
_symmetry_space_group_name_H-M   'P 1'
_cell_length_a   8.32230947
_cell_length_b   5.19086741
_cell_length_c   8.62529820
_cell_angle_alpha   82.14947117
_cell_angle_beta   72.07970058
_cell_angle_gamma   92.19358982
_symmetry_Int_Tables_number   1
_chemical_formula_structural   CuH8C4(NO)10
_chemical_formula_sum   'Cu1 H8 C4 N10 O10'
_cell_volume   349.93602873
_cell_formula_units_Z   1
loop_
 _symmetry_equiv_pos_site_id
 _symmetry_equiv_pos_as_xyz
  1  'x, y, z'
loop_
 _atom_site_type_symbol
 _atom_site_label
 _atom_site_symmetry_multiplicity
 _atom_site_fract_x
 _atom_site_fract_y
 _atom_site_fract_z
 _atom_site_occupancy
  Cu  Cu0  1  -0.50000000  -0.50000000  -0.50000000  1.0
  H  H1  1  -0.46579208  -0.91435126  -0.30672068  1.0
  H  H2  1  -0.53420792  -0.08564874  -0.69327932  1.0
  H  H3  1  -0.77355616  -0.83410861  -0.38832986  1.0
  H  H4  1  -0.22644384  -0.16589139  -0.61167014  1.0
  H  H5  1  -0.75585203  -0.65188340  -0.25733825  1.0
  H  H6  1  -0.24414797  -0.34811660  -0.74266175  1.0
  H  H7  1  -0.66216767  -0.32684031  -0.69769744  1.0
  H  H8  1  -0.33783233  -0.67315969  -0.30230256  1.0
  C  C9  1  -0.95253360  -0.84459132  -0.85015934  1.0
  C  C10  1  -0.04746640  -0.15540868  -0.14984066  1.0
  C  C11  1  -0.82196780  -0.62700902  -0.90934875  1.0
  C  C12  1  -0.17803220  -0.37299098  -0.09065125  1.0
  N  N13  1  -0.97041545  -0.98755940  -0.07798687  1.0
  N  N14  1  -0.02958455  -0.01244060  -0.92201313  1.0
  N  N15  1  -1.00838066  -0.87918343  -0.68734642  1.0
  N  N16  1  0.00838066  -0.12081657  -0.31265358  1.0
  N  N17  1  -0.36325660  -0.67629401  -0.88933709  1.0
  N  N18  1  -0.63674340  -0.32370599  -0.11066291  1.0
  N  N19  1  -0.80253284  -0.54180583  -0.77651941  1.0
  N  N20  1  -0.19746716  -0.45819417  -0.22348059  1.0
  N  N21  1  -0.25258517  -0.46439819  -0.92687474  1.0
  N  N22  1  -0.74741483  -0.53560181  -0.07312526  1.0
  O  O23  1  -0.40521746  -0.77943153  -0.99357830  1.0
  O  O24  1  -0.59478254  -0.22056847  -0.00642170  1.0
  O  O25  1  -0.39414152  -0.75441249  -0.37215921  1.0
  O  O26  1  -0.60585848  -0.24558751  -0.62784079  1.0
  O  O27  1  -0.42268335  -0.76824986  -0.73590158  1.0
  O  O28  1  -0.57731665  -0.23175014  -0.26409842  1.0
  O  O29  1  -0.91996799  -0.70152000  -0.64049912  1.0
  O  O30  1  -0.08003201  -0.29848000  -0.35950088  1.0
  O  O31  1  -0.73269411  -0.65959064  -0.37815845  1.0
  O  O32  1  -0.26730589  -0.34040936  -0.62184155  1.0
