# generated using pymatgen
data_Nb2PbO6
_symmetry_space_group_name_H-M   'P 1'
_cell_length_a   7.25637654
_cell_length_b   7.25637654
_cell_length_c   7.25637654
_cell_angle_alpha   94.78442987
_cell_angle_beta   94.78442987
_cell_angle_gamma   94.78442987
_symmetry_Int_Tables_number   1
_chemical_formula_structural   Nb2PbO6
_chemical_formula_sum   'Nb6 Pb3 O18'
_cell_volume   377.85227914
_cell_formula_units_Z   3
loop_
 _symmetry_equiv_pos_site_id
 _symmetry_equiv_pos_as_xyz
  1  'x, y, z'
loop_
 _atom_site_type_symbol
 _atom_site_label
 _atom_site_symmetry_multiplicity
 _atom_site_fract_x
 _atom_site_fract_y
 _atom_site_fract_z
 _atom_site_occupancy
  Nb  Nb0  1  1.15060161  0.50000000  -0.15060161  1.0
  Nb  Nb1  1  1.15060161  -0.15060161  0.50000000  1.0
  Nb  Nb2  1  0.50000000  1.15060161  -0.15060161  1.0
  Nb  Nb3  1  0.50000000  0.84939839  0.15060161  1.0
  Nb  Nb4  1  0.84939839  0.50000000  0.15060161  1.0
  Nb  Nb5  1  0.84939839  0.15060161  0.50000000  1.0
  Pb  Pb6  1  0.67856131  0.67856131  0.67856131  1.0
  Pb  Pb7  1  0.32143869  0.32143869  0.32143869  1.0
  Pb  Pb8  1  0.00000000  0.00000000  0.00000000  1.0
  O  O9  1  1.09346463  0.09346463  -0.61910613  1.0
  O  O10  1  1.09346463  -0.61910613  0.09346463  1.0
  O  O11  1  1.61910613  0.90653537  -0.09346463  1.0
  O  O12  1  0.90653537  1.61910613  -0.09346463  1.0
  O  O13  1  0.90653537  0.90653537  0.61910613  1.0
  O  O14  1  0.38089387  0.09346463  0.09346463  1.0
  O  O15  1  1.37762974  0.37762974  -0.16499502  1.0
  O  O16  1  1.37762974  -0.16499502  0.37762974  1.0
  O  O17  1  1.16499502  0.62237026  -0.37762974  1.0
  O  O18  1  0.62237026  1.16499502  -0.37762974  1.0
  O  O19  1  0.62237026  0.62237026  0.16499502  1.0
  O  O20  1  0.83500498  0.37762974  0.37762974  1.0
  O  O21  1  0.71610021  0.00000000  0.28389979  1.0
  O  O22  1  0.71610021  0.28389979  0.00000000  1.0
  O  O23  1  1.00000000  -0.28389979  0.28389979  1.0
  O  O24  1  1.00000000  0.28389979  -0.28389979  1.0
  O  O25  1  1.28389979  -0.00000000  -0.28389979  1.0
  O  O26  1  1.28389979  -0.28389979  0.00000000  1.0
