# generated using pymatgen
data_Sc2SnAu2
_symmetry_space_group_name_H-M   'P 1'
_cell_length_a   7.63386059
_cell_length_b   7.63386059
_cell_length_c   7.07550454
_cell_angle_alpha   90.00000000
_cell_angle_beta   90.00000000
_cell_angle_gamma   90.00000000
_symmetry_Int_Tables_number   1
_chemical_formula_structural   Sc2SnAu2
_chemical_formula_sum   'Sc8 Sn4 Au8'
_cell_volume   412.33088234
_cell_formula_units_Z   4
loop_
 _symmetry_equiv_pos_site_id
 _symmetry_equiv_pos_as_xyz
  1  'x, y, z'
loop_
 _atom_site_type_symbol
 _atom_site_label
 _atom_site_symmetry_multiplicity
 _atom_site_fract_x
 _atom_site_fract_y
 _atom_site_fract_z
 _atom_site_occupancy
  Sc  Sc0  1  0.18649983  0.18649983  0.50000000  1.0
  Sc  Sc1  1  0.68649983  0.31350017  0.00000000  1.0
  Sc  Sc2  1  0.81350017  0.81350017  0.50000000  1.0
  Sc  Sc3  1  0.31350017  0.68649983  0.00000000  1.0
  Sc  Sc4  1  0.35121193  0.64878807  0.50000000  1.0
  Sc  Sc5  1  0.85121193  0.85121193  0.00000000  1.0
  Sc  Sc6  1  0.64878807  0.35121193  0.50000000  1.0
  Sc  Sc7  1  0.14878807  0.14878807  0.00000000  1.0
  Sn  Sn8  1  0.50000000  0.00000000  0.25000000  1.0
  Sn  Sn9  1  0.50000000  0.00000000  0.75000000  1.0
  Sn  Sn10  1  0.00000000  0.50000000  0.75000000  1.0
  Sn  Sn11  1  0.00000000  0.50000000  0.25000000  1.0
  Au  Au12  1  0.13014172  0.86985828  0.28741643  1.0
  Au  Au13  1  0.13014172  0.86985828  0.71258357  1.0
  Au  Au14  1  0.63014172  0.63014172  0.78741643  1.0
  Au  Au15  1  0.63014172  0.63014172  0.21258357  1.0
  Au  Au16  1  0.86985828  0.13014172  0.28741643  1.0
  Au  Au17  1  0.86985828  0.13014172  0.71258357  1.0
  Au  Au18  1  0.36985828  0.36985828  0.78741643  1.0
  Au  Au19  1  0.36985828  0.36985828  0.21258357  1.0
