# generated using pymatgen
data_LiFe(WO4)2
_symmetry_space_group_name_H-M   'P 1'
_cell_length_a   7.48513261
_cell_length_b   7.48513261
_cell_length_c   4.94518774
_cell_angle_alpha   89.51995673
_cell_angle_beta   90.48004327
_cell_angle_gamma   77.83838901
_symmetry_Int_Tables_number   1
_chemical_formula_structural   LiFe(WO4)2
_chemical_formula_sum   'Li2 Fe2 W4 O16'
_cell_volume   270.82288753
_cell_formula_units_Z   2
loop_
 _symmetry_equiv_pos_site_id
 _symmetry_equiv_pos_as_xyz
  1  'x, y, z'
loop_
 _atom_site_type_symbol
 _atom_site_label
 _atom_site_symmetry_multiplicity
 _atom_site_fract_x
 _atom_site_fract_y
 _atom_site_fract_z
 _atom_site_occupancy
  W  W0  1  0.34383292  -0.16166818  0.25572945  1.0
  W  W1  1  1.16166818  0.65616708  0.75572945  1.0
  W  W2  1  0.83833182  -0.65616708  0.24427055  1.0
  W  W3  1  1.65616708  0.16166818  0.74427055  1.0
  Li  Li4  1  1.34293192  0.34293192  0.25000000  1.0
  Li  Li5  1  0.65706808  -0.34293192  0.75000000  1.0
  O  O6  1  0.70039986  -0.06009842  0.91410791  1.0
  O  O7  1  1.06009842  0.29960014  0.41410791  1.0
  O  O8  1  0.93990158  -0.29960014  0.58589209  1.0
  O  O9  1  1.29960014  0.06009842  0.08589209  1.0
  O  O10  1  0.56997347  -0.18492971  0.39332156  1.0
  O  O11  1  1.18492971  0.43002653  0.89332156  1.0
  O  O12  1  0.81507029  -0.43002653  0.10667844  1.0
  O  O13  1  1.43002653  0.18492971  0.60667844  1.0
  O  O14  1  1.59911593  0.30527956  0.05521718  1.0
  O  O15  1  0.69472044  -0.59911593  0.55521718  1.0
  O  O16  1  1.30527956  0.59911593  0.44478282  1.0
  O  O17  1  0.40088407  -0.30527956  0.94478282  1.0
  O  O18  1  1.80335226  0.07566020  0.42569419  1.0
  O  O19  1  0.92433980  -0.80335226  0.92569419  1.0
  O  O20  1  1.07566020  0.80335226  0.07430581  1.0
  O  O21  1  0.19664774  -0.07566020  0.57430581  1.0
  Fe  Fe22  1  0.83623140  -0.16376860  0.25000000  1.0
  Fe  Fe23  1  1.16376860  0.16376860  0.75000000  1.0
