# generated using pymatgen
data_HfTlF5
_symmetry_space_group_name_H-M   'P 1'
_cell_length_a   7.50785700
_cell_length_b   8.01591792
_cell_length_c   8.00195060
_cell_angle_alpha   90.00000000
_cell_angle_beta   114.68964110
_cell_angle_gamma   90.00000000
_symmetry_Int_Tables_number   1
_chemical_formula_structural   HfTlF5
_chemical_formula_sum   'Hf4 Tl4 F20'
_cell_volume   437.55239615
_cell_formula_units_Z   4
loop_
 _symmetry_equiv_pos_site_id
 _symmetry_equiv_pos_as_xyz
  1  'x, y, z'
loop_
 _atom_site_type_symbol
 _atom_site_label
 _atom_site_symmetry_multiplicity
 _atom_site_fract_x
 _atom_site_fract_y
 _atom_site_fract_z
 _atom_site_occupancy
  Hf  Hf0  1  0.99295302  0.83843998  0.66154811  1.0
  Hf  Hf1  1  0.99295302  0.66156002  0.16154811  1.0
  Hf  Hf2  1  0.00704698  0.33843998  0.83845189  1.0
  Hf  Hf3  1  0.00704698  0.16156002  0.33845189  1.0
  Tl  Tl4  1  0.43640490  0.53895988  0.70488792  1.0
  Tl  Tl5  1  0.43640490  0.96104012  0.20488792  1.0
  Tl  Tl6  1  0.56359510  0.03895988  0.79511208  1.0
  Tl  Tl7  1  0.56359510  0.46104012  0.29511208  1.0
  F  F8  1  0.99929440  0.56370387  0.71151509  1.0
  F  F9  1  0.99929440  0.93629613  0.21151509  1.0
  F  F10  1  0.00070560  0.06370387  0.78848491  1.0
  F  F11  1  0.00070560  0.43629613  0.28848491  1.0
  F  F12  1  0.99392383  0.78842224  0.93852467  1.0
  F  F13  1  0.99392383  0.71157776  0.43852467  1.0
  F  F14  1  0.00607617  0.28842224  0.56147533  1.0
  F  F15  1  0.00607617  0.21157776  0.06147533  1.0
  F  F16  1  0.82637592  0.49826119  0.93402172  1.0
  F  F17  1  0.82637592  0.00173881  0.43402172  1.0
  F  F18  1  0.17362408  0.99826119  0.56597828  1.0
  F  F19  1  0.17362408  0.50173881  0.06597828  1.0
  F  F20  1  0.70974080  0.79247115  0.60539686  1.0
  F  F21  1  0.70974080  0.70752885  0.10539686  1.0
  F  F22  1  0.29025920  0.29247115  0.89460314  1.0
  F  F23  1  0.29025920  0.20752885  0.39460314  1.0
  F  F24  1  0.27900570  0.79429437  0.82867172  1.0
  F  F25  1  0.27900570  0.70570563  0.32867172  1.0
  F  F26  1  0.72099430  0.29429437  0.67132828  1.0
  F  F27  1  0.72099430  0.20570563  0.17132828  1.0
