# generated using pymatgen
data_CuH12Br4(NO)2
_symmetry_space_group_name_H-M   'P 1'
_cell_length_a   8.13582366
_cell_length_b   8.13582366
_cell_length_c   8.36476171
_cell_angle_alpha   90.00000000
_cell_angle_beta   90.00000000
_cell_angle_gamma   90.00000000
_symmetry_Int_Tables_number   1
_chemical_formula_structural   CuH12Br4(NO)2
_chemical_formula_sum   'Cu2 H24 Br8 N4 O4'
_cell_volume   553.67718408
_cell_formula_units_Z   2
loop_
 _symmetry_equiv_pos_site_id
 _symmetry_equiv_pos_as_xyz
  1  'x, y, z'
loop_
 _atom_site_type_symbol
 _atom_site_label
 _atom_site_symmetry_multiplicity
 _atom_site_fract_x
 _atom_site_fract_y
 _atom_site_fract_z
 _atom_site_occupancy
  N  N0  1  0.50000000  0.50000000  0.50000000  1.0
  N  N1  1  0.00000000  0.00000000  0.50000000  1.0
  N  N2  1  0.50000000  0.50000000  0.00000000  1.0
  N  N3  1  0.00000000  0.00000000  0.00000000  1.0
  H  H4  1  0.43760944  0.41565709  0.42893969  1.0
  H  H5  1  0.06239056  0.91565709  0.57106031  1.0
  H  H6  1  0.58434291  0.43760944  0.57106031  1.0
  H  H7  1  0.91565709  0.93760944  0.42893969  1.0
  H  H8  1  0.56239056  0.58434291  0.42893969  1.0
  H  H9  1  0.93760944  0.08434291  0.57106031  1.0
  H  H10  1  0.41565709  0.56239056  0.57106031  1.0
  H  H11  1  0.08434291  0.06239056  0.42893969  1.0
  H  H12  1  0.43735310  0.41570143  0.92879534  1.0
  H  H13  1  0.06264690  0.91570143  0.07120466  1.0
  H  H14  1  0.58429857  0.43735310  0.07120466  1.0
  H  H15  1  0.91570143  0.93735310  0.92879534  1.0
  H  H16  1  0.56264690  0.58429857  0.92879534  1.0
  H  H17  1  0.93735310  0.08429857  0.07120466  1.0
  H  H18  1  0.41570143  0.56264690  0.07120466  1.0
  H  H19  1  0.08429857  0.06264690  0.92879534  1.0
  H  H20  1  0.93011301  0.43011301  0.42192228  1.0
  H  H21  1  0.56988699  0.93011301  0.57807772  1.0
  H  H22  1  0.06988699  0.56988699  0.42192228  1.0
  H  H23  1  0.43011301  0.06988699  0.57807772  1.0
  H  H24  1  0.93003102  0.43003102  0.03060808  1.0
  H  H25  1  0.56996898  0.93003102  0.96939192  1.0
  H  H26  1  0.06996898  0.56996898  0.03060808  1.0
  H  H27  1  0.43003102  0.06996898  0.96939192  1.0
  O  O28  1  0.00000000  0.50000000  0.96126579  1.0
  O  O29  1  0.50000000  0.00000000  0.03873421  1.0
  O  O30  1  0.00000000  0.50000000  0.49145349  1.0
  O  O31  1  0.50000000  0.00000000  0.50854651  1.0
  Br  Br32  1  0.79106314  0.29106314  0.22441567  1.0
  Br  Br33  1  0.70893686  0.79106314  0.77558433  1.0
  Br  Br34  1  0.20893686  0.70893686  0.22441567  1.0
  Br  Br35  1  0.29106314  0.20893686  0.77558433  1.0
  Br  Br36  1  0.78808406  0.28808406  0.72487261  1.0
  Br  Br37  1  0.71191594  0.78808406  0.27512739  1.0
  Br  Br38  1  0.21191594  0.71191594  0.72487261  1.0
  Br  Br39  1  0.28808406  0.21191594  0.27512739  1.0
  Cu  Cu40  1  0.00000000  0.50000000  0.72668531  1.0
  Cu  Cu41  1  0.50000000  0.00000000  0.27331469  1.0
