# generated using pymatgen
data_K3IO5
_symmetry_space_group_name_H-M   'P 1'
_cell_length_a   6.35357308
_cell_length_b   6.35357308
_cell_length_c   16.93840232
_cell_angle_alpha   90.00000000
_cell_angle_beta   90.00000000
_cell_angle_gamma   90.00000000
_symmetry_Int_Tables_number   1
_chemical_formula_structural   K3IO5
_chemical_formula_sum   'K12 I4 O20'
_cell_volume   683.76757692
_cell_formula_units_Z   4
loop_
 _symmetry_equiv_pos_site_id
 _symmetry_equiv_pos_as_xyz
  1  'x, y, z'
loop_
 _atom_site_type_symbol
 _atom_site_label
 _atom_site_symmetry_multiplicity
 _atom_site_fract_x
 _atom_site_fract_y
 _atom_site_fract_z
 _atom_site_occupancy
  K  K0  1  0.50000000  0.50000000  0.75000000  1.0
  K  K1  1  0.50000000  0.50000000  0.25000000  1.0
  K  K2  1  0.00000000  0.00000000  0.25000000  1.0
  K  K3  1  0.00000000  0.00000000  0.75000000  1.0
  K  K4  1  0.50000000  0.50000000  0.50000000  1.0
  K  K5  1  0.50000000  0.50000000  0.00000000  1.0
  K  K6  1  0.00000000  0.00000000  0.50000000  1.0
  K  K7  1  0.00000000  0.00000000  -0.00000000  1.0
  K  K8  1  0.00000000  0.50000000  0.88839246  1.0
  K  K9  1  0.00000000  0.50000000  0.38839246  1.0
  K  K10  1  0.50000000  0.00000000  0.11160754  1.0
  K  K11  1  0.50000000  0.00000000  0.61160754  1.0
  I  I12  1  0.00000000  0.50000000  0.62782710  1.0
  I  I13  1  0.00000000  0.50000000  0.12782710  1.0
  I  I14  1  0.50000000  0.00000000  0.37217290  1.0
  I  I15  1  0.50000000  0.00000000  0.87217290  1.0
  O  O16  1  0.00000000  0.50000000  0.73889932  1.0
  O  O17  1  0.00000000  0.50000000  0.23889932  1.0
  O  O18  1  0.50000000  0.00000000  0.26110068  1.0
  O  O19  1  0.50000000  0.00000000  0.76110068  1.0
  O  O20  1  0.20930556  0.70935945  0.60504628  1.0
  O  O21  1  0.20930556  0.29064055  0.10504628  1.0
  O  O22  1  0.29069444  0.79064055  0.39495372  1.0
  O  O23  1  0.70930556  0.79064055  0.89495372  1.0
  O  O24  1  0.79069444  0.29064055  0.60504628  1.0
  O  O25  1  0.79069444  0.70935945  0.10504628  1.0
  O  O26  1  0.70930556  0.20935945  0.39495372  1.0
  O  O27  1  0.29069444  0.20935945  0.89495372  1.0
  O  O28  1  0.70935945  0.79069444  0.39495372  1.0
  O  O29  1  0.29064055  0.79069444  0.89495372  1.0
  O  O30  1  0.20935945  0.29069444  0.60504628  1.0
  O  O31  1  0.79064055  0.29069444  0.10504628  1.0
  O  O32  1  0.29064055  0.20930556  0.39495372  1.0
  O  O33  1  0.70935945  0.20930556  0.89495372  1.0
  O  O34  1  0.79064055  0.70930556  0.60504628  1.0
  O  O35  1  0.20935945  0.70930556  0.10504628  1.0
