# generated using pymatgen
data_Ti2O3
_symmetry_space_group_name_H-M   'P 1'
_cell_length_a   7.87040321
_cell_length_b   2.84832943
_cell_length_c   8.18979232
_cell_angle_alpha   90.00000000
_cell_angle_beta   90.00000000
_cell_angle_gamma   90.00000000
_symmetry_Int_Tables_number   1
_chemical_formula_structural   Ti2O3
_chemical_formula_sum   'Ti8 O12'
_cell_volume   183.59467833
_cell_formula_units_Z   4
loop_
 _symmetry_equiv_pos_site_id
 _symmetry_equiv_pos_as_xyz
  1  'x, y, z'
loop_
 _atom_site_type_symbol
 _atom_site_label
 _atom_site_symmetry_multiplicity
 _atom_site_fract_x
 _atom_site_fract_y
 _atom_site_fract_z
 _atom_site_occupancy
  Ti  Ti0  1  0.96980471  0.75000000  0.68418584  1.0
  Ti  Ti1  1  0.46980471  0.75000000  0.81581416  1.0
  Ti  Ti2  1  0.03019529  0.25000000  0.31581416  1.0
  Ti  Ti3  1  0.53019529  0.25000000  0.18418584  1.0
  Ti  Ti4  1  0.80378492  0.75000000  0.01882749  1.0
  Ti  Ti5  1  0.30378492  0.75000000  0.48117251  1.0
  Ti  Ti6  1  0.19621508  0.25000000  0.98117251  1.0
  Ti  Ti7  1  0.69621508  0.25000000  0.51882749  1.0
  O  O8  1  0.87900996  0.75000000  0.44748190  1.0
  O  O9  1  0.37900996  0.75000000  0.05251810  1.0
  O  O10  1  0.12099004  0.25000000  0.55251810  1.0
  O  O11  1  0.62099004  0.25000000  0.94748190  1.0
  O  O12  1  0.70728269  0.75000000  0.68949632  1.0
  O  O13  1  0.20728269  0.75000000  0.81050368  1.0
  O  O14  1  0.29271731  0.25000000  0.31050368  1.0
  O  O15  1  0.79271731  0.25000000  0.18949632  1.0
  O  O16  1  0.55785679  0.75000000  0.37502968  1.0
  O  O17  1  0.05785679  0.75000000  0.12497032  1.0
  O  O18  1  0.44214321  0.25000000  0.62497032  1.0
  O  O19  1  0.94214321  0.25000000  0.87502968  1.0
