# generated using pymatgen
data_BaNaGaSe3
_symmetry_space_group_name_H-M   'P 1'
_cell_length_a   20.82231663
_cell_length_b   9.26234594
_cell_length_c   7.31737126
_cell_angle_alpha   90.00000000
_cell_angle_beta   90.00000000
_cell_angle_gamma   90.00000000
_symmetry_Int_Tables_number   1
_chemical_formula_structural   BaNaGaSe3
_chemical_formula_sum   'Ba8 Na8 Ga8 Se24'
_cell_volume   1411.25383036
_cell_formula_units_Z   8
loop_
 _symmetry_equiv_pos_site_id
 _symmetry_equiv_pos_as_xyz
  1  'x, y, z'
loop_
 _atom_site_type_symbol
 _atom_site_label
 _atom_site_symmetry_multiplicity
 _atom_site_fract_x
 _atom_site_fract_y
 _atom_site_fract_z
 _atom_site_occupancy
  Ba  Ba0  1  0.82900289  0.51037130  0.78670730  1.0
  Ba  Ba1  1  0.67099711  0.48962870  0.28670730  1.0
  Ba  Ba2  1  0.17099711  0.01037130  0.21329270  1.0
  Ba  Ba3  1  0.32900289  0.98962870  0.71329270  1.0
  Ba  Ba4  1  0.17099711  0.48962870  0.21329270  1.0
  Ba  Ba5  1  0.32900289  0.51037130  0.71329270  1.0
  Ba  Ba6  1  0.82900289  0.98962870  0.78670730  1.0
  Ba  Ba7  1  0.67099711  0.01037130  0.28670730  1.0
  Na  Na8  1  0.90648723  0.25000000  0.15833930  1.0
  Na  Na9  1  0.59351277  0.75000000  0.65833930  1.0
  Na  Na10  1  0.09351277  0.75000000  0.84166070  1.0
  Na  Na11  1  0.40648723  0.25000000  0.34166070  1.0
  Na  Na12  1  0.00000000  0.50000000  0.50000000  1.0
  Na  Na13  1  0.50000000  0.50000000  0.00000000  1.0
  Na  Na14  1  0.00000000  0.00000000  0.50000000  1.0
  Na  Na15  1  0.50000000  0.00000000  0.00000000  1.0
  Ga  Ga16  1  0.68931427  0.25000000  0.76304709  1.0
  Ga  Ga17  1  0.81068573  0.75000000  0.26304709  1.0
  Ga  Ga18  1  0.31068573  0.75000000  0.23695291  1.0
  Ga  Ga19  1  0.18931427  0.25000000  0.73695291  1.0
  Ga  Ga20  1  0.95714947  0.75000000  0.10479432  1.0
  Ga  Ga21  1  0.54285053  0.25000000  0.60479432  1.0
  Ga  Ga22  1  0.04285053  0.25000000  0.89520568  1.0
  Ga  Ga23  1  0.45714947  0.75000000  0.39520568  1.0
  Se  Se24  1  0.88905433  0.55193529  0.23474271  1.0
  Se  Se25  1  0.61094567  0.44806471  0.73474271  1.0
  Se  Se26  1  0.11094567  0.05193529  0.76525729  1.0
  Se  Se27  1  0.38905433  0.94806471  0.26525729  1.0
  Se  Se28  1  0.11094567  0.44806471  0.76525729  1.0
  Se  Se29  1  0.38905433  0.55193529  0.26525729  1.0
  Se  Se30  1  0.88905433  0.94806471  0.23474271  1.0
  Se  Se31  1  0.61094567  0.05193529  0.73474271  1.0
  Se  Se32  1  0.75176786  0.25000000  0.03695449  1.0
  Se  Se33  1  0.74823214  0.75000000  0.53695449  1.0
  Se  Se34  1  0.24823214  0.75000000  0.96304551  1.0
  Se  Se35  1  0.25176786  0.25000000  0.46304551  1.0
  Se  Se36  1  0.95056769  0.75000000  0.77418885  1.0
  Se  Se37  1  0.54943231  0.25000000  0.27418885  1.0
  Se  Se38  1  0.04943231  0.25000000  0.22581115  1.0
  Se  Se39  1  0.45056769  0.75000000  0.72581115  1.0
  Se  Se40  1  0.76398666  0.25000000  0.51312253  1.0
  Se  Se41  1  0.73601334  0.75000000  0.01312253  1.0
  Se  Se42  1  0.23601334  0.75000000  0.48687747  1.0
  Se  Se43  1  0.26398666  0.25000000  0.98687747  1.0
  Se  Se44  1  0.93978259  0.25000000  0.74740900  1.0
  Se  Se45  1  0.56021741  0.75000000  0.24740900  1.0
  Se  Se46  1  0.06021741  0.75000000  0.25259100  1.0
  Se  Se47  1  0.43978259  0.25000000  0.75259100  1.0
