# generated using pymatgen
data_CaZrSi2O7
_symmetry_space_group_name_H-M   'P 1'
_cell_length_a   5.57576706
_cell_length_b   5.57576706
_cell_length_c   4.73739540
_cell_angle_alpha   82.74817510
_cell_angle_beta   97.25182490
_cell_angle_gamma   76.48106929
_symmetry_Int_Tables_number   1
_chemical_formula_structural   CaZrSi2O7
_chemical_formula_sum   'Ca1 Zr1 Si2 O7'
_cell_volume   140.19140600
_cell_formula_units_Z   1
loop_
 _symmetry_equiv_pos_site_id
 _symmetry_equiv_pos_as_xyz
  1  'x, y, z'
loop_
 _atom_site_type_symbol
 _atom_site_label
 _atom_site_symmetry_multiplicity
 _atom_site_fract_x
 _atom_site_fract_y
 _atom_site_fract_z
 _atom_site_occupancy
  Ca  Ca0  1  -0.00081984  -0.00081984  -0.00000000  1.0
  Zr  Zr1  1  0.60965624  -0.39034376  0.00000000  1.0
  Si  Si2  1  1.07388394  0.49847556  0.58310031  1.0
  Si  Si3  1  1.49847556  0.07388394  0.41689969  1.0
  O  O4  1  1.26027657  0.63575152  0.76322340  1.0
  O  O5  1  1.63575152  0.26027657  0.23677660  1.0
  O  O6  1  0.88424701  -0.58869711  0.79190386  1.0
  O  O7  1  0.41130289  -0.11575299  0.20809614  1.0
  O  O8  1  0.66911201  -0.08310790  0.71856315  1.0
  O  O9  1  0.91689210  -0.33088799  0.28143685  1.0
  O  O10  1  1.23252199  0.23252199  0.50000000  1.0
