# generated using pymatgen
data_Ca(MnAs)2
_symmetry_space_group_name_H-M   'P 1'
_cell_length_a   3.99878817
_cell_length_b   3.99878817
_cell_length_c   6.99484966
_cell_angle_alpha   90.00000000
_cell_angle_beta   90.00000000
_cell_angle_gamma   120.00000000
_symmetry_Int_Tables_number   1
_chemical_formula_structural   Ca(MnAs)2
_chemical_formula_sum   'Ca1 Mn2 As2'
_cell_volume   96.86476170
_cell_formula_units_Z   1
loop_
 _symmetry_equiv_pos_site_id
 _symmetry_equiv_pos_as_xyz
  1  'x, y, z'
loop_
 _atom_site_type_symbol
 _atom_site_label
 _atom_site_symmetry_multiplicity
 _atom_site_fract_x
 _atom_site_fract_y
 _atom_site_fract_z
 _atom_site_occupancy
  Ca  Ca0  1  0.00000000  0.00000000  -0.00000000  1.0
  Mn  Mn1  1  0.33333333  0.66666667  0.61589364  1.0
  Mn  Mn2  1  0.66666667  0.33333333  0.38410636  1.0
  As  As3  1  0.33333333  0.66666667  0.27034859  1.0
  As  As4  1  0.66666667  0.33333333  0.72965141  1.0
