# generated using pymatgen
data_Rb2P3
_symmetry_space_group_name_H-M   'P 1'
_cell_length_a   8.90649478
_cell_length_b   8.71993886
_cell_length_c   6.67955837
_cell_angle_alpha   69.22023790
_cell_angle_beta   66.25797282
_cell_angle_gamma   44.52178928
_symmetry_Int_Tables_number   1
_chemical_formula_structural   Rb2P3
_chemical_formula_sum   'Rb4 P6'
_cell_volume   331.10270066
_cell_formula_units_Z   2
loop_
 _symmetry_equiv_pos_site_id
 _symmetry_equiv_pos_as_xyz
  1  'x, y, z'
loop_
 _atom_site_type_symbol
 _atom_site_label
 _atom_site_symmetry_multiplicity
 _atom_site_fract_x
 _atom_site_fract_y
 _atom_site_fract_z
 _atom_site_occupancy
  Rb  Rb0  1  -0.27670674  0.27670674  0.72329326  1.0
  Rb  Rb1  1  0.27670674  -0.27670674  1.27670674  1.0
  Rb  Rb2  1  -0.25000000  0.75000000  0.75000000  1.0
  Rb  Rb3  1  0.25000000  0.25000000  1.25000000  1.0
  P  P4  1  0.13372191  0.72022804  -0.13372191  1.0
  P  P5  1  -0.72022804  0.86627809  0.72022804  1.0
  P  P6  1  -0.27977196  1.13372191  0.27977196  1.0
  P  P7  1  -0.13372191  0.27977196  0.13372191  1.0
  P  P8  1  -0.14691586  0.85308414  0.14691586  1.0
  P  P9  1  0.14691586  0.14691586  -0.14691586  1.0
