# generated using pymatgen
data_Ti2S
_symmetry_space_group_name_H-M   'P 1'
_cell_length_a   11.36012451
_cell_length_b   14.02156361
_cell_length_c   3.32230707
_cell_angle_alpha   90.00000000
_cell_angle_beta   90.00000000
_cell_angle_gamma   90.00000000
_symmetry_Int_Tables_number   1
_chemical_formula_structural   Ti2S
_chemical_formula_sum   'Ti24 S12'
_cell_volume   529.19935677
_cell_formula_units_Z   12
loop_
 _symmetry_equiv_pos_site_id
 _symmetry_equiv_pos_as_xyz
  1  'x, y, z'
loop_
 _atom_site_type_symbol
 _atom_site_label
 _atom_site_symmetry_multiplicity
 _atom_site_fract_x
 _atom_site_fract_y
 _atom_site_fract_z
 _atom_site_occupancy
  Ti  Ti0  1  0.46954620  0.61032090  0.50000000  1.0
  Ti  Ti1  1  0.96954620  0.88967910  0.00000000  1.0
  Ti  Ti2  1  0.53045380  0.38967910  0.50000000  1.0
  Ti  Ti3  1  0.03045380  0.11032090  0.00000000  1.0
  Ti  Ti4  1  0.41136785  0.07922988  0.50000000  1.0
  Ti  Ti5  1  0.91136785  0.42077012  0.00000000  1.0
  Ti  Ti6  1  0.58863215  0.92077012  0.50000000  1.0
  Ti  Ti7  1  0.08863215  0.57922988  0.00000000  1.0
  Ti  Ti8  1  0.15362875  0.97999506  0.50000000  1.0
  Ti  Ti9  1  0.65362875  0.52000494  0.00000000  1.0
  Ti  Ti10  1  0.84637125  0.02000494  0.50000000  1.0
  Ti  Ti11  1  0.34637125  0.47999506  0.00000000  1.0
  Ti  Ti12  1  0.08683217  0.74434272  0.50000000  1.0
  Ti  Ti13  1  0.58683217  0.75565728  0.00000000  1.0
  Ti  Ti14  1  0.91316783  0.25565728  0.50000000  1.0
  Ti  Ti15  1  0.41316783  0.24434272  0.00000000  1.0
  Ti  Ti16  1  0.88060721  0.57765050  0.50000000  1.0
  Ti  Ti17  1  0.38060721  0.92234950  0.00000000  1.0
  Ti  Ti18  1  0.11939279  0.42234950  0.50000000  1.0
  Ti  Ti19  1  0.61939279  0.07765050  0.00000000  1.0
  Ti  Ti20  1  0.80966259  0.79166802  0.50000000  1.0
  Ti  Ti21  1  0.30966259  0.70833198  0.00000000  1.0
  Ti  Ti22  1  0.19033741  0.20833198  0.50000000  1.0
  Ti  Ti23  1  0.69033741  0.29166802  0.00000000  1.0
  S  S24  1  0.43255029  0.79400611  0.50000000  1.0
  S  S25  1  0.93255029  0.70599389  0.00000000  1.0
  S  S26  1  0.56744971  0.20599389  0.50000000  1.0
  S  S27  1  0.06744971  0.29400611  0.00000000  1.0
  S  S28  1  0.24534456  0.58854283  0.50000000  1.0
  S  S29  1  0.74534456  0.91145717  0.00000000  1.0
  S  S30  1  0.75465544  0.41145717  0.50000000  1.0
  S  S31  1  0.25465544  0.08854283  0.00000000  1.0
  S  S32  1  0.68505799  0.64949595  0.50000000  1.0
  S  S33  1  0.18505799  0.85050405  0.00000000  1.0
  S  S34  1  0.31494201  0.35050405  0.50000000  1.0
  S  S35  1  0.81494201  0.14949595  0.00000000  1.0
