# generated using pymatgen
data_Gd3(Si3Ru)4
_symmetry_space_group_name_H-M   'P 1'
_cell_length_a   10.14721982
_cell_length_b   10.14721982
_cell_length_c   8.16920113
_cell_angle_alpha   90.00000000
_cell_angle_beta   90.00000000
_cell_angle_gamma   47.45147226
_symmetry_Int_Tables_number   1
_chemical_formula_structural   Gd3(Si3Ru)4
_chemical_formula_sum   'Gd6 Si24 Ru8'
_cell_volume   619.67969444
_cell_formula_units_Z   2
loop_
 _symmetry_equiv_pos_site_id
 _symmetry_equiv_pos_as_xyz
  1  'x, y, z'
loop_
 _atom_site_type_symbol
 _atom_site_label
 _atom_site_symmetry_multiplicity
 _atom_site_fract_x
 _atom_site_fract_y
 _atom_site_fract_z
 _atom_site_occupancy
  Gd  Gd0  1  0.50336682  0.99663318  0.25000000  1.0
  Gd  Gd1  1  0.00336682  1.49663318  0.25000000  1.0
  Gd  Gd2  1  -0.00336682  1.50336682  0.75000000  1.0
  Gd  Gd3  1  0.49663318  1.00336682  0.75000000  1.0
  Gd  Gd4  1  -0.50000000  0.50000000  0.50000000  1.0
  Gd  Gd5  1  0.00000000  0.00000000  0.00000000  1.0
  Si  Si6  1  0.38762653  1.37834004  0.22808215  1.0
  Si  Si7  1  -0.11237347  1.87834004  0.27191785  1.0
  Si  Si8  1  0.37834004  1.38762653  0.77191785  1.0
  Si  Si9  1  0.87834004  0.88762653  0.72808215  1.0
  Si  Si10  1  -0.37834004  1.61237347  0.22808215  1.0
  Si  Si11  1  0.12165996  1.11237347  0.27191785  1.0
  Si  Si12  1  0.61237347  0.62165996  0.77191785  1.0
  Si  Si13  1  0.11237347  1.12165996  0.72808215  1.0
  Si  Si14  1  0.34508300  0.88891300  0.49462370  1.0
  Si  Si15  1  -0.15491700  1.38891300  0.00537630  1.0
  Si  Si16  1  -0.11108700  1.34508300  0.50537630  1.0
  Si  Si17  1  0.38891300  0.84508300  0.99462370  1.0
  Si  Si18  1  0.11108700  1.65491700  0.49462370  1.0
  Si  Si19  1  0.61108700  1.15491700  0.00537630  1.0
  Si  Si20  1  0.65491700  1.11108700  0.50537630  1.0
  Si  Si21  1  0.15491700  1.61108700  0.99462370  1.0
  Si  Si22  1  -0.16707468  0.16707468  0.33316727  1.0
  Si  Si23  1  -0.66707468  0.66707468  0.16683273  1.0
  Si  Si24  1  -0.83292532  0.83292532  0.66683273  1.0
  Si  Si25  1  -0.33292532  0.33292532  0.83316727  1.0
  Si  Si26  1  0.20541308  1.20541308  0.50000000  1.0
  Si  Si27  1  0.70541308  0.70541308  0.00000000  1.0
  Si  Si28  1  0.79458692  0.79458692  0.50000000  1.0
  Si  Si29  1  0.29458692  1.29458692  0.00000000  1.0
  Ru  Ru30  1  -0.37383131  0.37383131  0.12632378  1.0
  Ru  Ru31  1  -0.87383131  0.87383131  0.37367622  1.0
  Ru  Ru32  1  -0.62616869  0.62616869  0.87367622  1.0
  Ru  Ru33  1  -0.12616869  0.12616869  0.62632378  1.0
  Ru  Ru34  1  0.33105321  1.33105321  0.50000000  1.0
  Ru  Ru35  1  0.83105321  0.83105321  0.00000000  1.0
  Ru  Ru36  1  0.66894679  0.66894679  0.50000000  1.0
  Ru  Ru37  1  0.16894679  1.16894679  0.00000000  1.0
