# generated using pymatgen
data_RbTl3O5
_symmetry_space_group_name_H-M   'P 1'
_cell_length_a   10.15162216
_cell_length_b   3.52568959
_cell_length_c   17.71270712
_cell_angle_alpha   90.00000000
_cell_angle_beta   90.00000000
_cell_angle_gamma   90.00000000
_symmetry_Int_Tables_number   1
_chemical_formula_structural   RbTl3O5
_chemical_formula_sum   'Rb4 Tl12 O20'
_cell_volume   633.96380029
_cell_formula_units_Z   4
loop_
 _symmetry_equiv_pos_site_id
 _symmetry_equiv_pos_as_xyz
  1  'x, y, z'
loop_
 _atom_site_type_symbol
 _atom_site_label
 _atom_site_symmetry_multiplicity
 _atom_site_fract_x
 _atom_site_fract_y
 _atom_site_fract_z
 _atom_site_occupancy
  Rb  Rb0  1  0.46841562  0.75000000  0.63304690  1.0
  Rb  Rb1  1  0.96841562  0.75000000  0.86695310  1.0
  Rb  Rb2  1  0.53158438  0.25000000  0.36695310  1.0
  Rb  Rb3  1  0.03158438  0.25000000  0.13304690  1.0
  Tl  Tl4  1  0.88160278  0.75000000  0.34144620  1.0
  Tl  Tl5  1  0.38160278  0.75000000  0.15855380  1.0
  Tl  Tl6  1  0.11839722  0.25000000  0.65855380  1.0
  Tl  Tl7  1  0.61839722  0.25000000  0.84144620  1.0
  Tl  Tl8  1  0.81799764  0.75000000  0.67974426  1.0
  Tl  Tl9  1  0.31799764  0.75000000  0.82025574  1.0
  Tl  Tl10  1  0.18200236  0.25000000  0.32025574  1.0
  Tl  Tl11  1  0.68200236  0.25000000  0.17974426  1.0
  Tl  Tl12  1  0.65375678  0.75000000  0.01246583  1.0
  Tl  Tl13  1  0.15375678  0.75000000  0.48753417  1.0
  Tl  Tl14  1  0.34624322  0.25000000  0.98753417  1.0
  Tl  Tl15  1  0.84624322  0.25000000  0.51246583  1.0
  O  O16  1  0.97486319  0.75000000  0.57385523  1.0
  O  O17  1  0.47486319  0.75000000  0.92614477  1.0
  O  O18  1  0.02513681  0.25000000  0.42614477  1.0
  O  O19  1  0.52513681  0.25000000  0.07385523  1.0
  O  O20  1  0.78337725  0.75000000  0.11547047  1.0
  O  O21  1  0.28337725  0.75000000  0.38452953  1.0
  O  O22  1  0.21662275  0.25000000  0.88452953  1.0
  O  O23  1  0.71662275  0.25000000  0.61547047  1.0
  O  O24  1  0.71589713  0.75000000  0.79090450  1.0
  O  O25  1  0.21589713  0.75000000  0.70909550  1.0
  O  O26  1  0.28410287  0.25000000  0.20909550  1.0
  O  O27  1  0.78410287  0.25000000  0.29090450  1.0
  O  O28  1  0.75916340  0.75000000  0.44501229  1.0
  O  O29  1  0.25916340  0.75000000  0.05498771  1.0
  O  O30  1  0.24083660  0.25000000  0.55498771  1.0
  O  O31  1  0.74083660  0.25000000  0.94501229  1.0
  O  O32  1  0.55801998  0.75000000  0.22721778  1.0
  O  O33  1  0.05801998  0.75000000  0.27278222  1.0
  O  O34  1  0.44198002  0.25000000  0.77278222  1.0
  O  O35  1  0.94198002  0.25000000  0.72721778  1.0
