# generated using pymatgen
data_LaCO3F
_symmetry_space_group_name_H-M   'P 1'
_cell_length_a   7.24601503
_cell_length_b   7.24601503
_cell_length_c   9.91696823
_cell_angle_alpha   90.00000000
_cell_angle_beta   90.00000000
_cell_angle_gamma   120.00000000
_symmetry_Int_Tables_number   1
_chemical_formula_structural   LaCO3F
_chemical_formula_sum   'La6 C6 O18 F6'
_cell_volume   450.92884275
_cell_formula_units_Z   6
loop_
 _symmetry_equiv_pos_site_id
 _symmetry_equiv_pos_as_xyz
  1  'x, y, z'
loop_
 _atom_site_type_symbol
 _atom_site_label
 _atom_site_symmetry_multiplicity
 _atom_site_fract_x
 _atom_site_fract_y
 _atom_site_fract_z
 _atom_site_occupancy
  La  La0  1  0.66052897  0.66052897  0.50000000  1.0
  La  La1  1  0.66052897  0.66052897  0.00000000  1.0
  La  La2  1  0.00000000  0.33947103  0.50000000  1.0
  La  La3  1  0.00000000  0.33947103  0.00000000  1.0
  La  La4  1  0.33947103  0.00000000  0.50000000  1.0
  La  La5  1  0.33947103  0.00000000  0.00000000  1.0
  C  C6  1  0.03232470  0.70969300  0.25000000  1.0
  C  C7  1  0.70969300  0.03232470  0.75000000  1.0
  C  C8  1  0.67736830  0.96767530  0.25000000  1.0
  C  C9  1  0.29030700  0.32263170  0.25000000  1.0
  C  C10  1  0.96767530  0.67736830  0.75000000  1.0
  C  C11  1  0.32263170  0.29030700  0.75000000  1.0
  O  O12  1  0.94517714  0.62057539  0.36368981  1.0
  O  O13  1  0.94517714  0.62057539  0.13631019  1.0
  O  O14  1  0.62057539  0.94517714  0.86368981  1.0
  O  O15  1  0.62057539  0.94517714  0.63631019  1.0
  O  O16  1  0.67539825  0.05482286  0.36368981  1.0
  O  O17  1  0.67539825  0.05482286  0.13631019  1.0
  O  O18  1  0.37942461  0.32460175  0.36368981  1.0
  O  O19  1  0.37942461  0.32460175  0.13631019  1.0
  O  O20  1  0.05482286  0.67539825  0.86368981  1.0
  O  O21  1  0.05482286  0.67539825  0.63631019  1.0
  O  O22  1  0.32460175  0.37942461  0.86368981  1.0
  O  O23  1  0.32460175  0.37942461  0.63631019  1.0
  O  O24  1  0.20899958  0.88986472  0.25000000  1.0
  O  O25  1  0.88986472  0.20899958  0.75000000  1.0
  O  O26  1  0.68086514  0.79100042  0.25000000  1.0
  O  O27  1  0.11013528  0.31913486  0.25000000  1.0
  O  O28  1  0.79100042  0.68086514  0.75000000  1.0
  O  O29  1  0.31913486  0.11013528  0.75000000  1.0
  F  F30  1  0.33333333  0.66666667  0.45207716  1.0
  F  F31  1  0.33333333  0.66666667  0.04792284  1.0
  F  F32  1  0.66666667  0.33333333  0.95207716  1.0
  F  F33  1  0.66666667  0.33333333  0.54792284  1.0
  F  F34  1  0.00000000  0.00000000  0.50000000  1.0
  F  F35  1  0.00000000  0.00000000  0.00000000  1.0
