# generated using pymatgen
data_Na2PtO3
_symmetry_space_group_name_H-M   'P 1'
_cell_length_a   5.51582317
_cell_length_b   5.51582317
_cell_length_c   10.84780358
_cell_angle_alpha   85.06481504
_cell_angle_beta   94.93518496
_cell_angle_gamma   59.99063375
_symmetry_Int_Tables_number   1
_chemical_formula_structural   Na2PtO3
_chemical_formula_sum   'Na8 Pt4 O12'
_cell_volume   281.53006930
_cell_formula_units_Z   4
loop_
 _symmetry_equiv_pos_site_id
 _symmetry_equiv_pos_as_xyz
  1  'x, y, z'
loop_
 _atom_site_type_symbol
 _atom_site_label
 _atom_site_symmetry_multiplicity
 _atom_site_fract_x
 _atom_site_fract_y
 _atom_site_fract_z
 _atom_site_occupancy
  Na  Na0  1  1.66016433  0.17923159  0.49995640  1.0
  Na  Na1  1  0.82076841  -0.66016433  0.99995640  1.0
  Na  Na2  1  1.17923159  0.66016433  0.00004360  1.0
  Na  Na3  1  0.33983567  -0.17923159  0.50004360  1.0
  Na  Na4  1  0.58483285  -0.41516715  0.25000000  1.0
  Na  Na5  1  1.41516715  0.41516715  0.75000000  1.0
  Na  Na6  1  1.50000000  -0.00000000  -0.00000000  1.0
  Na  Na7  1  1.00000000  -0.50000000  0.50000000  1.0
  Pt  Pt8  1  0.91778249  -0.08221751  0.25000000  1.0
  Pt  Pt9  1  1.08221751  0.08221751  0.75000000  1.0
  Pt  Pt10  1  1.25084852  0.25084852  0.25000000  1.0
  Pt  Pt11  1  0.74915148  -0.25084852  0.75000000  1.0
  O  O12  1  1.81320463  0.01769074  0.85314015  1.0
  O  O13  1  0.98230926  -0.81320463  0.35314015  1.0
  O  O14  1  1.01769074  0.81320463  0.64685985  1.0
  O  O15  1  0.18679537  -0.01769074  0.14685985  1.0
  O  O16  1  0.61931443  -0.08776210  0.35320142  1.0
  O  O17  1  1.08776210  0.38068557  0.85320142  1.0
  O  O18  1  0.91223790  -0.38068557  0.14679858  1.0
  O  O19  1  1.38068557  0.08776210  0.64679858  1.0
  O  O20  1  1.54973759  0.25723756  0.14650025  1.0
  O  O21  1  0.74276244  -0.54973759  0.64650025  1.0
  O  O22  1  1.25723756  0.54973759  0.35349975  1.0
  O  O23  1  0.45026241  -0.25723756  0.85349975  1.0
