# generated using pymatgen
data_Cs4Co3F10
_symmetry_space_group_name_H-M   'P 1'
_cell_length_a   7.93410707
_cell_length_b   7.93410707
_cell_length_c   14.03646677
_cell_angle_alpha   90.00000000
_cell_angle_beta   90.00000000
_cell_angle_gamma   132.98299995
_symmetry_Int_Tables_number   1
_chemical_formula_structural   Cs4Co3F10
_chemical_formula_sum   'Cs8 Co6 F20'
_cell_volume   646.40023485
_cell_formula_units_Z   2
loop_
 _symmetry_equiv_pos_site_id
 _symmetry_equiv_pos_as_xyz
  1  'x, y, z'
loop_
 _atom_site_type_symbol
 _atom_site_label
 _atom_site_symmetry_multiplicity
 _atom_site_fract_x
 _atom_site_fract_y
 _atom_site_fract_z
 _atom_site_occupancy
  Cs  Cs0  1  0.25151987  0.74848013  0.61480132  1.0
  Cs  Cs1  1  -0.24848013  0.24848013  0.88519868  1.0
  Cs  Cs2  1  -0.25151987  0.25151987  0.38519868  1.0
  Cs  Cs3  1  0.24848013  0.75151987  0.11480132  1.0
  Cs  Cs4  1  0.45356558  0.54643442  0.86154162  1.0
  Cs  Cs5  1  -0.04643442  0.04643442  0.63845838  1.0
  Cs  Cs6  1  -0.45356558  0.45356558  0.13845838  1.0
  Cs  Cs7  1  0.04643442  0.95356558  0.36154162  1.0
  Co  Co8  1  0.11353755  0.88646245  0.84856826  1.0
  Co  Co9  1  -0.38646245  0.38646245  0.65143174  1.0
  Co  Co10  1  -0.11353755  0.11353755  0.15143174  1.0
  Co  Co11  1  0.38646245  0.61353755  0.34856826  1.0
  Co  Co12  1  0.00000000  0.00000000  0.00000000  1.0
  Co  Co13  1  0.50000000  0.50000000  0.50000000  1.0
  F  F14  1  -0.11671022  0.68454969  0.96311462  1.0
  F  F15  1  0.38328979  1.18454969  0.53688538  1.0
  F  F16  1  0.68454969  0.88328979  0.03688538  1.0
  F  F17  1  0.18454969  0.38328978  0.46311462  1.0
  F  F18  1  0.31545031  1.11671022  0.96311462  1.0
  F  F19  1  -0.18454969  0.61671022  0.53688538  1.0
  F  F20  1  0.11671022  0.31545031  0.03688538  1.0
  F  F21  1  0.61671022  0.81545031  0.46311462  1.0
  F  F22  1  0.24743681  0.75256319  0.84858502  1.0
  F  F23  1  -0.25256319  0.25256319  0.65141498  1.0
  F  F24  1  -0.24743681  0.24743681  0.15141498  1.0
  F  F25  1  0.25256319  0.74743681  0.34858502  1.0
  F  F26  1  0.46988577  0.53011423  0.64586527  1.0
  F  F27  1  -0.03011423  0.03011423  0.85413473  1.0
  F  F28  1  -0.46988577  0.46988577  0.35413473  1.0
  F  F29  1  0.03011423  0.96988577  0.14586527  1.0
  F  F30  1  -0.14216327  0.64216327  0.75000000  1.0
  F  F31  1  0.35783673  1.14216327  0.75000000  1.0
  F  F32  1  0.64216327  0.85783673  0.25000000  1.0
  F  F33  1  0.14216327  0.35783673  0.25000000  1.0
