# generated using pymatgen
data_CaCu3(IrO3)4
_symmetry_space_group_name_H-M   'P 1'
_cell_length_a   6.51401621
_cell_length_b   6.51401621
_cell_length_c   6.51401621
_cell_angle_alpha   109.47122063
_cell_angle_beta   109.47122063
_cell_angle_gamma   109.47122063
_symmetry_Int_Tables_number   1
_chemical_formula_structural   CaCu3(IrO3)4
_chemical_formula_sum   'Ca1 Cu3 Ir4 O12'
_cell_volume   212.77696734
_cell_formula_units_Z   1
loop_
 _symmetry_equiv_pos_site_id
 _symmetry_equiv_pos_as_xyz
  1  'x, y, z'
loop_
 _atom_site_type_symbol
 _atom_site_label
 _atom_site_symmetry_multiplicity
 _atom_site_fract_x
 _atom_site_fract_y
 _atom_site_fract_z
 _atom_site_occupancy
  Ca  Ca0  1  0.00000000  0.00000000  0.00000000  1.0
  Cu  Cu1  1  0.50000000  0.00000000  0.50000000  1.0
  Cu  Cu2  1  -0.00000000  0.50000000  0.50000000  1.0
  Cu  Cu3  1  0.50000000  0.50000000  0.00000000  1.0
  Ir  Ir4  1  1.00000000  0.50000000  1.00000000  1.0
  Ir  Ir5  1  0.50000000  0.50000000  0.50000000  1.0
  Ir  Ir6  1  1.00000000  1.00000000  0.50000000  1.0
  Ir  Ir7  1  0.50000000  1.00000000  1.00000000  1.0
  O  O8  1  1.30473915  0.83117946  1.13591860  1.0
  O  O9  1  0.30473915  0.16882054  0.47355969  1.0
  O  O10  1  0.69526085  0.83117946  0.52644031  1.0
  O  O11  1  0.69526085  0.16882054  0.86408140  1.0
  O  O12  1  0.16882054  0.86408140  0.69526085  1.0
  O  O13  1  0.83117946  0.52644031  0.69526085  1.0
  O  O14  1  0.16882054  0.47355969  0.30473915  1.0
  O  O15  1  0.83117946  1.13591860  1.30473915  1.0
  O  O16  1  0.47355969  0.30473915  0.16882054  1.0
  O  O17  1  1.13591860  1.30473915  0.83117946  1.0
  O  O18  1  0.86408140  0.69526085  0.16882054  1.0
  O  O19  1  0.52644031  0.69526085  0.83117946  1.0
