# generated using pymatgen
data_VZn2P2O9
_symmetry_space_group_name_H-M   'P 1'
_cell_length_a   7.87355719
_cell_length_b   7.87355719
_cell_length_c   7.87355719
_cell_angle_alpha   110.19568941
_cell_angle_beta   110.19568941
_cell_angle_gamma   108.03180120
_symmetry_Int_Tables_number   1
_chemical_formula_structural   VZn2P2O9
_chemical_formula_sum   'V2 Zn4 P4 O18'
_cell_volume   375.56583162
_cell_formula_units_Z   2
loop_
 _symmetry_equiv_pos_site_id
 _symmetry_equiv_pos_as_xyz
  1  'x, y, z'
loop_
 _atom_site_type_symbol
 _atom_site_label
 _atom_site_symmetry_multiplicity
 _atom_site_fract_x
 _atom_site_fract_y
 _atom_site_fract_z
 _atom_site_occupancy
  V  V0  1  0.82438599  0.82438599  -0.00000000  1.0
  V  V1  1  0.32438599  0.32438599  0.00000000  1.0
  Zn  Zn2  1  0.54213129  0.28081704  0.50000000  1.0
  Zn  Zn3  1  0.28081704  0.78081704  0.73868575  1.0
  Zn  Zn4  1  1.04213129  0.54213129  1.26131425  1.0
  Zn  Zn5  1  0.78081704  1.04213129  1.50000000  1.0
  P  P6  1  1.11526338  1.00073216  1.50000000  1.0
  P  P7  1  1.00073216  1.50073216  0.88546879  1.0
  P  P8  1  0.61526338  1.11526338  1.11453121  1.0
  P  P9  1  1.50073216  1.61526338  1.50000000  1.0
  O  O10  1  0.60259977  0.91056154  0.96472809  1.0
  O  O11  1  0.44583345  0.41056154  0.30796177  1.0
  O  O12  1  1.13787168  1.44583345  1.03527191  1.0
  O  O13  1  0.91056154  0.94583345  1.30796177  1.0
  O  O14  1  1.10259977  1.13787168  0.69203823  1.0
  O  O15  1  0.94583345  1.63787168  1.03527191  1.0
  O  O16  1  1.63787168  1.60259977  1.69203823  1.0
  O  O17  1  0.41056154  1.10259977  0.96472809  1.0
  O  O18  1  1.08755954  0.79551629  1.50000000  1.0
  O  O19  1  0.79551629  0.29551629  0.70795675  1.0
  O  O20  1  0.58755954  1.08755954  1.29204325  1.0
  O  O21  1  0.29551629  0.58755954  0.50000000  1.0
  O  O22  1  1.31014822  1.10846082  1.50000000  1.0
  O  O23  1  1.10846082  1.60846082  0.79831261  1.0
  O  O24  1  0.81014822  1.31014822  1.20168739  1.0
  O  O25  1  1.60846082  1.81014822  1.50000000  1.0
  O  O26  1  -0.00428115  -0.00428115  0.00000000  1.0
  O  O27  1  0.49571885  0.49571885  0.00000000  1.0
