# generated using pymatgen
data_CdI2
_symmetry_space_group_name_H-M   'P 1'
_cell_length_a   4.32795284
_cell_length_b   4.32795284
_cell_length_c   60.68588261
_cell_angle_alpha   90.00000000
_cell_angle_beta   90.00000000
_cell_angle_gamma   120.00000000
_symmetry_Int_Tables_number   1
_chemical_formula_structural   CdI2
_chemical_formula_sum   'Cd8 I16'
_cell_volume   984.42660927
_cell_formula_units_Z   8
loop_
 _symmetry_equiv_pos_site_id
 _symmetry_equiv_pos_as_xyz
  1  'x, y, z'
loop_
 _atom_site_type_symbol
 _atom_site_label
 _atom_site_symmetry_multiplicity
 _atom_site_fract_x
 _atom_site_fract_y
 _atom_site_fract_z
 _atom_site_occupancy
  Cd  Cd0  1  0.00000000  0.00000000  0.03122805  1.0
  Cd  Cd1  1  -0.00000000  -0.00000000  0.28122863  1.0
  Cd  Cd2  1  -0.00000000  0.00000000  0.53123251  1.0
  Cd  Cd3  1  -0.00000000  -0.00000000  0.78122953  1.0
  Cd  Cd4  1  0.66666667  0.33333333  0.15623324  1.0
  Cd  Cd5  1  0.66666667  0.33333333  0.40623097  1.0
  Cd  Cd6  1  0.66666667  0.33333333  0.65623185  1.0
  Cd  Cd7  1  0.33333333  0.66666667  0.90622633  1.0
  I  I8  1  -0.00000000  -0.00000000  0.18456914  1.0
  I  I9  1  0.00000000  0.00000000  0.43456716  1.0
  I  I10  1  -0.00000000  -0.00000000  0.68456696  1.0
  I  I11  1  0.00000000  0.00000000  0.87789807  1.0
  I  I12  1  0.66666667  0.33333333  0.05956407  1.0
  I  I13  1  0.66666667  0.33333333  0.30956204  1.0
  I  I14  1  0.66666667  0.33333333  0.55956918  1.0
  I  I15  1  0.66666667  0.33333333  0.80956096  1.0
  I  I16  1  0.66666667  0.33333333  0.93455826  1.0
  I  I17  1  0.33333333  0.66666667  0.00289857  1.0
  I  I18  1  0.33333333  0.66666667  0.12790993  1.0
  I  I19  1  0.33333333  0.66666667  0.25290285  1.0
  I  I20  1  0.33333333  0.66666667  0.37790799  1.0
  I  I21  1  0.33333333  0.66666667  0.50290966  1.0
  I  I22  1  0.33333333  0.66666667  0.62790738  1.0
  I  I23  1  0.33333333  0.66666667  0.75290666  1.0
