# generated using pymatgen
data_C2SNOF
_symmetry_space_group_name_H-M   'P 1'
_cell_length_a   11.94347576
_cell_length_b   6.40070954
_cell_length_c   6.12119956
_cell_angle_alpha   90.00000000
_cell_angle_beta   90.00000000
_cell_angle_gamma   90.00000000
_symmetry_Int_Tables_number   1
_chemical_formula_structural   C2SNOF
_chemical_formula_sum   'C8 S4 N4 O4 F4'
_cell_volume   467.94562404
_cell_formula_units_Z   4
loop_
 _symmetry_equiv_pos_site_id
 _symmetry_equiv_pos_as_xyz
  1  'x, y, z'
loop_
 _atom_site_type_symbol
 _atom_site_label
 _atom_site_symmetry_multiplicity
 _atom_site_fract_x
 _atom_site_fract_y
 _atom_site_fract_z
 _atom_site_occupancy
  C  C0  1  0.42464650  0.75000000  0.56240091  1.0
  C  C1  1  0.92464650  0.75000000  0.93759909  1.0
  C  C2  1  0.57535350  0.25000000  0.43759909  1.0
  C  C3  1  0.07535350  0.25000000  0.06240091  1.0
  C  C4  1  0.26123560  0.75000000  0.84235136  1.0
  C  C5  1  0.76123560  0.75000000  0.65764864  1.0
  C  C6  1  0.73876440  0.25000000  0.15764864  1.0
  C  C7  1  0.23876440  0.25000000  0.34235136  1.0
  S  S8  1  0.41117756  0.75000000  0.83734495  1.0
  S  S9  1  0.91117756  0.75000000  0.66265505  1.0
  S  S10  1  0.58882244  0.25000000  0.16265505  1.0
  S  S11  1  0.08882244  0.25000000  0.33734495  1.0
  N  N12  1  0.93970237  0.75000000  0.12605889  1.0
  N  N13  1  0.43970237  0.75000000  0.37394111  1.0
  N  N14  1  0.06029763  0.25000000  0.87394111  1.0
  N  N15  1  0.56029763  0.25000000  0.62605889  1.0
  O  O16  1  0.19526282  0.75000000  0.69692159  1.0
  O  O17  1  0.69526282  0.75000000  0.80307841  1.0
  O  O18  1  0.80473718  0.25000000  0.30307841  1.0
  O  O19  1  0.30473718  0.25000000  0.19692159  1.0
  F  F20  1  0.23135813  0.75000000  0.05721765  1.0
  F  F21  1  0.73135813  0.75000000  0.44278235  1.0
  F  F22  1  0.76864187  0.25000000  0.94278235  1.0
  F  F23  1  0.26864187  0.25000000  0.55721765  1.0
