# generated using pymatgen
data_RbLi7(SiO4)2
_symmetry_space_group_name_H-M   'P 1'
_cell_length_a   8.51776598
_cell_length_b   8.51776598
_cell_length_c   7.83819754
_cell_angle_alpha   89.44303959
_cell_angle_beta   90.55696041
_cell_angle_gamma   135.83127519
_symmetry_Int_Tables_number   1
_chemical_formula_structural   RbLi7(SiO4)2
_chemical_formula_sum   'Rb2 Li14 Si4 O16'
_cell_volume   396.21913527
_cell_formula_units_Z   2
loop_
 _symmetry_equiv_pos_site_id
 _symmetry_equiv_pos_as_xyz
  1  'x, y, z'
loop_
 _atom_site_type_symbol
 _atom_site_label
 _atom_site_symmetry_multiplicity
 _atom_site_fract_x
 _atom_site_fract_y
 _atom_site_fract_z
 _atom_site_occupancy
  Rb  Rb0  1  0.74475956  -0.74475956  0.46820015  1.0
  Rb  Rb1  1  1.25524044  -0.25524044  0.53179985  1.0
  Li  Li2  1  1.57315644  -0.05729119  0.87420967  1.0
  Li  Li3  1  1.05729119  -0.57315644  0.87420967  1.0
  Li  Li4  1  0.94270881  -0.42684356  0.12579033  1.0
  Li  Li5  1  1.42684356  0.05729119  0.12579033  1.0
  Li  Li6  1  1.31146424  0.17956789  0.63169684  1.0
  Li  Li7  1  0.82043211  -0.31146424  0.63169684  1.0
  Li  Li8  1  1.17956789  -0.68853576  0.36830316  1.0
  Li  Li9  1  1.68853576  -0.17956789  0.36830316  1.0
  Li  Li10  1  1.43296019  -0.43296019  0.71226047  1.0
  Li  Li11  1  0.56703981  -0.56703981  0.28773953  1.0
  Li  Li12  1  1.14191292  -0.14191292  0.86598142  1.0
  Li  Li13  1  0.85808708  -0.85808708  0.13401858  1.0
  Li  Li14  1  0.50000000  0.50000000  0.00000000  1.0
  Li  Li15  1  0.00000000  0.00000000  0.00000000  1.0
  Si  Si16  1  0.92970916  -0.92970916  0.70681432  1.0
  Si  Si17  1  1.07029084  -0.07029084  0.29318568  1.0
  Si  Si18  1  0.64653659  -0.64653659  0.86129378  1.0
  Si  Si19  1  1.35346341  -0.35346341  0.13870622  1.0
  O  O20  1  1.68599728  -0.12001645  0.60465664  1.0
  O  O21  1  1.12001645  -0.68599728  0.60465664  1.0
  O  O22  1  0.87998355  -0.31400272  0.39534336  1.0
  O  O23  1  1.31400272  0.12001645  0.39534336  1.0
  O  O24  1  1.47926495  0.08554662  0.81002821  1.0
  O  O25  1  0.91445338  -0.47926495  0.81002821  1.0
  O  O26  1  1.08554662  -0.52073505  0.18997179  1.0
  O  O27  1  1.52073505  -0.08554662  0.18997179  1.0
  O  O28  1  0.96730882  -0.96730882  0.24879330  1.0
  O  O29  1  1.03269118  -0.03269118  0.75120670  1.0
  O  O30  1  0.88392929  -0.88392929  0.89655926  1.0
  O  O31  1  1.11607071  -0.11607071  0.10344074  1.0
  O  O32  1  0.55275578  -0.55275578  0.76287126  1.0
  O  O33  1  1.44724422  -0.44724422  0.23712874  1.0
  O  O34  1  1.37328773  -0.37328773  0.93086197  1.0
  O  O35  1  0.62671227  -0.62671227  0.06913803  1.0
