# generated using pymatgen
data_OsC2
_symmetry_space_group_name_H-M   'P 1'
_cell_length_a   2.87104374
_cell_length_b   2.87104374
_cell_length_c   7.98334800
_cell_angle_alpha   90.00000000
_cell_angle_beta   90.00000000
_cell_angle_gamma   120.00000000
_symmetry_Int_Tables_number   1
_chemical_formula_structural   OsC2
_chemical_formula_sum   'Os2 C4'
_cell_volume   56.98956097
_cell_formula_units_Z   2
loop_
 _symmetry_equiv_pos_site_id
 _symmetry_equiv_pos_as_xyz
  1  'x, y, z'
loop_
 _atom_site_type_symbol
 _atom_site_label
 _atom_site_symmetry_multiplicity
 _atom_site_fract_x
 _atom_site_fract_y
 _atom_site_fract_z
 _atom_site_occupancy
  Os  Os0  1  0.66666667  0.33333333  0.25000000  1.0
  Os  Os1  1  0.33333333  0.66666667  0.75000000  1.0
  C  C2  1  0.00000000  0.00000000  0.41036713  1.0
  C  C3  1  0.00000000  0.00000000  0.58963287  1.0
  C  C4  1  0.00000000  0.00000000  0.91036713  1.0
  C  C5  1  0.00000000  0.00000000  0.08963287  1.0
