# generated using pymatgen
data_LaAl4
_symmetry_space_group_name_H-M   'P 1'
_cell_length_a   8.88707291
_cell_length_b   8.88707291
_cell_length_c   8.88707291
_cell_angle_alpha   151.61273084
_cell_angle_beta   85.55338784
_cell_angle_gamma   101.40693024
_symmetry_Int_Tables_number   1
_chemical_formula_structural   LaAl4
_chemical_formula_sum   'La3 Al12'
_cell_volume   320.02852525
_cell_formula_units_Z   3
loop_
 _symmetry_equiv_pos_site_id
 _symmetry_equiv_pos_as_xyz
  1  'x, y, z'
loop_
 _atom_site_type_symbol
 _atom_site_label
 _atom_site_symmetry_multiplicity
 _atom_site_fract_x
 _atom_site_fract_y
 _atom_site_fract_z
 _atom_site_occupancy
  La  La0  1  1.33256585  0.99921600  1.33334985  1.0
  La  La1  1  0.66586615  0.99921600  0.66665015  1.0
  La  La2  1  -0.00075992  -0.00075992  0.00000000  1.0
  Al  Al3  1  0.41572872  0.24904605  0.16668267  1.0
  Al  Al4  1  1.08236338  0.24904605  0.83331733  1.0
  Al  Al5  1  0.91615963  0.74950140  0.16665823  1.0
  Al  Al6  1  1.58284317  0.74950140  0.83334177  1.0
  Al  Al7  1  0.71853074  0.38518477  0.33334597  1.0
  Al  Al8  1  1.05183880  0.38518477  0.66665403  1.0
  Al  Al9  1  0.94671718  0.61338599  0.33333119  1.0
  Al  Al10  1  1.28005480  0.61338599  0.66666881  1.0
  Al  Al11  1  0.24945972  0.74945972  0.50000000  1.0
  Al  Al12  1  0.74908170  1.24908170  0.50000000  1.0
  Al  Al13  1  0.61340096  0.61340096  -0.00000000  1.0
  Al  Al14  1  0.38514912  0.38514912  0.00000000  1.0
