# generated using pymatgen
data_Ca5As3CO12
_symmetry_space_group_name_H-M   'P 1'
_cell_length_a   10.24329259
_cell_length_b   10.24329259
_cell_length_c   6.86204324
_cell_angle_alpha   90.00000000
_cell_angle_beta   90.00000000
_cell_angle_gamma   120.00000000
_symmetry_Int_Tables_number   1
_chemical_formula_structural   Ca5As3CO12
_chemical_formula_sum   'Ca10 As6 C2 O24'
_cell_volume   623.53844931
_cell_formula_units_Z   2
loop_
 _symmetry_equiv_pos_site_id
 _symmetry_equiv_pos_as_xyz
  1  'x, y, z'
loop_
 _atom_site_type_symbol
 _atom_site_label
 _atom_site_symmetry_multiplicity
 _atom_site_fract_x
 _atom_site_fract_y
 _atom_site_fract_z
 _atom_site_occupancy
  Ca  Ca0  1  -0.02868888  0.72977069  0.25000000  1.0
  Ca  Ca1  1  0.72977069  0.75845957  0.75000000  1.0
  Ca  Ca2  1  0.75845957  1.02868888  0.25000000  1.0
  Ca  Ca3  1  0.27022931  0.24154043  0.25000000  1.0
  Ca  Ca4  1  1.02868888  0.27022931  0.75000000  1.0
  Ca  Ca5  1  0.24154043  -0.02868888  0.75000000  1.0
  Ca  Ca6  1  0.33333333  0.66666667  0.49629939  1.0
  Ca  Ca7  1  0.33333333  0.66666667  0.00370061  1.0
  Ca  Ca8  1  0.66666667  0.33333333  0.99629939  1.0
  Ca  Ca9  1  0.66666667  0.33333333  0.50370061  1.0
  As  As10  1  0.62055722  0.59230233  0.25000000  1.0
  As  As11  1  0.59230233  0.97174512  0.75000000  1.0
  As  As12  1  0.97174512  0.37944278  0.25000000  1.0
  As  As13  1  0.40769767  0.02825488  0.25000000  1.0
  As  As14  1  0.37944278  0.40769767  0.75000000  1.0
  As  As15  1  0.02825488  0.62055722  0.75000000  1.0
  C  C16  1  0.00000000  -0.00000000  0.25000000  1.0
  C  C17  1  0.00000000  0.00000000  0.75000000  1.0
  O  O18  1  0.74124036  0.65452328  0.44964828  1.0
  O  O19  1  0.74124036  0.65452328  0.05035172  1.0
  O  O20  1  0.65452328  0.91328292  0.94964828  1.0
  O  O21  1  0.65452328  0.91328292  0.55035172  1.0
  O  O22  1  0.91328292  0.25875964  0.44964828  1.0
  O  O23  1  0.91328292  0.25875964  0.05035172  1.0
  O  O24  1  0.34547672  0.08671708  0.44964828  1.0
  O  O25  1  0.34547672  0.08671708  0.05035172  1.0
  O  O26  1  0.25875964  0.34547672  0.94964828  1.0
  O  O27  1  0.25875964  0.34547672  0.55035172  1.0
  O  O28  1  0.08671708  0.74124036  0.94964828  1.0
  O  O29  1  0.08671708  0.74124036  0.55035172  1.0
  O  O30  1  0.35401376  0.84026088  0.25000000  1.0
  O  O31  1  0.84026088  0.48624711  0.75000000  1.0
  O  O32  1  0.48624711  0.64598624  0.25000000  1.0
  O  O33  1  0.15973912  0.51375289  0.25000000  1.0
  O  O34  1  0.64598624  0.15973912  0.75000000  1.0
  O  O35  1  0.51375289  0.35401376  0.75000000  1.0
  O  O36  1  0.53622999  0.39512345  0.25000000  1.0
  O  O37  1  0.39512345  0.85889346  0.75000000  1.0
  O  O38  1  0.85889346  0.46377001  0.25000000  1.0
  O  O39  1  0.60487655  0.14110654  0.25000000  1.0
  O  O40  1  0.46377001  0.60487655  0.75000000  1.0
  O  O41  1  0.14110654  0.53622999  0.75000000  1.0
