# generated using pymatgen
data_Ca2SiO4
_symmetry_space_group_name_H-M   'P 1'
_cell_length_a   5.62435740
_cell_length_b   5.62435740
_cell_length_c   6.82568470
_cell_angle_alpha   90.00000000
_cell_angle_beta   90.00000000
_cell_angle_gamma   120.00000000
_symmetry_Int_Tables_number   1
_chemical_formula_structural   Ca2SiO4
_chemical_formula_sum   'Ca4 Si2 O8'
_cell_volume   186.99184827
_cell_formula_units_Z   2
loop_
 _symmetry_equiv_pos_site_id
 _symmetry_equiv_pos_as_xyz
  1  'x, y, z'
loop_
 _atom_site_type_symbol
 _atom_site_label
 _atom_site_symmetry_multiplicity
 _atom_site_fract_x
 _atom_site_fract_y
 _atom_site_fract_z
 _atom_site_occupancy
  Ca  Ca0  1  0.33333333  0.66666667  0.15838688  1.0
  Ca  Ca1  1  0.66666667  0.33333333  0.84161312  1.0
  Ca  Ca2  1  -0.00000000  -0.00000000  0.50000000  1.0
  Ca  Ca3  1  0.00000000  0.00000000  0.00000000  1.0
  Si  Si4  1  0.33333333  0.66666667  0.69867797  1.0
  Si  Si5  1  0.66666667  0.33333333  0.30132203  1.0
  O  O6  1  0.35423086  0.17711543  0.20714449  1.0
  O  O7  1  0.17711543  0.35423086  0.79285551  1.0
  O  O8  1  0.17711543  0.82288457  0.79285551  1.0
  O  O9  1  0.82288457  0.17711543  0.20714449  1.0
  O  O10  1  0.82288457  0.64576914  0.20714449  1.0
  O  O11  1  0.64576914  0.82288457  0.79285551  1.0
  O  O12  1  0.33333333  0.66666667  0.46342789  1.0
  O  O13  1  0.66666667  0.33333333  0.53657211  1.0
