# generated using pymatgen
data_MgH12(ClO3)2
_symmetry_space_group_name_H-M   'P 1'
_cell_length_a   6.09104919
_cell_length_b   6.09104919
_cell_length_c   6.17146861
_cell_angle_alpha   85.77290208
_cell_angle_beta   94.22709792
_cell_angle_gamma   106.90753842
_symmetry_Int_Tables_number   1
_chemical_formula_structural   MgH12(ClO3)2
_chemical_formula_sum   'Mg1 H12 Cl2 O6'
_cell_volume   218.14587554
_cell_formula_units_Z   1
loop_
 _symmetry_equiv_pos_site_id
 _symmetry_equiv_pos_as_xyz
  1  'x, y, z'
loop_
 _atom_site_type_symbol
 _atom_site_label
 _atom_site_symmetry_multiplicity
 _atom_site_fract_x
 _atom_site_fract_y
 _atom_site_fract_z
 _atom_site_occupancy
  Mg  Mg0  1  0.00000000  0.00000000  0.00000000  1.0
  H  H1  1  0.72095082  -0.72095082  0.97981016  1.0
  H  H2  1  0.27904918  -0.27904918  0.02018984  1.0
  H  H3  1  0.75438778  -0.75438778  0.73225867  1.0
  H  H4  1  0.24561222  -0.24561222  0.26774133  1.0
  H  H5  1  1.31089587  0.07855560  0.68496005  1.0
  H  H6  1  0.92144440  -0.31089587  0.68496005  1.0
  H  H7  1  1.07855560  0.31089587  0.31503995  1.0
  H  H8  1  0.68910413  -0.07855560  0.31503995  1.0
  H  H9  1  0.67709840  -0.27339754  0.71715989  1.0
  H  H10  1  1.27339754  0.32290160  0.71715989  1.0
  H  H11  1  0.72660246  -0.32290160  0.28284011  1.0
  H  H12  1  1.32290160  0.27339754  0.28284011  1.0
  Cl  Cl13  1  0.68294714  -0.68294714  0.38482601  1.0
  Cl  Cl14  1  0.31705286  -0.31705286  0.61517399  1.0
  O  O15  1  0.79504174  -0.79504174  0.88447898  1.0
  O  O16  1  0.20495826  -0.20495826  0.11552102  1.0
  O  O17  1  1.24794338  0.16408513  0.77975013  1.0
  O  O18  1  0.83591487  -0.24794338  0.77975013  1.0
  O  O19  1  1.16408513  0.24794338  0.22024987  1.0
  O  O20  1  0.75205662  -0.16408513  0.22024987  1.0
