# generated using pymatgen
data_LaClO2
_symmetry_space_group_name_H-M   'P 1'
_cell_length_a   6.95866754
_cell_length_b   3.59161558
_cell_length_c   7.73151744
_cell_angle_alpha   90.00000000
_cell_angle_beta   95.64678752
_cell_angle_gamma   90.00000000
_symmetry_Int_Tables_number   1
_chemical_formula_structural   LaClO2
_chemical_formula_sum   'La2 Cl2 O4'
_cell_volume   192.29503858
_cell_formula_units_Z   2
loop_
 _symmetry_equiv_pos_site_id
 _symmetry_equiv_pos_as_xyz
  1  'x, y, z'
loop_
 _atom_site_type_symbol
 _atom_site_label
 _atom_site_symmetry_multiplicity
 _atom_site_fract_x
 _atom_site_fract_y
 _atom_site_fract_z
 _atom_site_occupancy
  La  La0  1  0.73294033  0.00000000  0.88254905  1.0
  La  La1  1  0.26705967  0.00000000  0.11745095  1.0
  Cl  Cl2  1  0.76193309  0.50000000  0.60911455  1.0
  Cl  Cl3  1  0.23806691  0.50000000  0.39088545  1.0
  O  O4  1  0.91319543  0.50000000  0.04900877  1.0
  O  O5  1  0.08680457  0.50000000  0.95099123  1.0
  O  O6  1  0.48499244  0.50000000  0.90288864  1.0
  O  O7  1  0.51500756  0.50000000  0.09711136  1.0
