# generated using pymatgen
data_KP(HO2)2
_symmetry_space_group_name_H-M   'P 1'
_cell_length_a   8.30569078
_cell_length_b   8.30569078
_cell_length_c   8.30569078
_cell_angle_alpha   112.62636635
_cell_angle_beta   112.62636635
_cell_angle_gamma   103.33002885
_symmetry_Int_Tables_number   1
_chemical_formula_structural   KP(HO2)2
_chemical_formula_sum   'K4 P4 H8 O16'
_cell_volume   437.32311550
_cell_formula_units_Z   4
loop_
 _symmetry_equiv_pos_site_id
 _symmetry_equiv_pos_as_xyz
  1  'x, y, z'
loop_
 _atom_site_type_symbol
 _atom_site_label
 _atom_site_symmetry_multiplicity
 _atom_site_fract_x
 _atom_site_fract_y
 _atom_site_fract_z
 _atom_site_occupancy
  K  K0  1  0.59241760  0.88792078  1.21178795  1.0
  K  K1  1  0.61937035  0.40758240  0.29550318  1.0
  K  K2  1  0.67613283  1.38062965  0.78821205  1.0
  K  K3  1  1.11207922  1.32386717  0.70449682  1.0
  P  P4  1  0.93274653  1.22129045  1.14834635  1.0
  P  P5  1  1.21559983  1.06725347  1.28854393  1.0
  P  P6  1  1.07294410  1.78440017  0.85165365  1.0
  P  P7  1  0.77870955  0.92705590  1.71145607  1.0
  H  H8  1  0.36317080  0.68587528  0.77934174  1.0
  H  H9  1  1.41617094  1.63682920  1.32270448  1.0
  H  H10  1  0.90653354  1.58382906  1.22065826  1.0
  H  H11  1  1.31412472  1.09346646  1.67729552  1.0
  H  H12  1  0.36112980  1.04495540  0.84770140  1.0
  H  H13  1  0.48657160  0.63887020  0.68382561  1.0
  H  H14  1  1.19725401  1.51342840  1.15229860  1.0
  H  H15  1  0.95504460  0.80274599  0.31617439  1.0
  O  O16  1  0.78759498  1.01452789  0.92876913  1.0
  O  O17  1  0.14117415  0.21240502  0.22693292  1.0
  O  O18  1  1.08575876  1.85882585  1.07123087  1.0
  O  O19  1  0.98547211  0.91424124  0.77306708  1.0
  O  O20  1  0.27522733  0.84868545  0.88581256  1.0
  O  O21  1  1.61058523  1.72477267  1.57345812  1.0
  O  O22  1  0.96287289  1.38941477  1.11418744  1.0
  O  O23  1  1.15131455  1.03712711  1.42654188  1.0
  O  O24  1  0.40090844  1.15330736  0.82674022  1.0
  O  O25  1  0.42583177  0.59909156  0.75239891  1.0
  O  O26  1  1.32656714  1.57416823  1.17325978  1.0
  O  O27  1  0.84669264  0.67343286  0.24760109  1.0
  O  O28  1  0.85419152  1.21453873  1.28216367  1.0
  O  O29  1  0.42797215  0.14580848  0.36034721  1.0
  O  O30  1  0.93237506  0.57202785  0.71783633  1.0
  O  O31  1  0.78546127  1.06762494  1.63965279  1.0
