# generated using pymatgen
data_Cu(AsO2)2
_symmetry_space_group_name_H-M   'P 1'
_cell_length_a   9.04009729
_cell_length_b   9.04009729
_cell_length_c   5.67208887
_cell_angle_alpha   90.00000000
_cell_angle_beta   90.00000000
_cell_angle_gamma   90.00000000
_symmetry_Int_Tables_number   1
_chemical_formula_structural   Cu(AsO2)2
_chemical_formula_sum   'Cu4 As8 O16'
_cell_volume   463.54215509
_cell_formula_units_Z   4
loop_
 _symmetry_equiv_pos_site_id
 _symmetry_equiv_pos_as_xyz
  1  'x, y, z'
loop_
 _atom_site_type_symbol
 _atom_site_label
 _atom_site_symmetry_multiplicity
 _atom_site_fract_x
 _atom_site_fract_y
 _atom_site_fract_z
 _atom_site_occupancy
  As  As0  1  0.34454460  0.71191622  0.00000000  1.0
  As  As1  1  0.84454460  0.78808378  0.00000000  1.0
  As  As2  1  0.28808378  0.34454460  0.50000000  1.0
  As  As3  1  0.78808378  0.15545540  0.50000000  1.0
  As  As4  1  0.65545540  0.28808378  0.00000000  1.0
  As  As5  1  0.15545540  0.21191622  0.00000000  1.0
  As  As6  1  0.71191622  0.65545540  0.50000000  1.0
  As  As7  1  0.21191622  0.84454460  0.50000000  1.0
  O  O8  1  0.28960351  0.21039649  0.75000000  1.0
  O  O9  1  0.28960351  0.21039649  0.25000000  1.0
  O  O10  1  0.78960351  0.28960351  0.75000000  1.0
  O  O11  1  0.78960351  0.28960351  0.25000000  1.0
  O  O12  1  0.71039649  0.78960351  0.75000000  1.0
  O  O13  1  0.71039649  0.78960351  0.25000000  1.0
  O  O14  1  0.21039649  0.71039649  0.75000000  1.0
  O  O15  1  0.21039649  0.71039649  0.25000000  1.0
  O  O16  1  0.38071041  0.91045160  0.00000000  1.0
  O  O17  1  0.88071041  0.58954840  0.00000000  1.0
  O  O18  1  0.08954840  0.38071041  0.50000000  1.0
  O  O19  1  0.58954840  0.11928959  0.50000000  1.0
  O  O20  1  0.61928959  0.08954840  0.00000000  1.0
  O  O21  1  0.11928959  0.41045160  0.00000000  1.0
  O  O22  1  0.91045160  0.61928959  0.50000000  1.0
  O  O23  1  0.41045160  0.88071041  0.50000000  1.0
  Cu  Cu24  1  0.50000000  0.00000000  0.75000000  1.0
  Cu  Cu25  1  0.50000000  0.00000000  0.25000000  1.0
  Cu  Cu26  1  0.00000000  0.50000000  0.75000000  1.0
  Cu  Cu27  1  0.00000000  0.50000000  0.25000000  1.0
