# generated using pymatgen
data_TiCoSi2
_symmetry_space_group_name_H-M   'P 1'
_cell_length_a   8.56486164
_cell_length_b   9.51579805
_cell_length_c   7.55633106
_cell_angle_alpha   90.00000000
_cell_angle_beta   90.00000000
_cell_angle_gamma   90.00000000
_symmetry_Int_Tables_number   1
_chemical_formula_structural   TiCoSi2
_chemical_formula_sum   'Ti12 Co12 Si24'
_cell_volume   615.85226832
_cell_formula_units_Z   12
loop_
 _symmetry_equiv_pos_site_id
 _symmetry_equiv_pos_as_xyz
  1  'x, y, z'
loop_
 _atom_site_type_symbol
 _atom_site_label
 _atom_site_symmetry_multiplicity
 _atom_site_fract_x
 _atom_site_fract_y
 _atom_site_fract_z
 _atom_site_occupancy
  Ti  Ti0  1  0.16806025  0.81826983  0.00000000  1.0
  Ti  Ti1  1  0.66806025  0.68173017  0.00000000  1.0
  Ti  Ti2  1  0.83193975  0.18173017  0.00000000  1.0
  Ti  Ti3  1  0.33193975  0.31826983  0.00000000  1.0
  Ti  Ti4  1  0.17006377  0.54672025  0.76292395  1.0
  Ti  Ti5  1  0.17006377  0.54672025  0.23707605  1.0
  Ti  Ti6  1  0.67006377  0.95327975  0.76292395  1.0
  Ti  Ti7  1  0.67006377  0.95327975  0.23707605  1.0
  Ti  Ti8  1  0.82993623  0.45327975  0.76292395  1.0
  Ti  Ti9  1  0.82993623  0.45327975  0.23707605  1.0
  Ti  Ti10  1  0.32993623  0.04672025  0.76292395  1.0
  Ti  Ti11  1  0.32993623  0.04672025  0.23707605  1.0
  Co  Co12  1  0.50000000  0.50000000  0.75262109  1.0
  Co  Co13  1  0.50000000  0.50000000  0.24737891  1.0
  Co  Co14  1  0.00000000  0.00000000  0.75262109  1.0
  Co  Co15  1  0.00000000  0.00000000  0.24737891  1.0
  Co  Co16  1  0.40768224  0.75230174  0.74858162  1.0
  Co  Co17  1  0.40768224  0.75230174  0.25141838  1.0
  Co  Co18  1  0.90768224  0.74769826  0.74858162  1.0
  Co  Co19  1  0.90768224  0.74769826  0.25141838  1.0
  Co  Co20  1  0.59231776  0.24769826  0.74858162  1.0
  Co  Co21  1  0.59231776  0.24769826  0.25141838  1.0
  Co  Co22  1  0.09231776  0.25230174  0.74858162  1.0
  Co  Co23  1  0.09231776  0.25230174  0.25141838  1.0
  Si  Si24  1  0.37380683  0.59631610  0.50000000  1.0
  Si  Si25  1  0.87380683  0.90368390  0.50000000  1.0
  Si  Si26  1  0.62619317  0.40368390  0.50000000  1.0
  Si  Si27  1  0.12619317  0.09631610  0.50000000  1.0
  Si  Si28  1  0.46057360  0.88113625  0.00000000  1.0
  Si  Si29  1  0.96057360  0.61886375  0.00000000  1.0
  Si  Si30  1  0.53942640  0.11886375  0.00000000  1.0
  Si  Si31  1  0.03942640  0.38113625  0.00000000  1.0
  Si  Si32  1  0.37625945  0.60241759  0.00000000  1.0
  Si  Si33  1  0.87625945  0.89758241  0.00000000  1.0
  Si  Si34  1  0.62374055  0.39758241  0.00000000  1.0
  Si  Si35  1  0.12374055  0.10241759  0.00000000  1.0
  Si  Si36  1  0.45901712  0.87964979  0.50000000  1.0
  Si  Si37  1  0.95901712  0.62035021  0.50000000  1.0
  Si  Si38  1  0.54098288  0.12035021  0.50000000  1.0
  Si  Si39  1  0.04098288  0.37964979  0.50000000  1.0
  Si  Si40  1  0.16084652  0.81784376  0.65496639  1.0
  Si  Si41  1  0.16084652  0.81784376  0.34503361  1.0
  Si  Si42  1  0.66084652  0.68215624  0.65496639  1.0
  Si  Si43  1  0.66084652  0.68215624  0.34503361  1.0
  Si  Si44  1  0.83915348  0.18215624  0.65496639  1.0
  Si  Si45  1  0.83915348  0.18215624  0.34503361  1.0
  Si  Si46  1  0.33915348  0.31784376  0.65496639  1.0
  Si  Si47  1  0.33915348  0.31784376  0.34503361  1.0
