# generated using pymatgen
data_C2S3N2
_symmetry_space_group_name_H-M   'P 1'
_cell_length_a   10.08655224
_cell_length_b   13.32399314
_cell_length_c   4.93169216
_cell_angle_alpha   90.00000000
_cell_angle_beta   90.00000000
_cell_angle_gamma   90.00000000
_symmetry_Int_Tables_number   1
_chemical_formula_structural   C2S3N2
_chemical_formula_sum   'C8 S12 N8'
_cell_volume   662.78565880
_cell_formula_units_Z   4
loop_
 _symmetry_equiv_pos_site_id
 _symmetry_equiv_pos_as_xyz
  1  'x, y, z'
loop_
 _atom_site_type_symbol
 _atom_site_label
 _atom_site_symmetry_multiplicity
 _atom_site_fract_x
 _atom_site_fract_y
 _atom_site_fract_z
 _atom_site_occupancy
  C  C0  1  0.28272748  0.89231119  0.50766348  1.0
  C  C1  1  0.28272748  0.60768881  0.50766348  1.0
  C  C2  1  0.78272748  0.89231119  0.99233652  1.0
  C  C3  1  0.78272748  0.60768881  0.99233652  1.0
  C  C4  1  0.71727252  0.39231119  0.49233652  1.0
  C  C5  1  0.71727252  0.10768881  0.49233652  1.0
  C  C6  1  0.21727252  0.39231119  0.00766348  1.0
  C  C7  1  0.21727252  0.10768881  0.00766348  1.0
  S  S8  1  0.42307040  0.87558367  0.69031322  1.0
  S  S9  1  0.42307040  0.62441633  0.69031322  1.0
  S  S10  1  0.92307040  0.87558367  0.80968678  1.0
  S  S11  1  0.92307040  0.62441633  0.80968678  1.0
  S  S12  1  0.57692960  0.37558367  0.30968678  1.0
  S  S13  1  0.57692960  0.12441633  0.30968678  1.0
  S  S14  1  0.07692960  0.37558367  0.19031322  1.0
  S  S15  1  0.07692960  0.12441633  0.19031322  1.0
  S  S16  1  0.00244064  0.75000000  1.00279408  1.0
  S  S17  1  0.50244064  0.75000000  0.49720592  1.0
  S  S18  1  0.99755936  0.25000000  -0.00279408  1.0
  S  S19  1  0.49755936  0.25000000  0.50279408  1.0
  N  N20  1  0.31608991  0.40587055  0.88840845  1.0
  N  N21  1  0.31608991  0.09412945  0.88840845  1.0
  N  N22  1  0.81608991  0.40587055  0.61159155  1.0
  N  N23  1  0.81608991  0.09412945  0.61159155  1.0
  N  N24  1  0.68391009  0.90587055  0.11159155  1.0
  N  N25  1  0.68391009  0.59412945  0.11159155  1.0
  N  N26  1  0.18391009  0.90587055  0.38840845  1.0
  N  N27  1  0.18391009  0.59412945  0.38840845  1.0
