# generated using pymatgen
data_Ni2As2O7
_symmetry_space_group_name_H-M   'P 1'
_cell_length_a   7.66296604
_cell_length_b   5.34775544
_cell_length_c   10.40262177
_cell_angle_alpha   76.37759743
_cell_angle_beta   71.83742566
_cell_angle_gamma   84.47189971
_symmetry_Int_Tables_number   1
_chemical_formula_structural   Ni2As2O7
_chemical_formula_sum   'Ni6 As6 O21'
_cell_volume   393.54026537
_cell_formula_units_Z   3
loop_
 _symmetry_equiv_pos_site_id
 _symmetry_equiv_pos_as_xyz
  1  'x, y, z'
loop_
 _atom_site_type_symbol
 _atom_site_label
 _atom_site_symmetry_multiplicity
 _atom_site_fract_x
 _atom_site_fract_y
 _atom_site_fract_z
 _atom_site_occupancy
  O  O0  1  -0.00219706  0.00063515  -0.00339174  1.0
  O  O1  1  -0.64967216  -0.02644248  -0.20515952  1.0
  O  O2  1  -0.85272632  -0.15652559  -0.52155424  1.0
  O  O3  1  -0.87486370  -0.48200783  -0.09827408  1.0
  O  O4  1  -0.50688187  -0.52117471  -0.07726496  1.0
  O  O5  1  -0.07429450  -0.72981216  -0.79181406  1.0
  O  O6  1  -0.40614599  -0.94997992  -0.76975810  1.0
  O  O7  1  -0.64804363  -0.42668218  -0.68905640  1.0
  O  O8  1  -0.37460933  -0.64403607  -0.58684810  1.0
  O  O9  1  -0.75227563  -0.87530178  -0.83420680  1.0
  O  O10  1  -0.13647824  -0.53987009  -0.18178917  1.0
  O  O11  1  -0.31717109  -0.39577765  -0.88728224  1.0
  O  O12  1  -0.35735451  -0.67305491  -0.33466434  1.0
  O  O13  1  -0.74081895  -0.28963940  -0.91368349  1.0
  O  O14  1  -0.04721188  -0.26723491  -0.71215439  1.0
  O  O15  1  -0.36247665  -0.00826013  -0.06595077  1.0
  O  O16  1  -0.02007869  -0.00521254  -0.25970811  1.0
  O  O17  1  -0.23227445  -0.13683542  -0.41624526  1.0
  O  O18  1  -0.50190051  -0.21515197  -0.49187064  1.0
  O  O19  1  -0.01134511  -0.67510992  -0.52885189  1.0
  O  O20  1  -0.72128180  -0.66645489  -0.39575857  1.0
  As  As21  1  -0.94530498  -0.01410158  -0.84884794  1.0
  As  As22  1  -0.69931779  -0.31711235  -0.08823432  1.0
  As  As23  1  -0.66268152  -0.38462687  -0.52235689  1.0
  As  As24  1  -0.32064854  -0.67636085  -0.76129941  1.0
  As  As25  1  -0.32698470  -0.70266178  -0.17301984  1.0
  As  As26  1  -0.03598718  -0.98593031  -0.42573896  1.0
  Ni  Ni27  1  -0.53282901  -0.12687350  -0.86103103  1.0
  Ni  Ni28  1  -0.47963966  -0.91561513  -0.40534665  1.0
  Ni  Ni29  1  -0.13022436  -0.25847112  -0.07357888  1.0
  Ni  Ni30  1  -0.24415906  -0.41232155  -0.51749127  1.0
  Ni  Ni31  1  -0.89268899  -0.76370437  -0.19563939  1.0
  Ni  Ni32  1  -0.86953215  -0.57059119  -0.73282856  1.0
