# generated using pymatgen
data_LaSc3(BO3)4
_symmetry_space_group_name_H-M   'P 1'
_cell_length_a   6.31873119
_cell_length_b   6.31873119
_cell_length_c   12.19396259
_cell_angle_alpha   80.44052049
_cell_angle_beta   99.55947951
_cell_angle_gamma   76.41844542
_symmetry_Int_Tables_number   1
_chemical_formula_structural   LaSc3(BO3)4
_chemical_formula_sum   'La2 Sc6 B8 O24'
_cell_volume   455.86969356
_cell_formula_units_Z   2
loop_
 _symmetry_equiv_pos_site_id
 _symmetry_equiv_pos_as_xyz
  1  'x, y, z'
loop_
 _atom_site_type_symbol
 _atom_site_label
 _atom_site_symmetry_multiplicity
 _atom_site_fract_x
 _atom_site_fract_y
 _atom_site_fract_z
 _atom_site_occupancy
  La  La0  1  0.96601165  -0.03398835  0.25000000  1.0
  La  La1  1  1.03398835  0.03398835  0.75000000  1.0
  Sc  Sc2  1  1.42497991  0.42497991  0.25000000  1.0
  Sc  Sc3  1  0.57502009  -0.42497991  0.75000000  1.0
  Sc  Sc4  1  0.70172410  -0.20231337  0.97501623  1.0
  Sc  Sc5  1  1.20231337  0.29827590  0.47501623  1.0
  Sc  Sc6  1  0.79768663  -0.29827590  0.52498377  1.0
  Sc  Sc7  1  1.29827590  0.20231337  0.02498377  1.0
  B  B8  1  0.49408901  -0.10298074  0.27401582  1.0
  B  B9  1  1.10298074  0.50591099  0.77401582  1.0
  B  B10  1  0.89701926  -0.50591099  0.22598418  1.0
  B  B11  1  1.50591099  0.10298074  0.72598418  1.0
  B  B12  1  1.72869944  0.22176772  0.49921817  1.0
  B  B13  1  0.77823228  -0.72869944  0.99921817  1.0
  B  B14  1  1.22176772  0.72869944  0.00078183  1.0
  B  B15  1  0.27130056  -0.22176772  0.50078183  1.0
  O  O16  1  0.69346525  -0.16666977  0.35228267  1.0
  O  O17  1  1.16666977  0.30653475  0.85228267  1.0
  O  O18  1  0.83333023  -0.30653475  0.14771733  1.0
  O  O19  1  1.30653475  0.16666977  0.64771733  1.0
  O  O20  1  0.35684818  -0.24119568  0.25958380  1.0
  O  O21  1  1.24119568  0.64315182  0.75958380  1.0
  O  O22  1  0.75880432  -0.64315182  0.24041620  1.0
  O  O23  1  1.64315182  0.24119568  0.74041620  1.0
  O  O24  1  1.63830560  0.13181232  0.00498158  1.0
  O  O25  1  0.86818768  -0.63830560  0.50498158  1.0
  O  O26  1  1.13181232  0.63830560  0.49501842  1.0
  O  O27  1  0.36169440  -0.13181232  0.99501842  1.0
  O  O28  1  1.43224256  0.10919850  0.20543325  1.0
  O  O29  1  0.89080150  -0.43224256  0.70543325  1.0
  O  O30  1  1.10919850  0.43224256  0.29456675  1.0
  O  O31  1  0.56775744  -0.10919850  0.79456675  1.0
  O  O32  1  0.19047233  -0.00842297  0.43385839  1.0
  O  O33  1  1.00842297  0.80952767  0.93385839  1.0
  O  O34  1  0.99157703  -0.80952767  0.06614161  1.0
  O  O35  1  1.80952767  0.00842297  0.56614161  1.0
  O  O36  1  1.51566368  0.29530793  0.43142190  1.0
  O  O37  1  0.70469207  -0.51566368  0.93142190  1.0
  O  O38  1  1.29530793  0.51566368  0.06857810  1.0
  O  O39  1  0.48433632  -0.29530793  0.56857810  1.0
