# generated using pymatgen
data_SrFe3(P2O7)2
_symmetry_space_group_name_H-M   'P 1'
_cell_length_a   7.63008945
_cell_length_b   7.83719952
_cell_length_c   9.72072471
_cell_angle_alpha   90.00000000
_cell_angle_beta   112.21176623
_cell_angle_gamma   90.00000000
_symmetry_Int_Tables_number   1
_chemical_formula_structural   SrFe3(P2O7)2
_chemical_formula_sum   'Sr2 Fe6 P8 O28'
_cell_volume   538.14964243
_cell_formula_units_Z   2
loop_
 _symmetry_equiv_pos_site_id
 _symmetry_equiv_pos_as_xyz
  1  'x, y, z'
loop_
 _atom_site_type_symbol
 _atom_site_label
 _atom_site_symmetry_multiplicity
 _atom_site_fract_x
 _atom_site_fract_y
 _atom_site_fract_z
 _atom_site_occupancy
  Sr  Sr0  1  0.50000000  0.00000000  0.00000000  1.0
  Sr  Sr1  1  0.50000000  0.50000000  0.50000000  1.0
  Fe  Fe2  1  0.81414415  0.37296935  0.97482401  1.0
  Fe  Fe3  1  0.81414415  0.12703065  0.47482401  1.0
  Fe  Fe4  1  0.18585585  0.87296935  0.52517599  1.0
  Fe  Fe5  1  0.18585585  0.62703065  0.02517599  1.0
  Fe  Fe6  1  0.00000000  0.00000000  0.00000000  1.0
  Fe  Fe7  1  0.00000000  0.50000000  0.50000000  1.0
  P  P8  1  0.88889985  0.79633861  0.69172551  1.0
  P  P9  1  0.88889985  0.70366139  0.19172551  1.0
  P  P10  1  0.11110015  0.29633861  0.80827449  1.0
  P  P11  1  0.11110015  0.20366139  0.30827449  1.0
  P  P12  1  0.39881319  0.55251415  0.79803834  1.0
  P  P13  1  0.39881319  0.94748585  0.29803834  1.0
  P  P14  1  0.60118681  0.05251415  0.70196166  1.0
  P  P15  1  0.60118681  0.44748585  0.20196166  1.0
  O  O16  1  1.00148970  0.78607640  0.86099336  1.0
  O  O17  1  1.00148970  0.71392360  0.36099336  1.0
  O  O18  1  -0.00148970  0.28607640  0.63900664  1.0
  O  O19  1  -0.00148970  0.21392360  0.13900664  1.0
  O  O20  1  0.97314421  0.92326767  0.61227403  1.0
  O  O21  1  0.97314421  0.57673233  0.11227403  1.0
  O  O22  1  0.02685579  0.42326767  0.88772597  1.0
  O  O23  1  0.02685579  0.07673233  0.38772597  1.0
  O  O24  1  0.84417148  0.62480680  0.60934912  1.0
  O  O25  1  0.84417148  0.87519320  0.10934912  1.0
  O  O26  1  0.15582852  0.12480680  0.89065088  1.0
  O  O27  1  0.15582852  0.37519320  0.39065088  1.0
  O  O28  1  0.68361918  0.86836606  0.67660256  1.0
  O  O29  1  0.68361918  0.63163394  0.17660256  1.0
  O  O30  1  0.31638082  0.36836606  0.82339744  1.0
  O  O31  1  0.31638082  0.13163394  0.32339744  1.0
  O  O32  1  0.60048454  0.50710565  0.80974160  1.0
  O  O33  1  0.60048454  0.99289435  0.30974160  1.0
  O  O34  1  0.39951546  0.00710565  0.69025840  1.0
  O  O35  1  0.39951546  0.49289435  0.19025840  1.0
  O  O36  1  0.38086208  0.67984541  0.91085894  1.0
  O  O37  1  0.38086208  0.82015459  0.41085894  1.0
  O  O38  1  0.61913792  0.17984541  0.58914106  1.0
  O  O39  1  0.61913792  0.32015459  0.08914106  1.0
  O  O40  1  0.27942380  0.60630857  0.63450503  1.0
  O  O41  1  0.27942380  0.89369143  0.13450503  1.0
  O  O42  1  0.72057620  0.10630857  0.86549497  1.0
  O  O43  1  0.72057620  0.39369143  0.36549497  1.0
