# generated using pymatgen
data_YAlC
_symmetry_space_group_name_H-M   'P 1'
_cell_length_a   5.96061299
_cell_length_b   5.96061299
_cell_length_c   5.04690401
_cell_angle_alpha   90.00000000
_cell_angle_beta   90.00000000
_cell_angle_gamma   146.74125825
_symmetry_Int_Tables_number   1
_chemical_formula_structural   YAlC
_chemical_formula_sum   'Y2 Al2 C2'
_cell_volume   98.33787666
_cell_formula_units_Z   2
loop_
 _symmetry_equiv_pos_site_id
 _symmetry_equiv_pos_as_xyz
  1  'x, y, z'
loop_
 _atom_site_type_symbol
 _atom_site_label
 _atom_site_symmetry_multiplicity
 _atom_site_fract_x
 _atom_site_fract_y
 _atom_site_fract_z
 _atom_site_occupancy
  Y  Y0  1  -0.67252823  0.67252823  0.25000000  1.0
  Y  Y1  1  -0.32747177  1.32747177  0.75000000  1.0
  Al  Al2  1  -0.92955287  0.92955287  0.25000000  1.0
  Al  Al3  1  -0.07044713  1.07044713  0.75000000  1.0
  C  C4  1  -0.32709440  1.32709440  0.25000000  1.0
  C  C5  1  -0.67290560  0.67290560  0.75000000  1.0
