# generated using pymatgen
data_Ba4LiNb3O12
_symmetry_space_group_name_H-M   'P 1'
_cell_length_a   5.85109196
_cell_length_b   5.85109196
_cell_length_c   19.28677796
_cell_angle_alpha   90.00000000
_cell_angle_beta   90.00000000
_cell_angle_gamma   120.00000000
_symmetry_Int_Tables_number   1
_chemical_formula_structural   Ba4LiNb3O12
_chemical_formula_sum   'Ba8 Li2 Nb6 O24'
_cell_volume   571.82634566
_cell_formula_units_Z   2
loop_
 _symmetry_equiv_pos_site_id
 _symmetry_equiv_pos_as_xyz
  1  'x, y, z'
loop_
 _atom_site_type_symbol
 _atom_site_label
 _atom_site_symmetry_multiplicity
 _atom_site_fract_x
 _atom_site_fract_y
 _atom_site_fract_z
 _atom_site_occupancy
  Ba  Ba0  1  0.33333333  0.66666667  0.25095598  1.0
  Ba  Ba1  1  0.66666667  0.33333333  0.75095598  1.0
  Ba  Ba2  1  0.33333333  0.66666667  0.64402844  1.0
  Ba  Ba3  1  0.66666667  0.33333333  0.14402844  1.0
  Ba  Ba4  1  0.33333333  0.66666667  0.87118555  1.0
  Ba  Ba5  1  0.66666667  0.33333333  0.37118555  1.0
  Ba  Ba6  1  0.00000000  0.00000000  0.00090332  1.0
  Ba  Ba7  1  0.00000000  0.00000000  0.50090332  1.0
  Li  Li8  1  0.00000000  0.00000000  0.16491508  1.0
  Li  Li9  1  -0.00000000  -0.00000000  0.66491508  1.0
  Nb  Nb10  1  0.33333333  0.66666667  0.06762163  1.0
  Nb  Nb11  1  0.66666667  0.33333333  0.56762163  1.0
  Nb  Nb12  1  0.33333333  0.66666667  0.43996446  1.0
  Nb  Nb13  1  0.66666667  0.33333333  0.93996446  1.0
  Nb  Nb14  1  0.00000000  0.00000000  0.30834437  1.0
  Nb  Nb15  1  -0.00000000  -0.00000000  0.80834437  1.0
  O  O16  1  0.65331420  0.82665710  0.11810900  1.0
  O  O17  1  0.82665710  0.65331420  0.61810900  1.0
  O  O18  1  0.82665710  0.17334290  0.61810900  1.0
  O  O19  1  0.17334290  0.82665710  0.11810900  1.0
  O  O20  1  0.17334290  0.34668580  0.11810900  1.0
  O  O21  1  0.34668580  0.17334290  0.61810900  1.0
  O  O22  1  0.66043646  0.83021823  0.37855222  1.0
  O  O23  1  0.83021823  0.66043646  0.87855222  1.0
  O  O24  1  0.83021823  0.16978177  0.87855222  1.0
  O  O25  1  0.16978177  0.83021823  0.37855222  1.0
  O  O26  1  0.16978177  0.33956354  0.37855222  1.0
  O  O27  1  0.33956354  0.16978177  0.87855222  1.0
  O  O28  1  -0.00330754  0.49834623  -0.00316698  1.0
  O  O29  1  0.49834623  -0.00330754  0.49683302  1.0
  O  O30  1  0.49834623  0.50165377  0.49683302  1.0
  O  O31  1  0.50165377  0.49834623  -0.00316698  1.0
  O  O32  1  0.50165377  0.00330754  -0.00316698  1.0
  O  O33  1  0.00330754  0.50165377  0.49683302  1.0
  O  O34  1  0.31784457  0.15892229  0.25719948  1.0
  O  O35  1  0.15892229  0.31784457  0.75719948  1.0
  O  O36  1  0.15892229  0.84107771  0.75719948  1.0
  O  O37  1  0.84107771  0.15892229  0.25719948  1.0
  O  O38  1  0.84107771  0.68215543  0.25719948  1.0
  O  O39  1  0.68215543  0.84107771  0.75719948  1.0
