# generated using pymatgen
data_Ti2Bi2O7
_symmetry_space_group_name_H-M   'P 1'
_cell_length_a   7.35834168
_cell_length_b   7.35834168
_cell_length_c   7.35834168
_cell_angle_alpha   60.00000000
_cell_angle_beta   60.00000000
_cell_angle_gamma   60.00000000
_symmetry_Int_Tables_number   1
_chemical_formula_structural   Ti2Bi2O7
_chemical_formula_sum   'Ti4 Bi4 O14'
_cell_volume   281.72465293
_cell_formula_units_Z   2
loop_
 _symmetry_equiv_pos_site_id
 _symmetry_equiv_pos_as_xyz
  1  'x, y, z'
loop_
 _atom_site_type_symbol
 _atom_site_label
 _atom_site_symmetry_multiplicity
 _atom_site_fract_x
 _atom_site_fract_y
 _atom_site_fract_z
 _atom_site_occupancy
  Ti  Ti0  1  1.12500000  0.62500000  0.62500000  1.0
  Ti  Ti1  1  0.62500000  1.12500000  -0.37500000  1.0
  Ti  Ti2  1  -0.37500000  0.62500000  1.12500000  1.0
  Ti  Ti3  1  -0.37500000  0.62500000  0.62500000  1.0
  Bi  Bi4  1  0.62500000  1.12500000  0.12500000  1.0
  Bi  Bi5  1  0.12500000  1.62500000  0.12500000  1.0
  Bi  Bi6  1  0.12500000  0.12500000  1.62500000  1.0
  Bi  Bi7  1  0.12500000  0.12500000  0.12500000  1.0
  O  O8  1  0.25000000  1.25000000  0.25000000  1.0
  O  O9  1  0.00000000  0.00000000  0.00000000  1.0
  O  O10  1  0.69812902  0.69812902  -0.69812902  1.0
  O  O11  1  0.30187098  1.30187098  -0.30187098  1.0
  O  O12  1  0.69812902  -0.69812902  0.69812902  1.0
  O  O13  1  0.30187098  -0.30187098  0.30187098  1.0
  O  O14  1  -0.69812902  0.69812902  0.69812902  1.0
  O  O15  1  -0.30187098  0.30187098  0.30187098  1.0
  O  O16  1  -0.44812902  0.55187098  0.94812902  1.0
  O  O17  1  0.94812902  0.94812902  -0.44812902  1.0
  O  O18  1  0.55187098  0.94812902  0.55187098  1.0
  O  O19  1  0.94812902  0.55187098  0.94812902  1.0
  O  O20  1  0.94812902  0.55187098  -0.44812902  1.0
  O  O21  1  0.55187098  0.94812902  -0.05187098  1.0
