# generated using pymatgen
data_Te3As2
_symmetry_space_group_name_H-M   'P 1'
_cell_length_a   7.70765322
_cell_length_b   7.70765322
_cell_length_c   10.10785598
_cell_angle_alpha   84.07093127
_cell_angle_beta   95.92906873
_cell_angle_gamma   149.32109176
_symmetry_Int_Tables_number   1
_chemical_formula_structural   Te3As2
_chemical_formula_sum   'Te6 As4'
_cell_volume   304.62145585
_cell_formula_units_Z   2
loop_
 _symmetry_equiv_pos_site_id
 _symmetry_equiv_pos_as_xyz
  1  'x, y, z'
loop_
 _atom_site_type_symbol
 _atom_site_label
 _atom_site_symmetry_multiplicity
 _atom_site_fract_x
 _atom_site_fract_y
 _atom_site_fract_z
 _atom_site_occupancy
  Te  Te0  1  0.96018714  0.03981286  0.71472560  1.0
  Te  Te1  1  0.03981286  -0.03981286  0.28527440  1.0
  Te  Te2  1  0.78225739  0.21774261  0.33655759  1.0
  Te  Te3  1  0.21774261  -0.21774261  0.66344241  1.0
  Te  Te4  1  0.62895469  0.37104531  0.96728451  1.0
  Te  Te5  1  0.37104531  -0.37104531  0.03271549  1.0
  As  As6  1  0.79527233  0.20472767  0.85925726  1.0
  As  As7  1  0.20472767  -0.20472767  0.14074274  1.0
  As  As8  1  0.62372171  0.37627829  0.43906611  1.0
  As  As9  1  0.37627829  -0.37627829  0.56093389  1.0
