# generated using pymatgen
data_Tb5P12Ru19
_symmetry_space_group_name_H-M   'P 1'
_cell_length_a   12.52419111
_cell_length_b   12.52419111
_cell_length_c   3.96646589
_cell_angle_alpha   90.00000000
_cell_angle_beta   90.00000000
_cell_angle_gamma   120.00000000
_symmetry_Int_Tables_number   1
_chemical_formula_structural   Tb5P12Ru19
_chemical_formula_sum   'Tb5 P12 Ru19'
_cell_volume   538.80761858
_cell_formula_units_Z   1
loop_
 _symmetry_equiv_pos_site_id
 _symmetry_equiv_pos_as_xyz
  1  'x, y, z'
loop_
 _atom_site_type_symbol
 _atom_site_label
 _atom_site_symmetry_multiplicity
 _atom_site_fract_x
 _atom_site_fract_y
 _atom_site_fract_z
 _atom_site_occupancy
  Tb  Tb0  1  0.00000000  0.18424098  0.50000000  1.0
  Tb  Tb1  1  0.81575902  0.81575902  0.50000000  1.0
  Tb  Tb2  1  0.18424098  0.00000000  0.50000000  1.0
  Tb  Tb3  1  0.66666667  0.33333333  0.00000000  1.0
  Tb  Tb4  1  0.33333333  0.66666667  0.00000000  1.0
  P  P5  1  0.00000000  0.81537111  0.00000000  1.0
  P  P6  1  0.18462889  0.18462889  0.00000000  1.0
  P  P7  1  0.81537111  0.00000000  0.00000000  1.0
  P  P8  1  0.69416032  0.17179902  0.50000000  1.0
  P  P9  1  0.82820098  0.52236130  0.50000000  1.0
  P  P10  1  0.47763870  0.30583968  0.50000000  1.0
  P  P11  1  0.17179902  0.69416032  0.50000000  1.0
  P  P12  1  0.52236130  0.82820098  0.50000000  1.0
  P  P13  1  0.30583968  0.47763870  0.50000000  1.0
  P  P14  1  -0.00000000  0.37330292  0.00000000  1.0
  P  P15  1  0.62669708  0.62669708  0.00000000  1.0
  P  P16  1  0.37330292  0.00000000  0.00000000  1.0
  Ru  Ru17  1  0.00000000  0.55511159  0.00000000  1.0
  Ru  Ru18  1  0.44488841  0.44488841  0.00000000  1.0
  Ru  Ru19  1  0.55511159  0.00000000  0.00000000  1.0
  Ru  Ru20  1  0.00000000  0.71698634  0.50000000  1.0
  Ru  Ru21  1  0.28301366  0.28301366  0.50000000  1.0
  Ru  Ru22  1  0.71698634  0.00000000  0.50000000  1.0
  Ru  Ru23  1  0.80767420  0.18473303  0.00000000  1.0
  Ru  Ru24  1  0.81526697  0.62294117  0.00000000  1.0
  Ru  Ru25  1  0.37705883  0.19232580  0.00000000  1.0
  Ru  Ru26  1  0.18473303  0.80767420  0.00000000  1.0
  Ru  Ru27  1  0.62294117  0.81526697  0.00000000  1.0
  Ru  Ru28  1  0.19232580  0.37705883  0.00000000  1.0
  Ru  Ru29  1  0.87429144  0.36657442  0.50000000  1.0
  Ru  Ru30  1  0.63342558  0.50771702  0.50000000  1.0
  Ru  Ru31  1  0.49228298  0.12570856  0.50000000  1.0
  Ru  Ru32  1  0.36657442  0.87429144  0.50000000  1.0
  Ru  Ru33  1  0.50771702  0.63342558  0.50000000  1.0
  Ru  Ru34  1  0.12570856  0.49228298  0.50000000  1.0
  Ru  Ru35  1  0.00000000  0.00000000  0.00000000  1.0
