# generated using pymatgen
data_CaFe3O5
_symmetry_space_group_name_H-M   'P 1'
_cell_length_a   5.23318950
_cell_length_b   5.23318950
_cell_length_c   12.72535903
_cell_angle_alpha   90.00000000
_cell_angle_beta   90.00000000
_cell_angle_gamma   145.84013941
_symmetry_Int_Tables_number   1
_chemical_formula_structural   CaFe3O5
_chemical_formula_sum   'Ca2 Fe6 O10'
_cell_volume   195.68416316
_cell_formula_units_Z   2
loop_
 _symmetry_equiv_pos_site_id
 _symmetry_equiv_pos_as_xyz
  1  'x, y, z'
loop_
 _atom_site_type_symbol
 _atom_site_label
 _atom_site_symmetry_multiplicity
 _atom_site_fract_x
 _atom_site_fract_y
 _atom_site_fract_z
 _atom_site_occupancy
  Ca  Ca0  1  -0.47937062  0.47937062  0.75000000  1.0
  Ca  Ca1  1  0.47937062  0.52062938  0.25000000  1.0
  Fe  Fe2  1  0.26564578  0.73435422  0.89126146  1.0
  Fe  Fe3  1  0.26564578  0.73435422  0.60873854  1.0
  Fe  Fe4  1  -0.26564578  0.26564578  0.39126146  1.0
  Fe  Fe5  1  -0.26564578  0.26564578  0.10873854  1.0
  Fe  Fe6  1  0.00000000  0.00000000  0.00000000  1.0
  Fe  Fe7  1  0.00000000  0.00000000  0.50000000  1.0
  O  O8  1  0.09216354  0.90783646  0.36527519  1.0
  O  O9  1  0.09216354  0.90783646  0.13472481  1.0
  O  O10  1  -0.09216354  0.09216354  0.86527519  1.0
  O  O11  1  -0.09216354  0.09216354  0.63472481  1.0
  O  O12  1  -0.35992232  0.35992232  0.95189374  1.0
  O  O13  1  -0.35992232  0.35992232  0.54810626  1.0
  O  O14  1  0.35992232  0.64007768  0.45189374  1.0
  O  O15  1  0.35992232  0.64007768  0.04810626  1.0
  O  O16  1  0.19324029  0.80675971  0.75000000  1.0
  O  O17  1  -0.19324029  0.19324029  0.25000000  1.0
