# generated using pymatgen
data_Mg3Cu2(PO4)3
_symmetry_space_group_name_H-M   'P 1'
_cell_length_a   8.68710566
_cell_length_b   8.68710566
_cell_length_c   6.48902235
_cell_angle_alpha   71.70585753
_cell_angle_beta   108.29414247
_cell_angle_gamma   85.39326101
_symmetry_Int_Tables_number   1
_chemical_formula_structural   Mg3Cu2(PO4)3
_chemical_formula_sum   'Mg6 Cu4 P6 O24'
_cell_volume   432.67406713
_cell_formula_units_Z   2
loop_
 _symmetry_equiv_pos_site_id
 _symmetry_equiv_pos_as_xyz
  1  'x, y, z'
loop_
 _atom_site_type_symbol
 _atom_site_label
 _atom_site_symmetry_multiplicity
 _atom_site_fract_x
 _atom_site_fract_y
 _atom_site_fract_z
 _atom_site_occupancy
  P  P0  1  0.38398320  -0.16380893  0.87767448  1.0
  P  P1  1  1.16380893  0.61601680  0.37767448  1.0
  P  P2  1  0.83619107  -0.61601680  0.62232552  1.0
  P  P3  1  1.61601680  0.16380893  0.12232552  1.0
  P  P4  1  0.80590717  -0.19409283  0.75000000  1.0
  P  P5  1  1.19409283  0.19409283  0.25000000  1.0
  Cu  Cu6  1  0.49529624  -0.50470376  0.75000000  1.0
  Cu  Cu7  1  1.50470376  0.50470376  0.25000000  1.0
  Cu  Cu8  1  0.00000000  0.00000000  0.00000000  1.0
  Cu  Cu9  1  -0.00000000  0.00000000  0.50000000  1.0
  Mg  Mg10  1  1.55498110  0.13115001  0.62269725  1.0
  Mg  Mg11  1  0.86884999  -0.55498110  0.12269725  1.0
  Mg  Mg12  1  1.13115001  0.55498110  0.87730275  1.0
  Mg  Mg13  1  0.44501890  -0.13115001  0.37730275  1.0
  Mg  Mg14  1  1.22691345  0.22691345  0.75000000  1.0
  Mg  Mg15  1  0.77308655  -0.22691345  0.25000000  1.0
  O  O16  1  0.69141203  -0.21483319  0.52853894  1.0
  O  O17  1  1.21483319  0.30858797  0.02853894  1.0
  O  O18  1  0.78516681  -0.30858797  0.97146106  1.0
  O  O19  1  1.30858797  0.21483319  0.47146106  1.0
  O  O20  1  0.78273955  -0.01721907  0.76754555  1.0
  O  O21  1  1.01721907  0.21726045  0.26754555  1.0
  O  O22  1  0.98278093  -0.21726045  0.73245445  1.0
  O  O23  1  1.21726045  0.01721907  0.23245445  1.0
  O  O24  1  0.46183949  -0.11571385  0.69019654  1.0
  O  O25  1  1.11571385  0.53816051  0.19019654  1.0
  O  O26  1  0.88428615  -0.53816051  0.80980346  1.0
  O  O27  1  1.53816051  0.11571385  0.30980346  1.0
  O  O28  1  1.65260596  0.34935310  0.57004501  1.0
  O  O29  1  0.65064690  -0.65260596  0.07004501  1.0
  O  O30  1  1.34935310  0.65260596  0.92995499  1.0
  O  O31  1  0.34739404  -0.34935310  0.42995499  1.0
  O  O32  1  1.49067106  0.17083604  0.88544124  1.0
  O  O33  1  0.82916396  -0.49067106  0.38544124  1.0
  O  O34  1  1.17083604  0.49067106  0.61455876  1.0
  O  O35  1  0.50932894  -0.17083604  0.11455876  1.0
  O  O36  1  0.22150105  -0.03389666  0.80165162  1.0
  O  O37  1  1.03389666  0.77849895  0.30165162  1.0
  O  O38  1  0.96610334  -0.77849895  0.69834838  1.0
  O  O39  1  1.77849895  0.03389666  0.19834838  1.0
