# generated using pymatgen
data_Co3B
_symmetry_space_group_name_H-M   'P 1'
_cell_length_a   5.13814612
_cell_length_b   6.60789434
_cell_length_c   4.40740771
_cell_angle_alpha   90.00000000
_cell_angle_beta   90.00000000
_cell_angle_gamma   90.00000000
_symmetry_Int_Tables_number   1
_chemical_formula_structural   Co3B
_chemical_formula_sum   'Co12 B4'
_cell_volume   149.64174638
_cell_formula_units_Z   4
loop_
 _symmetry_equiv_pos_site_id
 _symmetry_equiv_pos_as_xyz
  1  'x, y, z'
loop_
 _atom_site_type_symbol
 _atom_site_label
 _atom_site_symmetry_multiplicity
 _atom_site_fract_x
 _atom_site_fract_y
 _atom_site_fract_z
 _atom_site_occupancy
  Co  Co0  1  0.31594139  0.94060067  0.65063894  1.0
  Co  Co1  1  0.31594139  0.55939933  0.65063894  1.0
  Co  Co2  1  0.81594139  0.94060067  0.84936106  1.0
  Co  Co3  1  0.81594139  0.55939933  0.84936106  1.0
  Co  Co4  1  0.68405861  0.44060067  0.34936106  1.0
  Co  Co5  1  0.68405861  0.05939933  0.34936106  1.0
  Co  Co6  1  0.18405861  0.44060067  0.15063894  1.0
  Co  Co7  1  0.18405861  0.05939933  0.15063894  1.0
  Co  Co8  1  0.47578401  0.75000000  0.13480367  1.0
  Co  Co9  1  0.97578401  0.75000000  0.36519633  1.0
  Co  Co10  1  0.52421599  0.25000000  0.86519633  1.0
  Co  Co11  1  0.02421599  0.25000000  0.63480367  1.0
  B  B12  1  0.12058855  0.75000000  0.93856524  1.0
  B  B13  1  0.62058855  0.75000000  0.56143476  1.0
  B  B14  1  0.87941145  0.25000000  0.06143476  1.0
  B  B15  1  0.37941145  0.25000000  0.43856524  1.0
