# generated using pymatgen
data_K3Sb2Au3
_symmetry_space_group_name_H-M   'P 1'
_cell_length_a   8.12357290
_cell_length_b   8.12357290
_cell_length_c   8.12357290
_cell_angle_alpha   45.98184896
_cell_angle_beta   45.98184896
_cell_angle_gamma   45.98184896
_symmetry_Int_Tables_number   1
_chemical_formula_structural   K3Sb2Au3
_chemical_formula_sum   'K3 Sb2 Au3'
_cell_volume   252.86070516
_cell_formula_units_Z   1
loop_
 _symmetry_equiv_pos_site_id
 _symmetry_equiv_pos_as_xyz
  1  'x, y, z'
loop_
 _atom_site_type_symbol
 _atom_site_label
 _atom_site_symmetry_multiplicity
 _atom_site_fract_x
 _atom_site_fract_y
 _atom_site_fract_z
 _atom_site_occupancy
  K  K0  1  0.91922399  0.91922399  0.91922399  1.0
  K  K1  1  1.08077601  1.08077601  0.08077601  1.0
  K  K2  1  1.50000000  0.50000000  0.50000000  1.0
  Sb  Sb3  1  0.75785351  0.75785351  0.75785351  1.0
  Sb  Sb4  1  1.24214649  1.24214649  0.24214649  1.0
  Au  Au5  1  0.50000000  -0.00000000  -0.50000000  1.0
  Au  Au6  1  0.50000000  -0.50000000  0.00000000  1.0
  Au  Au7  1  -0.00000000  0.50000000  -0.50000000  1.0
