# generated using pymatgen
data_SiO2
_symmetry_space_group_name_H-M   'P 1'
_cell_length_a   8.40861235
_cell_length_b   8.40861235
_cell_length_c   8.40861235
_cell_angle_alpha   105.23704364
_cell_angle_beta   105.23704364
_cell_angle_gamma   118.31859393
_symmetry_Int_Tables_number   1
_chemical_formula_structural   SiO2
_chemical_formula_sum   'Si8 O16'
_cell_volume   449.37001344
_cell_formula_units_Z   8
loop_
 _symmetry_equiv_pos_site_id
 _symmetry_equiv_pos_as_xyz
  1  'x, y, z'
loop_
 _atom_site_type_symbol
 _atom_site_label
 _atom_site_symmetry_multiplicity
 _atom_site_fract_x
 _atom_site_fract_y
 _atom_site_fract_z
 _atom_site_occupancy
  Si  Si0  1  1.08203343  1.08251013  0.28948465  1.0
  Si  Si1  1  0.79302548  0.79254878  0.71051535  1.0
  Si  Si2  1  1.29302548  1.58251013  1.00047670  1.0
  Si  Si3  1  0.58203343  1.29254878  0.99952330  1.0
  Si  Si4  1  0.20745122  0.91796657  1.00047670  1.0
  Si  Si5  1  0.91748987  1.20697452  0.99952330  1.0
  Si  Si6  1  0.70745122  0.70697452  0.28948465  1.0
  Si  Si7  1  0.41748987  0.41796657  0.71051535  1.0
  O  O8  1  0.89425338  0.89425338  0.28850676  1.0
  O  O9  1  1.60574662  1.60574662  1.71149324  1.0
  O  O10  1  1.10574662  1.39425338  1.00000000  1.0
  O  O11  1  0.39425338  1.10574662  1.00000000  1.0
  O  O12  1  0.68599424  1.49995676  1.18518717  1.0
  O  O13  1  0.31476958  0.50080706  0.81481283  1.0
  O  O14  1  0.81476958  0.99995676  1.81396252  1.0
  O  O15  1  1.18599424  1.00080706  1.18603748  1.0
  O  O16  1  1.49919294  1.31400576  1.81396252  1.0
  O  O17  1  1.50004324  1.68523042  1.18603748  1.0
  O  O18  1  0.99919294  1.18523042  1.18518717  1.0
  O  O19  1  1.00004324  1.81400576  0.81481283  1.0
  O  O20  1  0.75059799  0.74940201  0.50000000  1.0
  O  O21  1  0.24940201  0.25059799  0.50000000  1.0
  O  O22  1  0.74940201  1.24940201  0.99880401  1.0
  O  O23  1  0.25059799  0.75059799  1.00119599  1.0
