# generated using pymatgen
data_NaBH4
_symmetry_space_group_name_H-M   'P 1'
_cell_length_a   6.08817156
_cell_length_b   6.08817156
_cell_length_c   6.08817156
_cell_angle_alpha   90.00000000
_cell_angle_beta   90.00000000
_cell_angle_gamma   90.00000000
_symmetry_Int_Tables_number   1
_chemical_formula_structural   NaBH4
_chemical_formula_sum   'Na4 B4 H16'
_cell_volume   225.66314957
_cell_formula_units_Z   4
loop_
 _symmetry_equiv_pos_site_id
 _symmetry_equiv_pos_as_xyz
  1  'x, y, z'
loop_
 _atom_site_type_symbol
 _atom_site_label
 _atom_site_symmetry_multiplicity
 _atom_site_fract_x
 _atom_site_fract_y
 _atom_site_fract_z
 _atom_site_occupancy
  Na  Na0  1  0.00000000  0.00000000  0.00000000  1.0
  Na  Na1  1  0.00000000  0.50000000  0.50000000  1.0
  Na  Na2  1  0.50000000  0.50000000  0.00000000  1.0
  Na  Na3  1  0.50000000  0.00000000  0.50000000  1.0
  B  B4  1  0.50000000  0.50000000  0.50000000  1.0
  B  B5  1  0.00000000  0.50000000  0.00000000  1.0
  B  B6  1  0.50000000  0.00000000  0.00000000  1.0
  B  B7  1  0.00000000  0.00000000  0.50000000  1.0
  H  H8  1  0.38358253  0.38358253  0.61641747  1.0
  H  H9  1  0.38358253  0.61641747  0.38358253  1.0
  H  H10  1  0.61641747  0.38358253  0.38358253  1.0
  H  H11  1  0.61641747  0.61641747  0.61641747  1.0
  H  H12  1  0.61595153  0.11605536  0.88394464  1.0
  H  H13  1  0.11605536  0.11605536  0.38404847  1.0
  H  H14  1  0.11605536  0.61595153  0.88394464  1.0
  H  H15  1  0.61595153  0.88394464  0.11605536  1.0
  H  H16  1  0.11605536  0.88394464  0.61595153  1.0
  H  H17  1  0.11605536  0.38404847  0.11605536  1.0
  H  H18  1  0.38404847  0.11605536  0.11605536  1.0
  H  H19  1  0.88394464  0.11605536  0.61595153  1.0
  H  H20  1  0.88394464  0.61595153  0.11605536  1.0
  H  H21  1  0.38404847  0.88394464  0.88394464  1.0
  H  H22  1  0.88394464  0.88394464  0.38404847  1.0
  H  H23  1  0.88394464  0.38404847  0.88394464  1.0
