# generated using pymatgen
data_Sc5(Si5Rh2)2
_symmetry_space_group_name_H-M   'P 1'
_cell_length_a   12.39289344
_cell_length_b   12.39289344
_cell_length_c   4.05099840
_cell_angle_alpha   90.00000000
_cell_angle_beta   90.00000000
_cell_angle_gamma   90.00000000
_symmetry_Int_Tables_number   1
_chemical_formula_structural   Sc5(Si5Rh2)2
_chemical_formula_sum   'Sc10 Si20 Rh8'
_cell_volume   622.16775937
_cell_formula_units_Z   2
loop_
 _symmetry_equiv_pos_site_id
 _symmetry_equiv_pos_as_xyz
  1  'x, y, z'
loop_
 _atom_site_type_symbol
 _atom_site_label
 _atom_site_symmetry_multiplicity
 _atom_site_fract_x
 _atom_site_fract_y
 _atom_site_fract_z
 _atom_site_occupancy
  Sc  Sc0  1  0.32537544  0.17462456  0.50000000  1.0
  Sc  Sc1  1  0.82537544  0.32537544  0.50000000  1.0
  Sc  Sc2  1  0.67462456  0.82537544  0.50000000  1.0
  Sc  Sc3  1  0.17462456  0.67462456  0.50000000  1.0
  Sc  Sc4  1  0.88590566  0.61409434  0.50000000  1.0
  Sc  Sc5  1  0.38590566  0.88590566  0.50000000  1.0
  Sc  Sc6  1  0.11409434  0.38590566  0.50000000  1.0
  Sc  Sc7  1  0.61409434  0.11409434  0.50000000  1.0
  Sc  Sc8  1  0.50000000  0.50000000  0.00000000  1.0
  Sc  Sc9  1  0.00000000  0.00000000  0.00000000  1.0
  Si  Si10  1  0.34659746  0.50315265  0.50000000  1.0
  Si  Si11  1  0.84659746  0.99684735  0.50000000  1.0
  Si  Si12  1  0.49684735  0.34659746  0.50000000  1.0
  Si  Si13  1  0.99684735  0.15340254  0.50000000  1.0
  Si  Si14  1  0.65340254  0.49684735  0.50000000  1.0
  Si  Si15  1  0.15340254  0.00315265  0.50000000  1.0
  Si  Si16  1  0.50315265  0.65340254  0.50000000  1.0
  Si  Si17  1  0.00315265  0.84659746  0.50000000  1.0
  Si  Si18  1  0.33615777  0.70029506  0.00000000  1.0
  Si  Si19  1  0.83615777  0.79970494  0.00000000  1.0
  Si  Si20  1  0.29970494  0.33615777  0.00000000  1.0
  Si  Si21  1  0.79970494  0.16384223  0.00000000  1.0
  Si  Si22  1  0.66384223  0.29970494  0.00000000  1.0
  Si  Si23  1  0.16384223  0.20029506  0.00000000  1.0
  Si  Si24  1  0.70029506  0.66384223  0.00000000  1.0
  Si  Si25  1  0.20029506  0.83615777  0.00000000  1.0
  Si  Si26  1  0.43410660  0.06589340  0.00000000  1.0
  Si  Si27  1  0.93410660  0.43410660  0.00000000  1.0
  Si  Si28  1  0.56589340  0.93410660  0.00000000  1.0
  Si  Si29  1  0.06589340  0.56589340  0.00000000  1.0
  Rh  Rh30  1  0.25377403  0.52016546  0.00000000  1.0
  Rh  Rh31  1  0.75377403  0.97983454  0.00000000  1.0
  Rh  Rh32  1  0.47983454  0.25377403  0.00000000  1.0
  Rh  Rh33  1  0.97983454  0.24622597  0.00000000  1.0
  Rh  Rh34  1  0.74622597  0.47983454  0.00000000  1.0
  Rh  Rh35  1  0.24622597  0.02016546  0.00000000  1.0
  Rh  Rh36  1  0.52016546  0.74622597  0.00000000  1.0
  Rh  Rh37  1  0.02016546  0.75377403  0.00000000  1.0
