# generated using pymatgen
data_EuZnGe
_symmetry_space_group_name_H-M   'P 1'
_cell_length_a   6.01917837
_cell_length_b   6.01917837
_cell_length_c   6.01917837
_cell_angle_alpha   138.00139699
_cell_angle_beta   102.41046612
_cell_angle_gamma   92.40283724
_symmetry_Int_Tables_number   1
_chemical_formula_structural   EuZnGe
_chemical_formula_sum   'Eu2 Zn2 Ge2'
_cell_volume   135.55496176
_cell_formula_units_Z   2
loop_
 _symmetry_equiv_pos_site_id
 _symmetry_equiv_pos_as_xyz
  1  'x, y, z'
loop_
 _atom_site_type_symbol
 _atom_site_label
 _atom_site_symmetry_multiplicity
 _atom_site_fract_x
 _atom_site_fract_y
 _atom_site_fract_z
 _atom_site_occupancy
  Eu  Eu0  1  0.75087742  0.75087742  1.00000000  1.0
  Eu  Eu1  1  1.24912258  1.24912258  1.00000000  1.0
  Zn  Zn2  1  0.33387176  -0.00000000  0.33387176  1.0
  Zn  Zn3  1  0.66612824  -0.00000000  0.66612824  1.0
  Ge  Ge4  1  0.83087249  0.50000000  1.33087249  1.0
  Ge  Ge5  1  0.16912751  0.50000000  0.66912751  1.0
