# generated using pymatgen
data_Be13Sb
_symmetry_space_group_name_H-M   'P 1'
_cell_length_a   7.26512479
_cell_length_b   7.26512479
_cell_length_c   7.26512479
_cell_angle_alpha   60.00000000
_cell_angle_beta   60.00000000
_cell_angle_gamma   60.00000000
_symmetry_Int_Tables_number   1
_chemical_formula_structural   Be13Sb
_chemical_formula_sum   'Be26 Sb2'
_cell_volume   271.15288933
_cell_formula_units_Z   2
loop_
 _symmetry_equiv_pos_site_id
 _symmetry_equiv_pos_as_xyz
  1  'x, y, z'
loop_
 _atom_site_type_symbol
 _atom_site_label
 _atom_site_symmetry_multiplicity
 _atom_site_fract_x
 _atom_site_fract_y
 _atom_site_fract_z
 _atom_site_occupancy
  Be  Be0  1  1.21317411  -0.56728048  0.56728048  1.0
  Be  Be1  1  0.56728048  -0.21317411  1.21317411  1.0
  Be  Be2  1  0.71317411  0.06728048  0.93271952  1.0
  Be  Be3  1  0.93271952  -0.71317411  0.71317411  1.0
  Be  Be4  1  0.43271952  0.21317411  -0.21317411  1.0
  Be  Be5  1  -0.21317411  0.56728048  0.43271952  1.0
  Be  Be6  1  0.06728048  0.71317411  0.28682589  1.0
  Be  Be7  1  0.28682589  -0.06728048  0.06728048  1.0
  Be  Be8  1  -0.06728048  0.71317411  0.06728048  1.0
  Be  Be9  1  -0.71317411  1.06728048  0.71317411  1.0
  Be  Be10  1  0.43271952  0.56728048  0.21317411  1.0
  Be  Be11  1  0.78682589  0.21317411  0.56728048  1.0
  Be  Be12  1  -0.43271952  1.21317411  0.43271952  1.0
  Be  Be13  1  -0.21317411  0.43271952  0.21317411  1.0
  Be  Be14  1  1.06728048  -0.06728048  0.71317411  1.0
  Be  Be15  1  0.28682589  0.71317411  -0.06728048  1.0
  Be  Be16  1  -0.28682589  0.93271952  0.28682589  1.0
  Be  Be17  1  0.06728048  0.28682589  -0.06728048  1.0
  Be  Be18  1  0.21317411  0.78682589  0.43271952  1.0
  Be  Be19  1  0.56728048  0.43271952  0.78682589  1.0
  Be  Be20  1  0.21317411  0.56728048  -0.21317411  1.0
  Be  Be21  1  -0.56728048  0.78682589  0.56728048  1.0
  Be  Be22  1  0.71317411  0.28682589  1.06728048  1.0
  Be  Be23  1  -0.06728048  1.06728048  0.28682589  1.0
  Be  Be24  1  0.50000000  0.50000000  -0.50000000  1.0
  Be  Be25  1  0.00000000  1.00000000  0.00000000  1.0
  Sb  Sb26  1  0.25000000  0.25000000  0.25000000  1.0
  Sb  Sb27  1  0.75000000  -0.25000000  0.75000000  1.0
