# generated using pymatgen
data_Na4Cd3Se5
_symmetry_space_group_name_H-M   'P 1'
_cell_length_a   14.31650558
_cell_length_b   4.29005475
_cell_length_c   20.53616007
_cell_angle_alpha   90.00000000
_cell_angle_beta   90.00000000
_cell_angle_gamma   90.00000000
_symmetry_Int_Tables_number   1
_chemical_formula_structural   Na4Cd3Se5
_chemical_formula_sum   'Na16 Cd12 Se20'
_cell_volume   1261.30205215
_cell_formula_units_Z   4
loop_
 _symmetry_equiv_pos_site_id
 _symmetry_equiv_pos_as_xyz
  1  'x, y, z'
loop_
 _atom_site_type_symbol
 _atom_site_label
 _atom_site_symmetry_multiplicity
 _atom_site_fract_x
 _atom_site_fract_y
 _atom_site_fract_z
 _atom_site_occupancy
  Na  Na0  1  1.00026364  0.75000000  0.23374517  1.0
  Na  Na1  1  0.50026364  0.75000000  0.26625483  1.0
  Na  Na2  1  -0.00026364  0.25000000  0.76625483  1.0
  Na  Na3  1  0.49973636  0.25000000  0.73374517  1.0
  Na  Na4  1  0.99539310  0.75000000  0.57838621  1.0
  Na  Na5  1  0.49539310  0.75000000  0.92161379  1.0
  Na  Na6  1  0.00460690  0.25000000  0.42161379  1.0
  Na  Na7  1  0.50460690  0.25000000  0.07838621  1.0
  Na  Na8  1  0.89114263  0.75000000  0.05267416  1.0
  Na  Na9  1  0.39114263  0.75000000  0.44732584  1.0
  Na  Na10  1  0.10885737  0.25000000  0.94732584  1.0
  Na  Na11  1  0.60885737  0.25000000  0.55267416  1.0
  Na  Na12  1  0.72522310  0.75000000  0.16627398  1.0
  Na  Na13  1  0.22522310  0.75000000  0.33372602  1.0
  Na  Na14  1  0.27477690  0.25000000  0.83372602  1.0
  Na  Na15  1  0.77477690  0.25000000  0.66627398  1.0
  Cd  Cd16  1  0.79402601  0.75000000  0.46468971  1.0
  Cd  Cd17  1  0.29402601  0.75000000  0.03531029  1.0
  Cd  Cd18  1  0.20597399  0.25000000  0.53531029  1.0
  Cd  Cd19  1  0.70597399  0.25000000  0.96468971  1.0
  Cd  Cd20  1  0.68067225  0.75000000  0.78392534  1.0
  Cd  Cd21  1  0.18067225  0.75000000  0.71607466  1.0
  Cd  Cd22  1  0.31932775  0.25000000  0.21607466  1.0
  Cd  Cd23  1  0.81932775  0.25000000  0.28392534  1.0
  Cd  Cd24  1  0.42316022  0.75000000  0.62982825  1.0
  Cd  Cd25  1  0.92316022  0.75000000  0.87017175  1.0
  Cd  Cd26  1  0.57683978  0.25000000  0.37017175  1.0
  Cd  Cd27  1  0.07683978  0.25000000  0.12982825  1.0
  Se  Se28  1  0.88659418  0.75000000  0.34953504  1.0
  Se  Se29  1  0.38659418  0.75000000  0.15046496  1.0
  Se  Se30  1  0.11340582  0.25000000  0.65046496  1.0
  Se  Se31  1  0.61340582  0.25000000  0.84953504  1.0
  Se  Se32  1  0.85827654  0.75000000  0.74863372  1.0
  Se  Se33  1  0.35827654  0.75000000  0.75136628  1.0
  Se  Se34  1  0.14172346  0.25000000  0.25136628  1.0
  Se  Se35  1  0.64172346  0.25000000  0.24863372  1.0
  Se  Se36  1  0.64652994  0.75000000  0.03212573  1.0
  Se  Se37  1  0.14652994  0.75000000  0.46787427  1.0
  Se  Se38  1  0.35347006  0.25000000  0.96787427  1.0
  Se  Se39  1  0.85347006  0.25000000  0.53212573  1.0
  Se  Se40  1  0.61231450  0.75000000  0.65748860  1.0
  Se  Se41  1  0.11231450  0.75000000  0.84251140  1.0
  Se  Se42  1  0.38768550  0.25000000  0.34251140  1.0
  Se  Se43  1  0.88768550  0.25000000  0.15748860  1.0
  Se  Se44  1  0.60845612  0.75000000  0.44599802  1.0
  Se  Se45  1  0.10845612  0.75000000  0.05400198  1.0
  Se  Se46  1  0.39154388  0.25000000  0.55400198  1.0
  Se  Se47  1  0.89154388  0.25000000  0.94599802  1.0
