# generated using pymatgen
data_RbPr(ClO)4
_symmetry_space_group_name_H-M   'P 1'
_cell_length_a   8.05483702
_cell_length_b   12.50028092
_cell_length_c   5.08271249
_cell_angle_alpha   90.00000000
_cell_angle_beta   90.00000000
_cell_angle_gamma   90.00000000
_symmetry_Int_Tables_number   1
_chemical_formula_structural   RbPr(ClO)4
_chemical_formula_sum   'Rb2 Pr2 Cl8 O8'
_cell_volume   511.76675993
_cell_formula_units_Z   2
loop_
 _symmetry_equiv_pos_site_id
 _symmetry_equiv_pos_as_xyz
  1  'x, y, z'
loop_
 _atom_site_type_symbol
 _atom_site_label
 _atom_site_symmetry_multiplicity
 _atom_site_fract_x
 _atom_site_fract_y
 _atom_site_fract_z
 _atom_site_occupancy
  Rb  Rb0  1  0.50000000  0.50000000  0.75094661  1.0
  Rb  Rb1  1  0.00000000  0.00000000  0.24905339  1.0
  Pr  Pr2  1  0.50000000  0.00000000  0.24964106  1.0
  Pr  Pr3  1  0.00000000  0.50000000  0.75035894  1.0
  Cl  Cl4  1  0.29904860  0.95903089  0.74947860  1.0
  Cl  Cl5  1  0.79904860  0.54096911  0.25052140  1.0
  Cl  Cl6  1  0.70095140  0.04096911  0.74947860  1.0
  Cl  Cl7  1  0.20095140  0.45903089  0.25052140  1.0
  Cl  Cl8  1  0.27035908  0.72401755  0.25017926  1.0
  Cl  Cl9  1  0.77035908  0.77598245  0.74982074  1.0
  Cl  Cl10  1  0.72964092  0.27598245  0.25017926  1.0
  Cl  Cl11  1  0.22964092  0.22401755  0.74982074  1.0
  O  O12  1  0.27608271  0.85196697  0.24965547  1.0
  O  O13  1  0.77608271  0.64803303  0.75034453  1.0
  O  O14  1  0.72391729  0.14803303  0.24965547  1.0
  O  O15  1  0.22391729  0.35196697  0.75034453  1.0
  O  O16  1  0.15679082  0.60530353  0.75045467  1.0
  O  O17  1  0.65679082  0.89469647  0.24954533  1.0
  O  O18  1  0.84320918  0.39469647  0.75045467  1.0
  O  O19  1  0.34320918  0.10530353  0.24954533  1.0
