# generated using pymatgen
data_K2Cr4Co(HO4)4
_symmetry_space_group_name_H-M   'P 1'
_cell_length_a   7.93258656
_cell_length_b   7.64054082
_cell_length_c   7.11217134
_cell_angle_alpha   61.39096989
_cell_angle_beta   83.94761883
_cell_angle_gamma   85.02062334
_symmetry_Int_Tables_number   1
_chemical_formula_structural   K2Cr4Co(HO4)4
_chemical_formula_sum   'K2 Cr4 Co1 H4 O16'
_cell_volume   375.99872011
_cell_formula_units_Z   1
loop_
 _symmetry_equiv_pos_site_id
 _symmetry_equiv_pos_as_xyz
  1  'x, y, z'
loop_
 _atom_site_type_symbol
 _atom_site_label
 _atom_site_symmetry_multiplicity
 _atom_site_fract_x
 _atom_site_fract_y
 _atom_site_fract_z
 _atom_site_occupancy
  K  K0  1  0.84086848  -0.27662960  1.06139501  1.0
  K  K1  1  0.15913152  -0.72337040  0.93860499  1.0
  Cr  Cr2  1  0.34595274  -0.49101783  1.26479736  1.0
  Cr  Cr3  1  0.65404726  -0.50898217  0.73520264  1.0
  Cr  Cr4  1  0.82211901  -0.80022676  1.56348654  1.0
  Cr  Cr5  1  0.17788099  -0.19977324  0.43651346  1.0
  Co  Co6  1  0.50000000  0.00000000  0.50000000  1.0
  H  H7  1  0.75590090  -0.88413565  1.25966130  1.0
  H  H8  1  0.24409910  -0.11586435  0.74033870  1.0
  H  H9  1  0.59930178  -0.84816832  1.11832385  1.0
  H  H10  1  0.40069822  -0.15183168  0.88167615  1.0
  O  O11  1  0.73744057  -0.56295579  1.52400136  1.0
  O  O12  1  0.26255943  -0.43704421  0.47599864  1.0
  O  O13  1  0.95956044  -0.87874149  1.74156814  1.0
  O  O14  1  0.04043956  -0.12125851  0.25843186  1.0
  O  O15  1  0.48029167  -0.32103680  1.10553072  1.0
  O  O16  1  0.51970833  -0.67896320  0.89446928  1.0
  O  O17  1  0.66922193  -0.96385245  1.65096550  1.0
  O  O18  1  0.33077807  -0.03614755  0.34903450  1.0
  O  O19  1  0.43889388  -0.71367148  1.37331953  1.0
  O  O20  1  0.56110612  -0.28632852  0.62668047  1.0
  O  O21  1  0.90458296  -0.77000609  1.33193298  1.0
  O  O22  1  0.09541704  -0.22999391  0.66806702  1.0
  O  O23  1  0.80961763  -0.51955341  0.86952671  1.0
  O  O24  1  0.19038237  -0.48044659  1.13047329  1.0
  O  O25  1  0.65550773  -0.94960745  1.25164299  1.0
  O  O26  1  0.34449227  -0.05039255  0.74835701  1.0
