# generated using pymatgen
data_SbI3
_symmetry_space_group_name_H-M   'P 1'
_cell_length_a   8.78845767
_cell_length_b   8.78845767
_cell_length_c   8.78845767
_cell_angle_alpha   51.77753347
_cell_angle_beta   51.77753347
_cell_angle_gamma   51.77753347
_symmetry_Int_Tables_number   1
_chemical_formula_structural   SbI3
_chemical_formula_sum   'Sb2 I6'
_cell_volume   387.13374785
_cell_formula_units_Z   2
loop_
 _symmetry_equiv_pos_site_id
 _symmetry_equiv_pos_as_xyz
  1  'x, y, z'
loop_
 _atom_site_type_symbol
 _atom_site_label
 _atom_site_symmetry_multiplicity
 _atom_site_fract_x
 _atom_site_fract_y
 _atom_site_fract_z
 _atom_site_occupancy
  Sb  Sb0  1  0.16708339  0.16708339  0.16708339  1.0
  Sb  Sb1  1  0.83291661  -0.16708339  -0.16708339  1.0
  I  I2  1  0.42250804  0.06779696  -0.22569620  1.0
  I  I3  1  0.22569620  0.57749196  -0.06779696  1.0
  I  I4  1  0.93220304  0.22569620  -0.42250804  1.0
  I  I5  1  0.57749196  0.93220304  -0.77430380  1.0
  I  I6  1  0.77430380  -0.57749196  0.06779696  1.0
  I  I7  1  1.06779696  -0.22569620  -0.57749196  1.0
