# generated using pymatgen
data_K2Cu(CO2)4
_symmetry_space_group_name_H-M   'P 1'
_cell_length_a   5.09129357
_cell_length_b   6.70453020
_cell_length_c   14.33975476
_cell_angle_alpha   90.00000000
_cell_angle_beta   106.71325382
_cell_angle_gamma   90.00000000
_symmetry_Int_Tables_number   1
_chemical_formula_structural   K2Cu(CO2)4
_chemical_formula_sum   'K4 Cu2 C8 O16'
_cell_volume   468.80592771
_cell_formula_units_Z   2
loop_
 _symmetry_equiv_pos_site_id
 _symmetry_equiv_pos_as_xyz
  1  'x, y, z'
loop_
 _atom_site_type_symbol
 _atom_site_label
 _atom_site_symmetry_multiplicity
 _atom_site_fract_x
 _atom_site_fract_y
 _atom_site_fract_z
 _atom_site_occupancy
  K  K0  1  0.52316394  0.06539249  0.65339465  1.0
  K  K1  1  0.47683606  0.56539249  0.84660535  1.0
  K  K2  1  0.47683606  0.93460751  0.34660535  1.0
  K  K3  1  0.52316394  0.43460751  0.15339465  1.0
  Cu  Cu4  1  0.50000000  0.50000000  0.50000000  1.0
  Cu  Cu5  1  0.50000000  0.00000000  0.00000000  1.0
  C  C6  1  0.94181243  0.69198379  0.62007960  1.0
  C  C7  1  0.05818757  0.19198379  0.87992040  1.0
  C  C8  1  0.05818757  0.30801621  0.37992040  1.0
  C  C9  1  0.94181243  0.80801621  0.12007960  1.0
  C  C10  1  0.01812809  0.46641357  0.62058487  1.0
  C  C11  1  0.98187191  0.96641357  0.87941513  1.0
  C  C12  1  0.98187191  0.53358643  0.37941513  1.0
  C  C13  1  0.01812809  0.03358643  0.12058487  1.0
  O  O14  1  0.25223705  0.40963919  0.66571812  1.0
  O  O15  1  0.74776295  0.90963919  0.83428188  1.0
  O  O16  1  0.74776295  0.59036081  0.33428188  1.0
  O  O17  1  0.25223705  0.09036081  0.16571812  1.0
  O  O18  1  0.82461890  0.35133547  0.57086148  1.0
  O  O19  1  0.17538110  0.85133547  0.92913852  1.0
  O  O20  1  0.17538110  0.64866453  0.42913852  1.0
  O  O21  1  0.82461890  0.14866453  0.07086148  1.0
  O  O22  1  0.70099136  0.73676047  0.56302742  1.0
  O  O23  1  0.29900864  0.23676047  0.93697258  1.0
  O  O24  1  0.29900864  0.26323953  0.43697258  1.0
  O  O25  1  0.70099136  0.76323953  0.06302742  1.0
  O  O26  1  0.10406356  0.81222191  0.67196938  1.0
  O  O27  1  0.89593644  0.31222191  0.82803062  1.0
  O  O28  1  0.89593644  0.18777809  0.32803062  1.0
  O  O29  1  0.10406356  0.68777809  0.17196938  1.0
