# generated using pymatgen
data_Ba3NbFe3(SiO7)2
_symmetry_space_group_name_H-M   'P 1'
_cell_length_a   8.69182021
_cell_length_b   8.69182021
_cell_length_c   5.27547527
_cell_angle_alpha   90.00000000
_cell_angle_beta   90.00000000
_cell_angle_gamma   120.00000000
_symmetry_Int_Tables_number   1
_chemical_formula_structural   Ba3NbFe3(SiO7)2
_chemical_formula_sum   'Ba3 Nb1 Fe3 Si2 O14'
_cell_volume   345.15462122
_cell_formula_units_Z   1
loop_
 _symmetry_equiv_pos_site_id
 _symmetry_equiv_pos_as_xyz
  1  'x, y, z'
loop_
 _atom_site_type_symbol
 _atom_site_label
 _atom_site_symmetry_multiplicity
 _atom_site_fract_x
 _atom_site_fract_y
 _atom_site_fract_z
 _atom_site_occupancy
  Ba  Ba0  1  0.42790267  0.42790267  0.00000000  1.0
  Ba  Ba1  1  0.00000000  0.57209733  0.00000000  1.0
  Ba  Ba2  1  0.57209733  0.00000000  0.00000000  1.0
  O  O3  1  0.33333333  0.66666667  0.21726697  1.0
  O  O4  1  0.66666667  0.33333333  0.78273303  1.0
  O  O5  1  0.10575880  0.89020022  0.22313353  1.0
  O  O6  1  0.89020022  0.10575880  0.77686647  1.0
  O  O7  1  0.78444143  0.89424120  0.22313353  1.0
  O  O8  1  0.10979978  0.21555857  0.22313353  1.0
  O  O9  1  0.89424120  0.78444143  0.77686647  1.0
  O  O10  1  0.21555857  0.10979978  0.77686647  1.0
  O  O11  1  0.69826218  0.52282938  0.35087966  1.0
  O  O12  1  0.52282938  0.69826218  0.64912034  1.0
  O  O13  1  0.82456720  0.30173782  0.35087966  1.0
  O  O14  1  0.47717062  0.17543280  0.35087966  1.0
  O  O15  1  0.30173782  0.82456720  0.64912034  1.0
  O  O16  1  0.17543280  0.47717062  0.64912034  1.0
  Fe  Fe17  1  0.74438070  0.74438070  0.50000000  1.0
  Fe  Fe18  1  -0.00000000  0.25561930  0.50000000  1.0
  Fe  Fe19  1  0.25561930  0.00000000  0.50000000  1.0
  Si  Si20  1  0.33333333  0.66666667  0.52281521  1.0
  Si  Si21  1  0.66666667  0.33333333  0.47718479  1.0
  Nb  Nb22  1  0.00000000  0.00000000  0.00000000  1.0
