# generated using pymatgen
data_BaBrCl
_symmetry_space_group_name_H-M   'P 1'
_cell_length_a   8.28500826
_cell_length_b   4.88316409
_cell_length_c   9.60192936
_cell_angle_alpha   90.00000000
_cell_angle_beta   90.00000000
_cell_angle_gamma   90.00000000
_symmetry_Int_Tables_number   1
_chemical_formula_structural   BaBrCl
_chemical_formula_sum   'Ba4 Br4 Cl4'
_cell_volume   388.46578235
_cell_formula_units_Z   4
loop_
 _symmetry_equiv_pos_site_id
 _symmetry_equiv_pos_as_xyz
  1  'x, y, z'
loop_
 _atom_site_type_symbol
 _atom_site_label
 _atom_site_symmetry_multiplicity
 _atom_site_fract_x
 _atom_site_fract_y
 _atom_site_fract_z
 _atom_site_occupancy
  Ba  Ba0  1  0.76471636  0.75000000  0.11990475  1.0
  Ba  Ba1  1  0.26471636  0.75000000  0.38009525  1.0
  Ba  Ba2  1  0.23528364  0.25000000  0.88009525  1.0
  Ba  Ba3  1  0.73528364  0.25000000  0.61990475  1.0
  Br  Br4  1  1.02855900  0.75000000  0.67029695  1.0
  Br  Br5  1  0.52855900  0.75000000  0.82970305  1.0
  Br  Br6  1  -0.02855900  0.25000000  0.32970305  1.0
  Br  Br7  1  0.47144100  0.25000000  0.17029695  1.0
  Cl  Cl8  1  0.64298094  0.75000000  0.43131389  1.0
  Cl  Cl9  1  0.14298094  0.75000000  0.06868611  1.0
  Cl  Cl10  1  0.35701906  0.25000000  0.56868611  1.0
  Cl  Cl11  1  0.85701906  0.25000000  0.93131389  1.0
