# generated using pymatgen
data_Re2Cl5O4
_symmetry_space_group_name_H-M   'P 1'
_cell_length_a   6.25973822
_cell_length_b   12.50066204
_cell_length_c   9.01422692
_cell_angle_alpha   70.05230397
_cell_angle_beta   83.28035738
_cell_angle_gamma   77.97760523
_symmetry_Int_Tables_number   1
_chemical_formula_structural   Re2Cl5O4
_chemical_formula_sum   'Re4 Cl10 O8'
_cell_volume   647.69834769
_cell_formula_units_Z   2
loop_
 _symmetry_equiv_pos_site_id
 _symmetry_equiv_pos_as_xyz
  1  'x, y, z'
loop_
 _atom_site_type_symbol
 _atom_site_label
 _atom_site_symmetry_multiplicity
 _atom_site_fract_x
 _atom_site_fract_y
 _atom_site_fract_z
 _atom_site_occupancy
  Cl  Cl0  1  -0.87830972  -0.56904064  -0.66797563  1.0
  Cl  Cl1  1  -0.12169028  -0.43095936  -0.33202437  1.0
  Cl  Cl2  1  -0.44979594  -0.26901703  -0.88895504  1.0
  Cl  Cl3  1  -0.55020406  -0.73098297  -0.11104496  1.0
  Cl  Cl4  1  -0.25769197  -0.85017796  -0.60599061  1.0
  Cl  Cl5  1  -0.74230803  -0.14982204  -0.39400939  1.0
  Cl  Cl6  1  -0.24788381  -0.59989712  -0.85554324  1.0
  Cl  Cl7  1  -0.75211619  -0.40010288  -0.14445676  1.0
  Cl  Cl8  1  -0.89277577  -0.81817750  -0.41600026  1.0
  Cl  Cl9  1  -0.10722423  -0.18182250  -0.58399974  1.0
  O  O10  1  -0.94912990  -0.87060770  -0.98714109  1.0
  O  O11  1  -0.05087010  -0.12939230  -0.01285891  1.0
  O  O12  1  -0.82335835  -0.78158451  -0.77212913  1.0
  O  O13  1  -0.17664165  -0.21841549  -0.22787087  1.0
  O  O14  1  -0.56363632  -0.97534121  -0.83256805  1.0
  O  O15  1  -0.43636368  -0.02465879  -0.16743195  1.0
  O  O16  1  -0.31729858  -0.63454564  -0.49614824  1.0
  O  O17  1  -0.68270142  -0.36545436  -0.50385176  1.0
  Re  Re18  1  -0.73018433  -0.84568365  -0.91561496  1.0
  Re  Re19  1  -0.26981567  -0.15431635  -0.08438504  1.0
  Re  Re20  1  -0.87663764  -0.30706002  -0.39509091  1.0
  Re  Re21  1  -0.12336236  -0.69293998  -0.60490909  1.0
