# generated using pymatgen
data_MgCoH16(ClO2)4
_symmetry_space_group_name_H-M   'P 1'
_cell_length_a   6.18187297
_cell_length_b   8.52566806
_cell_length_c   6.44718856
_cell_angle_alpha   81.80083586
_cell_angle_beta   87.66974833
_cell_angle_gamma   86.65510017
_symmetry_Int_Tables_number   1
_chemical_formula_structural   MgCoH16(ClO2)4
_chemical_formula_sum   'Mg1 Co1 H16 Cl4 O8'
_cell_volume   335.57035788
_cell_formula_units_Z   1
loop_
 _symmetry_equiv_pos_site_id
 _symmetry_equiv_pos_as_xyz
  1  'x, y, z'
loop_
 _atom_site_type_symbol
 _atom_site_label
 _atom_site_symmetry_multiplicity
 _atom_site_fract_x
 _atom_site_fract_y
 _atom_site_fract_z
 _atom_site_occupancy
  Mg  Mg0  1  0.00000000  0.00000000  0.00000000  1.0
  Co  Co1  1  -0.50000000  -0.50000000  -0.50000000  1.0
  H  H2  1  -1.03992199  -0.83570696  -0.37531086  1.0
  H  H3  1  0.03992199  -0.16429304  -0.62468914  1.0
  H  H4  1  -0.88887199  -0.51739926  -0.27867666  1.0
  H  H5  1  -0.11112801  -0.48260074  -0.72132334  1.0
  H  H6  1  -0.82442545  -0.78190305  -0.29235933  1.0
  H  H7  1  -0.17557455  -0.21809695  -0.70764067  1.0
  H  H8  1  -0.77561632  -0.29325461  -0.96978893  1.0
  H  H9  1  -0.22438368  -0.70674539  -0.03021107  1.0
  H  H10  1  -0.74577845  -0.81032079  -0.80276929  1.0
  H  H11  1  -0.25422155  -0.18967921  -0.19723071  1.0
  H  H12  1  -0.65116102  -0.98690617  -0.76324342  1.0
  H  H13  1  -0.34883898  -0.01309383  -0.23675658  1.0
  H  H14  1  -0.29337654  -0.43130585  -0.88188275  1.0
  H  H15  1  -0.70662346  -0.56869415  -0.11811725  1.0
  H  H16  1  -0.26188685  -0.79512840  -0.79778532  1.0
  H  H17  1  -0.73811315  -0.20487160  -0.20221468  1.0
  Cl  Cl18  1  -0.75611704  -0.53908200  -0.77795609  1.0
  Cl  Cl19  1  -0.24388296  -0.46091800  -0.22204391  1.0
  Cl  Cl20  1  -0.36853793  -0.77165749  -0.48720407  1.0
  Cl  Cl21  1  -0.63146207  -0.22834251  -0.51279593  1.0
  O  O22  1  -0.91329169  -0.87417155  -0.29031461  1.0
  O  O23  1  -0.08670831  -0.12582845  -0.70968539  1.0
  O  O24  1  -0.74322388  -0.57212186  -0.26524194  1.0
  O  O25  1  -0.25677612  -0.42787814  -0.73475806  1.0
  O  O26  1  -0.74043419  -0.91209456  -0.85765659  1.0
  O  O27  1  -0.25956581  -0.08790544  -0.14234341  1.0
  O  O28  1  -0.19953349  -0.80781557  -0.93854122  1.0
  O  O29  1  -0.80046651  -0.19218443  -0.06145878  1.0
