# generated using pymatgen
data_NaZr2FeF11
_symmetry_space_group_name_H-M   'P 1'
_cell_length_a   5.76059116
_cell_length_b   5.76059116
_cell_length_c   7.86862529
_cell_angle_alpha   69.38687744
_cell_angle_beta   110.61312256
_cell_angle_gamma   106.98947428
_symmetry_Int_Tables_number   1
_chemical_formula_structural   NaZr2FeF11
_chemical_formula_sum   'Na1 Zr2 Fe1 F11'
_cell_volume   224.49362328
_cell_formula_units_Z   1
loop_
 _symmetry_equiv_pos_site_id
 _symmetry_equiv_pos_as_xyz
  1  'x, y, z'
loop_
 _atom_site_type_symbol
 _atom_site_label
 _atom_site_symmetry_multiplicity
 _atom_site_fract_x
 _atom_site_fract_y
 _atom_site_fract_z
 _atom_site_occupancy
  Na  Na0  1  0.00000000  0.00000000  0.00000000  1.0
  Zr  Zr1  1  1.49433748  -0.49433748  0.76408089  1.0
  Zr  Zr2  1  0.50566252  0.49433748  0.23591911  1.0
  Fe  Fe3  1  -0.00000000  0.00000000  0.50000000  1.0
  F  F4  1  1.77747208  -0.19335878  0.68925373  1.0
  F  F5  1  1.19335878  -0.77747208  0.68925373  1.0
  F  F6  1  0.80664122  0.77747208  0.31074627  1.0
  F  F7  1  0.22252792  0.19335878  0.31074627  1.0
  F  F8  1  0.75039295  0.24960705  0.35216076  1.0
  F  F9  1  1.24960705  -0.24960705  0.64783924  1.0
  F  F10  1  0.73004746  0.26995254  0.88791443  1.0
  F  F11  1  1.26995254  -0.26995254  0.11208557  1.0
  F  F12  1  0.66962302  0.66962302  -0.00000000  1.0
  F  F13  1  0.33037698  0.33037698  -0.00000000  1.0
  F  F14  1  0.50000000  0.50000000  0.50000000  1.0
