# generated using pymatgen
data_Na2Mg2FeH8
_symmetry_space_group_name_H-M   'P 1'
_cell_length_a   5.30347512
_cell_length_b   11.02648596
_cell_length_c   4.45727994
_cell_angle_alpha   90.00000000
_cell_angle_beta   90.00000000
_cell_angle_gamma   90.00000000
_symmetry_Int_Tables_number   1
_chemical_formula_structural   Na2Mg2FeH8
_chemical_formula_sum   'Na4 Mg4 Fe2 H16'
_cell_volume   260.65590940
_cell_formula_units_Z   2
loop_
 _symmetry_equiv_pos_site_id
 _symmetry_equiv_pos_as_xyz
  1  'x, y, z'
loop_
 _atom_site_type_symbol
 _atom_site_label
 _atom_site_symmetry_multiplicity
 _atom_site_fract_x
 _atom_site_fract_y
 _atom_site_fract_z
 _atom_site_occupancy
  Na  Na0  1  0.49963040  0.85939379  0.00000000  1.0
  Na  Na1  1  0.99963040  0.64060621  0.00000000  1.0
  Na  Na2  1  0.50036960  0.14060621  0.00000000  1.0
  Na  Na3  1  0.00036960  0.35939379  0.00000000  1.0
  Mg  Mg4  1  0.46627271  0.62846530  0.50000000  1.0
  Mg  Mg5  1  0.96627271  0.87153470  0.50000000  1.0
  Mg  Mg6  1  0.53372729  0.37153470  0.50000000  1.0
  Mg  Mg7  1  0.03372729  0.12846530  0.50000000  1.0
  Fe  Fe8  1  0.50000000  0.50000000  0.00000000  1.0
  Fe  Fe9  1  0.00000000  0.00000000  0.00000000  1.0
  H  H10  1  0.21613347  0.98924127  0.75727289  1.0
  H  H11  1  0.21613347  0.98924127  0.24272711  1.0
  H  H12  1  0.71613347  0.51075873  0.75727289  1.0
  H  H13  1  0.71613347  0.51075873  0.24272711  1.0
  H  H14  1  0.78386653  0.01075873  0.75727289  1.0
  H  H15  1  0.78386653  0.01075873  0.24272711  1.0
  H  H16  1  0.28386653  0.48924127  0.75727289  1.0
  H  H17  1  0.28386653  0.48924127  0.24272711  1.0
  H  H18  1  0.15306527  0.72161247  0.50000000  1.0
  H  H19  1  0.65306527  0.77838753  0.50000000  1.0
  H  H20  1  0.84693473  0.27838753  0.50000000  1.0
  H  H21  1  0.34693473  0.22161247  0.50000000  1.0
  H  H22  1  0.47044940  0.64441573  0.00000000  1.0
  H  H23  1  0.97044940  0.85558427  0.00000000  1.0
  H  H24  1  0.52955060  0.35558427  0.00000000  1.0
  H  H25  1  0.02955060  0.14441573  0.00000000  1.0
