# generated using pymatgen
data_K4CO4
_symmetry_space_group_name_H-M   'P 1'
_cell_length_a   5.93333222
_cell_length_b   5.93333222
_cell_length_c   5.68351001
_cell_angle_alpha   80.64148818
_cell_angle_beta   99.35851182
_cell_angle_gamma   66.37620318
_symmetry_Int_Tables_number   1
_chemical_formula_structural   K4CO4
_chemical_formula_sum   'K4 C1 O4'
_cell_volume   175.04134790
_cell_formula_units_Z   1
loop_
 _symmetry_equiv_pos_site_id
 _symmetry_equiv_pos_as_xyz
  1  'x, y, z'
loop_
 _atom_site_type_symbol
 _atom_site_label
 _atom_site_symmetry_multiplicity
 _atom_site_fract_x
 _atom_site_fract_y
 _atom_site_fract_z
 _atom_site_occupancy
  K  K0  1  0.59493350  -0.11207583  0.68274389  1.0
  K  K1  1  1.11207583  0.40506650  0.68274389  1.0
  K  K2  1  0.80084435  -0.80084435  0.03693836  1.0
  K  K3  1  0.33553635  -0.33553635  0.25852219  1.0
  C  C4  1  0.99105478  -0.99105478  0.54457302  1.0
  O  O5  1  0.91224175  -0.14705414  0.42003793  1.0
  O  O6  1  1.14705414  0.08775825  0.42003793  1.0
  O  O7  1  0.76782774  -0.76782774  0.54907032  1.0
  O  O8  1  0.13129156  -0.13129156  0.79442247  1.0
