# generated using pymatgen
data_Rb3(SO4)2
_symmetry_space_group_name_H-M   'P 1'
_cell_length_a   8.35703755
_cell_length_b   8.35703755
_cell_length_c   10.24072020
_cell_angle_alpha   76.90918565
_cell_angle_beta   103.09081435
_cell_angle_gamma   137.09763173
_symmetry_Int_Tables_number   1
_chemical_formula_structural   Rb3(SO4)2
_chemical_formula_sum   'Rb6 S4 O16'
_cell_volume   472.24519699
_cell_formula_units_Z   2
loop_
 _symmetry_equiv_pos_site_id
 _symmetry_equiv_pos_as_xyz
  1  'x, y, z'
loop_
 _atom_site_type_symbol
 _atom_site_label
 _atom_site_symmetry_multiplicity
 _atom_site_fract_x
 _atom_site_fract_y
 _atom_site_fract_z
 _atom_site_occupancy
  S  S0  1  0.39044653  0.16302236  0.96688625  1.0
  S  S1  1  0.83697764  0.60955347  0.46688625  1.0
  S  S2  1  1.16302236  0.39044653  0.53311375  1.0
  S  S3  1  0.60955347  -0.16302236  0.03311375  1.0
  O  O4  1  0.58567769  -0.11134194  0.88498243  1.0
  O  O5  1  1.11134194  0.41432231  0.38498243  1.0
  O  O6  1  0.88865806  0.58567769  0.61501757  1.0
  O  O7  1  0.41432231  0.11134194  0.11501757  1.0
  O  O8  1  0.61619538  0.31105468  0.90759552  1.0
  O  O9  1  0.68894532  0.38380462  0.40759552  1.0
  O  O10  1  1.31105468  0.61619538  0.59240448  1.0
  O  O11  1  0.38380462  -0.31105468  0.09240448  1.0
  O  O12  1  0.32321003  0.29492732  0.94004556  1.0
  O  O13  1  0.70507268  0.67678997  0.44004556  1.0
  O  O14  1  1.29492732  0.32321003  0.55995444  1.0
  O  O15  1  0.67678997  -0.29492732  0.05995444  1.0
  O  O16  1  0.19204991  -0.06005959  0.89920635  1.0
  O  O17  1  1.06005959  0.80795009  0.39920635  1.0
  O  O18  1  0.93994041  0.19204991  0.60079365  1.0
  O  O19  1  0.80795009  0.06005959  0.10079365  1.0
  Rb  Rb20  1  0.41113748  0.04363477  0.65123881  1.0
  Rb  Rb21  1  0.95636523  0.58886252  0.15123881  1.0
  Rb  Rb22  1  1.04363477  0.41113748  0.84876119  1.0
  Rb  Rb23  1  0.58886252  -0.04363477  0.34876119  1.0
  Rb  Rb24  1  0.72874151  0.72874151  0.75000000  1.0
  Rb  Rb25  1  0.27125849  0.27125849  0.25000000  1.0
