# generated using pymatgen
data_Na2Al11O17
_symmetry_space_group_name_H-M   'P 1'
_cell_length_a   12.03027794
_cell_length_b   12.03027794
_cell_length_c   12.03027794
_cell_angle_alpha   27.25984362
_cell_angle_beta   27.25984362
_cell_angle_gamma   27.25984362
_symmetry_Int_Tables_number   1
_chemical_formula_structural   Na2Al11O17
_chemical_formula_sum   'Na2 Al11 O17'
_cell_volume   322.29024434
_cell_formula_units_Z   1
loop_
 _symmetry_equiv_pos_site_id
 _symmetry_equiv_pos_as_xyz
  1  'x, y, z'
loop_
 _atom_site_type_symbol
 _atom_site_label
 _atom_site_symmetry_multiplicity
 _atom_site_fract_x
 _atom_site_fract_y
 _atom_site_fract_z
 _atom_site_occupancy
  Na  Na0  1  0.68061399  0.68061399  0.68061399  1.0
  Na  Na1  1  1.31938601  1.31938601  0.31938601  1.0
  Al  Al2  1  1.50000000  0.50000000  0.50000000  1.0
  Al  Al3  1  1.40263563  1.40263563  -0.09543638  1.0
  Al  Al4  1  1.40263563  0.90456362  0.40263563  1.0
  Al  Al5  1  1.09543638  0.59736437  0.59736437  1.0
  Al  Al6  1  1.59736437  0.09543638  0.59736437  1.0
  Al  Al7  1  1.59736437  0.59736437  0.09543638  1.0
  Al  Al8  1  0.90456362  1.40263563  0.40263563  1.0
  Al  Al9  1  0.95014965  0.95014965  0.95014965  1.0
  Al  Al10  1  1.04985035  1.04985035  0.04985035  1.0
  Al  Al11  1  0.84982134  0.84982134  0.84982134  1.0
  Al  Al12  1  1.15017866  1.15017866  0.15017866  1.0
  O  O13  1  1.31040929  0.31040929  0.78082354  1.0
  O  O14  1  1.31040929  0.78082354  0.31040929  1.0
  O  O15  1  1.21917646  0.68959071  0.68959071  1.0
  O  O16  1  1.68959071  0.21917646  0.68959071  1.0
  O  O17  1  1.68959071  0.68959071  0.21917646  1.0
  O  O18  1  1.78082354  0.31040929  0.31040929  1.0
  O  O19  1  1.09863481  1.09863481  0.59073966  1.0
  O  O20  1  1.09863481  1.59073966  0.09863481  1.0
  O  O21  1  1.40926034  0.90136519  -0.09863481  1.0
  O  O22  1  0.90136519  1.40926034  -0.09863481  1.0
  O  O23  1  0.90136519  0.90136519  0.40926034  1.0
  O  O24  1  1.59073966  1.09863481  0.09863481  1.0
  O  O25  1  0.79682981  0.79682981  0.79682981  1.0
  O  O26  1  1.20317019  1.20317019  0.20317019  1.0
  O  O27  1  1.59326257  0.59326257  0.59326257  1.0
  O  O28  1  1.40673743  0.40673743  0.40673743  1.0
  O  O29  1  0.00000000  0.00000000  0.00000000  1.0
