# generated using pymatgen
data_Hg2P2O7
_symmetry_space_group_name_H-M   'P 1'
_cell_length_a   6.78429059
_cell_length_b   7.09350512
_cell_length_c   7.27577545
_cell_angle_alpha   76.29483888
_cell_angle_beta   68.30406709
_cell_angle_gamma   79.88481010
_symmetry_Int_Tables_number   1
_chemical_formula_structural   Hg2P2O7
_chemical_formula_sum   'Hg4 P4 O14'
_cell_volume   314.56787568
_cell_formula_units_Z   2
loop_
 _symmetry_equiv_pos_site_id
 _symmetry_equiv_pos_as_xyz
  1  'x, y, z'
loop_
 _atom_site_type_symbol
 _atom_site_label
 _atom_site_symmetry_multiplicity
 _atom_site_fract_x
 _atom_site_fract_y
 _atom_site_fract_z
 _atom_site_occupancy
  Hg  Hg0  1  0.69290301  0.18751816  0.37990604  1.0
  Hg  Hg1  1  0.30709699  0.81248184  0.62009396  1.0
  Hg  Hg2  1  0.10072264  0.67540767  0.24751699  1.0
  Hg  Hg3  1  0.89927736  0.32459233  0.75248301  1.0
  P  P4  1  0.20676094  0.15952612  0.26749816  1.0
  P  P5  1  0.79323906  0.84047388  0.73250184  1.0
  P  P6  1  0.64091375  0.62951146  0.16397218  1.0
  P  P7  1  0.35908625  0.37048854  0.83602782  1.0
  O  O8  1  0.07302514  0.02224202  0.24002790  1.0
  O  O9  1  0.92697486  0.97775798  0.75997210  1.0
  O  O10  1  0.36808277  0.05400269  0.37471966  1.0
  O  O11  1  0.63191723  0.94599731  0.62528034  1.0
  O  O12  1  0.37431299  0.25061524  0.04988834  1.0
  O  O13  1  0.62568701  0.74938476  0.95011166  1.0
  O  O14  1  0.22299987  0.27059050  0.76821185  1.0
  O  O15  1  0.77700013  0.72940950  0.23178815  1.0
  O  O16  1  0.06512908  0.33023424  0.36319921  1.0
  O  O17  1  0.93487092  0.66976576  0.63680079  1.0
  O  O18  1  0.73356443  0.41795251  0.12506208  1.0
  O  O19  1  0.26643557  0.58204749  0.87493792  1.0
  O  O20  1  0.40748344  0.63428324  0.30956565  1.0
  O  O21  1  0.59251656  0.36571676  0.69043435  1.0
