# generated using pymatgen
data_SrP2
_symmetry_space_group_name_H-M   'P 1'
_cell_length_a   6.16781480
_cell_length_b   11.98699342
_cell_length_c   7.51274378
_cell_angle_alpha   90.00000000
_cell_angle_beta   126.79514372
_cell_angle_gamma   90.00000000
_symmetry_Int_Tables_number   1
_chemical_formula_structural   SrP2
_chemical_formula_sum   'Sr6 P12'
_cell_volume   444.78952220
_cell_formula_units_Z   6
loop_
 _symmetry_equiv_pos_site_id
 _symmetry_equiv_pos_as_xyz
  1  'x, y, z'
loop_
 _atom_site_type_symbol
 _atom_site_label
 _atom_site_symmetry_multiplicity
 _atom_site_fract_x
 _atom_site_fract_y
 _atom_site_fract_z
 _atom_site_occupancy
  Sr  Sr0  1  0.70869029  0.83234709  0.31325352  1.0
  Sr  Sr1  1  0.70869029  0.66765291  0.81325352  1.0
  Sr  Sr2  1  0.29130971  0.33234709  0.18674648  1.0
  Sr  Sr3  1  0.29130971  0.16765291  0.68674648  1.0
  Sr  Sr4  1  0.00000000  0.50000000  0.50000000  1.0
  Sr  Sr5  1  0.00000000  0.00000000  0.00000000  1.0
  P  P6  1  0.83936993  0.19245534  0.16703517  1.0
  P  P7  1  0.83936993  0.30754466  0.66703517  1.0
  P  P8  1  0.16063007  0.69245534  0.33296483  1.0
  P  P9  1  0.16063007  0.80754466  0.83296483  1.0
  P  P10  1  0.70948965  0.36813536  0.06622560  1.0
  P  P11  1  0.70948965  0.13186464  0.56622560  1.0
  P  P12  1  0.29051035  0.86813536  0.43377440  1.0
  P  P13  1  0.29051035  0.63186464  0.93377440  1.0
  P  P14  1  0.56729503  0.10081317  0.21597044  1.0
  P  P15  1  0.56729503  0.39918683  0.71597044  1.0
  P  P16  1  0.43270497  0.60081317  0.28402956  1.0
  P  P17  1  0.43270497  0.89918683  0.78402956  1.0
