# generated using pymatgen
data_ZnP2H3C4NO8
_symmetry_space_group_name_H-M   'P 1'
_cell_length_a   12.11562803
_cell_length_b   9.91922186
_cell_length_c   8.50021309
_cell_angle_alpha   81.86711148
_cell_angle_beta   54.14274402
_cell_angle_gamma   43.99014450
_symmetry_Int_Tables_number   1
_chemical_formula_structural   ZnP2H3C4NO8
_chemical_formula_sum   'Zn2 P4 H6 C8 N2 O16'
_cell_volume   498.86224092
_cell_formula_units_Z   2
loop_
 _symmetry_equiv_pos_site_id
 _symmetry_equiv_pos_as_xyz
  1  'x, y, z'
loop_
 _atom_site_type_symbol
 _atom_site_label
 _atom_site_symmetry_multiplicity
 _atom_site_fract_x
 _atom_site_fract_y
 _atom_site_fract_z
 _atom_site_occupancy
  Zn  Zn0  1  -0.43831659  0.56168341  0.43831659  1.0
  Zn  Zn1  1  0.81168341  0.81168341  0.68831659  1.0
  P  P2  1  1.28394534  0.48435784  0.46416605  1.0
  P  P3  1  0.48435784  1.28394534  -0.23246923  1.0
  P  P4  1  0.78583395  -0.51753077  0.96605466  1.0
  P  P5  1  -0.51753077  0.78583395  0.76564216  1.0
  C  C6  1  0.14554054  -0.09688700  1.50627411  1.0
  C  C7  1  0.74372589  0.80492766  1.10445946  1.0
  C  C8  1  0.80492766  0.74372589  -0.65311300  1.0
  C  C9  1  -0.09688700  0.14554054  0.44507234  1.0
  C  C10  1  -0.27347416  0.28227706  1.47753983  1.0
  C  C11  1  0.77246017  -0.26365727  1.52347416  1.0
  C  C12  1  0.28227706  -0.27347416  0.51365727  1.0
  C  C13  1  -0.26365727  0.77246017  -0.03227706  1.0
  H  H14  1  0.31466927  1.31466927  -0.31466927  1.0
  H  H15  1  0.56466927  0.56466927  0.93533073  1.0
  H  H16  1  1.57460711  0.36954554  0.14762514  1.0
  H  H17  1  0.36954554  1.57460711  -0.09177779  1.0
  H  H18  1  1.10237486  0.34177779  0.67539289  1.0
  H  H19  1  0.34177779  1.10237486  -0.11954554  1.0
  O  O20  1  1.53589779  0.31029241  0.23633321  1.0
  O  O21  1  0.31029241  1.53589779  -0.08252340  1.0
  O  O22  1  1.01366679  0.33252340  0.71410221  1.0
  O  O23  1  0.33252340  1.01366679  -0.06029241  1.0
  O  O24  1  0.81750695  -0.56476638  1.12230078  1.0
  O  O25  1  1.12769922  0.62504134  0.43249305  1.0
  O  O26  1  -0.56476638  0.81750695  0.62495866  1.0
  O  O27  1  0.62504134  1.12769922  -0.18523362  1.0
  O  O28  1  1.21368489  0.64832939  0.63499420  1.0
  O  O29  1  0.61500580  0.74700849  1.03631511  1.0
  O  O30  1  0.64832939  1.21368489  -0.49700849  1.0
  O  O31  1  0.74700849  0.61500580  -0.39832939  1.0
  O  O32  1  0.35243605  1.27299065  -0.20124113  1.0
  O  O33  1  -0.54875887  0.67418556  0.89756395  1.0
  O  O34  1  1.27299065  0.35243605  0.57581444  1.0
  O  O35  1  0.67418556  -0.54875887  0.97700935  1.0
  N  N36  1  0.03549332  0.03549332  1.46450668  1.0
  N  N37  1  -0.21450668  0.78549332  0.21450668  1.0
