# generated using pymatgen
data_Tl2SeO4
_symmetry_space_group_name_H-M   'P 1'
_cell_length_a   8.12990399
_cell_length_b   5.98034469
_cell_length_c   11.71879406
_cell_angle_alpha   90.00000000
_cell_angle_beta   90.00000000
_cell_angle_gamma   90.00000000
_symmetry_Int_Tables_number   1
_chemical_formula_structural   Tl2SeO4
_chemical_formula_sum   'Tl8 Se4 O16'
_cell_volume   569.76340993
_cell_formula_units_Z   4
loop_
 _symmetry_equiv_pos_site_id
 _symmetry_equiv_pos_as_xyz
  1  'x, y, z'
loop_
 _atom_site_type_symbol
 _atom_site_label
 _atom_site_symmetry_multiplicity
 _atom_site_fract_x
 _atom_site_fract_y
 _atom_site_fract_z
 _atom_site_occupancy
  Tl  Tl0  1  0.81691561  0.75000000  0.41535884  1.0
  Tl  Tl1  1  0.31691561  0.75000000  0.08464116  1.0
  Tl  Tl2  1  0.18308439  0.25000000  0.58464116  1.0
  Tl  Tl3  1  0.68308439  0.25000000  0.91535884  1.0
  Tl  Tl4  1  0.53112395  0.75000000  0.72259968  1.0
  Tl  Tl5  1  0.03112395  0.75000000  0.77740032  1.0
  Tl  Tl6  1  0.46887605  0.25000000  0.27740032  1.0
  Tl  Tl7  1  0.96887605  0.25000000  0.22259968  1.0
  Se  Se8  1  0.78469491  0.75000000  0.07062542  1.0
  Se  Se9  1  0.28469491  0.75000000  0.42937458  1.0
  Se  Se10  1  0.21530509  0.25000000  0.92937458  1.0
  Se  Se11  1  0.71530509  0.25000000  0.57062542  1.0
  O  O12  1  0.68622825  0.98190659  0.11411239  1.0
  O  O13  1  0.68622825  0.51809341  0.11411239  1.0
  O  O14  1  0.18622825  0.98190659  0.38588761  1.0
  O  O15  1  0.18622825  0.51809341  0.38588761  1.0
  O  O16  1  0.31377175  0.48190659  0.88588761  1.0
  O  O17  1  0.31377175  0.01809341  0.88588761  1.0
  O  O18  1  0.81377175  0.48190659  0.61411239  1.0
  O  O19  1  0.81377175  0.01809341  0.61411239  1.0
  O  O20  1  0.97534821  0.75000000  0.12343539  1.0
  O  O21  1  0.47534821  0.75000000  0.37656461  1.0
  O  O22  1  0.02465179  0.25000000  0.87656461  1.0
  O  O23  1  0.52465179  0.25000000  0.62343539  1.0
  O  O24  1  0.28323251  0.75000000  0.57308916  1.0
  O  O25  1  0.78323251  0.75000000  0.92691084  1.0
  O  O26  1  0.71676749  0.25000000  0.42691084  1.0
  O  O27  1  0.21676749  0.25000000  0.07308916  1.0
