# generated using pymatgen
data_Na2ZnCl4O3
_symmetry_space_group_name_H-M   'P 1'
_cell_length_a   6.93307022
_cell_length_b   6.93307022
_cell_length_c   6.26224124
_cell_angle_alpha   90.00000000
_cell_angle_beta   90.00000000
_cell_angle_gamma   120.00000000
_symmetry_Int_Tables_number   1
_chemical_formula_structural   Na2ZnCl4O3
_chemical_formula_sum   'Na2 Zn1 Cl4 O3'
_cell_volume   260.68234745
_cell_formula_units_Z   1
loop_
 _symmetry_equiv_pos_site_id
 _symmetry_equiv_pos_as_xyz
  1  'x, y, z'
loop_
 _atom_site_type_symbol
 _atom_site_label
 _atom_site_symmetry_multiplicity
 _atom_site_fract_x
 _atom_site_fract_y
 _atom_site_fract_z
 _atom_site_occupancy
  Na  Na0  1  0.33333333  0.66666667  0.18548895  1.0
  Na  Na1  1  0.66666667  0.33333333  0.18548895  1.0
  Zn  Zn2  1  0.00000000  0.00000000  0.36993414  1.0
  Cl  Cl3  1  0.68273749  0.68273749  0.46497198  1.0
  Cl  Cl4  1  -0.00000000  0.31726251  0.46497198  1.0
  Cl  Cl5  1  0.31726251  0.00000000  0.46497198  1.0
  Cl  Cl6  1  0.00000000  0.00000000  -0.01010867  1.0
  O  O7  1  0.64521105  0.64521105  0.06476023  1.0
  O  O8  1  0.00000000  0.35478895  0.06476023  1.0
  O  O9  1  0.35478895  0.00000000  0.06476023  1.0
