# generated using pymatgen
data_CsAgCl2
_symmetry_space_group_name_H-M   'P 1'
_cell_length_a   10.01841107
_cell_length_b   10.01841107
_cell_length_c   5.75484570
_cell_angle_alpha   90.00000000
_cell_angle_beta   90.00000000
_cell_angle_gamma   154.26594049
_symmetry_Int_Tables_number   1
_chemical_formula_structural   CsAgCl2
_chemical_formula_sum   'Cs2 Ag2 Cl4'
_cell_volume   250.79325402
_cell_formula_units_Z   2
loop_
 _symmetry_equiv_pos_site_id
 _symmetry_equiv_pos_as_xyz
  1  'x, y, z'
loop_
 _atom_site_type_symbol
 _atom_site_label
 _atom_site_symmetry_multiplicity
 _atom_site_fract_x
 _atom_site_fract_y
 _atom_site_fract_z
 _atom_site_occupancy
  Cs  Cs0  1  -0.58513594  0.58513594  0.25000000  1.0
  Cs  Cs1  1  -0.41486406  1.41486406  0.75000000  1.0
  Ag  Ag2  1  -0.79883638  0.79883638  0.25000000  1.0
  Ag  Ag3  1  -0.20116362  1.20116362  0.75000000  1.0
  Cl  Cl4  1  -0.92923132  0.92923132  0.25000000  1.0
  Cl  Cl5  1  -0.07076868  1.07076868  0.75000000  1.0
  Cl  Cl6  1  -0.22540008  1.22540008  0.25000000  1.0
  Cl  Cl7  1  -0.77459992  0.77459992  0.75000000  1.0
