# generated using pymatgen
data_Zn3(PO4)2
_symmetry_space_group_name_H-M   'P 1'
_cell_length_a   5.04121154
_cell_length_b   5.04121154
_cell_length_c   15.59670383
_cell_angle_alpha   78.22054356
_cell_angle_beta   101.77945644
_cell_angle_gamma   111.69716731
_symmetry_Int_Tables_number   1
_chemical_formula_structural   Zn3(PO4)2
_chemical_formula_sum   'Zn6 P4 O16'
_cell_volume   356.90750748
_cell_formula_units_Z   2
loop_
 _symmetry_equiv_pos_site_id
 _symmetry_equiv_pos_as_xyz
  1  'x, y, z'
loop_
 _atom_site_type_symbol
 _atom_site_label
 _atom_site_symmetry_multiplicity
 _atom_site_fract_x
 _atom_site_fract_y
 _atom_site_fract_z
 _atom_site_occupancy
  Zn  Zn0  1  1.66458881  0.22823830  0.43255224  1.0
  Zn  Zn1  1  0.77176170  0.33541119  0.93255224  1.0
  Zn  Zn2  1  1.22823830  0.66458881  0.06744776  1.0
  Zn  Zn3  1  1.33541119  -0.22823830  0.56744776  1.0
  Zn  Zn4  1  0.74337876  0.74337876  0.25000000  1.0
  Zn  Zn5  1  1.25662124  0.25662124  0.75000000  1.0
  P  P6  1  1.59573165  0.26183686  0.12789233  1.0
  P  P7  1  0.73816314  0.40426835  0.62789233  1.0
  P  P8  1  1.26183686  0.59573165  0.37210767  1.0
  P  P9  1  1.40426835  -0.26183686  0.87210767  1.0
  O  O10  1  0.52362346  -0.47753176  0.14766515  1.0
  O  O11  1  1.47753176  -0.52362346  0.64766515  1.0
  O  O12  1  0.52246824  -0.47637654  0.35233485  1.0
  O  O13  1  0.47637654  0.47753176  0.85233485  1.0
  O  O14  1  1.68149642  -0.05958081  0.91954351  1.0
  O  O15  1  1.05958081  0.31850358  0.41954351  1.0
  O  O16  1  0.94041919  0.68149642  0.58045649  1.0
  O  O17  1  1.31850358  0.05958081  0.08045649  1.0
  O  O18  1  0.72714978  0.12731375  0.21544716  1.0
  O  O19  1  0.87268625  0.27285022  0.71544716  1.0
  O  O20  1  1.12731375  0.72714978  0.28455284  1.0
  O  O21  1  0.27285022  -0.12731375  0.78455284  1.0
  O  O22  1  0.39378504  -0.17629299  0.43922568  1.0
  O  O23  1  1.17629299  0.60621496  0.93922568  1.0
  O  O24  1  0.82370701  0.39378504  0.06077432  1.0
  O  O25  1  0.60621496  0.17629299  0.56077432  1.0
