# generated using pymatgen
data_K3NbHOF7
_symmetry_space_group_name_H-M   'P 1'
_cell_length_a   8.48533356
_cell_length_b   8.48533356
_cell_length_c   7.01925696
_cell_angle_alpha   87.87341881
_cell_angle_beta   92.12658119
_cell_angle_gamma   63.39272760
_symmetry_Int_Tables_number   1
_chemical_formula_structural   K3NbHOF7
_chemical_formula_sum   'K6 Nb2 H2 O2 F14'
_cell_volume   450.74198243
_cell_formula_units_Z   2
loop_
 _symmetry_equiv_pos_site_id
 _symmetry_equiv_pos_as_xyz
  1  'x, y, z'
loop_
 _atom_site_type_symbol
 _atom_site_label
 _atom_site_symmetry_multiplicity
 _atom_site_fract_x
 _atom_site_fract_y
 _atom_site_fract_z
 _atom_site_occupancy
  K  K0  1  0.32836531  -0.13366229  0.22535698  1.0
  K  K1  1  1.13366229  0.67163469  0.72535698  1.0
  K  K2  1  0.86633771  -0.67163469  0.27464302  1.0
  K  K3  1  1.67163469  0.13366229  0.77464302  1.0
  K  K4  1  1.33797827  0.33797827  0.25000000  1.0
  K  K5  1  0.66202173  -0.33797827  0.75000000  1.0
  Nb  Nb6  1  0.83480284  -0.16519716  0.25000000  1.0
  Nb  Nb7  1  1.16519716  0.16519716  0.75000000  1.0
  H  H8  1  0.50000000  -0.50000000  0.50000000  1.0
  H  H9  1  0.50000000  -0.50000000  0.00000000  1.0
  O  O10  1  0.95657969  -0.04342031  0.25000000  1.0
  O  O11  1  1.04342031  0.04342031  0.75000000  1.0
  F  F12  1  1.60282887  0.03488941  0.17508960  1.0
  F  F13  1  0.96511059  -0.60282887  0.67508960  1.0
  F  F14  1  1.03488941  0.60282887  0.32491040  1.0
  F  F15  1  0.39717113  -0.03488941  0.82491040  1.0
  F  F16  1  1.59403886  0.35734963  0.46845680  1.0
  F  F17  1  0.64265037  -0.59403886  0.96845680  1.0
  F  F18  1  1.35734963  0.59403886  0.03154320  1.0
  F  F19  1  0.40596114  -0.35734963  0.53154320  1.0
  F  F20  1  1.21953249  0.14008302  0.47584861  1.0
  F  F21  1  0.85991698  -0.21953249  0.97584861  1.0
  F  F22  1  1.14008302  0.21953249  0.02415139  1.0
  F  F23  1  0.78046751  -0.14008302  0.52415139  1.0
  F  F24  1  0.68864455  -0.31135545  0.25000000  1.0
  F  F25  1  1.31135545  0.31135545  0.75000000  1.0
