# generated using pymatgen
data_CsBi(MoO4)2
_symmetry_space_group_name_H-M   'P 1'
_cell_length_a   5.14699713
_cell_length_b   9.75998896
_cell_length_c   8.46487863
_cell_angle_alpha   90.00000000
_cell_angle_beta   90.00000000
_cell_angle_gamma   90.00000000
_symmetry_Int_Tables_number   1
_chemical_formula_structural   CsBi(MoO4)2
_chemical_formula_sum   'Cs2 Bi2 Mo4 O16'
_cell_volume   425.23008914
_cell_formula_units_Z   2
loop_
 _symmetry_equiv_pos_site_id
 _symmetry_equiv_pos_as_xyz
  1  'x, y, z'
loop_
 _atom_site_type_symbol
 _atom_site_label
 _atom_site_symmetry_multiplicity
 _atom_site_fract_x
 _atom_site_fract_y
 _atom_site_fract_z
 _atom_site_occupancy
  Cs  Cs0  1  0.00000000  0.50000000  0.75000000  1.0
  Cs  Cs1  1  0.00000000  0.50000000  0.25000000  1.0
  Bi  Bi2  1  0.00000000  0.00000000  0.75000000  1.0
  Bi  Bi3  1  0.00000000  0.00000000  0.25000000  1.0
  Mo  Mo4  1  0.47582366  0.80351092  0.00000000  1.0
  Mo  Mo5  1  0.47582366  0.19648908  0.50000000  1.0
  Mo  Mo6  1  0.52417634  0.80351092  0.50000000  1.0
  Mo  Mo7  1  0.52417634  0.19648908  0.00000000  1.0
  O  O8  1  0.73414183  0.81247479  0.66887369  1.0
  O  O9  1  0.73414183  0.81247479  0.33112631  1.0
  O  O10  1  0.73414183  0.18752521  0.16887369  1.0
  O  O11  1  0.73414183  0.18752521  0.83112631  1.0
  O  O12  1  0.26585817  0.81247479  0.16887369  1.0
  O  O13  1  0.26585817  0.81247479  0.83112631  1.0
  O  O14  1  0.26585817  0.18752521  0.66887369  1.0
  O  O15  1  0.26585817  0.18752521  0.33112631  1.0
  O  O16  1  0.74233780  0.92936468  0.00000000  1.0
  O  O17  1  0.74233780  0.07063532  0.50000000  1.0
  O  O18  1  0.25766220  0.92936468  0.50000000  1.0
  O  O19  1  0.25766220  0.07063532  0.00000000  1.0
  O  O20  1  0.61432864  0.64152396  0.00000000  1.0
  O  O21  1  0.61432864  0.35847604  0.50000000  1.0
  O  O22  1  0.38567136  0.64152396  0.50000000  1.0
  O  O23  1  0.38567136  0.35847604  0.00000000  1.0
