# generated using pymatgen
data_Lu10Al3Os
_symmetry_space_group_name_H-M   'P 1'
_cell_length_a   9.27993001
_cell_length_b   9.27993001
_cell_length_c   9.43016278
_cell_angle_alpha   90.00000000
_cell_angle_beta   90.00000000
_cell_angle_gamma   120.00000000
_symmetry_Int_Tables_number   1
_chemical_formula_structural   Lu10Al3Os
_chemical_formula_sum   'Lu20 Al6 Os2'
_cell_volume   703.29774111
_cell_formula_units_Z   2
loop_
 _symmetry_equiv_pos_site_id
 _symmetry_equiv_pos_as_xyz
  1  'x, y, z'
loop_
 _atom_site_type_symbol
 _atom_site_label
 _atom_site_symmetry_multiplicity
 _atom_site_fract_x
 _atom_site_fract_y
 _atom_site_fract_z
 _atom_site_occupancy
  Lu  Lu0  1  0.20689563  0.79310437  0.44316904  1.0
  Lu  Lu1  1  0.20689563  0.41379127  0.44316904  1.0
  Lu  Lu2  1  0.58620873  0.79310437  0.44316904  1.0
  Lu  Lu3  1  0.79310437  0.20689563  0.55683096  1.0
  Lu  Lu4  1  0.79310437  0.58620873  0.55683096  1.0
  Lu  Lu5  1  0.41379127  0.20689563  0.55683096  1.0
  Lu  Lu6  1  0.79310437  0.20689563  0.94316904  1.0
  Lu  Lu7  1  0.79310437  0.58620873  0.94316904  1.0
  Lu  Lu8  1  0.41379127  0.20689563  0.94316904  1.0
  Lu  Lu9  1  0.20689563  0.79310437  0.05683096  1.0
  Lu  Lu10  1  0.20689563  0.41379127  0.05683096  1.0
  Lu  Lu11  1  0.58620873  0.79310437  0.05683096  1.0
  Lu  Lu12  1  0.53836154  0.46163846  0.25000000  1.0
  Lu  Lu13  1  0.53836154  0.07672309  0.25000000  1.0
  Lu  Lu14  1  0.92327691  0.46163846  0.25000000  1.0
  Lu  Lu15  1  0.46163846  0.53836154  0.75000000  1.0
  Lu  Lu16  1  0.46163846  0.92327691  0.75000000  1.0
  Lu  Lu17  1  0.07672309  0.53836154  0.75000000  1.0
  Lu  Lu18  1  0.00000000  0.00000000  0.50000000  1.0
  Lu  Lu19  1  0.00000000  0.00000000  0.00000000  1.0
  Al  Al20  1  0.22158389  0.11079195  0.25000000  1.0
  Al  Al21  1  0.88920805  0.11079195  0.25000000  1.0
  Al  Al22  1  0.88920805  0.77841611  0.25000000  1.0
  Al  Al23  1  0.77841611  0.88920805  0.75000000  1.0
  Al  Al24  1  0.11079195  0.88920805  0.75000000  1.0
  Al  Al25  1  0.11079195  0.22158389  0.75000000  1.0
  Os  Os26  1  0.33333333  0.66666667  0.25000000  1.0
  Os  Os27  1  0.66666667  0.33333333  0.75000000  1.0
