# generated using pymatgen
data_Ca7(B7Rh10)2
_symmetry_space_group_name_H-M   'P 1'
_cell_length_a   20.80773564
_cell_length_b   20.42138786
_cell_length_c   5.60636814
_cell_angle_alpha   86.11794057
_cell_angle_beta   78.28808605
_cell_angle_gamma   15.59397338
_symmetry_Int_Tables_number   1
_chemical_formula_structural   Ca7(B7Rh10)2
_chemical_formula_sum   'Ca7 B14 Rh20'
_cell_volume   548.17566927
_cell_formula_units_Z   1
loop_
 _symmetry_equiv_pos_site_id
 _symmetry_equiv_pos_as_xyz
  1  'x, y, z'
loop_
 _atom_site_type_symbol
 _atom_site_label
 _atom_site_symmetry_multiplicity
 _atom_site_fract_x
 _atom_site_fract_y
 _atom_site_fract_z
 _atom_site_occupancy
  Ca  Ca0  1  -0.50000000  0.50000000  0.50000000  1.0
  Ca  Ca1  1  0.72233145  0.72233145  -0.72233145  1.0
  Ca  Ca2  1  0.27766855  1.27766855  -0.27766855  1.0
  Ca  Ca3  1  0.64670166  0.64670166  -0.64670166  1.0
  Ca  Ca4  1  0.35329834  1.35329834  -0.35329834  1.0
  Ca  Ca5  1  0.57303738  0.57303738  -0.57303738  1.0
  Ca  Ca6  1  0.42696262  1.42696262  -0.42696262  1.0
  B  B7  1  1.62267201  -0.05578511  0.05578511  1.0
  B  B8  1  1.05578511  0.37732799  0.62267201  1.0
  B  B9  1  0.94421489  0.62267201  0.37732799  1.0
  B  B10  1  1.37732799  0.05578511  -0.05578511  1.0
  B  B11  1  1.76191788  0.09365531  -0.09365531  1.0
  B  B12  1  0.90634469  0.23808212  0.76191788  1.0
  B  B13  1  1.09365531  0.76191788  0.23808212  1.0
  B  B14  1  1.23808212  -0.09365531  0.09365531  1.0
  B  B15  1  1.68907211  0.02222216  -0.02222216  1.0
  B  B16  1  0.97777784  0.31092789  0.68907211  1.0
  B  B17  1  1.02222216  0.68907211  0.31092789  1.0
  B  B18  1  1.31092789  -0.02222216  0.02222216  1.0
  B  B19  1  0.83362661  -0.83362661  0.83362661  1.0
  B  B20  1  0.16637339  -0.16637339  1.16637339  1.0
  Rh  Rh21  1  0.96389352  0.96389352  0.53610648  1.0
  Rh  Rh22  1  1.03610648  0.03610648  0.46389352  1.0
  Rh  Rh23  1  1.46389352  0.46389352  0.03610648  1.0
  Rh  Rh24  1  0.53610648  0.53610648  0.96389352  1.0
  Rh  Rh25  1  0.89164392  0.89164392  0.60835608  1.0
  Rh  Rh26  1  1.10835608  0.10835608  0.39164392  1.0
  Rh  Rh27  1  1.39164392  0.39164392  0.10835608  1.0
  Rh  Rh28  1  0.60835608  0.60835608  0.89164392  1.0
  Rh  Rh29  1  0.81969304  0.81969304  0.68030696  1.0
  Rh  Rh30  1  1.18030696  0.18030696  0.31969304  1.0
  Rh  Rh31  1  1.31969304  0.31969304  0.18030696  1.0
  Rh  Rh32  1  0.68030696  0.68030696  0.81969304  1.0
  Rh  Rh33  1  0.96398186  0.96398186  -0.96398186  1.0
  Rh  Rh34  1  0.03601814  1.03601814  -0.03601814  1.0
  Rh  Rh35  1  0.89182045  0.89182045  -0.89182045  1.0
  Rh  Rh36  1  0.10817955  1.10817955  -0.10817955  1.0
  Rh  Rh37  1  0.81917894  0.81917894  -0.81917894  1.0
  Rh  Rh38  1  0.18082106  1.18082106  -0.18082106  1.0
  Rh  Rh39  1  0.75000000  0.75000000  0.75000000  1.0
  Rh  Rh40  1  1.25000000  0.25000000  0.25000000  1.0
