# generated using pymatgen
data_CaYbInS4
_symmetry_space_group_name_H-M   'P 1'
_cell_length_a   13.83829581
_cell_length_b   8.06078267
_cell_length_c   6.61306595
_cell_angle_alpha   90.00000000
_cell_angle_beta   90.00000000
_cell_angle_gamma   90.00000000
_symmetry_Int_Tables_number   1
_chemical_formula_structural   CaYbInS4
_chemical_formula_sum   'Ca4 Yb4 In4 S16'
_cell_volume   737.67094131
_cell_formula_units_Z   4
loop_
 _symmetry_equiv_pos_site_id
 _symmetry_equiv_pos_as_xyz
  1  'x, y, z'
loop_
 _atom_site_type_symbol
 _atom_site_label
 _atom_site_symmetry_multiplicity
 _atom_site_fract_x
 _atom_site_fract_y
 _atom_site_fract_z
 _atom_site_occupancy
  Ca  Ca0  1  0.76881087  0.25000000  0.50614946  1.0
  Ca  Ca1  1  0.26881087  0.25000000  0.99385054  1.0
  Ca  Ca2  1  0.23118913  0.75000000  0.49385054  1.0
  Ca  Ca3  1  0.73118913  0.75000000  0.00614946  1.0
  Yb  Yb4  1  0.00000000  0.50000000  0.00000000  1.0
  Yb  Yb5  1  -0.00000000  0.00000000  0.00000000  1.0
  Yb  Yb6  1  0.50000000  0.50000000  0.50000000  1.0
  Yb  Yb7  1  0.50000000  0.00000000  0.50000000  1.0
  In  In8  1  0.59094127  0.25000000  0.08427312  1.0
  In  In9  1  0.09094127  0.25000000  0.41572688  1.0
  In  In10  1  0.40905873  0.75000000  0.91572688  1.0
  In  In11  1  0.90905873  0.75000000  0.58427312  1.0
  S  S12  1  0.66358138  0.49055278  0.26392187  1.0
  S  S13  1  0.66358138  0.00944722  0.26392187  1.0
  S  S14  1  0.16358138  0.49055278  0.23607813  1.0
  S  S15  1  0.16358138  0.00944722  0.23607813  1.0
  S  S16  1  0.33641862  0.99055278  0.73607813  1.0
  S  S17  1  0.33641862  0.50944722  0.73607813  1.0
  S  S18  1  0.83641862  0.99055278  0.76392187  1.0
  S  S19  1  0.83641862  0.50944722  0.76392187  1.0
  S  S20  1  0.92875257  0.25000000  0.23908981  1.0
  S  S21  1  0.42875257  0.25000000  0.26091019  1.0
  S  S22  1  0.07124743  0.75000000  0.76091019  1.0
  S  S23  1  0.57124743  0.75000000  0.73908981  1.0
  S  S24  1  0.58703146  0.25000000  0.71397857  1.0
  S  S25  1  0.08703146  0.25000000  0.78602143  1.0
  S  S26  1  0.41296854  0.75000000  0.28602143  1.0
  S  S27  1  0.91296854  0.75000000  0.21397857  1.0
