# generated using pymatgen
data_In7Pt3
_symmetry_space_group_name_H-M   'P 1'
_cell_length_a   8.31441272
_cell_length_b   8.31441272
_cell_length_c   8.31441272
_cell_angle_alpha   109.47122063
_cell_angle_beta   109.47122063
_cell_angle_gamma   109.47122063
_symmetry_Int_Tables_number   1
_chemical_formula_structural   In7Pt3
_chemical_formula_sum   'In14 Pt6'
_cell_volume   442.45880829
_cell_formula_units_Z   2
loop_
 _symmetry_equiv_pos_site_id
 _symmetry_equiv_pos_as_xyz
  1  'x, y, z'
loop_
 _atom_site_type_symbol
 _atom_site_label
 _atom_site_symmetry_multiplicity
 _atom_site_fract_x
 _atom_site_fract_y
 _atom_site_fract_z
 _atom_site_occupancy
  In  In0  1  0.67389972  0.67389972  0.67389972  1.0
  In  In1  1  1.00000000  1.00000000  0.67389972  1.0
  In  In2  1  1.00000000  1.67389972  1.00000000  1.0
  In  In3  1  1.32610028  1.00000000  1.00000000  1.0
  In  In4  1  1.67389972  1.00000000  1.00000000  1.0
  In  In5  1  1.00000000  1.32610028  1.00000000  1.0
  In  In6  1  1.00000000  1.00000000  0.32610028  1.0
  In  In7  1  0.32610028  0.32610028  0.32610028  1.0
  In  In8  1  0.50000000  0.25000000  0.75000000  1.0
  In  In9  1  0.50000000  0.75000000  0.25000000  1.0
  In  In10  1  0.25000000  0.50000000  0.75000000  1.0
  In  In11  1  1.25000000  0.75000000  0.50000000  1.0
  In  In12  1  0.75000000  1.25000000  0.50000000  1.0
  In  In13  1  0.75000000  0.50000000  0.25000000  1.0
  Pt  Pt14  1  0.00000000  0.65486491  0.65486491  1.0
  Pt  Pt15  1  0.65486491  -0.00000000  0.65486491  1.0
  Pt  Pt16  1  0.65486491  0.65486491  -0.00000000  1.0
  Pt  Pt17  1  0.34513509  0.34513509  -0.00000000  1.0
  Pt  Pt18  1  0.34513509  -0.00000000  0.34513509  1.0
  Pt  Pt19  1  0.00000000  0.34513509  0.34513509  1.0
