# generated using pymatgen
data_RbSb3Se5
_symmetry_space_group_name_H-M   'P 1'
_cell_length_a   22.28655844
_cell_length_b   4.11210541
_cell_length_c   12.64205257
_cell_angle_alpha   90.00000000
_cell_angle_beta   90.00000000
_cell_angle_gamma   90.00000000
_symmetry_Int_Tables_number   1
_chemical_formula_structural   RbSb3Se5
_chemical_formula_sum   'Rb4 Sb12 Se20'
_cell_volume   1158.57683123
_cell_formula_units_Z   4
loop_
 _symmetry_equiv_pos_site_id
 _symmetry_equiv_pos_as_xyz
  1  'x, y, z'
loop_
 _atom_site_type_symbol
 _atom_site_label
 _atom_site_symmetry_multiplicity
 _atom_site_fract_x
 _atom_site_fract_y
 _atom_site_fract_z
 _atom_site_occupancy
  Rb  Rb0  1  0.59474936  0.25000000  0.67604190  1.0
  Rb  Rb1  1  0.09474936  0.25000000  0.82395810  1.0
  Rb  Rb2  1  0.40525064  0.75000000  0.32395810  1.0
  Rb  Rb3  1  0.90525064  0.75000000  0.17604190  1.0
  Sb  Sb4  1  0.70001980  0.25000000  0.97475828  1.0
  Sb  Sb5  1  0.20001980  0.25000000  0.52524172  1.0
  Sb  Sb6  1  0.29998020  0.75000000  0.02524172  1.0
  Sb  Sb7  1  0.79998020  0.75000000  0.47475828  1.0
  Sb  Sb8  1  0.83975358  0.75000000  0.82756244  1.0
  Sb  Sb9  1  0.33975358  0.75000000  0.67243756  1.0
  Sb  Sb10  1  0.16024642  0.25000000  0.17243756  1.0
  Sb  Sb11  1  0.66024642  0.25000000  0.32756244  1.0
  Sb  Sb12  1  0.55895580  0.75000000  0.11652976  1.0
  Sb  Sb13  1  0.05895580  0.75000000  0.38347024  1.0
  Sb  Sb14  1  0.44104420  0.25000000  0.88347024  1.0
  Sb  Sb15  1  0.94104420  0.25000000  0.61652976  1.0
  Se  Se16  1  0.70588619  0.75000000  0.82653702  1.0
  Se  Se17  1  0.20588619  0.75000000  0.67346298  1.0
  Se  Se18  1  0.29411381  0.25000000  0.17346298  1.0
  Se  Se19  1  0.79411381  0.25000000  0.32653702  1.0
  Se  Se20  1  0.67883194  0.75000000  0.15540804  1.0
  Se  Se21  1  0.17883194  0.75000000  0.34459196  1.0
  Se  Se22  1  0.32116806  0.25000000  0.84459196  1.0
  Se  Se23  1  0.82116806  0.25000000  0.65540804  1.0
  Se  Se24  1  0.84016251  0.25000000  0.97857198  1.0
  Se  Se25  1  0.34016251  0.25000000  0.52142802  1.0
  Se  Se26  1  0.15983749  0.75000000  0.02142802  1.0
  Se  Se27  1  0.65983749  0.75000000  0.47857198  1.0
  Se  Se28  1  0.96261524  0.75000000  0.77468703  1.0
  Se  Se29  1  0.46261524  0.75000000  0.72531297  1.0
  Se  Se30  1  0.03738476  0.25000000  0.22531297  1.0
  Se  Se31  1  0.53738476  0.25000000  0.27468703  1.0
  Se  Se32  1  0.57805677  0.25000000  0.95617931  1.0
  Se  Se33  1  0.07805677  0.25000000  0.54382069  1.0
  Se  Se34  1  0.42194323  0.75000000  0.04382069  1.0
  Se  Se35  1  0.92194323  0.75000000  0.45617931  1.0
