# generated using pymatgen
data_Nb6Si7Ni16
_symmetry_space_group_name_H-M   'P 1'
_cell_length_a   7.96500113
_cell_length_b   7.96500113
_cell_length_c   7.96500113
_cell_angle_alpha   60.00000000
_cell_angle_beta   60.00000000
_cell_angle_gamma   60.00000000
_symmetry_Int_Tables_number   1
_chemical_formula_structural   Nb6Si7Ni16
_chemical_formula_sum   'Nb6 Si7 Ni16'
_cell_volume   357.30782538
_cell_formula_units_Z   1
loop_
 _symmetry_equiv_pos_site_id
 _symmetry_equiv_pos_as_xyz
  1  'x, y, z'
loop_
 _atom_site_type_symbol
 _atom_site_label
 _atom_site_symmetry_multiplicity
 _atom_site_fract_x
 _atom_site_fract_y
 _atom_site_fract_z
 _atom_site_occupancy
  Nb  Nb0  1  -0.70359404  0.70359404  0.70359404  1.0
  Nb  Nb1  1  -0.29640596  0.29640596  0.70359404  1.0
  Nb  Nb2  1  0.70359404  0.70359404  -0.70359404  1.0
  Nb  Nb3  1  0.29640596  1.29640596  -0.29640596  1.0
  Nb  Nb4  1  0.29640596  -0.29640596  1.29640596  1.0
  Nb  Nb5  1  -0.29640596  0.29640596  0.29640596  1.0
  Si  Si6  1  1.50000000  -0.00000000  0.00000000  1.0
  Si  Si7  1  1.00000000  0.50000000  -0.50000000  1.0
  Si  Si8  1  -0.00000000  1.50000000  0.00000000  1.0
  Si  Si9  1  0.50000000  1.00000000  -0.50000000  1.0
  Si  Si10  1  -0.00000000  0.00000000  0.50000000  1.0
  Si  Si11  1  0.50000000  -0.50000000  1.00000000  1.0
  Si  Si12  1  0.00000000  0.00000000  0.00000000  1.0
  Ni  Ni13  1  0.88337075  0.88337075  -0.11662925  1.0
  Ni  Ni14  1  1.11662925  0.11662925  0.65011224  1.0
  Ni  Ni15  1  1.11662925  0.65011224  0.11662925  1.0
  Ni  Ni16  1  0.34988776  0.88337075  -0.11662925  1.0
  Ni  Ni17  1  1.65011224  0.11662925  0.11662925  1.0
  Ni  Ni18  1  0.88337075  0.34988776  -0.11662925  1.0
  Ni  Ni19  1  0.88337075  0.88337075  -0.65011224  1.0
  Ni  Ni20  1  1.11662925  0.11662925  0.11662925  1.0
  Ni  Ni21  1  0.66793274  0.66793274  -0.33206726  1.0
  Ni  Ni22  1  1.33206726  0.33206726  0.00379822  1.0
  Ni  Ni23  1  1.33206726  0.00379822  0.33206726  1.0
  Ni  Ni24  1  0.99620178  0.66793274  -0.33206726  1.0
  Ni  Ni25  1  1.00379822  0.33206726  0.33206726  1.0
  Ni  Ni26  1  0.66793274  0.99620178  -0.33206726  1.0
  Ni  Ni27  1  0.66793274  0.66793274  -0.00379822  1.0
  Ni  Ni28  1  1.33206726  0.33206726  0.33206726  1.0
