# generated using pymatgen
data_Sr3(AlSn)2
_symmetry_space_group_name_H-M   'P 1'
_cell_length_a   10.56852762
_cell_length_b   10.56852762
_cell_length_c   10.56852762
_cell_angle_alpha   155.37112267
_cell_angle_beta   152.74777817
_cell_angle_gamma   37.05803019
_symmetry_Int_Tables_number   1
_chemical_formula_structural   Sr3(AlSn)2
_chemical_formula_sum   'Sr3 Al2 Sn2'
_cell_volume   224.94548582
_cell_formula_units_Z   1
loop_
 _symmetry_equiv_pos_site_id
 _symmetry_equiv_pos_as_xyz
  1  'x, y, z'
loop_
 _atom_site_type_symbol
 _atom_site_label
 _atom_site_symmetry_multiplicity
 _atom_site_fract_x
 _atom_site_fract_y
 _atom_site_fract_z
 _atom_site_occupancy
  Sr  Sr0  1  0.81760766  0.31760766  0.50000000  1.0
  Sr  Sr1  1  0.18239234  0.68239234  0.50000000  1.0
  Sr  Sr2  1  0.00000000  0.00000000  0.00000000  1.0
  Al  Al3  1  0.56327441  0.56327441  1.00000000  1.0
  Al  Al4  1  0.43672559  0.43672559  -0.00000000  1.0
  Sn  Sn5  1  0.64146057  0.14146057  0.50000000  1.0
  Sn  Sn6  1  0.35853943  0.85853943  0.50000000  1.0
