# generated using pymatgen
data_Gd(BO2)6
_symmetry_space_group_name_H-M   'P 1'
_cell_length_a   8.53842831
_cell_length_b   8.53842831
_cell_length_c   8.53842831
_cell_angle_alpha   61.18502901
_cell_angle_beta   61.18502901
_cell_angle_gamma   61.18502901
_symmetry_Int_Tables_number   1
_chemical_formula_structural   Gd(BO2)6
_chemical_formula_sum   'Gd2 B12 O24'
_cell_volume   451.90279926
_cell_formula_units_Z   2
loop_
 _symmetry_equiv_pos_site_id
 _symmetry_equiv_pos_as_xyz
  1  'x, y, z'
loop_
 _atom_site_type_symbol
 _atom_site_label
 _atom_site_symmetry_multiplicity
 _atom_site_fract_x
 _atom_site_fract_y
 _atom_site_fract_z
 _atom_site_occupancy
  Gd  Gd0  1  0.00082096  0.00082096  0.00082096  1.0
  Gd  Gd1  1  0.50082096  0.50082096  -0.49917904  1.0
  O  O2  1  0.82898633  -0.21803528  0.13679789  1.0
  O  O3  1  0.32898633  0.63679789  -0.71803528  1.0
  O  O4  1  0.63679789  0.28196472  -0.67101367  1.0
  O  O5  1  1.13679789  -0.17101367  -0.21803528  1.0
  O  O6  1  0.28196472  0.32898633  -0.36320211  1.0
  O  O7  1  0.78196472  0.13679789  -0.17101367  1.0
  O  O8  1  1.24445255  -0.32490589  0.03697743  1.0
  O  O9  1  0.74445255  0.53697743  -0.82490589  1.0
  O  O10  1  0.53697743  0.17509411  -0.25554745  1.0
  O  O11  1  1.03697743  0.24445255  -0.32490589  1.0
  O  O12  1  0.17509411  0.74445255  -0.46302257  1.0
  O  O13  1  0.67509411  0.03697743  0.24445255  1.0
  O  O14  1  0.38147284  0.51475628  -0.18887267  1.0
  O  O15  1  0.88147284  -0.68887267  0.01475628  1.0
  O  O16  1  0.31112733  0.01475628  -0.11852716  1.0
  O  O17  1  0.81112733  0.38147284  -0.48524372  1.0
  O  O18  1  1.01475628  -0.11852716  -0.68887267  1.0
  O  O19  1  0.51475628  0.81112733  -0.61852716  1.0
  O  O20  1  1.06770085  -0.46198709  0.00945619  1.0
  O  O21  1  0.56770085  0.50945619  -0.96198709  1.0
  O  O22  1  0.50945619  0.03801291  -0.43229915  1.0
  O  O23  1  1.00945619  0.06770085  -0.46198709  1.0
  O  O24  1  0.03801291  0.56770085  -0.49054381  1.0
  O  O25  1  0.53801291  0.00945619  0.06770085  1.0
  B  B26  1  0.88360295  -0.38459179  0.10487692  1.0
  B  B27  1  0.38360295  0.60487692  -0.88459179  1.0
  B  B28  1  0.60487692  0.11540821  -0.61639705  1.0
  B  B29  1  1.10487692  -0.11639705  -0.38459179  1.0
  B  B30  1  0.11540821  0.38360295  -0.39512308  1.0
  B  B31  1  0.61540821  0.10487692  -0.11639705  1.0
  B  B32  1  1.20855144  -0.36832468  -0.09043523  1.0
  B  B33  1  0.70855144  0.40956477  -0.86832468  1.0
  B  B34  1  0.40956477  0.13167532  -0.29144856  1.0
  B  B35  1  0.90956477  0.20855144  -0.36832468  1.0
  B  B36  1  0.13167532  0.70855144  -0.59043523  1.0
  B  B37  1  0.63167532  -0.09043523  0.20855144  1.0
