# generated using pymatgen
data_TmC2
_symmetry_space_group_name_H-M   'P 1'
_cell_length_a   4.04644022
_cell_length_b   4.04644022
_cell_length_c   4.04644022
_cell_angle_alpha   125.70126680
_cell_angle_beta   125.70126680
_cell_angle_gamma   80.37968512
_symmetry_Int_Tables_number   1
_chemical_formula_structural   TmC2
_chemical_formula_sum   'Tm1 C2'
_cell_volume   42.15461586
_cell_formula_units_Z   1
loop_
 _symmetry_equiv_pos_site_id
 _symmetry_equiv_pos_as_xyz
  1  'x, y, z'
loop_
 _atom_site_type_symbol
 _atom_site_label
 _atom_site_symmetry_multiplicity
 _atom_site_fract_x
 _atom_site_fract_y
 _atom_site_fract_z
 _atom_site_occupancy
  Tm  Tm0  1  0.00000000  0.00000000  0.00000000  1.0
  C  C1  1  0.60404662  0.60404662  1.00000000  1.0
  C  C2  1  0.39595338  0.39595338  -0.00000000  1.0
