# generated using pymatgen
data_KMnO4
_symmetry_space_group_name_H-M   'P 1'
_cell_length_a   7.89136666
_cell_length_b   7.09748350
_cell_length_c   7.26045047
_cell_angle_alpha   90.00000000
_cell_angle_beta   90.00000000
_cell_angle_gamma   90.00000000
_symmetry_Int_Tables_number   1
_chemical_formula_structural   KMnO4
_chemical_formula_sum   'K4 Mn4 O16'
_cell_volume   406.64944292
_cell_formula_units_Z   4
loop_
 _symmetry_equiv_pos_site_id
 _symmetry_equiv_pos_as_xyz
  1  'x, y, z'
loop_
 _atom_site_type_symbol
 _atom_site_label
 _atom_site_symmetry_multiplicity
 _atom_site_fract_x
 _atom_site_fract_y
 _atom_site_fract_z
 _atom_site_occupancy
  K  K0  1  0.38179020  0.75000000  0.14377766  1.0
  K  K1  1  0.88179020  0.75000000  0.35622234  1.0
  K  K2  1  0.61820980  0.25000000  0.85622234  1.0
  K  K3  1  0.11820980  0.25000000  0.64377766  1.0
  Mn  Mn4  1  0.39345148  0.75000000  0.64503612  1.0
  Mn  Mn5  1  0.89345148  0.75000000  0.85496388  1.0
  Mn  Mn6  1  0.60654852  0.25000000  0.35496388  1.0
  Mn  Mn7  1  0.10654852  0.25000000  0.14503612  1.0
  O  O8  1  0.39535033  0.93510407  0.77441100  1.0
  O  O9  1  0.39535033  0.56489593  0.77441100  1.0
  O  O10  1  0.89535033  0.93510407  0.72558900  1.0
  O  O11  1  0.89535033  0.56489593  0.72558900  1.0
  O  O12  1  0.60464967  0.43510407  0.22558900  1.0
  O  O13  1  0.60464967  0.06489593  0.22558900  1.0
  O  O14  1  0.10464967  0.43510407  0.27441100  1.0
  O  O15  1  0.10464967  0.06489593  0.27441100  1.0
  O  O16  1  0.22570110  0.75000000  0.51889734  1.0
  O  O17  1  0.72570110  0.75000000  -0.01889734  1.0
  O  O18  1  0.77429890  0.25000000  0.48110266  1.0
  O  O19  1  0.27429890  0.25000000  1.01889734  1.0
  O  O20  1  0.05660025  0.75000000  0.98770036  1.0
  O  O21  1  0.55660025  0.75000000  0.51229964  1.0
  O  O22  1  -0.05660025  0.25000000  0.01229964  1.0
  O  O23  1  0.44339975  0.25000000  0.48770036  1.0
