# generated using pymatgen
data_YbMnSi
_symmetry_space_group_name_H-M   'P 1'
_cell_length_a   7.00040970
_cell_length_b   4.14926406
_cell_length_c   7.27999186
_cell_angle_alpha   90.00000000
_cell_angle_beta   90.00000000
_cell_angle_gamma   90.00000000
_symmetry_Int_Tables_number   1
_chemical_formula_structural   YbMnSi
_chemical_formula_sum   'Yb4 Mn4 Si4'
_cell_volume   211.45863567
_cell_formula_units_Z   4
loop_
 _symmetry_equiv_pos_site_id
 _symmetry_equiv_pos_as_xyz
  1  'x, y, z'
loop_
 _atom_site_type_symbol
 _atom_site_label
 _atom_site_symmetry_multiplicity
 _atom_site_fract_x
 _atom_site_fract_y
 _atom_site_fract_z
 _atom_site_occupancy
  Yb  Yb0  1  0.99409811  0.75000000  0.68193563  1.0
  Yb  Yb1  1  0.49409811  0.75000000  0.81806437  1.0
  Yb  Yb2  1  0.00590189  0.25000000  0.31806437  1.0
  Yb  Yb3  1  0.50590189  0.25000000  0.18193563  1.0
  Mn  Mn4  1  0.86254176  0.75000000  0.06176480  1.0
  Mn  Mn5  1  0.36254176  0.75000000  0.43823520  1.0
  Mn  Mn6  1  0.13745824  0.25000000  0.93823520  1.0
  Mn  Mn7  1  0.63745824  0.25000000  0.56176480  1.0
  Si  Si8  1  0.70554476  0.75000000  0.38960118  1.0
  Si  Si9  1  0.20554476  0.75000000  0.11039882  1.0
  Si  Si10  1  0.29445524  0.25000000  0.61039882  1.0
  Si  Si11  1  0.79445524  0.25000000  0.88960118  1.0
