# generated using pymatgen
data_GdGaI
_symmetry_space_group_name_H-M   'P 1'
_cell_length_a   4.24483646
_cell_length_b   4.24483646
_cell_length_c   12.29544587
_cell_angle_alpha   90.00000000
_cell_angle_beta   90.00000000
_cell_angle_gamma   120.00000000
_symmetry_Int_Tables_number   1
_chemical_formula_structural   GdGaI
_chemical_formula_sum   'Gd2 Ga2 I2'
_cell_volume   191.86547749
_cell_formula_units_Z   2
loop_
 _symmetry_equiv_pos_site_id
 _symmetry_equiv_pos_as_xyz
  1  'x, y, z'
loop_
 _atom_site_type_symbol
 _atom_site_label
 _atom_site_symmetry_multiplicity
 _atom_site_fract_x
 _atom_site_fract_y
 _atom_site_fract_z
 _atom_site_occupancy
  Gd  Gd0  1  -0.00000000  -0.00000000  0.16671662  1.0
  Gd  Gd1  1  -0.00000000  -0.00000000  0.83328338  1.0
  Ga  Ga2  1  0.33333333  0.66666667  0.02720305  1.0
  Ga  Ga3  1  0.66666667  0.33333333  0.97279695  1.0
  I  I4  1  0.33333333  0.66666667  0.66936094  1.0
  I  I5  1  0.66666667  0.33333333  0.33063906  1.0
