# generated using pymatgen
data_V3H8(NO4)2
_symmetry_space_group_name_H-M   'P 1'
_cell_length_a   8.91710884
_cell_length_b   8.91710884
_cell_length_c   5.77602365
_cell_angle_alpha   90.00000000
_cell_angle_beta   90.00000000
_cell_angle_gamma   90.00000000
_symmetry_Int_Tables_number   1
_chemical_formula_structural   V3H8(NO4)2
_chemical_formula_sum   'V6 H16 N4 O16'
_cell_volume   459.27953873
_cell_formula_units_Z   2
loop_
 _symmetry_equiv_pos_site_id
 _symmetry_equiv_pos_as_xyz
  1  'x, y, z'
loop_
 _atom_site_type_symbol
 _atom_site_label
 _atom_site_symmetry_multiplicity
 _atom_site_fract_x
 _atom_site_fract_y
 _atom_site_fract_z
 _atom_site_occupancy
  N  N0  1  0.67583111  0.17583111  0.54182806  1.0
  N  N1  1  0.32416889  0.82416889  0.54182806  1.0
  N  N2  1  0.82416889  0.67583111  0.54182806  1.0
  N  N3  1  0.17583111  0.32416889  0.54182806  1.0
  O  O4  1  0.50000000  0.50000000  0.26977673  1.0
  O  O5  1  0.00000000  0.00000000  0.26977673  1.0
  O  O6  1  0.86600538  0.36600538  0.29039188  1.0
  O  O7  1  0.13399462  0.63399462  0.29039188  1.0
  O  O8  1  0.63399462  0.86600538  0.29039188  1.0
  O  O9  1  0.36600538  0.13399462  0.29039188  1.0
  O  O10  1  0.41906844  0.30707447  0.89434442  1.0
  O  O11  1  0.58093156  0.69292553  0.89434442  1.0
  O  O12  1  0.08093156  0.80707447  0.89434442  1.0
  O  O13  1  0.91906844  0.19292553  0.89434442  1.0
  O  O14  1  0.30707447  0.58093156  0.89434442  1.0
  O  O15  1  0.69292553  0.41906844  0.89434442  1.0
  O  O16  1  0.80707447  0.91906844  0.89434442  1.0
  O  O17  1  0.19292553  0.08093156  0.89434442  1.0
  O  O18  1  0.50000000  0.00000000  0.89927074  1.0
  O  O19  1  0.00000000  0.50000000  0.89927074  1.0
  H  H20  1  0.60918587  0.10918587  0.43912726  1.0
  H  H21  1  0.39081413  0.89081413  0.43912726  1.0
  H  H22  1  0.89081413  0.60918587  0.43912726  1.0
  H  H23  1  0.10918587  0.39081413  0.43912726  1.0
  H  H24  1  0.74542057  0.24542057  0.44148312  1.0
  H  H25  1  0.25457943  0.75457943  0.44148312  1.0
  H  H26  1  0.75457943  0.74542057  0.44148312  1.0
  H  H27  1  0.24542057  0.25457943  0.44148312  1.0
  H  H28  1  0.60972058  0.24198221  0.64697564  1.0
  H  H29  1  0.39027942  0.75801779  0.64697564  1.0
  H  H30  1  0.89027942  0.74198221  0.64697564  1.0
  H  H31  1  0.10972058  0.25801779  0.64697564  1.0
  H  H32  1  0.24198221  0.39027942  0.64697564  1.0
  H  H33  1  0.75801779  0.60972058  0.64697564  1.0
  H  H34  1  0.74198221  0.10972058  0.64697564  1.0
  H  H35  1  0.25801779  0.89027942  0.64697564  1.0
  V  V36  1  0.86591450  0.36591450  0.00400897  1.0
  V  V37  1  0.13408550  0.63408550  0.00400897  1.0
  V  V38  1  0.63408550  0.86591450  0.00400897  1.0
  V  V39  1  0.36591450  0.13408550  0.00400897  1.0
  V  V40  1  0.50000000  0.50000000  -0.00710633  1.0
  V  V41  1  0.00000000  0.00000000  -0.00710633  1.0
