# generated using pymatgen
data_Sr6TbAl(BO3)6
_symmetry_space_group_name_H-M   'P 1'
_cell_length_a   7.74876513
_cell_length_b   7.74876513
_cell_length_c   7.74876513
_cell_angle_alpha   105.44071468
_cell_angle_beta   105.44071468
_cell_angle_gamma   105.44071468
_symmetry_Int_Tables_number   1
_chemical_formula_structural   Sr6TbAl(BO3)6
_chemical_formula_sum   'Sr6 Tb1 Al1 B6 O18'
_cell_volume   402.82178404
_cell_formula_units_Z   1
loop_
 _symmetry_equiv_pos_site_id
 _symmetry_equiv_pos_as_xyz
  1  'x, y, z'
loop_
 _atom_site_type_symbol
 _atom_site_label
 _atom_site_symmetry_multiplicity
 _atom_site_fract_x
 _atom_site_fract_y
 _atom_site_fract_z
 _atom_site_occupancy
  Sr  Sr0  1  0.76737148  0.66457981  0.15151224  1.0
  Sr  Sr1  1  1.33542019  -0.15151224  0.23262852  1.0
  Sr  Sr2  1  0.84848776  0.23262852  0.33542019  1.0
  Sr  Sr3  1  1.23262852  0.33542019  -0.15151224  1.0
  Sr  Sr4  1  0.66457981  1.15151224  -0.23262852  1.0
  Sr  Sr5  1  1.15151224  0.76737148  -0.33542019  1.0
  Tb  Tb6  1  0.50000000  0.50000000  0.50000000  1.0
  Al  Al7  1  0.00000000  0.00000000  0.00000000  1.0
  B  B8  1  1.55500137  0.79912086  -0.11839017  1.0
  B  B9  1  1.20087914  0.11839017  -0.55500137  1.0
  B  B10  1  1.11839017  -0.55500137  0.20087914  1.0
  B  B11  1  0.44499863  0.20087914  0.11839017  1.0
  B  B12  1  0.79912086  0.88160983  0.55500137  1.0
  B  B13  1  0.88160983  1.55500137  -0.20087914  1.0
  O  O14  1  0.74019320  0.92759538  -0.00098686  1.0
  O  O15  1  1.07240462  0.00098686  -0.74019320  1.0
  O  O16  1  1.00098686  -0.74019320  0.07240462  1.0
  O  O17  1  0.25980680  0.07240462  0.00098686  1.0
  O  O18  1  0.92759538  0.99901314  -0.25980680  1.0
  O  O19  1  0.99901314  0.74019320  -0.07240462  1.0
  O  O20  1  1.48700041  0.77877857  -0.31144345  1.0
  O  O21  1  1.22122143  0.31144345  -0.48700041  1.0
  O  O22  1  1.31144345  -0.48700041  0.22122143  1.0
  O  O23  1  0.51299959  0.22122143  0.31144345  1.0
  O  O24  1  0.77877857  0.68855655  0.48700041  1.0
  O  O25  1  0.68855655  1.48700041  -0.22122143  1.0
  O  O26  1  0.56200827  0.29865635  0.04315773  1.0
  O  O27  1  0.70134365  0.95684227  0.43799173  1.0
  O  O28  1  0.95684227  1.43799173  -0.29865635  1.0
  O  O29  1  1.43799173  0.70134365  -0.04315773  1.0
  O  O30  1  1.29865635  0.04315773  -0.43799173  1.0
  O  O31  1  1.04315773  -0.43799173  0.29865635  1.0
