# generated using pymatgen
data_Nb3Cl7
_symmetry_space_group_name_H-M   'P 1'
_cell_length_a   9.62549776
_cell_length_b   9.62549776
_cell_length_c   11.36358278
_cell_angle_alpha   90.00000000
_cell_angle_beta   90.00000000
_cell_angle_gamma   90.37951837
_symmetry_Int_Tables_number   1
_chemical_formula_structural   Nb3Cl7
_chemical_formula_sum   'Nb12 Cl28'
_cell_volume   1052.81520096
_cell_formula_units_Z   4
loop_
 _symmetry_equiv_pos_site_id
 _symmetry_equiv_pos_as_xyz
  1  'x, y, z'
loop_
 _atom_site_type_symbol
 _atom_site_label
 _atom_site_symmetry_multiplicity
 _atom_site_fract_x
 _atom_site_fract_y
 _atom_site_fract_z
 _atom_site_occupancy
  Nb  Nb0  1  0.44376801  1.33699091  0.38693746  1.0
  Nb  Nb1  1  -0.05623199  0.83699091  0.11306254  1.0
  Nb  Nb2  1  0.33699091  1.44376801  0.61306254  1.0
  Nb  Nb3  1  -0.16300909  0.94376801  0.88693746  1.0
  Nb  Nb4  1  -0.33699091  0.55623199  0.38693746  1.0
  Nb  Nb5  1  0.16300909  1.05623199  0.11306254  1.0
  Nb  Nb6  1  -0.44376801  0.66300909  0.61306254  1.0
  Nb  Nb7  1  0.05623199  1.16300909  0.88693746  1.0
  Nb  Nb8  1  -0.12571113  1.12571113  0.08608879  1.0
  Nb  Nb9  1  0.37428887  0.62571113  0.41391121  1.0
  Nb  Nb10  1  0.12571113  0.87428887  0.91391121  1.0
  Nb  Nb11  1  -0.37428887  1.37428887  0.58608879  1.0
  Cl  Cl12  1  -0.40597027  1.15725946  0.47734423  1.0
  Cl  Cl13  1  0.09402973  0.65725946  0.02265577  1.0
  Cl  Cl14  1  0.15725946  0.59402973  0.52265577  1.0
  Cl  Cl15  1  -0.34274054  1.09402973  0.97734423  1.0
  Cl  Cl16  1  -0.15725946  1.40597027  0.47734423  1.0
  Cl  Cl17  1  0.34274054  0.90597027  0.02265577  1.0
  Cl  Cl18  1  0.40597027  0.84274054  0.52265577  1.0
  Cl  Cl19  1  -0.09402973  1.34274054  0.97734423  1.0
  Cl  Cl20  1  -0.21818419  0.97090895  0.23773246  1.0
  Cl  Cl21  1  0.28181581  1.47090895  0.26226754  1.0
  Cl  Cl22  1  -0.02909105  0.78181581  0.76226754  1.0
  Cl  Cl23  1  0.47090895  1.28181581  0.73773246  1.0
  Cl  Cl24  1  0.02909105  1.21818419  0.23773246  1.0
  Cl  Cl25  1  -0.47090895  0.71818419  0.26226754  1.0
  Cl  Cl26  1  0.21818419  1.02909105  0.76226754  1.0
  Cl  Cl27  1  -0.28181581  0.52909105  0.73773246  1.0
  Cl  Cl28  1  -0.37444573  1.37444573  0.23487866  1.0
  Cl  Cl29  1  0.12555427  0.87444573  0.26512134  1.0
  Cl  Cl30  1  0.37444573  0.62555427  0.76512134  1.0
  Cl  Cl31  1  -0.12555427  1.12555427  0.73487866  1.0
  Cl  Cl32  1  0.37575774  1.12424226  0.25000000  1.0
  Cl  Cl33  1  -0.12424226  0.62424226  0.25000000  1.0
  Cl  Cl34  1  0.12424226  1.37575774  0.75000000  1.0
  Cl  Cl35  1  -0.37575774  0.87575774  0.75000000  1.0
  Cl  Cl36  1  0.24617841  1.24617841  0.50000000  1.0
  Cl  Cl37  1  -0.25382159  0.74617841  0.00000000  1.0
  Cl  Cl38  1  -0.24617841  0.75382159  0.50000000  1.0
  Cl  Cl39  1  0.25382159  1.25382159  0.00000000  1.0
