# generated using pymatgen
data_LuCu3Se2ClO8
_symmetry_space_group_name_H-M   'P 1'
_cell_length_a   6.33109958
_cell_length_b   9.50187301
_cell_length_c   7.04113091
_cell_angle_alpha   90.00000000
_cell_angle_beta   90.00000000
_cell_angle_gamma   90.00000000
_symmetry_Int_Tables_number   1
_chemical_formula_structural   LuCu3Se2ClO8
_chemical_formula_sum   'Lu2 Cu6 Se4 Cl2 O16'
_cell_volume   423.57545420
_cell_formula_units_Z   2
loop_
 _symmetry_equiv_pos_site_id
 _symmetry_equiv_pos_as_xyz
  1  'x, y, z'
loop_
 _atom_site_type_symbol
 _atom_site_label
 _atom_site_symmetry_multiplicity
 _atom_site_fract_x
 _atom_site_fract_y
 _atom_site_fract_z
 _atom_site_occupancy
  O  O0  1  0.78663887  0.34045995  0.26159514  1.0
  O  O1  1  0.21336113  0.34045995  0.26159514  1.0
  O  O2  1  0.78663887  0.65954005  0.26159514  1.0
  O  O3  1  0.21336113  0.65954005  0.26159514  1.0
  O  O4  1  0.71336113  0.15954005  0.73840486  1.0
  O  O5  1  0.28663887  0.15954005  0.73840486  1.0
  O  O6  1  0.71336113  0.84045995  0.73840486  1.0
  O  O7  1  0.28663887  0.84045995  0.73840486  1.0
  O  O8  1  0.00000000  0.86988643  0.42621231  1.0
  O  O9  1  0.00000000  0.13011357  0.42621231  1.0
  O  O10  1  0.50000000  0.63011357  0.57378769  1.0
  O  O11  1  0.50000000  0.36988643  0.57378769  1.0
  O  O12  1  0.00000000  0.86279552  0.99962833  1.0
  O  O13  1  0.00000000  0.13720448  0.99962833  1.0
  O  O14  1  0.50000000  0.63720448  0.00037167  1.0
  O  O15  1  0.50000000  0.36279552  0.00037167  1.0
  Cu  Cu16  1  0.75000000  0.75000000  0.00000000  1.0
  Cu  Cu17  1  0.25000000  0.75000000  0.00000000  1.0
  Cu  Cu18  1  0.75000000  0.25000000  0.00000000  1.0
  Cu  Cu19  1  0.25000000  0.25000000  -0.00000000  1.0
  Cu  Cu20  1  0.00000000  0.00000000  0.20434078  1.0
  Cu  Cu21  1  0.50000000  0.50000000  0.79565922  1.0
  Se  Se22  1  0.00000000  0.31190267  0.41134755  1.0
  Se  Se23  1  0.00000000  0.68809733  0.41134755  1.0
  Se  Se24  1  0.50000000  0.18809733  0.58865245  1.0
  Se  Se25  1  0.50000000  0.81190267  0.58865245  1.0
  Cl  Cl26  1  0.00000000  0.50000000  0.84625334  1.0
  Cl  Cl27  1  0.50000000  0.00000000  0.15374666  1.0
  Lu  Lu28  1  0.00000000  0.00000000  0.73401309  1.0
  Lu  Lu29  1  0.50000000  0.50000000  0.26598691  1.0
