# generated using pymatgen
data_CaGe(PO4)2
_symmetry_space_group_name_H-M   'P 1'
_cell_length_a   8.41411235
_cell_length_b   8.41411235
_cell_length_c   7.90231963
_cell_angle_alpha   64.10006829
_cell_angle_beta   115.89993171
_cell_angle_gamma   144.42800066
_symmetry_Int_Tables_number   1
_chemical_formula_structural   CaGe(PO4)2
_chemical_formula_sum   'Ca2 Ge2 P4 O16'
_cell_volume   289.19101103
_cell_formula_units_Z   2
loop_
 _symmetry_equiv_pos_site_id
 _symmetry_equiv_pos_as_xyz
  1  'x, y, z'
loop_
 _atom_site_type_symbol
 _atom_site_label
 _atom_site_symmetry_multiplicity
 _atom_site_fract_x
 _atom_site_fract_y
 _atom_site_fract_z
 _atom_site_occupancy
  Ca  Ca0  1  0.16589635  0.16589635  0.75000000  1.0
  Ca  Ca1  1  0.83410365  0.83410365  0.25000000  1.0
  Ge  Ge2  1  1.50000000  -0.00000000  0.00000000  1.0
  Ge  Ge3  1  1.00000000  -0.50000000  0.50000000  1.0
  P  P4  1  1.59402710  -0.12115890  0.74690057  1.0
  P  P5  1  1.12115890  -0.59402710  0.24690057  1.0
  P  P6  1  0.87884110  -0.40597290  0.75309943  1.0
  P  P7  1  1.40597290  0.12115890  0.25309943  1.0
  O  O8  1  1.73311436  -0.17710716  0.91088110  1.0
  O  O9  1  1.17710716  -0.73311436  0.41088110  1.0
  O  O10  1  0.82289284  -0.26688564  0.58911890  1.0
  O  O11  1  1.26688564  0.17710716  0.08911890  1.0
  O  O12  1  1.80528956  0.12647030  0.60023776  1.0
  O  O13  1  0.87352970  -0.80528956  0.10023776  1.0
  O  O14  1  1.12647030  -0.19471044  0.89976224  1.0
  O  O15  1  1.19471044  -0.12647030  0.39976224  1.0
  O  O16  1  1.50319172  -0.04560498  0.79435847  1.0
  O  O17  1  1.04560498  -0.50319172  0.29435847  1.0
  O  O18  1  0.95439502  -0.49680828  0.70564153  1.0
  O  O19  1  1.49680828  0.04560498  0.20564153  1.0
  O  O20  1  1.61313709  0.32703864  0.85442774  1.0
  O  O21  1  0.67296136  -0.61313709  0.35442774  1.0
  O  O22  1  1.32703864  -0.38686291  0.64557226  1.0
  O  O23  1  1.38686291  -0.32703864  0.14557226  1.0
