# generated using pymatgen
data_LaI
_symmetry_space_group_name_H-M   'P 1'
_cell_length_a   11.79955412
_cell_length_b   11.79955412
_cell_length_c   11.79955412
_cell_angle_alpha   20.62115666
_cell_angle_beta   20.62115666
_cell_angle_gamma   20.62115666
_symmetry_Int_Tables_number   1
_chemical_formula_structural   LaI
_chemical_formula_sum   'La2 I2'
_cell_volume   178.37587122
_cell_formula_units_Z   2
loop_
 _symmetry_equiv_pos_site_id
 _symmetry_equiv_pos_as_xyz
  1  'x, y, z'
loop_
 _atom_site_type_symbol
 _atom_site_label
 _atom_site_symmetry_multiplicity
 _atom_site_fract_x
 _atom_site_fract_y
 _atom_site_fract_z
 _atom_site_occupancy
  La  La0  1  1.62385057  0.62385057  0.62385057  1.0
  La  La1  1  1.37614943  0.37614943  0.37614943  1.0
  I  I2  1  0.89416887  0.89416887  0.89416887  1.0
  I  I3  1  1.10583113  1.10583113  0.10583113  1.0
