# generated using pymatgen
data_CaZnF2
_symmetry_space_group_name_H-M   'P 1'
_cell_length_a   7.47531882
_cell_length_b   7.47531882
_cell_length_c   7.47531882
_cell_angle_alpha   119.99079351
_cell_angle_beta   119.99079351
_cell_angle_gamma   90.01594685
_symmetry_Int_Tables_number   1
_chemical_formula_structural   CaZnF2
_chemical_formula_sum   'Ca4 Zn4 F8'
_cell_volume   295.41638137
_cell_formula_units_Z   4
loop_
 _symmetry_equiv_pos_site_id
 _symmetry_equiv_pos_as_xyz
  1  'x, y, z'
loop_
 _atom_site_type_symbol
 _atom_site_label
 _atom_site_symmetry_multiplicity
 _atom_site_fract_x
 _atom_site_fract_y
 _atom_site_fract_z
 _atom_site_occupancy
  Ca  Ca0  1  0.37500000  0.62500000  0.75000000  1.0
  Ca  Ca1  1  0.87500000  0.62500000  1.25000000  1.0
  Ca  Ca2  1  0.37500000  1.12500000  0.75000000  1.0
  Ca  Ca3  1  0.37500000  0.62500000  0.25000000  1.0
  Zn  Zn4  1  0.87500000  0.12500000  0.75000000  1.0
  Zn  Zn5  1  0.37500000  0.12500000  0.25000000  1.0
  Zn  Zn6  1  0.87500000  0.62500000  0.75000000  1.0
  Zn  Zn7  1  0.87500000  1.12500000  1.25000000  1.0
  F  F8  1  0.15784799  0.84198521  0.68414013  1.0
  F  F9  1  0.59215492  0.77629214  1.18414013  1.0
  F  F10  1  1.15801479  0.84215492  1.31586278  1.0
  F  F11  1  1.22370786  0.40784799  0.81586278  1.0
  F  F12  1  1.15784508  0.47370786  1.31585987  1.0
  F  F13  1  0.59215201  0.40801479  0.81585987  1.0
  F  F14  1  0.52629214  0.84215201  0.68413722  1.0
  F  F15  1  0.59198521  1.40784508  1.18413722  1.0
