# generated using pymatgen
data_Cs4LaN8
_symmetry_space_group_name_H-M   'P 1'
_cell_length_a   7.12522642
_cell_length_b   8.94885883
_cell_length_c   11.86857108
_cell_angle_alpha   90.00000000
_cell_angle_beta   99.26490873
_cell_angle_gamma   90.00000000
_symmetry_Int_Tables_number   1
_chemical_formula_structural   Cs4LaN8
_chemical_formula_sum   'Cs8 La2 N16'
_cell_volume   746.89903156
_cell_formula_units_Z   2
loop_
 _symmetry_equiv_pos_site_id
 _symmetry_equiv_pos_as_xyz
  1  'x, y, z'
loop_
 _atom_site_type_symbol
 _atom_site_label
 _atom_site_symmetry_multiplicity
 _atom_site_fract_x
 _atom_site_fract_y
 _atom_site_fract_z
 _atom_site_occupancy
  Cs  Cs0  1  0.95750892  0.91336074  0.65119073  1.0
  Cs  Cs1  1  0.95750892  0.58663926  0.15119073  1.0
  Cs  Cs2  1  0.04249108  0.41336074  0.84880927  1.0
  Cs  Cs3  1  0.04249108  0.08663926  0.34880927  1.0
  Cs  Cs4  1  0.49202114  0.77704772  0.85412254  1.0
  Cs  Cs5  1  0.49202114  0.72295228  0.35412254  1.0
  Cs  Cs6  1  0.50797886  0.27704772  0.64587746  1.0
  Cs  Cs7  1  0.50797886  0.22295228  0.14587746  1.0
  La  La8  1  -0.00000000  -0.00000000  -0.00000000  1.0
  La  La9  1  0.00000000  0.50000000  0.50000000  1.0
  N  N10  1  0.97369191  0.75927211  0.90835915  1.0
  N  N11  1  0.97369191  0.74072789  0.40835915  1.0
  N  N12  1  0.02630809  0.25927211  0.59164085  1.0
  N  N13  1  0.02630809  0.24072789  0.09164085  1.0
  N  N14  1  0.76303684  0.57507056  0.61419587  1.0
  N  N15  1  0.76303684  0.92492944  0.11419587  1.0
  N  N16  1  0.23696316  0.07507056  0.88580413  1.0
  N  N17  1  0.23696316  0.42492944  0.38580413  1.0
  N  N18  1  0.60726344  0.44546977  0.92768724  1.0
  N  N19  1  0.60726344  0.05453023  0.42768724  1.0
  N  N20  1  0.39273656  0.94546977  0.57231276  1.0
  N  N21  1  0.39273656  0.55453023  0.07231276  1.0
  N  N22  1  0.22710226  0.58354658  0.66147383  1.0
  N  N23  1  0.22710226  0.91645342  0.16147383  1.0
  N  N24  1  0.77289774  0.08354658  0.83852617  1.0
  N  N25  1  0.77289774  0.41645342  0.33852617  1.0
