# generated using pymatgen
data_Ca2TiAl25
_symmetry_space_group_name_H-M   'P 1'
_cell_length_a   12.26635807
_cell_length_b   12.26635807
_cell_length_c   12.26635807
_cell_angle_alpha   60.00000000
_cell_angle_beta   60.00000000
_cell_angle_gamma   60.00000000
_symmetry_Int_Tables_number   1
_chemical_formula_structural   Ca2TiAl25
_chemical_formula_sum   'Ca4 Ti2 Al50'
_cell_volume   1305.06431911
_cell_formula_units_Z   2
loop_
 _symmetry_equiv_pos_site_id
 _symmetry_equiv_pos_as_xyz
  1  'x, y, z'
loop_
 _atom_site_type_symbol
 _atom_site_label
 _atom_site_symmetry_multiplicity
 _atom_site_fract_x
 _atom_site_fract_y
 _atom_site_fract_z
 _atom_site_occupancy
  Ca  Ca0  1  0.62500000  -0.37500000  1.12500000  1.0
  Ca  Ca1  1  0.62500000  0.12500000  0.62500000  1.0
  Ca  Ca2  1  0.62500000  -0.37500000  0.62500000  1.0
  Ca  Ca3  1  1.12500000  -0.37500000  0.62500000  1.0
  Ti  Ti4  1  0.00000000  1.00000000  -0.00000000  1.0
  Ti  Ti5  1  0.25000000  0.25000000  0.25000000  1.0
  Al  Al6  1  0.50000000  0.50000000  -0.50000000  1.0
  Al  Al7  1  0.75000000  -0.25000000  0.75000000  1.0
  Al  Al8  1  1.00460742  -0.76545461  0.75623976  1.0
  Al  Al9  1  0.00460742  0.75623976  0.23454539  1.0
  Al  Al10  1  0.01545461  0.24539258  0.24539258  1.0
  Al  Al11  1  0.49376024  0.24539258  0.24539258  1.0
  Al  Al12  1  -0.76545461  1.00460742  0.75623976  1.0
  Al  Al13  1  1.00460742  0.00460742  0.75623976  1.0
  Al  Al14  1  1.00460742  -0.24376024  1.00460742  1.0
  Al  Al15  1  -0.76545461  0.75623976  1.00460742  1.0
  Al  Al16  1  0.24539258  0.01545461  0.24539258  1.0
  Al  Al17  1  0.24539258  0.24539258  0.01545461  1.0
  Al  Al18  1  0.49376024  0.24539258  0.01545461  1.0
  Al  Al19  1  0.49376024  0.01545461  0.24539258  1.0
  Al  Al20  1  0.75623976  0.00460742  1.00460742  1.0
  Al  Al21  1  -0.76545461  1.00460742  1.00460742  1.0
  Al  Al22  1  0.24539258  0.49376024  0.01545461  1.0
  Al  Al23  1  0.24539258  0.01545461  0.49376024  1.0
  Al  Al24  1  -0.24376024  1.00460742  0.23454539  1.0
  Al  Al25  1  0.75623976  -0.76545461  1.00460742  1.0
  Al  Al26  1  1.00460742  -0.76545461  1.00460742  1.0
  Al  Al27  1  0.00460742  1.00460742  0.23454539  1.0
  Al  Al28  1  0.24539258  0.49376024  0.24539258  1.0
  Al  Al29  1  0.01545461  0.49376024  0.24539258  1.0
  Al  Al30  1  0.01545461  0.24539258  0.49376024  1.0
  Al  Al31  1  0.24539258  0.24539258  0.49376024  1.0
  Al  Al32  1  0.75291547  -0.24708453  1.14271844  1.0
  Al  Al33  1  -0.64854939  0.75291547  1.14271844  1.0
  Al  Al34  1  -0.64854939  1.14271844  0.75291547  1.0
  Al  Al35  1  0.75291547  0.14271844  0.75291547  1.0
  Al  Al36  1  0.49708453  0.49708453  -0.10145061  1.0
  Al  Al37  1  0.49708453  -0.10145061  0.49708453  1.0
  Al  Al38  1  0.10728156  -0.10145061  0.49708453  1.0
  Al  Al39  1  0.10728156  0.49708453  -0.10145061  1.0
  Al  Al40  1  0.75291547  -0.64854939  1.14271844  1.0
  Al  Al41  1  -0.24708453  1.14271844  0.35145061  1.0
  Al  Al42  1  -0.10145061  0.49708453  0.49708453  1.0
  Al  Al43  1  0.10728156  0.49708453  0.49708453  1.0
  Al  Al44  1  1.14271844  -0.64854939  0.75291547  1.0
  Al  Al45  1  0.14271844  0.75291547  0.35145061  1.0
  Al  Al46  1  -0.24708453  0.75291547  0.35145061  1.0
  Al  Al47  1  0.75291547  -0.64854939  0.75291547  1.0
  Al  Al48  1  -0.10145061  0.10728156  0.49708453  1.0
  Al  Al49  1  0.49708453  0.10728156  0.49708453  1.0
  Al  Al50  1  0.49708453  0.49708453  0.10728156  1.0
  Al  Al51  1  -0.10145061  0.49708453  0.10728156  1.0
  Al  Al52  1  1.14271844  -0.24708453  0.75291547  1.0
  Al  Al53  1  -0.64854939  0.75291547  0.75291547  1.0
  Al  Al54  1  0.49708453  0.10728156  -0.10145061  1.0
  Al  Al55  1  0.49708453  -0.10145061  0.10728156  1.0
