# generated using pymatgen
data_S
_symmetry_space_group_name_H-M   'P 1'
_cell_length_a   6.63322946
_cell_length_b   6.63322946
_cell_length_c   6.63322946
_cell_angle_alpha   112.67568711
_cell_angle_beta   112.67568711
_cell_angle_gamma   112.67568711
_symmetry_Int_Tables_number   1
_chemical_formula_structural   S
_chemical_formula_sum   S6
_cell_volume   193.49792779
_cell_formula_units_Z   6
loop_
 _symmetry_equiv_pos_site_id
 _symmetry_equiv_pos_as_xyz
  1  'x, y, z'
loop_
 _atom_site_type_symbol
 _atom_site_label
 _atom_site_symmetry_multiplicity
 _atom_site_fract_x
 _atom_site_fract_y
 _atom_site_fract_z
 _atom_site_occupancy
  S  S0  1  0.89424786  0.22716342  0.12248802  1.0
  S  S1  1  0.87751198  1.10575214  -0.22716342  1.0
  S  S2  1  0.77283658  -0.12248802  0.10575214  1.0
  S  S3  1  1.10575214  0.77283658  0.87751198  1.0
  S  S4  1  1.12248802  0.89424786  0.22716342  1.0
  S  S5  1  0.22716342  0.12248802  -0.10575214  1.0
