# generated using pymatgen
data_Mo3O10
_symmetry_space_group_name_H-M   'P 1'
_cell_length_a   11.26201172
_cell_length_b   11.26201172
_cell_length_c   3.61893048
_cell_angle_alpha   90.00000000
_cell_angle_beta   90.00000000
_cell_angle_gamma   120.00000000
_symmetry_Int_Tables_number   1
_chemical_formula_structural   Mo3O10
_chemical_formula_sum   'Mo6 O20'
_cell_volume   397.50520741
_cell_formula_units_Z   2
loop_
 _symmetry_equiv_pos_site_id
 _symmetry_equiv_pos_as_xyz
  1  'x, y, z'
loop_
 _atom_site_type_symbol
 _atom_site_label
 _atom_site_symmetry_multiplicity
 _atom_site_fract_x
 _atom_site_fract_y
 _atom_site_fract_z
 _atom_site_occupancy
  O  O0  1  0.27050055  0.97706675  0.25000000  1.0
  O  O1  1  0.97706675  0.70656621  0.75000000  1.0
  O  O2  1  0.70656621  0.72949945  0.25000000  1.0
  O  O3  1  0.02293325  0.29343379  0.25000000  1.0
  O  O4  1  0.72949945  0.02293325  0.75000000  1.0
  O  O5  1  0.29343379  0.27050055  0.75000000  1.0
  O  O6  1  0.22173671  0.71852635  0.25000000  1.0
  O  O7  1  0.71852635  0.49678964  0.75000000  1.0
  O  O8  1  0.49678964  0.77826329  0.25000000  1.0
  O  O9  1  0.28147365  0.50321036  0.25000000  1.0
  O  O10  1  0.77826329  0.28147365  0.75000000  1.0
  O  O11  1  0.50321036  0.22173671  0.75000000  1.0
  O  O12  1  0.50704772  0.42615789  0.25000000  1.0
  O  O13  1  0.42615789  0.91911017  0.75000000  1.0
  O  O14  1  0.91911017  0.49295228  0.25000000  1.0
  O  O15  1  0.57384211  0.08088983  0.25000000  1.0
  O  O16  1  0.49295228  0.57384211  0.75000000  1.0
  O  O17  1  0.08088983  0.50704772  0.75000000  1.0
  O  O18  1  0.00000000  0.00000000  0.25000000  1.0
  O  O19  1  0.00000000  0.00000000  0.75000000  1.0
  Mo  Mo20  1  0.35312473  0.88717217  0.25000000  1.0
  Mo  Mo21  1  0.88717217  0.53404743  0.75000000  1.0
  Mo  Mo22  1  0.53404743  0.64687527  0.25000000  1.0
  Mo  Mo23  1  0.11282783  0.46595257  0.25000000  1.0
  Mo  Mo24  1  0.64687527  0.11282783  0.75000000  1.0
  Mo  Mo25  1  0.46595257  0.35312473  0.75000000  1.0
