# generated using pymatgen
data_HgF
_symmetry_space_group_name_H-M   'P 1'
_cell_length_a   6.10130634
_cell_length_b   6.10130634
_cell_length_c   6.10130634
_cell_angle_alpha   143.00339237
_cell_angle_beta   143.00339237
_cell_angle_gamma   53.32021120
_symmetry_Int_Tables_number   1
_chemical_formula_structural   HgF
_chemical_formula_sum   'Hg2 F2'
_cell_volume   81.73132075
_cell_formula_units_Z   2
loop_
 _symmetry_equiv_pos_site_id
 _symmetry_equiv_pos_as_xyz
  1  'x, y, z'
loop_
 _atom_site_type_symbol
 _atom_site_label
 _atom_site_symmetry_multiplicity
 _atom_site_fract_x
 _atom_site_fract_y
 _atom_site_fract_z
 _atom_site_occupancy
  Hg  Hg0  1  0.88278720  0.88278720  1.00000000  1.0
  Hg  Hg1  1  0.11721280  0.11721280  -0.00000000  1.0
  F  F2  1  0.68658628  0.68658628  1.00000000  1.0
  F  F3  1  0.31341372  0.31341372  -0.00000000  1.0
