# generated using pymatgen
data_La4MgRh
_symmetry_space_group_name_H-M   'P 1'
_cell_length_a   10.19318440
_cell_length_b   10.19318440
_cell_length_c   10.19318440
_cell_angle_alpha   60.00000000
_cell_angle_beta   60.00000000
_cell_angle_gamma   60.00000000
_symmetry_Int_Tables_number   1
_chemical_formula_structural   La4MgRh
_chemical_formula_sum   'La16 Mg4 Rh4'
_cell_volume   748.88416004
_cell_formula_units_Z   4
loop_
 _symmetry_equiv_pos_site_id
 _symmetry_equiv_pos_as_xyz
  1  'x, y, z'
loop_
 _atom_site_type_symbol
 _atom_site_label
 _atom_site_symmetry_multiplicity
 _atom_site_fract_x
 _atom_site_fract_y
 _atom_site_fract_z
 _atom_site_occupancy
  La  La0  1  0.06209211  0.43790789  0.43790789  1.0
  La  La1  1  0.43790789  0.43790789  0.06209211  1.0
  La  La2  1  0.43790789  0.06209211  0.43790789  1.0
  La  La3  1  0.06209211  0.06209211  0.43790789  1.0
  La  La4  1  0.06209211  0.43790789  0.06209211  1.0
  La  La5  1  0.43790789  0.06209211  0.06209211  1.0
  La  La6  1  -0.81107326  0.81107326  0.81107326  1.0
  La  La7  1  -0.18892674  0.81107326  0.18892674  1.0
  La  La8  1  -0.18892674  0.18892674  0.81107326  1.0
  La  La9  1  0.18892674  1.18892674  -0.18892674  1.0
  La  La10  1  0.18892674  -0.18892674  0.18892674  1.0
  La  La11  1  -0.18892674  0.18892674  0.18892674  1.0
  La  La12  1  -0.34580596  0.65419404  0.65419404  1.0
  La  La13  1  1.03741788  0.65419404  -0.34580596  1.0
  La  La14  1  -0.34580596  0.65419404  1.03741788  1.0
  La  La15  1  0.65419404  1.03741788  -0.34580596  1.0
  Mg  Mg16  1  0.42137813  1.42137813  0.42137813  1.0
  Mg  Mg17  1  -0.26413438  0.42137813  0.42137813  1.0
  Mg  Mg18  1  0.42137813  1.42137813  -0.26413438  1.0
  Mg  Mg19  1  0.42137813  -0.26413438  0.42137813  1.0
  Rh  Rh20  1  0.85873119  0.85873119  -0.14126881  1.0
  Rh  Rh21  1  0.42380643  0.85873119  -0.14126881  1.0
  Rh  Rh22  1  0.85873119  0.85873119  -0.57619357  1.0
  Rh  Rh23  1  0.85873119  0.42380643  -0.14126881  1.0
