# generated using pymatgen
data_Ca3InP3
_symmetry_space_group_name_H-M   'P 1'
_cell_length_a   12.09210648
_cell_length_b   4.15085479
_cell_length_c   13.58581742
_cell_angle_alpha   90.00000000
_cell_angle_beta   90.00000000
_cell_angle_gamma   90.00000000
_symmetry_Int_Tables_number   1
_chemical_formula_structural   Ca3InP3
_chemical_formula_sum   'Ca12 In4 P12'
_cell_volume   681.90720224
_cell_formula_units_Z   4
loop_
 _symmetry_equiv_pos_site_id
 _symmetry_equiv_pos_as_xyz
  1  'x, y, z'
loop_
 _atom_site_type_symbol
 _atom_site_label
 _atom_site_symmetry_multiplicity
 _atom_site_fract_x
 _atom_site_fract_y
 _atom_site_fract_z
 _atom_site_occupancy
  Ca  Ca0  1  0.73040184  0.75000000  0.71006605  1.0
  Ca  Ca1  1  0.23040184  0.75000000  0.78993395  1.0
  Ca  Ca2  1  0.26959816  0.25000000  0.28993395  1.0
  Ca  Ca3  1  0.76959816  0.25000000  0.21006605  1.0
  Ca  Ca4  1  0.65277347  0.75000000  0.99314989  1.0
  Ca  Ca5  1  0.15277347  0.75000000  0.50685011  1.0
  Ca  Ca6  1  0.34722653  0.25000000  0.00685011  1.0
  Ca  Ca7  1  0.84722653  0.25000000  0.49314989  1.0
  Ca  Ca8  1  0.43388366  0.75000000  0.60115857  1.0
  Ca  Ca9  1  0.93388366  0.75000000  0.89884143  1.0
  Ca  Ca10  1  0.56611634  0.25000000  0.39884143  1.0
  Ca  Ca11  1  0.06611634  0.25000000  0.10115857  1.0
  In  In12  1  0.95047879  0.75000000  0.29987916  1.0
  In  In13  1  0.45047879  0.75000000  0.20012084  1.0
  In  In14  1  0.04952121  0.25000000  0.70012084  1.0
  In  In15  1  0.54952121  0.25000000  0.79987916  1.0
  P  P16  1  0.94773591  0.75000000  0.63077048  1.0
  P  P17  1  0.44773591  0.75000000  0.86922952  1.0
  P  P18  1  0.05226409  0.25000000  0.36922952  1.0
  P  P19  1  0.55226409  0.25000000  0.13077048  1.0
  P  P20  1  0.89715622  0.75000000  0.11312475  1.0
  P  P21  1  0.39715622  0.75000000  0.38687525  1.0
  P  P22  1  0.10284378  0.25000000  0.88687525  1.0
  P  P23  1  0.60284378  0.25000000  0.61312475  1.0
  P  P24  1  0.74644401  0.75000000  0.37087578  1.0
  P  P25  1  0.24644401  0.75000000  0.12912422  1.0
  P  P26  1  0.25355599  0.25000000  0.62912422  1.0
  P  P27  1  0.75355599  0.25000000  0.87087578  1.0
