# generated using pymatgen
data_Te(CN)2
_symmetry_space_group_name_H-M   'P 1'
_cell_length_a   7.47178661
_cell_length_b   15.89447600
_cell_length_c   9.06670180
_cell_angle_alpha   90.00000000
_cell_angle_beta   90.00000000
_cell_angle_gamma   90.00000000
_symmetry_Int_Tables_number   1
_chemical_formula_structural   Te(CN)2
_chemical_formula_sum   'Te8 C16 N16'
_cell_volume   1076.76271152
_cell_formula_units_Z   8
loop_
 _symmetry_equiv_pos_site_id
 _symmetry_equiv_pos_as_xyz
  1  'x, y, z'
loop_
 _atom_site_type_symbol
 _atom_site_label
 _atom_site_symmetry_multiplicity
 _atom_site_fract_x
 _atom_site_fract_y
 _atom_site_fract_z
 _atom_site_occupancy
  Te  Te0  1  0.68080841  0.37570313  0.49996465  1.0
  Te  Te1  1  0.31919159  0.87570313  0.00003535  1.0
  Te  Te2  1  0.81919159  0.62429687  0.99996465  1.0
  Te  Te3  1  0.18080841  0.12429687  0.50003535  1.0
  Te  Te4  1  0.31919159  0.62429687  0.50003535  1.0
  Te  Te5  1  0.68080841  0.12429687  0.99996465  1.0
  Te  Te6  1  0.18080841  0.37570313  0.00003535  1.0
  Te  Te7  1  0.81919159  0.87570313  0.49996465  1.0
  C  C8  1  0.89042629  0.37653661  0.34132550  1.0
  C  C9  1  0.10957371  0.87653661  0.15867450  1.0
  C  C10  1  0.60957371  0.62346339  0.84132550  1.0
  C  C11  1  0.39042629  0.12346339  0.65867450  1.0
  C  C12  1  0.10957371  0.62346339  0.65867450  1.0
  C  C13  1  0.89042629  0.12346339  0.84132550  1.0
  C  C14  1  0.39042629  0.37653661  0.15867450  1.0
  C  C15  1  0.60957371  0.87653661  0.34132550  1.0
  C  C16  1  0.39021074  0.37476265  0.84120803  1.0
  C  C17  1  0.60978926  0.87476265  0.65879197  1.0
  C  C18  1  0.10978926  0.62523735  0.34120803  1.0
  C  C19  1  0.89021074  0.12523735  0.15879197  1.0
  C  C20  1  0.60978926  0.62523735  0.15879197  1.0
  C  C21  1  0.39021074  0.12523735  0.34120803  1.0
  C  C22  1  0.89021074  0.37476265  0.65879197  1.0
  C  C23  1  0.10978926  0.87476265  0.84120803  1.0
  N  N24  1  0.50177819  0.37704197  0.24871865  1.0
  N  N25  1  0.49822181  0.87704197  0.25128135  1.0
  N  N26  1  0.99822181  0.62295803  0.74871865  1.0
  N  N27  1  0.00177819  0.12295803  0.75128135  1.0
  N  N28  1  0.49822181  0.62295803  0.75128135  1.0
  N  N29  1  0.50177819  0.12295803  0.74871865  1.0
  N  N30  1  0.00177819  0.37704197  0.25128135  1.0
  N  N31  1  0.99822181  0.87704197  0.24871865  1.0
  N  N32  1  0.50146907  0.37432175  0.75108471  1.0
  N  N33  1  0.49853093  0.87432175  0.74891529  1.0
  N  N34  1  -0.00146907  0.62567825  0.25108471  1.0
  N  N35  1  1.00146907  0.12567825  0.24891529  1.0
  N  N36  1  0.49853093  0.62567825  0.24891529  1.0
  N  N37  1  0.50146907  0.12567825  0.25108471  1.0
  N  N38  1  1.00146907  0.37432175  0.74891529  1.0
  N  N39  1  -0.00146907  0.87432175  0.75108471  1.0
