# generated using pymatgen
data_Sr6LuSc(BO3)6
_symmetry_space_group_name_H-M   'P 1'
_cell_length_a   7.79703621
_cell_length_b   7.79703621
_cell_length_c   7.79703620
_cell_angle_alpha   105.10693436
_cell_angle_beta   105.10693436
_cell_angle_gamma   105.10693436
_symmetry_Int_Tables_number   1
_chemical_formula_structural   Sr6LuSc(BO3)6
_chemical_formula_sum   'Sr6 Lu1 Sc1 B6 O18'
_cell_volume   413.45763121
_cell_formula_units_Z   1
loop_
 _symmetry_equiv_pos_site_id
 _symmetry_equiv_pos_as_xyz
  1  'x, y, z'
loop_
 _atom_site_type_symbol
 _atom_site_label
 _atom_site_symmetry_multiplicity
 _atom_site_fract_x
 _atom_site_fract_y
 _atom_site_fract_z
 _atom_site_occupancy
  Sr  Sr0  1  0.76512655  0.65500097  0.14540684  1.0
  Sr  Sr1  1  1.34499903  -0.14540684  0.23487345  1.0
  Sr  Sr2  1  0.85459316  0.23487345  0.34499903  1.0
  Sr  Sr3  1  1.23487345  0.34499903  -0.14540684  1.0
  Sr  Sr4  1  0.65500097  1.14540684  -0.23487345  1.0
  Sr  Sr5  1  1.14540684  0.76512655  -0.34499903  1.0
  Lu  Lu6  1  0.50000000  0.50000000  0.50000000  1.0
  Sc  Sc7  1  0.00000000  0.00000000  0.00000000  1.0
  B  B8  1  1.54285934  0.79128363  -0.11902257  1.0
  B  B9  1  1.20871637  0.11902257  -0.54285934  1.0
  B  B10  1  1.11902257  -0.54285934  0.20871637  1.0
  B  B11  1  0.45714066  0.20871637  0.11902257  1.0
  B  B12  1  0.79128363  0.88097743  0.54285934  1.0
  B  B13  1  0.88097743  1.54285934  -0.20871637  1.0
  O  O14  1  0.71871484  0.93279031  -0.00492593  1.0
  O  O15  1  1.06720969  0.00492593  -0.71871484  1.0
  O  O16  1  1.00492593  -0.71871484  0.06720969  1.0
  O  O17  1  0.28128516  0.06720969  0.00492593  1.0
  O  O18  1  0.93279031  0.99507407  -0.28128516  1.0
  O  O19  1  0.99507407  0.71871484  -0.06720969  1.0
  O  O20  1  1.47742288  0.76164073  -0.31226044  1.0
  O  O21  1  1.23835927  0.31226044  -0.47742288  1.0
  O  O22  1  1.31226044  -0.47742288  0.23835927  1.0
  O  O23  1  0.52257712  0.23835927  0.31226044  1.0
  O  O24  1  0.76164073  0.68773956  0.47742288  1.0
  O  O25  1  0.68773956  1.47742288  -0.23835927  1.0
  O  O26  1  0.56277488  0.30970228  0.03858155  1.0
  O  O27  1  0.69029772  0.96141845  0.43722512  1.0
  O  O28  1  0.96141845  1.43722512  -0.30970228  1.0
  O  O29  1  1.43722512  0.69029772  -0.03858155  1.0
  O  O30  1  1.30970228  0.03858155  -0.43722512  1.0
  O  O31  1  1.03858155  -0.43722512  0.30970228  1.0
