# generated using pymatgen
data_RbPO3
_symmetry_space_group_name_H-M   'P 1'
_cell_length_a   4.58419439
_cell_length_b   6.21445180
_cell_length_c   13.19577751
_cell_angle_alpha   90.00000000
_cell_angle_beta   90.00000000
_cell_angle_gamma   90.00000000
_symmetry_Int_Tables_number   1
_chemical_formula_structural   RbPO3
_chemical_formula_sum   'Rb4 P4 O12'
_cell_volume   375.92467601
_cell_formula_units_Z   4
loop_
 _symmetry_equiv_pos_site_id
 _symmetry_equiv_pos_as_xyz
  1  'x, y, z'
loop_
 _atom_site_type_symbol
 _atom_site_label
 _atom_site_symmetry_multiplicity
 _atom_site_fract_x
 _atom_site_fract_y
 _atom_site_fract_z
 _atom_site_occupancy
  Rb  Rb0  1  0.27172245  0.75000000  0.09196185  1.0
  Rb  Rb1  1  0.77172245  0.75000000  0.40803815  1.0
  Rb  Rb2  1  0.72827755  0.25000000  0.90803815  1.0
  Rb  Rb3  1  0.22827755  0.25000000  0.59196185  1.0
  P  P4  1  0.18112501  0.75000000  0.82402591  1.0
  P  P5  1  0.68112501  0.75000000  0.67597409  1.0
  P  P6  1  0.81887499  0.25000000  0.17597409  1.0
  P  P7  1  0.31887499  0.25000000  0.32402591  1.0
  O  O8  1  0.23530211  0.95897871  0.87875927  1.0
  O  O9  1  0.23530211  0.54102129  0.87875927  1.0
  O  O10  1  0.73530211  0.95897871  0.62124073  1.0
  O  O11  1  0.73530211  0.54102129  0.62124073  1.0
  O  O12  1  0.76469789  0.45897871  0.12124073  1.0
  O  O13  1  0.76469789  0.04102129  0.12124073  1.0
  O  O14  1  0.26469789  0.45897871  0.37875927  1.0
  O  O15  1  0.26469789  0.04102129  0.37875927  1.0
  O  O16  1  0.33926616  0.75000000  0.71305835  1.0
  O  O17  1  0.83926616  0.75000000  0.78694165  1.0
  O  O18  1  0.66073384  0.25000000  0.28694165  1.0
  O  O19  1  0.16073384  0.25000000  0.21305835  1.0
