# generated using pymatgen
data_Li2LaGe
_symmetry_space_group_name_H-M   'P 1'
_cell_length_a   4.41732944
_cell_length_b   4.41732944
_cell_length_c   9.74889108
_cell_angle_alpha   90.00000000
_cell_angle_beta   90.00000000
_cell_angle_gamma   120.00000000
_symmetry_Int_Tables_number   1
_chemical_formula_structural   Li2LaGe
_chemical_formula_sum   'Li4 La2 Ge2'
_cell_volume   164.74241541
_cell_formula_units_Z   2
loop_
 _symmetry_equiv_pos_site_id
 _symmetry_equiv_pos_as_xyz
  1  'x, y, z'
loop_
 _atom_site_type_symbol
 _atom_site_label
 _atom_site_symmetry_multiplicity
 _atom_site_fract_x
 _atom_site_fract_y
 _atom_site_fract_z
 _atom_site_occupancy
  Li  Li0  1  0.33333333  0.66666667  0.43677726  1.0
  Li  Li1  1  0.66666667  0.33333333  0.56322274  1.0
  Li  Li2  1  0.66666667  0.33333333  0.93677726  1.0
  Li  Li3  1  0.33333333  0.66666667  0.06322274  1.0
  La  La4  1  0.33333333  0.66666667  0.75000000  1.0
  La  La5  1  0.66666667  0.33333333  0.25000000  1.0
  Ge  Ge6  1  0.00000000  0.00000000  0.50000000  1.0
  Ge  Ge7  1  0.00000000  0.00000000  0.00000000  1.0
