# generated using pymatgen
data_Ba2LaNb(CuO4)2
_symmetry_space_group_name_H-M   'P 1'
_cell_length_a   12.92320372
_cell_length_b   12.92320372
_cell_length_c   12.92320372
_cell_angle_alpha   154.82791658
_cell_angle_beta   154.82791658
_cell_angle_gamma   35.89734606
_symmetry_Int_Tables_number   1
_chemical_formula_structural   Ba2LaNb(CuO4)2
_chemical_formula_sum   'Ba4 La2 Nb2 Cu4 O16'
_cell_volume   389.97738798
_cell_formula_units_Z   2
loop_
 _symmetry_equiv_pos_site_id
 _symmetry_equiv_pos_as_xyz
  1  'x, y, z'
loop_
 _atom_site_type_symbol
 _atom_site_label
 _atom_site_symmetry_multiplicity
 _atom_site_fract_x
 _atom_site_fract_y
 _atom_site_fract_z
 _atom_site_occupancy
  Ba  Ba0  1  0.40290482  0.90290482  0.50000000  1.0
  Ba  Ba1  1  0.59709518  0.09709518  0.50000000  1.0
  Ba  Ba2  1  0.90290482  0.40290482  0.50000000  1.0
  Ba  Ba3  1  0.09709518  0.59709518  0.50000000  1.0
  La  La4  1  0.25000000  0.75000000  0.50000000  1.0
  La  La5  1  0.75000000  0.25000000  0.50000000  1.0
  Nb  Nb6  1  0.00000000  0.00000000  0.00000000  1.0
  Nb  Nb7  1  0.50000000  0.50000000  1.00000000  1.0
  Cu  Cu8  1  0.82156570  0.82156570  1.00000000  1.0
  Cu  Cu9  1  0.17843430  0.17843430  0.00000000  1.0
  Cu  Cu10  1  0.32156570  0.32156570  0.00000000  1.0
  Cu  Cu11  1  0.67843430  0.67843430  1.00000000  1.0
  O  O12  1  0.56493107  1.06493107  1.00126509  1.0
  O  O13  1  0.93633402  0.43633402  1.00126509  1.0
  O  O14  1  0.56366598  0.56493107  0.50000000  1.0
  O  O15  1  0.93506893  0.93633402  1.50000000  1.0
  O  O16  1  1.06493107  1.06366598  1.50000000  1.0
  O  O17  1  0.43633402  0.43506893  0.50000000  1.0
  O  O18  1  1.06366598  0.56366598  0.99873491  1.0
  O  O19  1  0.43506893  0.93506893  0.99873491  1.0
  O  O20  1  0.29194755  0.79194755  1.08389509  1.0
  O  O21  1  0.20805245  0.29194755  0.50000000  1.0
  O  O22  1  0.79194755  0.70805245  1.50000000  1.0
  O  O23  1  0.70805245  0.20805245  0.91610491  1.0
  O  O24  1  0.91983433  0.91983433  1.00000000  1.0
  O  O25  1  0.08016567  0.08016567  0.00000000  1.0
  O  O26  1  0.41983433  0.41983433  0.00000000  1.0
  O  O27  1  0.58016567  0.58016567  1.00000000  1.0
