# generated using pymatgen
data_P3Pb5IO12
_symmetry_space_group_name_H-M   'P 1'
_cell_length_a   10.47381981
_cell_length_b   10.47381981
_cell_length_c   7.42352185
_cell_angle_alpha   90.00000000
_cell_angle_beta   90.00000000
_cell_angle_gamma   120.00000000
_symmetry_Int_Tables_number   1
_chemical_formula_structural   P3Pb5IO12
_chemical_formula_sum   'P6 Pb10 I2 O24'
_cell_volume   705.26254366
_cell_formula_units_Z   2
loop_
 _symmetry_equiv_pos_site_id
 _symmetry_equiv_pos_as_xyz
  1  'x, y, z'
loop_
 _atom_site_type_symbol
 _atom_site_label
 _atom_site_symmetry_multiplicity
 _atom_site_fract_x
 _atom_site_fract_y
 _atom_site_fract_z
 _atom_site_occupancy
  P  P0  1  0.95826938  0.58163771  0.25000000  1.0
  P  P1  1  0.62336833  0.04173062  0.25000000  1.0
  P  P2  1  0.41836229  0.37663167  0.25000000  1.0
  P  P3  1  0.04173062  0.41836229  0.75000000  1.0
  P  P4  1  0.37663167  0.95826938  0.75000000  1.0
  P  P5  1  0.58163771  0.62336833  0.75000000  1.0
  Pb  Pb6  1  0.33333333  0.66666667  0.49367963  1.0
  Pb  Pb7  1  0.66666667  0.33333333  0.99367963  1.0
  Pb  Pb8  1  0.66666667  0.33333333  0.50632037  1.0
  Pb  Pb9  1  0.33333333  0.66666667  0.00632037  1.0
  Pb  Pb10  1  0.74583517  0.72160882  0.25000000  1.0
  Pb  Pb11  1  0.97577365  0.25416483  0.25000000  1.0
  Pb  Pb12  1  0.27839118  0.02422635  0.25000000  1.0
  Pb  Pb13  1  0.25416483  0.27839118  0.75000000  1.0
  Pb  Pb14  1  0.02422635  0.74583517  0.75000000  1.0
  Pb  Pb15  1  0.72160882  0.97577365  0.75000000  1.0
  I  I16  1  0.00000000  0.00000000  0.50000000  1.0
  I  I17  1  0.00000000  0.00000000  0.00000000  1.0
  O  O18  1  0.12472858  0.63334052  0.25000000  1.0
  O  O19  1  0.50861194  0.87527142  0.25000000  1.0
  O  O20  1  0.36665948  0.49138806  0.25000000  1.0
  O  O21  1  0.87527142  0.36665948  0.75000000  1.0
  O  O22  1  0.49138806  0.12472858  0.75000000  1.0
  O  O23  1  0.63334052  0.50861194  0.75000000  1.0
  O  O24  1  0.86370820  0.40539227  0.25000000  1.0
  O  O25  1  0.54168407  0.13629180  0.25000000  1.0
  O  O26  1  0.59460773  0.45831593  0.25000000  1.0
  O  O27  1  0.13629180  0.59460773  0.75000000  1.0
  O  O28  1  0.45831593  0.86370820  0.75000000  1.0
  O  O29  1  0.40539227  0.54168407  0.75000000  1.0
  O  O30  1  0.90626811  0.63194785  0.42017427  1.0
  O  O31  1  0.72567974  0.09373189  0.42017427  1.0
  O  O32  1  0.36805215  0.27432026  0.42017427  1.0
  O  O33  1  0.09373189  0.36805215  0.92017427  1.0
  O  O34  1  0.27432026  0.90626811  0.92017427  1.0
  O  O35  1  0.63194785  0.72567974  0.92017427  1.0
  O  O36  1  0.09373189  0.36805215  0.57982573  1.0
  O  O37  1  0.27432026  0.90626811  0.57982573  1.0
  O  O38  1  0.63194785  0.72567974  0.57982573  1.0
  O  O39  1  0.90626811  0.63194785  0.07982573  1.0
  O  O40  1  0.72567974  0.09373189  0.07982573  1.0
  O  O41  1  0.36805215  0.27432026  0.07982573  1.0
