# generated using pymatgen
data_Tl3CoBr5
_symmetry_space_group_name_H-M   'P 1'
_cell_length_a   9.88549937
_cell_length_b   9.88549937
_cell_length_c   9.88549937
_cell_angle_alpha   126.39382427
_cell_angle_beta   126.39382427
_cell_angle_gamma   79.24182257
_symmetry_Int_Tables_number   1
_chemical_formula_structural   Tl3CoBr5
_chemical_formula_sum   'Tl6 Co2 Br10'
_cell_volume   605.22189495
_cell_formula_units_Z   2
loop_
 _symmetry_equiv_pos_site_id
 _symmetry_equiv_pos_as_xyz
  1  'x, y, z'
loop_
 _atom_site_type_symbol
 _atom_site_label
 _atom_site_symmetry_multiplicity
 _atom_site_fract_x
 _atom_site_fract_y
 _atom_site_fract_z
 _atom_site_occupancy
  Co  Co0  1  0.25000000  0.75000000  0.50000000  1.0
  Co  Co1  1  0.75000000  0.25000000  0.50000000  1.0
  Tl  Tl2  1  0.84037470  0.34037470  1.18074940  1.0
  Tl  Tl3  1  0.65962530  0.84037470  1.50000000  1.0
  Tl  Tl4  1  0.34037470  0.15962530  0.50000000  1.0
  Tl  Tl5  1  0.15962530  0.65962530  0.81925060  1.0
  Tl  Tl6  1  0.75000000  0.75000000  1.00000000  1.0
  Tl  Tl7  1  0.25000000  0.25000000  0.00000000  1.0
  Br  Br8  1  -0.00000000  -0.00000000  -0.00000000  1.0
  Br  Br9  1  0.50000000  0.50000000  1.00000000  1.0
  Br  Br10  1  1.19696002  0.69696002  1.20086259  1.0
  Br  Br11  1  0.50390258  1.00390258  1.20086259  1.0
  Br  Br12  1  0.99609742  1.19696002  1.50000000  1.0
  Br  Br13  1  0.30303998  0.50390258  0.50000000  1.0
  Br  Br14  1  0.69696002  0.49609742  0.50000000  1.0
  Br  Br15  1  1.00390258  0.80303998  1.50000000  1.0
  Br  Br16  1  0.49609742  0.99609742  0.79913741  1.0
  Br  Br17  1  0.80303998  0.30303998  0.79913741  1.0
