# generated using pymatgen
data_SNClO
_symmetry_space_group_name_H-M   'P 1'
_cell_length_a   8.00401195
_cell_length_b   12.36590967
_cell_length_c   10.71947324
_cell_angle_alpha   90.00000000
_cell_angle_beta   90.00000000
_cell_angle_gamma   90.00000000
_symmetry_Int_Tables_number   1
_chemical_formula_structural   SNClO
_chemical_formula_sum   'S12 N12 Cl12 O12'
_cell_volume   1060.98011009
_cell_formula_units_Z   12
loop_
 _symmetry_equiv_pos_site_id
 _symmetry_equiv_pos_as_xyz
  1  'x, y, z'
loop_
 _atom_site_type_symbol
 _atom_site_label
 _atom_site_symmetry_multiplicity
 _atom_site_fract_x
 _atom_site_fract_y
 _atom_site_fract_z
 _atom_site_occupancy
  S  S0  1  0.36509549  0.36236356  0.62399389  1.0
  S  S1  1  0.36509549  0.13763644  0.62399389  1.0
  S  S2  1  0.86509549  0.36236356  0.87600611  1.0
  S  S3  1  0.86509549  0.13763644  0.87600611  1.0
  S  S4  1  0.63490451  0.86236356  0.37600611  1.0
  S  S5  1  0.63490451  0.63763644  0.37600611  1.0
  S  S6  1  0.13490451  0.86236356  0.12399389  1.0
  S  S7  1  0.13490451  0.63763644  0.12399389  1.0
  S  S8  1  0.08783542  0.25000000  0.02623207  1.0
  S  S9  1  0.58783542  0.25000000  0.47376793  1.0
  S  S10  1  0.91216458  0.75000000  0.97376793  1.0
  S  S11  1  0.41216458  0.75000000  0.52623207  1.0
  N  N12  1  0.03050712  0.35738313  0.95745494  1.0
  N  N13  1  0.03050712  0.14261687  0.95745494  1.0
  N  N14  1  0.53050712  0.35738313  0.54254506  1.0
  N  N15  1  0.53050712  0.14261687  0.54254506  1.0
  N  N16  1  0.96949288  0.85738313  0.04254506  1.0
  N  N17  1  0.96949288  0.64261687  0.04254506  1.0
  N  N18  1  0.46949288  0.85738313  0.45745494  1.0
  N  N19  1  0.46949288  0.64261687  0.45745494  1.0
  N  N20  1  0.31641451  0.25000000  0.68616450  1.0
  N  N21  1  0.81641451  0.25000000  0.81383550  1.0
  N  N22  1  0.68358549  0.75000000  0.31383550  1.0
  N  N23  1  0.18358549  0.75000000  0.18616450  1.0
  Cl  Cl24  1  0.17526603  0.39964980  0.50343470  1.0
  Cl  Cl25  1  0.17526603  0.10035020  0.50343470  1.0
  Cl  Cl26  1  0.67526603  0.39964980  0.99656530  1.0
  Cl  Cl27  1  0.67526603  0.10035020  0.99656530  1.0
  Cl  Cl28  1  0.82473397  0.89964980  0.49656530  1.0
  Cl  Cl29  1  0.82473397  0.60035020  0.49656530  1.0
  Cl  Cl30  1  0.32473397  0.89964980  0.00343470  1.0
  Cl  Cl31  1  0.32473397  0.60035020  0.00343470  1.0
  Cl  Cl32  1  0.47112172  0.25000000  0.30385035  1.0
  Cl  Cl33  1  0.97112172  0.25000000  0.19614965  1.0
  Cl  Cl34  1  0.52887828  0.75000000  0.69614965  1.0
  Cl  Cl35  1  0.02887828  0.75000000  0.80385035  1.0
  O  O36  1  0.37244911  0.44722023  0.71476438  1.0
  O  O37  1  0.37244911  0.05277977  0.71476438  1.0
  O  O38  1  0.87244911  0.44722023  0.78523562  1.0
  O  O39  1  0.87244911  0.05277977  0.78523562  1.0
  O  O40  1  0.62755089  0.94722023  0.28523562  1.0
  O  O41  1  0.62755089  0.55277977  0.28523562  1.0
  O  O42  1  0.12755089  0.94722023  0.21476438  1.0
  O  O43  1  0.12755089  0.55277977  0.21476438  1.0
  O  O44  1  0.26421223  0.25000000  0.04957019  1.0
  O  O45  1  0.76421223  0.25000000  0.45042981  1.0
  O  O46  1  0.73578777  0.75000000  0.95042981  1.0
  O  O47  1  0.23578777  0.75000000  0.54957019  1.0
