# generated using pymatgen
data_CaSO6
_symmetry_space_group_name_H-M   'P 1'
_cell_length_a   5.92642010
_cell_length_b   19.98288661
_cell_length_c   6.85526122
_cell_angle_alpha   90.00000000
_cell_angle_beta   125.15365230
_cell_angle_gamma   90.00000000
_symmetry_Int_Tables_number   1
_chemical_formula_structural   CaSO6
_chemical_formula_sum   'Ca4 S4 O24'
_cell_volume   663.77569773
_cell_formula_units_Z   4
loop_
 _symmetry_equiv_pos_site_id
 _symmetry_equiv_pos_as_xyz
  1  'x, y, z'
loop_
 _atom_site_type_symbol
 _atom_site_label
 _atom_site_symmetry_multiplicity
 _atom_site_fract_x
 _atom_site_fract_y
 _atom_site_fract_z
 _atom_site_occupancy
  S  S0  1  0.25247710  0.81785741  0.49691438  1.0
  S  S1  1  0.25247710  0.68214259  -0.00308562  1.0
  S  S2  1  0.74752290  0.18214259  0.50308562  1.0
  S  S3  1  0.74752290  0.31785741  0.00308562  1.0
  Ca  Ca4  1  0.75241233  0.70242790  0.49693104  1.0
  Ca  Ca5  1  0.75241233  0.79757210  -0.00306896  1.0
  Ca  Ca6  1  0.24758767  0.29757210  0.50306896  1.0
  Ca  Ca7  1  0.24758767  0.20242790  1.00306896  1.0
  O  O8  1  0.49591327  0.77340648  0.56710471  1.0
  O  O9  1  0.49591327  0.72659352  0.06710471  1.0
  O  O10  1  0.50408673  0.22659352  0.43289529  1.0
  O  O11  1  0.50408673  0.27340648  0.93289529  1.0
  O  O12  1  -0.00862217  0.27360198  0.07305667  1.0
  O  O13  1  -0.00862217  0.22639802  0.57305667  1.0
  O  O14  1  1.00862217  0.72639802  0.92694333  1.0
  O  O15  1  1.00862217  0.77360198  0.42694333  1.0
  O  O16  1  0.44266504  0.01996147  0.91766117  1.0
  O  O17  1  0.44266504  0.48003853  0.41766117  1.0
  O  O18  1  0.55733496  0.98003853  0.08233883  1.0
  O  O19  1  0.55733496  0.51996147  0.58233883  1.0
  O  O20  1  0.94179410  0.51957110  0.41648445  1.0
  O  O21  1  0.94179410  0.98042890  0.91648445  1.0
  O  O22  1  0.05820590  0.48042890  0.58351555  1.0
  O  O23  1  0.05820590  0.01957110  0.08351555  1.0
  O  O24  1  0.83812843  0.35772037  0.21874377  1.0
  O  O25  1  0.83812843  0.14227963  0.71874377  1.0
  O  O26  1  0.16187157  0.64227963  0.78125623  1.0
  O  O27  1  0.16187157  0.85772037  0.28125623  1.0
  O  O28  1  0.34347708  0.85787096  0.71236425  1.0
  O  O29  1  0.34347708  0.64212904  0.21236425  1.0
  O  O30  1  0.65652292  0.14212904  0.28763575  1.0
  O  O31  1  0.65652293  0.35787096  0.78763575  1.0
