# generated using pymatgen
data_Sr2BN2Cl
_symmetry_space_group_name_H-M   'P 1'
_cell_length_a   12.49093188
_cell_length_b   4.19978798
_cell_length_c   9.27325739
_cell_angle_alpha   90.00000000
_cell_angle_beta   90.00000000
_cell_angle_gamma   90.00000000
_symmetry_Int_Tables_number   1
_chemical_formula_structural   Sr2BN2Cl
_chemical_formula_sum   'Sr8 B4 N8 Cl4'
_cell_volume   486.46827139
_cell_formula_units_Z   4
loop_
 _symmetry_equiv_pos_site_id
 _symmetry_equiv_pos_as_xyz
  1  'x, y, z'
loop_
 _atom_site_type_symbol
 _atom_site_label
 _atom_site_symmetry_multiplicity
 _atom_site_fract_x
 _atom_site_fract_y
 _atom_site_fract_z
 _atom_site_occupancy
  Sr  Sr0  1  0.17014974  0.75000000  0.06146778  1.0
  Sr  Sr1  1  0.67014974  0.75000000  0.43853222  1.0
  Sr  Sr2  1  0.82985026  0.25000000  0.93853222  1.0
  Sr  Sr3  1  0.32985026  0.25000000  0.56146778  1.0
  Sr  Sr4  1  0.08823894  0.75000000  0.61623618  1.0
  Sr  Sr5  1  0.58823894  0.75000000  0.88376382  1.0
  Sr  Sr6  1  0.91176106  0.25000000  0.38376382  1.0
  Sr  Sr7  1  0.41176106  0.25000000  0.11623618  1.0
  B  B8  1  0.33332540  0.75000000  0.82874415  1.0
  B  B9  1  0.83332540  0.75000000  0.67125585  1.0
  B  B10  1  0.66667460  0.25000000  0.17125585  1.0
  B  B11  1  0.16667460  0.25000000  0.32874415  1.0
  N  N12  1  0.37674922  0.75000000  0.96267506  1.0
  N  N13  1  0.87674922  0.75000000  0.53732494  1.0
  N  N14  1  0.62325078  0.25000000  0.03732494  1.0
  N  N15  1  0.12325078  0.25000000  0.46267506  1.0
  N  N16  1  0.28579182  0.75000000  0.69891493  1.0
  N  N17  1  0.78579182  0.75000000  0.80108507  1.0
  N  N18  1  0.71420818  0.25000000  0.30108507  1.0
  N  N19  1  0.21420818  0.25000000  0.19891493  1.0
  Cl  Cl20  1  0.43760712  0.75000000  0.35459335  1.0
  Cl  Cl21  1  0.93760712  0.75000000  0.14540665  1.0
  Cl  Cl22  1  0.56239288  0.25000000  0.64540665  1.0
  Cl  Cl23  1  0.06239288  0.25000000  0.85459335  1.0
