# generated using pymatgen
data_Tl4SnSe4
_symmetry_space_group_name_H-M   'P 1'
_cell_length_a   8.68012564
_cell_length_b   8.61743279
_cell_length_c   16.34397134
_cell_angle_alpha   90.00000000
_cell_angle_beta   103.43510317
_cell_angle_gamma   90.00000000
_symmetry_Int_Tables_number   1
_chemical_formula_structural   Tl4SnSe4
_chemical_formula_sum   'Tl16 Sn4 Se16'
_cell_volume   1189.07932186
_cell_formula_units_Z   4
loop_
 _symmetry_equiv_pos_site_id
 _symmetry_equiv_pos_as_xyz
  1  'x, y, z'
loop_
 _atom_site_type_symbol
 _atom_site_label
 _atom_site_symmetry_multiplicity
 _atom_site_fract_x
 _atom_site_fract_y
 _atom_site_fract_z
 _atom_site_occupancy
  Tl  Tl0  1  0.97054649  0.48362356  0.37031977  1.0
  Tl  Tl1  1  0.97054649  0.01637644  0.87031977  1.0
  Tl  Tl2  1  0.02945351  0.98362356  0.12968023  1.0
  Tl  Tl3  1  0.02945351  0.51637644  0.62968023  1.0
  Tl  Tl4  1  0.80632022  0.10190694  0.37470492  1.0
  Tl  Tl5  1  0.80632022  0.39809306  0.87470492  1.0
  Tl  Tl6  1  0.19367978  0.60190694  0.12529508  1.0
  Tl  Tl7  1  0.19367978  0.89809306  0.62529508  1.0
  Tl  Tl8  1  0.40243586  0.29004278  0.36469686  1.0
  Tl  Tl9  1  0.40243586  0.20995722  0.86469686  1.0
  Tl  Tl10  1  0.59756414  0.79004278  0.13530314  1.0
  Tl  Tl11  1  0.59756414  0.70995722  0.63530314  1.0
  Tl  Tl12  1  0.39245917  0.17678352  0.11365639  1.0
  Tl  Tl13  1  0.39245917  0.32321648  0.61365639  1.0
  Tl  Tl14  1  0.60754083  0.67678352  0.38634361  1.0
  Tl  Tl15  1  0.60754083  0.82321648  0.88634361  1.0
  Sn  Sn16  1  0.79096952  0.38262028  0.12301752  1.0
  Sn  Sn17  1  0.79096952  0.11737972  0.62301752  1.0
  Sn  Sn18  1  0.20903048  0.88262028  0.37698248  1.0
  Sn  Sn19  1  0.20903048  0.61737972  0.87698248  1.0
  Se  Se20  1  0.93374475  0.81889042  0.28355192  1.0
  Se  Se21  1  0.93374475  0.68110958  0.78355192  1.0
  Se  Se22  1  0.06625525  0.31889042  0.21644808  1.0
  Se  Se23  1  0.06625525  0.18110958  0.71644808  1.0
  Se  Se24  1  0.69797891  0.14056300  0.03347792  1.0
  Se  Se25  1  0.69797891  0.35943700  0.53347792  1.0
  Se  Se26  1  0.30202109  0.64056300  0.46652208  1.0
  Se  Se27  1  0.30202109  0.85943700  0.96652208  1.0
  Se  Se28  1  0.59210826  0.44288718  0.21379779  1.0
  Se  Se29  1  0.59210826  0.05711282  0.71379779  1.0
  Se  Se30  1  0.40789174  0.94288718  0.28620221  1.0
  Se  Se31  1  0.40789174  0.55711282  0.78620221  1.0
  Se  Se32  1  0.18100811  0.12266578  0.46684128  1.0
  Se  Se33  1  0.18100811  0.37733422  0.96684128  1.0
  Se  Se34  1  0.81899189  0.62266578  0.03315872  1.0
  Se  Se35  1  0.81899189  0.87733422  0.53315872  1.0
