# generated using pymatgen
data_Cs2TiCu3F12
_symmetry_space_group_name_H-M   'P 1'
_cell_length_a   8.07993593
_cell_length_b   7.10444806
_cell_length_c   12.42226855
_cell_angle_alpha   90.00000000
_cell_angle_beta   121.24199918
_cell_angle_gamma   90.00000000
_symmetry_Int_Tables_number   1
_chemical_formula_structural   Cs2TiCu3F12
_chemical_formula_sum   'Cs4 Ti2 Cu6 F24'
_cell_volume   609.67349711
_cell_formula_units_Z   2
loop_
 _symmetry_equiv_pos_site_id
 _symmetry_equiv_pos_as_xyz
  1  'x, y, z'
loop_
 _atom_site_type_symbol
 _atom_site_label
 _atom_site_symmetry_multiplicity
 _atom_site_fract_x
 _atom_site_fract_y
 _atom_site_fract_z
 _atom_site_occupancy
  Ti  Ti0  1  0.50000000  0.50000000  0.50000000  1.0
  Ti  Ti1  1  0.50000000  0.00000000  0.00000000  1.0
  Cs  Cs2  1  0.66095875  1.00045099  0.38671525  1.0
  Cs  Cs3  1  0.66095875  0.49954901  0.88671525  1.0
  Cs  Cs4  1  0.33904125  0.50045099  0.11328475  1.0
  Cs  Cs5  1  0.33904125  -0.00045099  0.61328475  1.0
  Cu  Cu6  1  0.98878769  0.72883462  0.24238095  1.0
  Cu  Cu7  1  0.98878769  0.77116538  0.74238095  1.0
  Cu  Cu8  1  0.01121231  0.22883462  0.25761905  1.0
  Cu  Cu9  1  0.01121231  0.27116538  0.75761905  1.0
  Cu  Cu10  1  -0.00000000  0.50000000  0.50000000  1.0
  Cu  Cu11  1  0.00000000  0.00000000  0.00000000  1.0
  F  F12  1  0.97007727  0.28969230  0.39314049  1.0
  F  F13  1  0.97007727  0.21030770  0.89314049  1.0
  F  F14  1  0.02992273  0.78969230  0.10685951  1.0
  F  F15  1  0.02992273  0.71030770  0.60685951  1.0
  F  F16  1  0.93551386  0.47396229  0.18092016  1.0
  F  F17  1  0.93551386  0.02603771  0.68092016  1.0
  F  F18  1  0.06448614  0.97396229  0.31907984  1.0
  F  F19  1  0.06448614  0.52603771  0.81907984  1.0
  F  F20  1  0.66072007  0.45402269  0.43357861  1.0
  F  F21  1  0.66072007  0.04597731  0.93357861  1.0
  F  F22  1  0.33927993  0.95402269  0.06642139  1.0
  F  F23  1  0.33927993  0.54597731  0.56642139  1.0
  F  F24  1  0.66334922  0.14658241  0.14379555  1.0
  F  F25  1  0.66334922  0.35341759  0.64379555  1.0
  F  F26  1  0.33665078  0.64658241  0.35620445  1.0
  F  F27  1  0.33665078  0.85341759  0.85620445  1.0
  F  F28  1  0.35916088  0.27976109  0.41720160  1.0
  F  F29  1  0.35916088  0.22023891  0.91720160  1.0
  F  F30  1  0.64083912  0.77976109  0.08279840  1.0
  F  F31  1  0.64083912  0.72023891  0.58279840  1.0
  F  F32  1  0.91536897  0.67439007  0.36352090  1.0
  F  F33  1  0.91536897  0.82560993  0.86352090  1.0
  F  F34  1  0.08463103  0.17439007  0.13647910  1.0
  F  F35  1  0.08463103  0.32560993  0.63647910  1.0
