# generated using pymatgen
data_K3Pb2
_symmetry_space_group_name_H-M   'P 1'
_cell_length_a   7.52357125
_cell_length_b   7.52357125
_cell_length_c   9.33957032
_cell_angle_alpha   50.33339868
_cell_angle_beta   129.66660132
_cell_angle_gamma   127.71292414
_symmetry_Int_Tables_number   1
_chemical_formula_structural   K3Pb2
_chemical_formula_sum   'K3 Pb2'
_cell_volume   294.05663378
_cell_formula_units_Z   1
loop_
 _symmetry_equiv_pos_site_id
 _symmetry_equiv_pos_as_xyz
  1  'x, y, z'
loop_
 _atom_site_type_symbol
 _atom_site_label
 _atom_site_symmetry_multiplicity
 _atom_site_fract_x
 _atom_site_fract_y
 _atom_site_fract_z
 _atom_site_occupancy
  K  K0  1  0.00000000  0.00000000  0.00000000  1.0
  K  K1  1  0.50000000  0.50000000  0.50000000  1.0
  K  K2  1  0.00000000  -0.00000000  0.50000000  1.0
  Pb  Pb3  1  1.50000000  -0.00000000  -0.00000000  1.0
  Pb  Pb4  1  1.00000000  0.50000000  -0.00000000  1.0
