# generated using pymatgen
data_VCuBi2O7
_symmetry_space_group_name_H-M   'P 1'
_cell_length_a   7.97804702
_cell_length_b   7.19096110
_cell_length_c   6.04436401
_cell_angle_alpha   107.28505485
_cell_angle_beta   107.51901397
_cell_angle_gamma   90.08878139
_symmetry_Int_Tables_number   1
_chemical_formula_structural   VCuBi2O7
_chemical_formula_sum   'V2 Cu2 Bi4 O14'
_cell_volume   314.16565203
_cell_formula_units_Z   2
loop_
 _symmetry_equiv_pos_site_id
 _symmetry_equiv_pos_as_xyz
  1  'x, y, z'
loop_
 _atom_site_type_symbol
 _atom_site_label
 _atom_site_symmetry_multiplicity
 _atom_site_fract_x
 _atom_site_fract_y
 _atom_site_fract_z
 _atom_site_occupancy
  V  V0  1  -0.58064093  -0.72370339  -0.87723158  1.0
  V  V1  1  -0.41935907  -0.27629661  -0.12276842  1.0
  Cu  Cu2  1  -0.00000000  -0.50000000  -0.00000000  1.0
  Cu  Cu3  1  0.00000000  0.00000000  0.00000000  1.0
  Bi  Bi4  1  -0.20367554  -0.87002081  -0.47415512  1.0
  Bi  Bi5  1  -0.79632446  -0.12997919  -0.52584488  1.0
  Bi  Bi6  1  -0.77503587  -0.61722159  -0.45973722  1.0
  Bi  Bi7  1  -0.22496413  -0.38277841  -0.54026278  1.0
  O  O8  1  -0.92555959  -0.23572438  -0.94448283  1.0
  O  O9  1  -0.07444041  -0.76427562  -0.05551717  1.0
  O  O10  1  -0.34939886  -0.70268723  -0.78704521  1.0
  O  O11  1  -0.65060114  -0.29731277  -0.21295479  1.0
  O  O12  1  -0.64768072  -0.87080607  -0.73756136  1.0
  O  O13  1  -0.35231928  -0.12919393  -0.26243864  1.0
  O  O14  1  -0.63887344  -0.50055940  -0.75221068  1.0
  O  O15  1  -0.36112656  -0.49944060  -0.24778932  1.0
  O  O16  1  -0.97776520  -0.42765621  -0.67190192  1.0
  O  O17  1  -0.02223480  -0.57234379  -0.32809808  1.0
  O  O18  1  -0.98253998  -0.90673258  -0.66423854  1.0
  O  O19  1  -0.01746002  -0.09326742  -0.33576146  1.0
  O  O20  1  -0.68317022  -0.80189303  -0.19727006  1.0
  O  O21  1  -0.31682978  -0.19810697  -0.80272994  1.0
