# generated using pymatgen
data_LaInSe2O
_symmetry_space_group_name_H-M   'P 1'
_cell_length_a   5.86512984
_cell_length_b   13.54061457
_cell_length_c   5.95470788
_cell_angle_alpha   90.00000000
_cell_angle_beta   90.00000000
_cell_angle_gamma   90.00000000
_symmetry_Int_Tables_number   1
_chemical_formula_structural   LaInSe2O
_chemical_formula_sum   'La4 In4 Se8 O4'
_cell_volume   472.90778987
_cell_formula_units_Z   4
loop_
 _symmetry_equiv_pos_site_id
 _symmetry_equiv_pos_as_xyz
  1  'x, y, z'
loop_
 _atom_site_type_symbol
 _atom_site_label
 _atom_site_symmetry_multiplicity
 _atom_site_fract_x
 _atom_site_fract_y
 _atom_site_fract_z
 _atom_site_occupancy
  La  La0  1  0.49991121  0.41065812  0.49985470  1.0
  La  La1  1  -0.00008879  0.58934188  0.49985470  1.0
  La  La2  1  0.50008879  0.58934188  -0.00014530  1.0
  La  La3  1  1.00008879  0.41065812  -0.00014530  1.0
  In  In4  1  0.49899203  0.10995565  0.06187441  1.0
  In  In5  1  -0.00100797  0.89004435  0.06187441  1.0
  In  In6  1  0.50100797  0.89004435  0.56187441  1.0
  In  In7  1  1.00100797  0.10995565  0.56187441  1.0
  Se  Se8  1  0.49984972  0.08653764  0.51788037  1.0
  Se  Se9  1  -0.00015028  0.91346236  0.51788037  1.0
  Se  Se10  1  0.50015028  0.91346236  0.01788037  1.0
  Se  Se11  1  1.00015028  0.08653764  0.01788037  1.0
  Se  Se12  1  -0.00014740  0.29552325  0.49942733  1.0
  Se  Se13  1  0.49985260  0.70447675  0.49942733  1.0
  Se  Se14  1  1.00014740  0.70447675  0.99942733  1.0
  Se  Se15  1  0.50014740  0.29552325  0.99942733  1.0
  O  O16  1  0.74996568  0.49994761  0.25166318  1.0
  O  O17  1  0.24996568  0.50005239  0.25166318  1.0
  O  O18  1  0.25003432  0.50005239  0.75166318  1.0
  O  O19  1  0.75003432  0.49994761  0.75166318  1.0
