# generated using pymatgen
data_Na2Pd(NO3)4
_symmetry_space_group_name_H-M   'P 1'
_cell_length_a   7.25537336
_cell_length_b   8.00078831
_cell_length_c   9.10045123
_cell_angle_alpha   90.00000000
_cell_angle_beta   92.77810750
_cell_angle_gamma   90.00000000
_symmetry_Int_Tables_number   1
_chemical_formula_structural   Na2Pd(NO3)4
_chemical_formula_sum   'Na4 Pd2 N8 O24'
_cell_volume   527.64856206
_cell_formula_units_Z   2
loop_
 _symmetry_equiv_pos_site_id
 _symmetry_equiv_pos_as_xyz
  1  'x, y, z'
loop_
 _atom_site_type_symbol
 _atom_site_label
 _atom_site_symmetry_multiplicity
 _atom_site_fract_x
 _atom_site_fract_y
 _atom_site_fract_z
 _atom_site_occupancy
  Na  Na0  1  0.27910137  0.56911339  0.88177682  1.0
  Na  Na1  1  0.27910137  0.93088661  0.38177682  1.0
  Na  Na2  1  0.72089863  0.06911339  0.61822318  1.0
  Na  Na3  1  0.72089863  0.43088661  0.11822318  1.0
  Pd  Pd4  1  0.00000000  0.00000000  0.00000000  1.0
  Pd  Pd5  1  -0.00000000  0.50000000  0.50000000  1.0
  N  N6  1  0.85727519  0.39813563  0.77728438  1.0
  N  N7  1  0.85727519  0.10186437  0.27728438  1.0
  N  N8  1  0.14272481  0.89813563  0.72271562  1.0
  N  N9  1  0.14272481  0.60186437  0.22271562  1.0
  N  N10  1  0.68393364  0.78686288  0.93444893  1.0
  N  N11  1  0.68393364  0.71313712  0.43444893  1.0
  N  N12  1  0.31606636  0.28686288  0.56555107  1.0
  N  N13  1  0.31606636  0.21313712  0.06555107  1.0
  O  O14  1  0.95129685  0.51860637  0.82145155  1.0
  O  O15  1  0.95129685  0.98139363  0.32145155  1.0
  O  O16  1  0.04870315  0.01860637  0.67854845  1.0
  O  O17  1  0.04870315  0.48139363  0.17854845  1.0
  O  O18  1  0.85477562  0.35535511  0.63678180  1.0
  O  O19  1  0.85477562  0.14464489  0.13678180  1.0
  O  O20  1  0.14522438  0.85535511  0.86321820  1.0
  O  O21  1  0.14522438  0.64464489  0.36321820  1.0
  O  O22  1  0.82493673  0.69375956  0.52909684  1.0
  O  O23  1  0.82493673  0.80624044  0.02909684  1.0
  O  O24  1  0.17506327  0.19375956  0.97090316  1.0
  O  O25  1  0.17506327  0.30624044  0.47090316  1.0
  O  O26  1  0.76110751  0.31076405  0.85578160  1.0
  O  O27  1  0.76110751  0.18923595  0.35578160  1.0
  O  O28  1  0.23889249  0.81076405  0.64421840  1.0
  O  O29  1  0.23889249  0.68923595  0.14421840  1.0
  O  O30  1  0.65028514  0.89033092  0.83650112  1.0
  O  O31  1  0.65028514  0.60966908  0.33650112  1.0
  O  O32  1  0.34971486  0.39033092  0.66349888  1.0
  O  O33  1  0.34971486  0.10966908  0.16349888  1.0
  O  O34  1  0.59009220  0.65829562  0.95280697  1.0
  O  O35  1  0.59009220  0.84170438  0.45280697  1.0
  O  O36  1  0.40990780  0.15829562  0.54719303  1.0
  O  O37  1  0.40990780  0.34170438  0.04719303  1.0
