# generated using pymatgen
data_LiC
_symmetry_space_group_name_H-M   'P 1'
_cell_length_a   11.48770606
_cell_length_b   11.48770606
_cell_length_c   11.48770606
_cell_angle_alpha   167.24324473
_cell_angle_beta   162.56634627
_cell_angle_gamma   21.66150059
_symmetry_Int_Tables_number   1
_chemical_formula_structural   LiC
_chemical_formula_sum   'Li6 C6'
_cell_volume   100.27744346
_cell_formula_units_Z   6
loop_
 _symmetry_equiv_pos_site_id
 _symmetry_equiv_pos_as_xyz
  1  'x, y, z'
loop_
 _atom_site_type_symbol
 _atom_site_label
 _atom_site_symmetry_multiplicity
 _atom_site_fract_x
 _atom_site_fract_y
 _atom_site_fract_z
 _atom_site_occupancy
  Li  Li0  1  0.98790637  0.48790637  0.50000000  1.0
  Li  Li1  1  0.42596336  0.92596336  0.50000000  1.0
  Li  Li2  1  0.33059279  0.33059279  -0.00000000  1.0
  Li  Li3  1  0.09123412  0.09123412  -0.00000000  1.0
  Li  Li4  1  0.19200411  0.69200411  0.50000000  1.0
  Li  Li5  1  0.76116710  0.26116710  0.50000000  1.0
  C  C6  1  0.52715855  0.02715855  0.50000000  1.0
  C  C7  1  0.66110700  0.16110700  0.50000000  1.0
  C  C8  1  0.88565392  0.38565392  0.50000000  1.0
  C  C9  1  0.56022600  0.56022600  1.00000000  1.0
  C  C10  1  0.62776361  0.62776361  1.00000000  1.0
  C  C11  1  0.85322306  0.85322306  1.00000000  1.0
