# generated using pymatgen
data_BaHBr
_symmetry_space_group_name_H-M   'P 1'
_cell_length_a   4.56247719
_cell_length_b   4.56247719
_cell_length_c   7.49889252
_cell_angle_alpha   90.00000000
_cell_angle_beta   90.00000000
_cell_angle_gamma   90.00000000
_symmetry_Int_Tables_number   1
_chemical_formula_structural   BaHBr
_chemical_formula_sum   'Ba2 H2 Br2'
_cell_volume   156.09843216
_cell_formula_units_Z   2
loop_
 _symmetry_equiv_pos_site_id
 _symmetry_equiv_pos_as_xyz
  1  'x, y, z'
loop_
 _atom_site_type_symbol
 _atom_site_label
 _atom_site_symmetry_multiplicity
 _atom_site_fract_x
 _atom_site_fract_y
 _atom_site_fract_z
 _atom_site_occupancy
  Ba  Ba0  1  0.50000000  0.00000000  0.19309929  1.0
  Ba  Ba1  1  0.00000000  0.50000000  0.80690071  1.0
  H  H2  1  0.00000000  0.00000000  0.00000000  1.0
  H  H3  1  0.50000000  0.50000000  0.00000000  1.0
  Br  Br4  1  0.50000000  0.00000000  0.65690906  1.0
  Br  Br5  1  0.00000000  0.50000000  0.34309094  1.0
