# generated using pymatgen
data_Na2CoCl4
_symmetry_space_group_name_H-M   'P 1'
_cell_length_a   13.93874166
_cell_length_b   8.21956951
_cell_length_c   6.41990898
_cell_angle_alpha   90.00000000
_cell_angle_beta   90.00000000
_cell_angle_gamma   90.00000000
_symmetry_Int_Tables_number   1
_chemical_formula_structural   Na2CoCl4
_chemical_formula_sum   'Na8 Co4 Cl16'
_cell_volume   735.53189920
_cell_formula_units_Z   4
loop_
 _symmetry_equiv_pos_site_id
 _symmetry_equiv_pos_as_xyz
  1  'x, y, z'
loop_
 _atom_site_type_symbol
 _atom_site_label
 _atom_site_symmetry_multiplicity
 _atom_site_fract_x
 _atom_site_fract_y
 _atom_site_fract_z
 _atom_site_occupancy
  Co  Co0  1  0.59165215  0.25000000  0.09164428  1.0
  Co  Co1  1  0.09165215  0.25000000  0.40835572  1.0
  Co  Co2  1  0.40834785  0.75000000  0.90835572  1.0
  Co  Co3  1  0.90834785  0.75000000  0.59164428  1.0
  Cl  Cl4  1  0.66495416  0.46921770  0.23727053  1.0
  Cl  Cl5  1  0.66495416  0.03078230  0.23727053  1.0
  Cl  Cl6  1  0.16495416  0.46921770  0.26272947  1.0
  Cl  Cl7  1  0.16495416  0.03078230  0.26272947  1.0
  Cl  Cl8  1  0.33504584  0.96921770  0.76272947  1.0
  Cl  Cl9  1  0.33504584  0.53078230  0.76272947  1.0
  Cl  Cl10  1  0.83504584  0.96921770  0.73727053  1.0
  Cl  Cl11  1  0.83504584  0.53078230  0.73727053  1.0
  Cl  Cl12  1  0.94103326  0.25000000  0.26962804  1.0
  Cl  Cl13  1  0.44103326  0.25000000  0.23037196  1.0
  Cl  Cl14  1  0.05896674  0.75000000  0.73037196  1.0
  Cl  Cl15  1  0.55896674  0.75000000  0.76962804  1.0
  Cl  Cl16  1  0.59236898  0.25000000  0.74132893  1.0
  Cl  Cl17  1  0.09236898  0.25000000  0.75867107  1.0
  Cl  Cl18  1  0.40763102  0.75000000  0.25867107  1.0
  Cl  Cl19  1  0.90763102  0.75000000  0.24132893  1.0
  Na  Na20  1  0.77114501  0.25000000  0.50942066  1.0
  Na  Na21  1  0.27114501  0.25000000  0.99057934  1.0
  Na  Na22  1  0.22885499  0.75000000  0.49057934  1.0
  Na  Na23  1  0.72885499  0.75000000  0.00942066  1.0
  Na  Na24  1  0.00000000  0.50000000  0.00000000  1.0
  Na  Na25  1  0.00000000  0.00000000  0.00000000  1.0
  Na  Na26  1  0.50000000  0.50000000  0.50000000  1.0
  Na  Na27  1  0.50000000  0.00000000  0.50000000  1.0
