# generated using pymatgen
data_Gd3OsO7
_symmetry_space_group_name_H-M   'P 1'
_cell_length_a   6.51953851
_cell_length_b   6.51953851
_cell_length_c   7.49527436
_cell_angle_alpha   90.00000000
_cell_angle_beta   90.00000000
_cell_angle_gamma   69.72587232
_symmetry_Int_Tables_number   1
_chemical_formula_structural   Gd3OsO7
_chemical_formula_sum   'Gd6 Os2 O14'
_cell_volume   298.84441850
_cell_formula_units_Z   2
loop_
 _symmetry_equiv_pos_site_id
 _symmetry_equiv_pos_as_xyz
  1  'x, y, z'
loop_
 _atom_site_type_symbol
 _atom_site_label
 _atom_site_symmetry_multiplicity
 _atom_site_fract_x
 _atom_site_fract_y
 _atom_site_fract_z
 _atom_site_occupancy
  O  O0  1  -0.11074165  1.84514489  0.25000000  1.0
  O  O1  1  0.84514489  0.88925835  0.75000000  1.0
  O  O2  1  -0.84514489  1.11074165  0.25000000  1.0
  O  O3  1  0.11074165  0.15485511  0.75000000  1.0
  O  O4  1  -0.18432842  1.43772179  0.46380421  1.0
  O  O5  1  -0.18432842  1.43772179  0.03619579  1.0
  O  O6  1  0.43772179  0.81567158  0.96380421  1.0
  O  O7  1  0.43772179  0.81567158  0.53619579  1.0
  O  O8  1  -0.43772179  1.18432842  0.46380421  1.0
  O  O9  1  -0.43772179  1.18432842  0.03619579  1.0
  O  O10  1  0.18432842  0.56227821  0.96380421  1.0
  O  O11  1  0.18432842  0.56227821  0.53619579  1.0
  O  O12  1  0.41668410  0.58331590  0.25000000  1.0
  O  O13  1  -0.41668410  1.41668410  0.75000000  1.0
  Os  Os14  1  0.50000000  0.50000000  0.50000000  1.0
  Os  Os15  1  0.50000000  0.50000000  0.00000000  1.0
  Gd  Gd16  1  0.00000000  0.00000000  0.50000000  1.0
  Gd  Gd17  1  0.00000000  0.00000000  0.00000000  1.0
  Gd  Gd18  1  0.06707090  0.48025229  0.25000000  1.0
  Gd  Gd19  1  -0.51974771  1.06707090  0.75000000  1.0
  Gd  Gd20  1  0.51974771  0.93292910  0.25000000  1.0
  Gd  Gd21  1  -0.06707090  1.51974771  0.75000000  1.0
