# generated using pymatgen
data_Gd2SiO5
_symmetry_space_group_name_H-M   'P 1'
_cell_length_a   9.16639438
_cell_length_b   7.32977998
_cell_length_c   6.73543760
_cell_angle_alpha   90.00000000
_cell_angle_beta   107.98956149
_cell_angle_gamma   90.00000000
_symmetry_Int_Tables_number   1
_chemical_formula_structural   Gd2SiO5
_chemical_formula_sum   'Gd8 Si4 O20'
_cell_volume   430.41492315
_cell_formula_units_Z   4
loop_
 _symmetry_equiv_pos_site_id
 _symmetry_equiv_pos_as_xyz
  1  'x, y, z'
loop_
 _atom_site_type_symbol
 _atom_site_label
 _atom_site_symmetry_multiplicity
 _atom_site_fract_x
 _atom_site_fract_y
 _atom_site_fract_z
 _atom_site_occupancy
  Gd  Gd0  1  0.98062449  0.37292063  0.26916751  1.0
  Gd  Gd1  1  0.98062449  0.12707937  0.76916751  1.0
  Gd  Gd2  1  0.01937551  0.87292063  0.23083249  1.0
  Gd  Gd3  1  0.01937551  0.62707937  0.73083249  1.0
  Gd  Gd4  1  0.61197992  0.34347293  0.41084106  1.0
  Gd  Gd5  1  0.61197992  0.15652707  0.91084106  1.0
  Gd  Gd6  1  0.38802008  0.84347293  0.08915894  1.0
  Gd  Gd7  1  0.38802008  0.65652707  0.58915894  1.0
  Si  Si8  1  0.70122849  0.92115742  0.45867141  1.0
  Si  Si9  1  0.70122849  0.57884258  0.95867141  1.0
  Si  Si10  1  0.29877151  0.42115742  0.04132859  1.0
  Si  Si11  1  0.29877151  0.07884258  0.54132859  1.0
  O  O12  1  0.88726775  0.12159202  0.05458416  1.0
  O  O13  1  0.88726775  0.37840798  0.55458416  1.0
  O  O14  1  0.11273225  0.62159202  0.44541584  1.0
  O  O15  1  0.11273225  0.87840798  0.94541584  1.0
  O  O16  1  0.71089379  0.42256508  0.14161455  1.0
  O  O17  1  0.71089379  0.07743492  0.64161455  1.0
  O  O18  1  0.28910621  0.92256508  0.35838545  1.0
  O  O19  1  0.28910621  0.57743492  0.85838545  1.0
  O  O20  1  0.62927277  0.04176764  0.24462347  1.0
  O  O21  1  0.62927277  0.45823236  0.74462347  1.0
  O  O22  1  0.37072723  0.54176764  0.25537653  1.0
  O  O23  1  0.37072723  0.95823236  0.75537653  1.0
  O  O24  1  0.41175491  0.25156573  0.04803991  1.0
  O  O25  1  0.41175491  0.24843427  0.54803991  1.0
  O  O26  1  0.58824509  0.75156573  0.45196009  1.0
  O  O27  1  0.58824509  0.74843427  0.95196009  1.0
  O  O28  1  0.11691274  0.13591327  0.49615486  1.0
  O  O29  1  0.11691274  0.36408673  0.99615486  1.0
  O  O30  1  0.88308726  0.63591327  0.00384514  1.0
  O  O31  1  0.88308726  0.86408673  0.50384514  1.0
