# generated using pymatgen
data_BaInCo4O7
_symmetry_space_group_name_H-M   'P 1'
_cell_length_a   6.22108813
_cell_length_b   6.22108813
_cell_length_c   10.17355161
_cell_angle_alpha   90.00000000
_cell_angle_beta   90.00000000
_cell_angle_gamma   120.00000000
_symmetry_Int_Tables_number   1
_chemical_formula_structural   BaInCo4O7
_chemical_formula_sum   'Ba2 In2 Co8 O14'
_cell_volume   340.98551582
_cell_formula_units_Z   2
loop_
 _symmetry_equiv_pos_site_id
 _symmetry_equiv_pos_as_xyz
  1  'x, y, z'
loop_
 _atom_site_type_symbol
 _atom_site_label
 _atom_site_symmetry_multiplicity
 _atom_site_fract_x
 _atom_site_fract_y
 _atom_site_fract_z
 _atom_site_occupancy
  Ba  Ba0  1  0.33333333  0.66666667  0.44456855  1.0
  Ba  Ba1  1  0.66666667  0.33333333  0.94456855  1.0
  In  In2  1  0.33333333  0.66666667  0.06814878  1.0
  In  In3  1  0.66666667  0.33333333  0.56814878  1.0
  Co  Co4  1  0.32350371  0.16175186  0.24945902  1.0
  Co  Co5  1  0.16175186  0.32350371  0.74945902  1.0
  Co  Co6  1  0.16175186  0.83824814  0.74945902  1.0
  Co  Co7  1  0.83824814  0.16175186  0.24945902  1.0
  Co  Co8  1  0.83824814  0.67649629  0.24945902  1.0
  Co  Co9  1  0.67649629  0.83824814  0.74945902  1.0
  Co  Co10  1  -0.00000000  -0.00000000  -0.04330338  1.0
  Co  Co11  1  -0.00000000  -0.00000000  0.45669662  1.0
  O  O12  1  -0.00264974  0.49867513  0.18765774  1.0
  O  O13  1  0.49867513  -0.00264974  0.68765774  1.0
  O  O14  1  0.49867513  0.50132487  0.68765774  1.0
  O  O15  1  0.50132487  0.49867513  0.18765774  1.0
  O  O16  1  0.50132487  1.00264974  0.18765774  1.0
  O  O17  1  1.00264974  0.50132487  0.68765774  1.0
  O  O18  1  0.34529357  0.17264678  0.43708429  1.0
  O  O19  1  0.17264678  0.34529357  0.93708429  1.0
  O  O20  1  0.17264678  0.82735322  0.93708429  1.0
  O  O21  1  0.82735322  0.17264678  0.43708429  1.0
  O  O22  1  0.82735322  0.65470643  0.43708429  1.0
  O  O23  1  0.65470643  0.82735322  0.93708429  1.0
  O  O24  1  -0.00000000  -0.00000000  0.16158289  1.0
  O  O25  1  -0.00000000  -0.00000000  0.66158289  1.0
