# generated using pymatgen
data_Ba11(CdSb2)6
_symmetry_space_group_name_H-M   'P 1'
_cell_length_a   17.49002878
_cell_length_b   17.49002878
_cell_length_c   13.38685555
_cell_angle_alpha   70.37455121
_cell_angle_beta   109.62544879
_cell_angle_gamma   163.69409631
_symmetry_Int_Tables_number   1
_chemical_formula_structural   Ba11(CdSb2)6
_chemical_formula_sum   'Ba11 Cd6 Sb12'
_cell_volume   1081.54536397
_cell_formula_units_Z   1
loop_
 _symmetry_equiv_pos_site_id
 _symmetry_equiv_pos_as_xyz
  1  'x, y, z'
loop_
 _atom_site_type_symbol
 _atom_site_label
 _atom_site_symmetry_multiplicity
 _atom_site_fract_x
 _atom_site_fract_y
 _atom_site_fract_z
 _atom_site_occupancy
  Ba  Ba0  1  0.98219742  -0.98219742  0.32064189  1.0
  Ba  Ba1  1  1.01780258  -0.01780258  0.67935811  1.0
  Ba  Ba2  1  0.88689376  -0.88689376  0.49035460  1.0
  Ba  Ba3  1  1.11310624  -0.11310624  0.50964540  1.0
  Ba  Ba4  1  0.87377102  -0.87377102  0.98072355  1.0
  Ba  Ba5  1  1.12622898  -0.12622898  0.01927645  1.0
  Ba  Ba6  1  0.80042591  -0.80042591  0.65333089  1.0
  Ba  Ba7  1  1.19957409  -0.19957409  0.34666911  1.0
  Ba  Ba8  1  0.71948771  -0.71948771  0.86400150  1.0
  Ba  Ba9  1  1.28051229  -0.28051229  0.13599850  1.0
  Ba  Ba10  1  0.00000000  0.00000000  0.00000000  1.0
  Cd  Cd11  1  0.78160568  -0.78160568  0.32975192  1.0
  Cd  Cd12  1  1.21839432  -0.21839432  0.67024808  1.0
  Cd  Cd13  1  0.59938692  -0.59938692  0.74621763  1.0
  Cd  Cd14  1  1.40061308  -0.40061308  0.25378237  1.0
  Cd  Cd15  1  1.45393015  -0.45393015  0.76121269  1.0
  Cd  Cd16  1  0.54606985  -0.54606985  0.23878731  1.0
  Sb  Sb17  1  0.91323676  -0.91323676  0.76429832  1.0
  Sb  Sb18  1  1.08676324  -0.08676324  0.23570168  1.0
  Sb  Sb19  1  0.85288048  -0.85288048  0.21696120  1.0
  Sb  Sb20  1  1.14711952  -0.14711952  0.78303880  1.0
  Sb  Sb21  1  0.69250438  -0.69250438  0.54298189  1.0
  Sb  Sb22  1  1.30749562  -0.30749562  0.45701811  1.0
  Sb  Sb23  1  0.54655174  -0.54655174  0.88030016  1.0
  Sb  Sb24  1  1.45344826  -0.45344826  0.11969984  1.0
  Sb  Sb25  1  0.54200353  -0.54200353  0.50667360  1.0
  Sb  Sb26  1  1.45799647  -0.45799647  0.49332640  1.0
  Sb  Sb27  1  1.29333282  -0.29333282  0.85637277  1.0
  Sb  Sb28  1  0.70666718  -0.70666718  0.14362723  1.0
