# generated using pymatgen
data_CCl4
_symmetry_space_group_name_H-M   'P 1'
_cell_length_a   12.54030915
_cell_length_b   12.54030915
_cell_length_c   21.52319903
_cell_angle_alpha   72.62718426
_cell_angle_beta   107.37281574
_cell_angle_gamma   120.65915722
_symmetry_Int_Tables_number   1
_chemical_formula_structural   CCl4
_chemical_formula_sum   'C16 Cl64'
_cell_volume   2734.27774333
_cell_formula_units_Z   16
loop_
 _symmetry_equiv_pos_site_id
 _symmetry_equiv_pos_as_xyz
  1  'x, y, z'
loop_
 _atom_site_type_symbol
 _atom_site_label
 _atom_site_symmetry_multiplicity
 _atom_site_fract_x
 _atom_site_fract_y
 _atom_site_fract_z
 _atom_site_occupancy
  C  C0  1  1.42886578  -0.36633857  0.12144747  1.0
  C  C1  1  1.36633857  -0.42886578  0.62144747  1.0
  C  C2  1  0.63366143  0.42886578  0.37855253  1.0
  C  C3  1  0.57113422  0.36633857  0.87855253  1.0
  C  C4  1  0.67966044  -0.07128506  0.37809499  1.0
  C  C5  1  1.07128506  -0.67966044  0.87809499  1.0
  C  C6  1  0.92871494  0.67966044  0.12190501  1.0
  C  C7  1  1.32033956  0.07128506  0.62190501  1.0
  C  C8  1  0.43519715  0.13164493  0.12653155  1.0
  C  C9  1  0.86835507  -0.43519715  0.62653155  1.0
  C  C10  1  1.13164493  0.43519715  0.37346845  1.0
  C  C11  1  1.56480285  -0.13164493  0.87346845  1.0
  C  C12  1  0.17805749  -0.06649379  0.37786019  1.0
  C  C13  1  1.06649379  0.82194251  0.87786019  1.0
  C  C14  1  0.93350621  -0.82194251  0.12213981  1.0
  C  C15  1  1.82194251  0.06649379  0.62213981  1.0
  Cl  Cl16  1  0.83995170  -0.04089410  0.39742008  1.0
  Cl  Cl17  1  1.04089410  -0.83995170  0.89742008  1.0
  Cl  Cl18  1  0.95910590  0.83995170  0.10257992  1.0
  Cl  Cl19  1  1.16004830  0.04089410  0.60257992  1.0
  Cl  Cl20  1  1.65982467  -0.18149883  0.94289489  1.0
  Cl  Cl21  1  1.18149883  0.34017533  0.44289489  1.0
  Cl  Cl22  1  0.81850117  -0.34017533  0.55710511  1.0
  Cl  Cl23  1  0.34017533  0.18149883  0.05710511  1.0
  Cl  Cl24  1  1.57850657  -0.23277268  0.13564591  1.0
  Cl  Cl25  1  1.23277268  -0.57850657  0.63564591  1.0
  Cl  Cl26  1  0.76722732  0.57850657  0.36435409  1.0
  Cl  Cl27  1  0.42149343  0.23277268  0.86435409  1.0
  Cl  Cl28  1  1.86122867  0.09026370  0.19324867  1.0
  Cl  Cl29  1  0.90973630  -0.86122867  0.69324867  1.0
  Cl  Cl30  1  1.09026370  0.86122867  0.30675133  1.0
  Cl  Cl31  1  0.13877133  -0.09026370  0.80675133  1.0
  Cl  Cl32  1  0.60268045  -0.17451973  0.44590078  1.0
  Cl  Cl33  1  1.17451973  -0.60268045  0.94590078  1.0
  Cl  Cl34  1  0.82548027  0.60268045  0.05409922  1.0
  Cl  Cl35  1  1.39731955  0.17451973  0.55409922  1.0
  Cl  Cl36  1  0.60283425  -0.14316452  0.30636058  1.0
  Cl  Cl37  1  1.14316452  -0.60283425  0.80636058  1.0
  Cl  Cl38  1  0.85683548  0.60283425  0.19363942  1.0
  Cl  Cl39  1  1.39716575  0.14316452  0.69363942  1.0
  Cl  Cl40  1  1.83343783  0.10708737  0.05198930  1.0
  Cl  Cl41  1  0.89291263  -0.83343783  0.55198930  1.0
  Cl  Cl42  1  1.10708737  0.83343783  0.44801070  1.0
  Cl  Cl43  1  0.16656217  -0.10708737  0.94801070  1.0
  Cl  Cl44  1  0.67288416  0.07302269  0.36248287  1.0
  Cl  Cl45  1  0.92697731  -0.67288416  0.86248287  1.0
  Cl  Cl46  1  1.07302269  0.67288416  0.13751713  1.0
  Cl  Cl47  1  1.32711584  -0.07302269  0.63751713  1.0
  Cl  Cl48  1  0.46149588  0.01948370  0.10710213  1.0
  Cl  Cl49  1  0.98051630  -0.46149588  0.60710213  1.0
  Cl  Cl50  1  1.01948370  0.46149588  0.39289787  1.0
  Cl  Cl51  1  1.53850412  -0.01948370  0.89289787  1.0
  Cl  Cl52  1  0.33567515  -0.04225141  0.39213918  1.0
  Cl  Cl53  1  1.04225141  0.66432485  0.89213918  1.0
  Cl  Cl54  1  0.95774859  -0.66432485  0.10786082  1.0
  Cl  Cl55  1  1.66432485  0.04225141  0.60786082  1.0
  Cl  Cl56  1  0.66889584  0.32141301  0.94837960  1.0
  Cl  Cl57  1  0.67858699  0.33110416  0.44837960  1.0
  Cl  Cl58  1  1.32141301  -0.33110416  0.55162040  1.0
  Cl  Cl59  1  1.33110416  -0.32141301  0.05162040  1.0
  Cl  Cl60  1  0.58242105  0.26451683  0.14597717  1.0
  Cl  Cl61  1  0.73548317  -0.58242105  0.64597717  1.0
  Cl  Cl62  1  1.26451683  0.58242105  0.35402283  1.0
  Cl  Cl63  1  1.41757895  -0.26451683  0.85402283  1.0
  Cl  Cl64  1  0.35659801  0.06177255  0.19572726  1.0
  Cl  Cl65  1  0.93822745  -0.35659801  0.69572726  1.0
  Cl  Cl66  1  1.06177255  0.35659801  0.30427274  1.0
  Cl  Cl67  1  1.64340199  -0.06177255  0.80427274  1.0
  Cl  Cl68  1  0.57554027  0.35671514  0.30748568  1.0
  Cl  Cl69  1  0.64328486  0.42445973  0.80748568  1.0
  Cl  Cl70  1  1.35671514  -0.42445973  0.19251432  1.0
  Cl  Cl71  1  1.42445973  -0.35671514  0.69251432  1.0
  Cl  Cl72  1  0.17881626  0.08099485  0.36446766  1.0
  Cl  Cl73  1  0.91900515  0.82118374  0.86446766  1.0
  Cl  Cl74  1  1.08099485  -0.82118374  0.13553234  1.0
  Cl  Cl75  1  1.82118374  -0.08099485  0.63553234  1.0
  Cl  Cl76  1  0.51392358  0.44921096  0.39399865  1.0
  Cl  Cl77  1  0.55078904  0.48607642  0.89399865  1.0
  Cl  Cl78  1  1.44921096  -0.48607642  0.10600135  1.0
  Cl  Cl79  1  1.48607642  -0.44921096  0.60600135  1.0
