# generated using pymatgen
data_Al5C3N
_symmetry_space_group_name_H-M   'P 1'
_cell_length_a   3.30939268
_cell_length_b   3.30939268
_cell_length_c   21.84333006
_cell_angle_alpha   90.00000000
_cell_angle_beta   90.00000000
_cell_angle_gamma   120.00000000
_symmetry_Int_Tables_number   1
_chemical_formula_structural   Al5C3N
_chemical_formula_sum   'Al10 C6 N2'
_cell_volume   207.17916822
_cell_formula_units_Z   2
loop_
 _symmetry_equiv_pos_site_id
 _symmetry_equiv_pos_as_xyz
  1  'x, y, z'
loop_
 _atom_site_type_symbol
 _atom_site_label
 _atom_site_symmetry_multiplicity
 _atom_site_fract_x
 _atom_site_fract_y
 _atom_site_fract_z
 _atom_site_occupancy
  Al  Al0  1  0.33333333  0.66666667  0.04717775  1.0
  Al  Al1  1  0.66666667  0.33333333  0.54717775  1.0
  Al  Al2  1  0.33333333  0.66666667  0.23739431  1.0
  Al  Al3  1  0.66666667  0.33333333  0.73739431  1.0
  Al  Al4  1  0.33333333  0.66666667  0.45540764  1.0
  Al  Al5  1  0.66666667  0.33333333  0.95540764  1.0
  Al  Al6  1  0.00000000  0.00000000  0.15238678  1.0
  Al  Al7  1  0.00000000  0.00000000  0.65238678  1.0
  Al  Al8  1  0.00000000  0.00000000  0.34090738  1.0
  Al  Al9  1  0.00000000  0.00000000  0.84090738  1.0
  C  C10  1  0.33333333  0.66666667  0.13426192  1.0
  C  C11  1  0.66666667  0.33333333  0.63426192  1.0
  C  C12  1  0.00000000  0.00000000  -0.00200615  1.0
  C  C13  1  0.00000000  0.00000000  0.49799385  1.0
  C  C14  1  0.00000000  0.00000000  0.25109036  1.0
  C  C15  1  0.00000000  0.00000000  0.75109036  1.0
  N  N16  1  0.33333333  0.66666667  0.37038001  1.0
  N  N17  1  0.66666667  0.33333333  0.87038001  1.0
