# generated using pymatgen
data_CuSb2(XeF5)4
_symmetry_space_group_name_H-M   'P 1'
_cell_length_a   9.29928591
_cell_length_b   9.29928591
_cell_length_c   9.29928591
_cell_angle_alpha   102.17944103
_cell_angle_beta   102.17944103
_cell_angle_gamma   125.31363791
_symmetry_Int_Tables_number   1
_chemical_formula_structural   CuSb2(XeF5)4
_chemical_formula_sum   'Cu1 Sb2 Xe4 F20'
_cell_volume   582.88732389
_cell_formula_units_Z   1
loop_
 _symmetry_equiv_pos_site_id
 _symmetry_equiv_pos_as_xyz
  1  'x, y, z'
loop_
 _atom_site_type_symbol
 _atom_site_label
 _atom_site_symmetry_multiplicity
 _atom_site_fract_x
 _atom_site_fract_y
 _atom_site_fract_z
 _atom_site_occupancy
  F  F0  1  0.64483611  0.37796631  0.51636494  1.0
  F  F1  1  0.87152883  0.35516389  0.73313020  1.0
  F  F2  1  0.86160137  1.12847117  1.48363506  1.0
  F  F3  1  0.62203369  1.13839863  1.26686980  1.0
  F  F4  1  1.86277439  1.89759579  1.77027584  1.0
  F  F5  1  0.90750145  1.13722561  1.03482141  1.0
  F  F6  1  1.12731996  1.09249855  0.22972416  1.0
  F  F7  1  1.10240421  0.87268004  0.96517859  1.0
  F  F8  1  1.42259956  1.54350872  1.39830189  1.0
  F  F9  1  0.97570233  1.57740044  1.12090915  1.0
  F  F10  1  1.14520683  1.02429767  0.60169811  1.0
  F  F11  1  1.45649128  0.85479317  0.87909085  1.0
  F  F12  1  0.97659053  0.47659053  0.50000000  1.0
  F  F13  1  0.52340947  0.02340947  0.50000000  1.0
  F  F14  1  0.77082478  0.77082478  -0.00000000  1.0
  F  F15  1  0.22917522  0.22917522  -0.00000000  1.0
  F  F16  1  1.32866449  1.44667537  1.79807576  1.0
  F  F17  1  0.46941127  0.67133551  1.11801089  1.0
  F  F18  1  0.64859961  0.53058873  0.20192424  1.0
  F  F19  1  0.55332463  0.35140039  0.88198911  1.0
  Sb  Sb20  1  0.75000000  0.25000000  0.50000000  1.0
  Sb  Sb21  1  0.00000000  0.00000000  0.00000000  1.0
  Cu  Cu22  1  0.50000000  0.50000000  0.00000000  1.0
  Xe  Xe23  1  1.37806723  1.49210336  1.58925966  1.0
  Xe  Xe24  1  1.21119243  1.62193277  1.11403614  1.0
  Xe  Xe25  1  0.90284370  0.78880757  0.41074034  1.0
  Xe  Xe26  1  1.50789664  1.09715630  0.88596386  1.0
