# generated using pymatgen
data_LiMnO4
_symmetry_space_group_name_H-M   'P 1'
_cell_length_a   5.05070825
_cell_length_b   5.05070825
_cell_length_c   6.58454329
_cell_angle_alpha   90.00000000
_cell_angle_beta   90.00000000
_cell_angle_gamma   113.74587605
_symmetry_Int_Tables_number   1
_chemical_formula_structural   LiMnO4
_chemical_formula_sum   'Li2 Mn2 O8'
_cell_volume   153.74920679
_cell_formula_units_Z   2
loop_
 _symmetry_equiv_pos_site_id
 _symmetry_equiv_pos_as_xyz
  1  'x, y, z'
loop_
 _atom_site_type_symbol
 _atom_site_label
 _atom_site_symmetry_multiplicity
 _atom_site_fract_x
 _atom_site_fract_y
 _atom_site_fract_z
 _atom_site_occupancy
  Li  Li0  1  0.00000000  0.00000000  0.50000000  1.0
  Li  Li1  1  0.00000000  0.00000000  0.00000000  1.0
  Mn  Mn2  1  0.35265000  0.64735000  0.25000000  1.0
  Mn  Mn3  1  -0.35265000  1.35265000  0.75000000  1.0
  O  O4  1  0.22233902  0.29581864  0.25000000  1.0
  O  O5  1  -0.70418136  1.22233902  0.75000000  1.0
  O  O6  1  0.70418136  0.77766098  0.25000000  1.0
  O  O7  1  -0.22233902  1.70418136  0.75000000  1.0
  O  O8  1  0.24349836  0.75650164  0.44805835  1.0
  O  O9  1  0.24349836  0.75650164  0.05194165  1.0
  O  O10  1  -0.24349836  1.24349836  0.94805835  1.0
  O  O11  1  -0.24349836  1.24349836  0.55194165  1.0
