# generated using pymatgen
data_BaCa4(CuN2)2
_symmetry_space_group_name_H-M   'P 1'
_cell_length_a   8.27477378
_cell_length_b   8.27477378
_cell_length_c   12.49140740
_cell_angle_alpha   90.00000000
_cell_angle_beta   90.00000000
_cell_angle_gamma   90.00000000
_symmetry_Int_Tables_number   1
_chemical_formula_structural   BaCa4(CuN2)2
_chemical_formula_sum   'Ba4 Ca16 Cu8 N16'
_cell_volume   855.31016238
_cell_formula_units_Z   4
loop_
 _symmetry_equiv_pos_site_id
 _symmetry_equiv_pos_as_xyz
  1  'x, y, z'
loop_
 _atom_site_type_symbol
 _atom_site_label
 _atom_site_symmetry_multiplicity
 _atom_site_fract_x
 _atom_site_fract_y
 _atom_site_fract_z
 _atom_site_occupancy
  Ba  Ba0  1  0.00000000  0.50000000  0.34447247  1.0
  Ba  Ba1  1  0.00000000  0.50000000  0.84447247  1.0
  Ba  Ba2  1  0.50000000  0.00000000  0.65552753  1.0
  Ba  Ba3  1  0.50000000  0.00000000  0.15552753  1.0
  Ca  Ca4  1  0.38060937  0.33364778  0.41260695  1.0
  Ca  Ca5  1  0.61939063  0.33364778  0.91260695  1.0
  Ca  Ca6  1  0.38060937  0.66635222  0.91260695  1.0
  Ca  Ca7  1  0.61939063  0.66635222  0.41260695  1.0
  Ca  Ca8  1  0.83364778  0.88060937  0.91260695  1.0
  Ca  Ca9  1  0.16635222  0.88060937  0.41260695  1.0
  Ca  Ca10  1  0.83364778  0.11939063  0.41260695  1.0
  Ca  Ca11  1  0.16635222  0.11939063  0.91260695  1.0
  Ca  Ca12  1  0.11939063  0.16635222  0.58739305  1.0
  Ca  Ca13  1  0.88060937  0.16635222  0.08739305  1.0
  Ca  Ca14  1  0.11939063  0.83364778  0.08739305  1.0
  Ca  Ca15  1  0.88060937  0.83364778  0.58739305  1.0
  Ca  Ca16  1  0.66635222  0.61939063  0.08739305  1.0
  Ca  Ca17  1  0.33364778  0.61939063  0.58739305  1.0
  Ca  Ca18  1  0.66635222  0.38060937  0.58739305  1.0
  Ca  Ca19  1  0.33364778  0.38060937  0.08739305  1.0
  Cu  Cu20  1  0.34707977  0.65292023  0.25000000  1.0
  Cu  Cu21  1  0.65292023  0.65292023  0.75000000  1.0
  Cu  Cu22  1  0.34707977  0.34707977  0.75000000  1.0
  Cu  Cu23  1  0.65292023  0.34707977  0.25000000  1.0
  Cu  Cu24  1  0.15292023  0.84707977  0.75000000  1.0
  Cu  Cu25  1  0.84707977  0.84707977  0.25000000  1.0
  Cu  Cu26  1  0.15292023  0.15292023  0.25000000  1.0
  Cu  Cu27  1  0.84707977  0.15292023  0.75000000  1.0
  N  N28  1  0.87425144  0.81945525  0.39702715  1.0
  N  N29  1  0.12574856  0.81945525  0.89702715  1.0
  N  N30  1  0.87425144  0.18054475  0.89702715  1.0
  N  N31  1  0.12574856  0.18054475  0.39702715  1.0
  N  N32  1  0.31945525  0.37425144  0.89702715  1.0
  N  N33  1  0.68054475  0.37425144  0.39702715  1.0
  N  N34  1  0.31945525  0.62574856  0.39702715  1.0
  N  N35  1  0.68054475  0.62574856  0.89702715  1.0
  N  N36  1  0.62574856  0.68054475  0.60297285  1.0
  N  N37  1  0.37425144  0.68054475  0.10297285  1.0
  N  N38  1  0.62574856  0.31945525  0.10297285  1.0
  N  N39  1  0.37425144  0.31945525  0.60297285  1.0
  N  N40  1  0.18054475  0.12574856  0.10297285  1.0
  N  N41  1  0.81945525  0.12574856  0.60297285  1.0
  N  N42  1  0.18054475  0.87425144  0.60297285  1.0
  N  N43  1  0.81945525  0.87425144  0.10297285  1.0
