# generated using pymatgen
data_Gd3GaNiSe7
_symmetry_space_group_name_H-M   'P 1'
_cell_length_a   10.08552667
_cell_length_b   10.08552667
_cell_length_c   6.54364222
_cell_angle_alpha   90.00000000
_cell_angle_beta   90.00000000
_cell_angle_gamma   120.00000000
_symmetry_Int_Tables_number   1
_chemical_formula_structural   Gd3GaNiSe7
_chemical_formula_sum   'Gd6 Ga2 Ni2 Se14'
_cell_volume   576.43101732
_cell_formula_units_Z   2
loop_
 _symmetry_equiv_pos_site_id
 _symmetry_equiv_pos_as_xyz
  1  'x, y, z'
loop_
 _atom_site_type_symbol
 _atom_site_label
 _atom_site_symmetry_multiplicity
 _atom_site_fract_x
 _atom_site_fract_y
 _atom_site_fract_z
 _atom_site_occupancy
  Ni  Ni0  1  0.00000000  0.00000000  0.49068381  1.0
  Ni  Ni1  1  0.00000000  0.00000000  0.99068381  1.0
  Se  Se2  1  0.43825295  0.52078664  0.55554064  1.0
  Se  Se3  1  0.08253369  0.56174705  0.55554064  1.0
  Se  Se4  1  0.47921336  0.91746631  0.55554064  1.0
  Se  Se5  1  0.56174705  0.47921336  0.05554064  1.0
  Se  Se6  1  0.91746631  0.43825295  0.05554064  1.0
  Se  Se7  1  0.52078664  0.08253369  0.05554064  1.0
  Se  Se8  1  0.66666667  0.33333333  0.53324064  1.0
  Se  Se9  1  0.33333333  0.66666667  0.03324064  1.0
  Se  Se10  1  0.87079714  0.10186452  0.72955168  1.0
  Se  Se11  1  0.23106738  0.12920286  0.72955168  1.0
  Se  Se12  1  0.89813548  0.76893262  0.72955168  1.0
  Se  Se13  1  0.12920286  0.89813548  0.22955168  1.0
  Se  Se14  1  0.76893262  0.87079714  0.22955168  1.0
  Se  Se15  1  0.10186452  0.23106738  0.22955168  1.0
  Gd  Gd16  1  0.15979385  0.37491632  0.82409802  1.0
  Gd  Gd17  1  0.21512247  0.84020615  0.82409802  1.0
  Gd  Gd18  1  0.62508368  0.78487753  0.82409802  1.0
  Gd  Gd19  1  0.84020615  0.62508368  0.32409802  1.0
  Gd  Gd20  1  0.78487753  0.15979385  0.32409802  1.0
  Gd  Gd21  1  0.37491632  0.21512247  0.32409802  1.0
  Ga  Ga22  1  0.66666667  0.33333333  0.90230453  1.0
  Ga  Ga23  1  0.33333333  0.66666667  0.40230453  1.0
