# generated using pymatgen
data_YbB4
_symmetry_space_group_name_H-M   'P 1'
_cell_length_a   7.08314836
_cell_length_b   7.08314836
_cell_length_c   4.00858119
_cell_angle_alpha   90.00000000
_cell_angle_beta   90.00000000
_cell_angle_gamma   90.00000000
_symmetry_Int_Tables_number   1
_chemical_formula_structural   YbB4
_chemical_formula_sum   'Yb4 B16'
_cell_volume   201.11448998
_cell_formula_units_Z   4
loop_
 _symmetry_equiv_pos_site_id
 _symmetry_equiv_pos_as_xyz
  1  'x, y, z'
loop_
 _atom_site_type_symbol
 _atom_site_label
 _atom_site_symmetry_multiplicity
 _atom_site_fract_x
 _atom_site_fract_y
 _atom_site_fract_z
 _atom_site_occupancy
  Yb  Yb0  1  0.31404876  0.18595124  0.50000000  1.0
  Yb  Yb1  1  0.81404876  0.31404876  0.50000000  1.0
  Yb  Yb2  1  0.68595124  0.81404876  0.50000000  1.0
  Yb  Yb3  1  0.18595124  0.68595124  0.50000000  1.0
  B  B4  1  0.46267483  0.67663756  0.00000000  1.0
  B  B5  1  0.96267483  0.82336244  0.00000000  1.0
  B  B6  1  0.32336244  0.46267483  0.00000000  1.0
  B  B7  1  0.82336244  0.03732517  0.00000000  1.0
  B  B8  1  0.53732517  0.32336244  0.00000000  1.0
  B  B9  1  0.03732517  0.17663756  0.00000000  1.0
  B  B10  1  0.67663756  0.53732517  0.00000000  1.0
  B  B11  1  0.17663756  0.96267483  0.00000000  1.0
  B  B12  1  0.91324107  0.58675893  0.00000000  1.0
  B  B13  1  0.41324107  0.91324107  0.00000000  1.0
  B  B14  1  0.08675893  0.41324107  0.00000000  1.0
  B  B15  1  0.58675893  0.08675893  0.00000000  1.0
  B  B16  1  0.50000000  0.50000000  0.70237925  1.0
  B  B17  1  0.50000000  0.50000000  0.29762075  1.0
  B  B18  1  0.00000000  0.00000000  0.70237925  1.0
  B  B19  1  0.00000000  0.00000000  0.29762075  1.0
