# generated using pymatgen
data_NaGaP2O7
_symmetry_space_group_name_H-M   'P 1'
_cell_length_a   7.38614401
_cell_length_b   7.94991532
_cell_length_c   9.56978359
_cell_angle_alpha   90.00000000
_cell_angle_beta   111.89515433
_cell_angle_gamma   90.00000000
_symmetry_Int_Tables_number   1
_chemical_formula_structural   NaGaP2O7
_chemical_formula_sum   'Na4 Ga4 P8 O28'
_cell_volume   521.39695671
_cell_formula_units_Z   4
loop_
 _symmetry_equiv_pos_site_id
 _symmetry_equiv_pos_as_xyz
  1  'x, y, z'
loop_
 _atom_site_type_symbol
 _atom_site_label
 _atom_site_symmetry_multiplicity
 _atom_site_fract_x
 _atom_site_fract_y
 _atom_site_fract_z
 _atom_site_occupancy
  Na  Na0  1  0.70967673  0.52502944  0.70409487  1.0
  Na  Na1  1  0.70967673  0.97497056  0.20409487  1.0
  Na  Na2  1  0.29032327  0.02502944  0.79590513  1.0
  Na  Na3  1  0.29032327  0.47497056  0.29590513  1.0
  Ga  Ga4  1  0.74163479  0.99265261  0.75132414  1.0
  Ga  Ga5  1  0.74163479  0.50734739  0.25132414  1.0
  Ga  Ga6  1  0.25836521  0.49265261  0.74867586  1.0
  Ga  Ga7  1  0.25836521  0.00734739  0.24867586  1.0
  P  P8  1  0.92655703  0.74473151  0.54570996  1.0
  P  P9  1  0.92655703  0.75526849  0.04570996  1.0
  P  P10  1  0.07344297  0.24473151  0.95429004  1.0
  P  P11  1  0.07344297  0.25526849  0.45429004  1.0
  P  P12  1  0.67170308  0.29115708  0.95232468  1.0
  P  P13  1  0.67170308  0.20884292  0.45232468  1.0
  P  P14  1  0.32829692  0.79115708  0.54767532  1.0
  P  P15  1  0.32829692  0.70884292  0.04767532  1.0
  O  O16  1  0.81361713  0.78768731  0.87735950  1.0
  O  O17  1  0.81361713  0.71231269  0.37735950  1.0
  O  O18  1  0.18638287  0.28768731  0.62264050  1.0
  O  O19  1  0.18638287  0.21231269  0.12264050  1.0
  O  O20  1  0.80987322  0.86295241  0.60429479  1.0
  O  O21  1  0.80987322  0.63704759  0.10429479  1.0
  O  O22  1  0.19012678  0.36295241  0.89570521  1.0
  O  O23  1  0.19012678  0.13704759  0.39570521  1.0
  O  O24  1  0.87660294  0.34935434  0.93735503  1.0
  O  O25  1  0.87660294  0.15064566  0.43735503  1.0
  O  O26  1  0.12339706  0.84935434  0.56264497  1.0
  O  O27  1  0.12339706  0.65064566  0.06264497  1.0
  O  O28  1  0.99008220  0.58318250  0.64101818  1.0
  O  O29  1  0.99008220  0.91681750  0.14101818  1.0
  O  O30  1  0.00991780  0.08318250  0.85898182  1.0
  O  O31  1  0.00991780  0.41681750  0.35898182  1.0
  O  O32  1  0.30978816  0.69802357  0.88277310  1.0
  O  O33  1  0.30978816  0.80197643  0.38277310  1.0
  O  O34  1  0.69021184  0.19802357  0.61722690  1.0
  O  O35  1  0.69021184  0.30197643  0.11722690  1.0
  O  O36  1  0.36202894  0.60582886  0.60063684  1.0
  O  O37  1  0.36202894  0.89417114  0.10063684  1.0
  O  O38  1  0.63797106  0.10582886  0.89936316  1.0
  O  O39  1  0.63797106  0.39417114  0.39936316  1.0
  O  O40  1  0.46929245  0.91570096  0.65583358  1.0
  O  O41  1  0.46929245  0.58429904  0.15583358  1.0
  O  O42  1  0.53070755  0.41570096  0.84416642  1.0
  O  O43  1  0.53070755  0.08429904  0.34416642  1.0
