# generated using pymatgen
data_Na2Zn(HO)4
_symmetry_space_group_name_H-M   'P 1'
_cell_length_a   7.88953012
_cell_length_b   6.45370752
_cell_length_c   11.08233594
_cell_angle_alpha   90.00000000
_cell_angle_beta   128.05345610
_cell_angle_gamma   90.00000000
_symmetry_Int_Tables_number   1
_chemical_formula_structural   Na2Zn(HO)4
_chemical_formula_sum   'Na8 Zn4 H16 O16'
_cell_volume   444.33139431
_cell_formula_units_Z   4
loop_
 _symmetry_equiv_pos_site_id
 _symmetry_equiv_pos_as_xyz
  1  'x, y, z'
loop_
 _atom_site_type_symbol
 _atom_site_label
 _atom_site_symmetry_multiplicity
 _atom_site_fract_x
 _atom_site_fract_y
 _atom_site_fract_z
 _atom_site_occupancy
  Na  Na0  1  0.98694718  0.43077409  0.21154659  1.0
  Na  Na1  1  0.98694718  0.06922591  0.71154659  1.0
  Na  Na2  1  0.01305282  0.93077409  0.28845341  1.0
  Na  Na3  1  0.01305282  0.56922591  0.78845341  1.0
  Na  Na4  1  0.47774404  0.24915163  0.49023485  1.0
  Na  Na5  1  0.47774404  0.25084837  0.99023485  1.0
  Na  Na6  1  0.52225596  0.74915163  0.00976515  1.0
  Na  Na7  1  0.52225596  0.75084837  0.50976515  1.0
  Zn  Zn8  1  0.81039493  0.24645963  0.36755555  1.0
  Zn  Zn9  1  0.81039493  0.25354037  0.86755555  1.0
  Zn  Zn10  1  0.18960507  0.74645963  0.13244445  1.0
  Zn  Zn11  1  0.18960507  0.75354037  0.63244445  1.0
  H  H12  1  0.80898004  0.82535502  0.45690044  1.0
  H  H13  1  0.80898004  0.67464498  0.95690044  1.0
  H  H14  1  0.19101996  0.32535502  0.04309956  1.0
  H  H15  1  0.19101996  0.17464498  0.54309956  1.0
  H  H16  1  0.82080968  0.01713447  0.03003891  1.0
  H  H17  1  0.82080968  0.48286553  0.53003891  1.0
  H  H18  1  0.17919032  0.51713447  0.46996109  1.0
  H  H19  1  0.17919032  0.98286553  0.96996109  1.0
  H  H20  1  0.44166891  0.46215685  0.24709655  1.0
  H  H21  1  0.44166891  0.03784315  0.74709655  1.0
  H  H22  1  0.55833109  0.96215685  0.25290345  1.0
  H  H23  1  0.55833109  0.53784315  0.75290345  1.0
  H  H24  1  0.28517738  0.09984961  0.23246505  1.0
  H  H25  1  0.28517738  0.40015039  0.73246505  1.0
  H  H26  1  0.71482262  0.59984961  0.26753495  1.0
  H  H27  1  0.71482262  0.90015039  0.76753495  1.0
  O  O28  1  0.88075181  0.73552487  0.05920647  1.0
  O  O29  1  0.88075181  0.76447513  0.55920647  1.0
  O  O30  1  0.11924819  0.23552487  0.44079353  1.0
  O  O31  1  0.11924819  0.26447513  0.94079353  1.0
  O  O32  1  0.80286745  0.16808600  0.03357060  1.0
  O  O33  1  0.80286745  0.33191400  0.53357060  1.0
  O  O34  1  0.19713255  0.66808600  0.46642940  1.0
  O  O35  1  0.19713255  0.83191400  0.96642940  1.0
  O  O36  1  0.66919515  0.47218647  0.20801618  1.0
  O  O37  1  0.66919515  0.02781353  0.70801618  1.0
  O  O38  1  0.33080485  0.97218647  0.29198382  1.0
  O  O39  1  0.33080485  0.52781353  0.79198382  1.0
  O  O40  1  0.68740086  -0.02215219  0.25927439  1.0
  O  O41  1  0.68740086  0.52215219  0.75927439  1.0
  O  O42  1  0.31259914  0.47784781  0.24072561  1.0
  O  O43  1  0.31259914  1.02215219  0.74072561  1.0
