# generated using pymatgen
data_KSNO4
_symmetry_space_group_name_H-M   'P 1'
_cell_length_a   5.67870675
_cell_length_b   7.33508825
_cell_length_c   12.38460248
_cell_angle_alpha   90.00000000
_cell_angle_beta   90.00000000
_cell_angle_gamma   90.00000000
_symmetry_Int_Tables_number   1
_chemical_formula_structural   KSNO4
_chemical_formula_sum   'K4 S4 N4 O16'
_cell_volume   515.86594306
_cell_formula_units_Z   4
loop_
 _symmetry_equiv_pos_site_id
 _symmetry_equiv_pos_as_xyz
  1  'x, y, z'
loop_
 _atom_site_type_symbol
 _atom_site_label
 _atom_site_symmetry_multiplicity
 _atom_site_fract_x
 _atom_site_fract_y
 _atom_site_fract_z
 _atom_site_occupancy
  K  K0  1  0.98345185  0.80436150  0.84601057  1.0
  K  K1  1  0.48345185  0.69563850  0.15398943  1.0
  K  K2  1  0.01654815  0.30436150  0.65398943  1.0
  K  K3  1  0.51654815  0.19563850  0.34601057  1.0
  S  S4  1  0.47606939  0.99716278  0.64945500  1.0
  S  S5  1  0.97606939  0.50283722  0.35054500  1.0
  S  S6  1  0.52393061  0.49716278  0.85054500  1.0
  S  S7  1  0.02393061  0.00283722  0.14945500  1.0
  N  N8  1  0.41164716  0.76208168  0.58029826  1.0
  N  N9  1  0.91164716  0.73791832  0.41970174  1.0
  N  N10  1  0.58835284  0.26208168  0.91970174  1.0
  N  N11  1  0.08835284  0.23791832  0.08029826  1.0
  O  O12  1  0.27256440  0.48808527  0.82039698  1.0
  O  O13  1  0.77256440  0.01191473  0.17960302  1.0
  O  O14  1  0.72743560  0.98808527  0.67960302  1.0
  O  O15  1  0.22743560  0.51191473  0.32039698  1.0
  O  O16  1  0.24231550  0.69115911  0.61646900  1.0
  O  O17  1  0.74231550  0.80884089  0.38353100  1.0
  O  O18  1  0.75768450  0.19115911  0.88353100  1.0
  O  O19  1  0.25768450  0.30884089  0.11646900  1.0
  O  O20  1  0.18912900  0.98486519  0.24110614  1.0
  O  O21  1  0.68912900  0.51513481  0.75889386  1.0
  O  O22  1  0.81087100  0.48486519  0.25889386  1.0
  O  O23  1  0.31087100  0.01513481  0.74110614  1.0
  O  O24  1  0.07382193  0.87389725  0.06016078  1.0
  O  O25  1  0.57382193  0.62610275  0.93983922  1.0
  O  O26  1  0.92617807  0.37389725  0.43983922  1.0
  O  O27  1  0.42617807  0.12610275  0.56016078  1.0
