# generated using pymatgen
data_La2Be2GeO7
_symmetry_space_group_name_H-M   'P 1'
_cell_length_a   7.73754466
_cell_length_b   7.73754466
_cell_length_c   4.99917146
_cell_angle_alpha   90.00000000
_cell_angle_beta   90.00000000
_cell_angle_gamma   90.00000000
_symmetry_Int_Tables_number   1
_chemical_formula_structural   La2Be2GeO7
_chemical_formula_sum   'La4 Be4 Ge2 O14'
_cell_volume   299.29838238
_cell_formula_units_Z   2
loop_
 _symmetry_equiv_pos_site_id
 _symmetry_equiv_pos_as_xyz
  1  'x, y, z'
loop_
 _atom_site_type_symbol
 _atom_site_label
 _atom_site_symmetry_multiplicity
 _atom_site_fract_x
 _atom_site_fract_y
 _atom_site_fract_z
 _atom_site_occupancy
  La  La0  1  0.83898164  0.33898164  0.49840795  1.0
  La  La1  1  0.66101836  0.83898164  0.50159205  1.0
  La  La2  1  0.16101836  0.66101836  0.49840795  1.0
  La  La3  1  0.33898164  0.16101836  0.50159205  1.0
  Be  Be4  1  0.36751538  0.86751538  0.03710877  1.0
  Be  Be5  1  0.13248462  0.36751538  0.96289123  1.0
  Be  Be6  1  0.63248462  0.13248462  0.03710877  1.0
  Be  Be7  1  0.86751538  0.63248462  0.96289123  1.0
  Ge  Ge8  1  0.50000000  0.50000000  0.00000000  1.0
  Ge  Ge9  1  0.00000000  0.00000000  0.00000000  1.0
  O  O10  1  0.32590006  0.42252542  0.80178346  1.0
  O  O11  1  0.17409994  0.92252542  0.19821654  1.0
  O  O12  1  0.57747458  0.32590006  0.19821654  1.0
  O  O13  1  0.92252542  0.82590006  0.80178346  1.0
  O  O14  1  0.67409994  0.57747458  0.80178346  1.0
  O  O15  1  0.82590006  0.07747458  0.19821654  1.0
  O  O16  1  0.42252542  0.67409994  0.19821654  1.0
  O  O17  1  0.07747458  0.17409994  0.80178346  1.0
  O  O18  1  0.35820166  0.85820166  0.71871755  1.0
  O  O19  1  0.14179834  0.35820166  0.28128245  1.0
  O  O20  1  0.64179834  0.14179834  0.71871755  1.0
  O  O21  1  0.85820166  0.64179834  0.28128245  1.0
  O  O22  1  0.00000000  0.50000000  0.83315691  1.0
  O  O23  1  0.50000000  0.00000000  0.16684309  1.0
