# generated using pymatgen
data_CaSmCuClO3
_symmetry_space_group_name_H-M   'P 1'
_cell_length_a   3.90493955
_cell_length_b   3.90493955
_cell_length_c   13.73822537
_cell_angle_alpha   90.00000000
_cell_angle_beta   90.00000000
_cell_angle_gamma   90.00000000
_symmetry_Int_Tables_number   1
_chemical_formula_structural   CaSmCuClO3
_chemical_formula_sum   'Ca2 Sm2 Cu2 Cl2 O6'
_cell_volume   209.48805623
_cell_formula_units_Z   2
loop_
 _symmetry_equiv_pos_site_id
 _symmetry_equiv_pos_as_xyz
  1  'x, y, z'
loop_
 _atom_site_type_symbol
 _atom_site_label
 _atom_site_symmetry_multiplicity
 _atom_site_fract_x
 _atom_site_fract_y
 _atom_site_fract_z
 _atom_site_occupancy
  Cl  Cl0  1  0.50000000  0.00000000  0.57784103  1.0
  Cl  Cl1  1  0.00000000  0.50000000  0.42215897  1.0
  O  O2  1  0.00000000  0.00000000  0.22229052  1.0
  O  O3  1  0.50000000  0.50000000  0.77770948  1.0
  O  O4  1  0.50000000  0.50000000  0.22229052  1.0
  O  O5  1  0.00000000  0.00000000  0.77770948  1.0
  O  O6  1  0.00000000  0.00000000  0.00000000  1.0
  O  O7  1  0.50000000  0.50000000  0.00000000  1.0
  Sm  Sm8  1  0.50000000  0.00000000  0.09052736  1.0
  Sm  Sm9  1  0.00000000  0.50000000  0.90947264  1.0
  Ca  Ca10  1  0.50000000  0.00000000  0.33463918  1.0
  Ca  Ca11  1  0.00000000  0.50000000  0.66536082  1.0
  Cu  Cu12  1  0.50000000  0.00000000  0.77983424  1.0
  Cu  Cu13  1  0.00000000  0.50000000  0.22016576  1.0
