# generated using pymatgen
data_LiGaGe
_symmetry_space_group_name_H-M   'P 1'
_cell_length_a   4.22407164
_cell_length_b   4.22407164
_cell_length_c   6.86024199
_cell_angle_alpha   90.00000000
_cell_angle_beta   90.00000000
_cell_angle_gamma   120.00000000
_symmetry_Int_Tables_number   1
_chemical_formula_structural   LiGaGe
_chemical_formula_sum   'Li2 Ga2 Ge2'
_cell_volume   106.00652949
_cell_formula_units_Z   2
loop_
 _symmetry_equiv_pos_site_id
 _symmetry_equiv_pos_as_xyz
  1  'x, y, z'
loop_
 _atom_site_type_symbol
 _atom_site_label
 _atom_site_symmetry_multiplicity
 _atom_site_fract_x
 _atom_site_fract_y
 _atom_site_fract_z
 _atom_site_occupancy
  Li  Li0  1  -0.00000000  -0.00000000  -0.00848721  1.0
  Li  Li1  1  0.00000000  0.00000000  0.49151279  1.0
  Ga  Ga2  1  0.33333333  0.66666667  0.69223709  1.0
  Ga  Ga3  1  0.66666667  0.33333333  0.19223709  1.0
  Ge  Ge4  1  0.33333333  0.66666667  0.30725012  1.0
  Ge  Ge5  1  0.66666667  0.33333333  0.80725012  1.0
