# generated using pymatgen
data_Tl2AgCl3
_symmetry_space_group_name_H-M   'P 1'
_cell_length_a   8.40976723
_cell_length_b   8.40976723
_cell_length_c   8.40976723
_cell_angle_alpha   70.94217128
_cell_angle_beta   70.94217128
_cell_angle_gamma   70.94217128
_symmetry_Int_Tables_number   1
_chemical_formula_structural   Tl2AgCl3
_chemical_formula_sum   'Tl6 Ag3 Cl9'
_cell_volume   515.01209812
_cell_formula_units_Z   3
loop_
 _symmetry_equiv_pos_site_id
 _symmetry_equiv_pos_as_xyz
  1  'x, y, z'
loop_
 _atom_site_type_symbol
 _atom_site_label
 _atom_site_symmetry_multiplicity
 _atom_site_fract_x
 _atom_site_fract_y
 _atom_site_fract_z
 _atom_site_occupancy
  Tl  Tl0  1  0.67507555  0.43719163  -0.88332425  1.0
  Tl  Tl1  1  0.56280837  0.88332425  -0.67507555  1.0
  Tl  Tl2  1  0.88332425  0.32492445  -0.43719163  1.0
  Tl  Tl3  1  0.32492445  0.56280837  -0.11667575  1.0
  Tl  Tl4  1  0.43719163  0.11667575  -0.32492445  1.0
  Tl  Tl5  1  0.11667575  0.67507555  -0.56280837  1.0
  Ag  Ag6  1  0.83318052  0.83318052  -0.16681948  1.0
  Ag  Ag7  1  1.16681948  1.16681948  0.16681948  1.0
  Ag  Ag8  1  0.00000000  0.00000000  0.00000000  1.0
  Cl  Cl9  1  0.67476457  0.14170157  -0.08749451  1.0
  Cl  Cl10  1  0.85829843  0.08749451  -0.67476457  1.0
  Cl  Cl11  1  1.08749451  -0.67476457  -0.14170157  1.0
  Cl  Cl12  1  0.32523543  -0.14170157  0.08749451  1.0
  Cl  Cl13  1  1.14170157  -0.08749451  -0.32523543  1.0
  Cl  Cl14  1  0.91250549  -0.32523543  0.14170157  1.0
  Cl  Cl15  1  0.70009926  0.70009926  -0.29990074  1.0
  Cl  Cl16  1  1.29990074  1.29990074  0.29990074  1.0
  Cl  Cl17  1  0.50000000  0.50000000  -0.50000000  1.0
