# generated using pymatgen
data_La2Zn14Pd3
_symmetry_space_group_name_H-M   'P 1'
_cell_length_a   6.90996340
_cell_length_b   6.90996340
_cell_length_c   6.90996340
_cell_angle_alpha   82.64079117
_cell_angle_beta   82.64079117
_cell_angle_gamma   82.64079117
_symmetry_Int_Tables_number   1
_chemical_formula_structural   La2Zn14Pd3
_chemical_formula_sum   'La2 Zn14 Pd3'
_cell_volume   322.42217681
_cell_formula_units_Z   1
loop_
 _symmetry_equiv_pos_site_id
 _symmetry_equiv_pos_as_xyz
  1  'x, y, z'
loop_
 _atom_site_type_symbol
 _atom_site_label
 _atom_site_symmetry_multiplicity
 _atom_site_fract_x
 _atom_site_fract_y
 _atom_site_fract_z
 _atom_site_occupancy
  La  La0  1  0.66111308  0.66111308  -0.33888692  1.0
  La  La1  1  0.33888692  0.33888692  -0.66111308  1.0
  Zn  Zn2  1  0.34830973  0.34830973  -0.15538751  1.0
  Zn  Zn3  1  0.34830973  0.84461249  -0.65169027  1.0
  Zn  Zn4  1  1.15538751  -0.34830973  -0.34830973  1.0
  Zn  Zn5  1  0.65169027  0.15538751  -0.34830973  1.0
  Zn  Zn6  1  0.65169027  -0.34830973  0.15538751  1.0
  Zn  Zn7  1  0.84461249  0.34830973  -0.65169027  1.0
  Zn  Zn8  1  0.70738855  -0.00000000  0.29261145  1.0
  Zn  Zn9  1  0.70738855  -0.70738855  -0.00000000  1.0
  Zn  Zn10  1  -0.00000000  0.70738855  -0.70738855  1.0
  Zn  Zn11  1  0.00000000  0.29261145  -0.29261145  1.0
  Zn  Zn12  1  1.29261145  0.00000000  -0.29261145  1.0
  Zn  Zn13  1  0.29261145  -0.29261145  -0.00000000  1.0
  Zn  Zn14  1  0.89879213  0.89879213  -0.10120787  1.0
  Zn  Zn15  1  1.10120787  1.10120787  0.10120787  1.0
  Pd  Pd16  1  1.00000000  1.50000000  -0.00000000  1.0
  Pd  Pd17  1  1.00000000  0.00000000  -0.50000000  1.0
  Pd  Pd18  1  0.50000000  -0.00000000  0.00000000  1.0
