# generated using pymatgen
data_Cs3ReO5
_symmetry_space_group_name_H-M   'P 1'
_cell_length_a   9.06369210
_cell_length_b   9.17170520
_cell_length_c   9.83933341
_cell_angle_alpha   90.00000000
_cell_angle_beta   90.00000000
_cell_angle_gamma   90.00000000
_symmetry_Int_Tables_number   1
_chemical_formula_structural   Cs3ReO5
_chemical_formula_sum   'Cs12 Re4 O20'
_cell_volume   817.93898426
_cell_formula_units_Z   4
loop_
 _symmetry_equiv_pos_site_id
 _symmetry_equiv_pos_as_xyz
  1  'x, y, z'
loop_
 _atom_site_type_symbol
 _atom_site_label
 _atom_site_symmetry_multiplicity
 _atom_site_fract_x
 _atom_site_fract_y
 _atom_site_fract_z
 _atom_site_occupancy
  Cs  Cs0  1  0.25000000  0.00000000  0.01310998  1.0
  Cs  Cs1  1  0.25000000  0.50000000  0.48689002  1.0
  Cs  Cs2  1  0.75000000  0.00000000  0.98689002  1.0
  Cs  Cs3  1  0.75000000  0.50000000  0.51310998  1.0
  Cs  Cs4  1  0.96221598  0.75000000  0.25000000  1.0
  Cs  Cs5  1  0.46221598  0.75000000  0.75000000  1.0
  Cs  Cs6  1  0.03778402  0.25000000  0.75000000  1.0
  Cs  Cs7  1  0.53778402  0.25000000  0.25000000  1.0
  Cs  Cs8  1  0.25000000  0.00000000  0.48675071  1.0
  Cs  Cs9  1  0.25000000  0.50000000  0.01324929  1.0
  Cs  Cs10  1  0.75000000  0.00000000  0.51324929  1.0
  Cs  Cs11  1  0.75000000  0.50000000  0.98675071  1.0
  Re  Re12  1  0.49219947  0.75000000  0.25000000  1.0
  Re  Re13  1  0.99219947  0.75000000  0.75000000  1.0
  Re  Re14  1  0.50780053  0.25000000  0.75000000  1.0
  Re  Re15  1  0.00780053  0.25000000  0.25000000  1.0
  O  O16  1  -0.00499060  0.74993861  0.56006917  1.0
  O  O17  1  -0.00499060  0.75006139  0.93993083  1.0
  O  O18  1  0.49500940  0.74993861  0.43993083  1.0
  O  O19  1  0.49500940  0.75006139  0.06006917  1.0
  O  O20  1  1.00499060  0.24993861  0.06006917  1.0
  O  O21  1  1.00499060  0.25006139  0.43993083  1.0
  O  O22  1  0.50499060  0.24993861  0.93993083  1.0
  O  O23  1  0.50499060  0.25006139  0.56006917  1.0
  O  O24  1  0.91112724  0.42277048  0.24994396  1.0
  O  O25  1  0.91112724  0.07722952  0.25005604  1.0
  O  O26  1  0.41112724  0.42277048  0.75005604  1.0
  O  O27  1  0.41112724  0.07722952  0.74994396  1.0
  O  O28  1  0.08887276  0.92277048  0.74994396  1.0
  O  O29  1  0.08887276  0.57722952  0.75005604  1.0
  O  O30  1  0.58887276  0.92277048  0.25005604  1.0
  O  O31  1  0.58887276  0.57722952  0.24994396  1.0
  O  O32  1  0.29191539  0.75000000  0.25000000  1.0
  O  O33  1  0.79191539  0.75000000  0.75000000  1.0
  O  O34  1  0.70808461  0.25000000  0.75000000  1.0
  O  O35  1  0.20808461  0.25000000  0.25000000  1.0
