# generated using pymatgen
data_Sc3InS6
_symmetry_space_group_name_H-M   'P 1'
_cell_length_a   13.01995951
_cell_length_b   16.03638835
_cell_length_c   3.67779204
_cell_angle_alpha   90.00000000
_cell_angle_beta   90.00000000
_cell_angle_gamma   90.00000000
_symmetry_Int_Tables_number   1
_chemical_formula_structural   Sc3InS6
_chemical_formula_sum   'Sc12 In4 S24'
_cell_volume   767.89770143
_cell_formula_units_Z   4
loop_
 _symmetry_equiv_pos_site_id
 _symmetry_equiv_pos_as_xyz
  1  'x, y, z'
loop_
 _atom_site_type_symbol
 _atom_site_label
 _atom_site_symmetry_multiplicity
 _atom_site_fract_x
 _atom_site_fract_y
 _atom_site_fract_z
 _atom_site_occupancy
  Sc  Sc0  1  0.19204938  0.64560037  0.75018941  1.0
  Sc  Sc1  1  0.69204938  0.85439963  0.24981059  1.0
  Sc  Sc2  1  0.80795062  0.35439963  0.75018941  1.0
  Sc  Sc3  1  0.30795062  0.14560037  0.24981059  1.0
  Sc  Sc4  1  0.96455563  0.77225239  0.75032585  1.0
  Sc  Sc5  1  0.46455563  0.72774761  0.24967415  1.0
  Sc  Sc6  1  0.03544437  0.22774761  0.75032585  1.0
  Sc  Sc7  1  0.53544437  0.27225239  0.24967415  1.0
  Sc  Sc8  1  0.74823532  0.61112758  0.74957189  1.0
  Sc  Sc9  1  0.24823532  0.88887242  0.25042811  1.0
  Sc  Sc10  1  0.25176468  0.38887242  0.74957189  1.0
  Sc  Sc11  1  0.75176468  0.11112758  0.25042811  1.0
  In  In12  1  0.50000000  0.00000000  0.75009605  1.0
  In  In13  1  0.00000000  0.50000000  0.24990395  1.0
  In  In14  1  0.50000000  0.50000000  0.74917953  1.0
  In  In15  1  0.00000000  0.00000000  0.25082047  1.0
  S  S16  1  0.38979538  0.62543244  0.74964628  1.0
  S  S17  1  0.88979538  0.87456756  0.25035372  1.0
  S  S18  1  0.61020462  0.37456756  0.74964628  1.0
  S  S19  1  0.11020462  0.12543244  0.25035372  1.0
  S  S20  1  0.38197702  0.24515224  0.74975281  1.0
  S  S21  1  0.88197703  0.25484776  0.25024719  1.0
  S  S22  1  0.61802298  0.75484776  0.74975281  1.0
  S  S23  1  0.11802298  0.74515224  0.25024719  1.0
  S  S24  1  0.31754700  0.78774618  0.75038489  1.0
  S  S25  1  0.81754700  0.71225382  0.24961511  1.0
  S  S26  1  0.68245300  0.21225382  0.75038489  1.0
  S  S27  1  0.18245300  0.28774618  0.24961511  1.0
  S  S28  1  0.30084467  0.02132541  0.75004159  1.0
  S  S29  1  0.80084467  0.47867459  0.24995841  1.0
  S  S30  1  0.69915533  0.97867459  0.75004159  1.0
  S  S31  1  0.19915533  0.52132541  0.24995841  1.0
  S  S32  1  0.09925857  0.90525332  0.75049784  1.0
  S  S33  1  0.59925857  0.59474668  0.24950216  1.0
  S  S34  1  0.90074143  0.09474668  0.75049784  1.0
  S  S35  1  0.40074143  0.40525332  0.24950216  1.0
  S  S36  1  0.98506790  0.60994680  0.74994202  1.0
  S  S37  1  0.48506790  0.89005320  0.25005798  1.0
  S  S38  1  0.01493210  0.39005320  0.74994202  1.0
  S  S39  1  0.51493210  0.10994680  0.25005798  1.0
