# generated using pymatgen
data_K2H2PtC4(N2O)2
_symmetry_space_group_name_H-M   'P 1'
_cell_length_a   8.82474202
_cell_length_b   8.82474202
_cell_length_c   6.80075022
_cell_angle_alpha   79.18370493
_cell_angle_beta   100.81629507
_cell_angle_gamma   101.25073183
_symmetry_Int_Tables_number   1
_chemical_formula_structural   K2H2PtC4(N2O)2
_chemical_formula_sum   'K4 H4 Pt2 C8 N8 O4'
_cell_volume   503.89908618
_cell_formula_units_Z   2
loop_
 _symmetry_equiv_pos_site_id
 _symmetry_equiv_pos_as_xyz
  1  'x, y, z'
loop_
 _atom_site_type_symbol
 _atom_site_label
 _atom_site_symmetry_multiplicity
 _atom_site_fract_x
 _atom_site_fract_y
 _atom_site_fract_z
 _atom_site_occupancy
  K  K0  1  0.47610193  -0.19694937  0.80869756  1.0
  K  K1  1  1.19694937  0.52389807  0.30869756  1.0
  K  K2  1  0.80305063  -0.52389807  0.69130244  1.0
  K  K3  1  1.52389807  0.19694937  0.19130244  1.0
  H  H4  1  1.44962818  0.30281813  0.69007998  1.0
  H  H5  1  0.69718187  -0.44962818  0.19007998  1.0
  H  H6  1  1.30281813  0.44962818  0.80992002  1.0
  H  H7  1  0.55037182  -0.30281813  0.30992002  1.0
  Pt  Pt8  1  0.00000000  0.00000000  0.00000000  1.0
  Pt  Pt9  1  -0.00000000  0.00000000  0.50000000  1.0
  C  C10  1  0.78120430  -0.11084534  0.48682520  1.0
  C  C11  1  1.11084534  0.21879570  0.98682520  1.0
  C  C12  1  0.88915466  -0.21879570  0.01317480  1.0
  C  C13  1  1.21879570  0.11084534  0.51317480  1.0
  C  C14  1  1.79655425  0.07659854  0.93459416  1.0
  C  C15  1  0.92340146  -0.79655425  0.43459416  1.0
  C  C16  1  1.07659854  0.79655425  0.56540584  1.0
  C  C17  1  0.20344575  -0.07659854  0.06540584  1.0
  N  N18  1  0.65201515  -0.17744161  0.48054571  1.0
  N  N19  1  1.17744161  0.34798485  0.98054571  1.0
  N  N20  1  0.82255839  -0.34798485  0.01945429  1.0
  N  N21  1  1.34798485  0.17744161  0.51945429  1.0
  N  N22  1  1.67618756  0.12161921  0.89670540  1.0
  N  N23  1  0.87838079  -0.67618756  0.39670540  1.0
  N  N24  1  1.12161921  0.67618756  0.60329460  1.0
  N  N25  1  0.32381244  -0.12161921  0.10329460  1.0
  O  O26  1  1.49221963  0.38189969  0.78393963  1.0
  O  O27  1  0.61810031  -0.49221963  0.28393963  1.0
  O  O28  1  1.38189969  0.49221963  0.71606037  1.0
  O  O29  1  0.50778037  -0.38189969  0.21606037  1.0
