# generated using pymatgen
data_Yb2AlB6
_symmetry_space_group_name_H-M   'P 1'
_cell_length_a   9.15015044
_cell_length_b   11.46425134
_cell_length_c   3.56920508
_cell_angle_alpha   90.00000000
_cell_angle_beta   90.00000000
_cell_angle_gamma   90.00000000
_symmetry_Int_Tables_number   1
_chemical_formula_structural   Yb2AlB6
_chemical_formula_sum   'Yb8 Al4 B24'
_cell_volume   374.40827256
_cell_formula_units_Z   4
loop_
 _symmetry_equiv_pos_site_id
 _symmetry_equiv_pos_as_xyz
  1  'x, y, z'
loop_
 _atom_site_type_symbol
 _atom_site_label
 _atom_site_symmetry_multiplicity
 _atom_site_fract_x
 _atom_site_fract_y
 _atom_site_fract_z
 _atom_site_occupancy
  Yb  Yb0  1  0.17569869  0.91299959  0.50000000  1.0
  Yb  Yb1  1  0.67569869  0.58700041  0.50000000  1.0
  Yb  Yb2  1  0.82430131  0.08700041  0.50000000  1.0
  Yb  Yb3  1  0.32430131  0.41299959  0.50000000  1.0
  Yb  Yb4  1  0.05516065  0.62557820  0.50000000  1.0
  Yb  Yb5  1  0.55516065  0.87442180  0.50000000  1.0
  Yb  Yb6  1  0.94483935  0.37442180  0.50000000  1.0
  Yb  Yb7  1  0.44483935  0.12557820  0.50000000  1.0
  Al  Al8  1  0.36056907  0.67864104  0.50000000  1.0
  Al  Al9  1  0.86056907  0.82135896  0.50000000  1.0
  Al  Al10  1  0.63943093  0.32135896  0.50000000  1.0
  Al  Al11  1  0.13943093  0.17864104  0.50000000  1.0
  B  B12  1  0.44906540  0.56417146  0.00000000  1.0
  B  B13  1  0.94906540  0.93582854  0.00000000  1.0
  B  B14  1  0.55093460  0.43582854  0.00000000  1.0
  B  B15  1  0.05093460  0.06417146  0.00000000  1.0
  B  B16  1  0.38853524  0.96929127  0.00000000  1.0
  B  B17  1  0.88853524  0.53070873  0.00000000  1.0
  B  B18  1  0.61146476  0.03070873  0.00000000  1.0
  B  B19  1  0.11146476  0.46929127  0.00000000  1.0
  B  B20  1  0.36563485  0.81781671  0.00000000  1.0
  B  B21  1  0.86563485  0.68218329  0.00000000  1.0
  B  B22  1  0.63436515  0.18218329  0.00000000  1.0
  B  B23  1  0.13436515  0.31781671  0.00000000  1.0
  B  B24  1  0.24982865  0.57824932  0.00000000  1.0
  B  B25  1  0.74982865  0.92175068  0.00000000  1.0
  B  B26  1  0.75017135  0.42175068  0.00000000  1.0
  B  B27  1  0.25017135  0.07824932  0.00000000  1.0
  B  B28  1  0.20248761  0.73677893  0.00000000  1.0
  B  B29  1  0.70248761  0.76322107  0.00000000  1.0
  B  B30  1  0.79751239  0.26322107  0.00000000  1.0
  B  B31  1  0.29751239  0.23677893  0.00000000  1.0
  B  B32  1  0.02013397  0.78708120  0.00000000  1.0
  B  B33  1  0.52013397  0.71291880  0.00000000  1.0
  B  B34  1  0.97986603  0.21291880  0.00000000  1.0
  B  B35  1  0.47986603  0.28708120  0.00000000  1.0
