# generated using pymatgen
data_Pb7ClF6
_symmetry_space_group_name_H-M   'P 1'
_cell_length_a   12.60029618
_cell_length_b   12.60029618
_cell_length_c   6.05548119
_cell_angle_alpha   90.00000000
_cell_angle_beta   90.00000000
_cell_angle_gamma   120.00000000
_symmetry_Int_Tables_number   1
_chemical_formula_structural   Pb7ClF6
_chemical_formula_sum   'Pb14 Cl2 F12'
_cell_volume   832.60842062
_cell_formula_units_Z   2
loop_
 _symmetry_equiv_pos_site_id
 _symmetry_equiv_pos_as_xyz
  1  'x, y, z'
loop_
 _atom_site_type_symbol
 _atom_site_label
 _atom_site_symmetry_multiplicity
 _atom_site_fract_x
 _atom_site_fract_y
 _atom_site_fract_z
 _atom_site_occupancy
  Pb  Pb0  1  0.23611479  0.08792396  0.50000000  1.0
  Pb  Pb1  1  0.85180917  0.76388521  0.50000000  1.0
  Pb  Pb2  1  0.91207604  0.14819083  0.50000000  1.0
  Pb  Pb3  1  0.25346145  0.19100082  0.00000000  1.0
  Pb  Pb4  1  0.93753937  0.74653855  0.00000000  1.0
  Pb  Pb5  1  0.80899918  0.06246063  0.00000000  1.0
  Pb  Pb6  1  0.48176975  0.90274393  0.00000000  1.0
  Pb  Pb7  1  0.42097417  0.51823025  0.00000000  1.0
  Pb  Pb8  1  0.09725607  0.57902583  -0.00000000  1.0
  Pb  Pb9  1  0.39599982  0.92017913  0.50000000  1.0
  Pb  Pb10  1  0.52417931  0.60400018  0.50000000  1.0
  Pb  Pb11  1  0.07982087  0.47582069  0.50000000  1.0
  Pb  Pb12  1  0.66666667  0.33333333  0.50000000  1.0
  Pb  Pb13  1  0.66666667  0.33333333  0.00000000  1.0
  Cl  Cl14  1  -0.00000000  -0.00000000  -0.00000000  1.0
  Cl  Cl15  1  0.33333333  0.66666667  0.50000000  1.0
  F  F16  1  0.82595898  0.93174664  0.50000000  1.0
  F  F17  1  0.10578767  0.17404102  0.50000000  1.0
  F  F18  1  0.06825336  0.89421233  0.50000000  1.0
  F  F19  1  0.26529799  0.77263332  -0.00000000  1.0
  F  F20  1  0.50733532  0.73470201  0.00000000  1.0
  F  F21  1  0.22736668  0.49266468  0.00000000  1.0
  F  F22  1  0.67054341  0.14768469  0.00000000  1.0
  F  F23  1  0.47714128  0.32945659  0.00000000  1.0
  F  F24  1  0.85231531  0.52285872  0.00000000  1.0
  F  F25  1  0.48093569  0.14386418  0.50000000  1.0
  F  F26  1  0.66292849  0.51906431  0.50000000  1.0
  F  F27  1  0.85613582  0.33707151  0.50000000  1.0
