# generated using pymatgen
data_LiCaAlF6
_symmetry_space_group_name_H-M   'P 1'
_cell_length_a   5.07853698
_cell_length_b   8.79517741
_cell_length_c   9.75689849
_cell_angle_alpha   90.00000000
_cell_angle_beta   89.99952028
_cell_angle_gamma   90.00000000
_symmetry_Int_Tables_number   1
_chemical_formula_structural   LiCaAlF6
_chemical_formula_sum   'Li4 Ca4 Al4 F24'
_cell_volume   435.80781107
_cell_formula_units_Z   4
loop_
 _symmetry_equiv_pos_site_id
 _symmetry_equiv_pos_as_xyz
  1  'x, y, z'
loop_
 _atom_site_type_symbol
 _atom_site_label
 _atom_site_symmetry_multiplicity
 _atom_site_fract_x
 _atom_site_fract_y
 _atom_site_fract_z
 _atom_site_occupancy
  Li  Li0  1  0.74991537  0.58329963  0.74996872  1.0
  Li  Li1  1  0.74991537  0.91670037  0.24996872  1.0
  Li  Li2  1  0.25008463  0.08329963  0.75003128  1.0
  Li  Li3  1  0.25008463  0.41670037  0.25003128  1.0
  Ca  Ca4  1  0.75003856  0.24995349  1.00002119  1.0
  Ca  Ca5  1  0.75003856  0.25004651  0.50002119  1.0
  Ca  Ca6  1  0.24996144  0.74995349  0.49997881  1.0
  Ca  Ca7  1  0.24996144  0.75004651  -0.00002119  1.0
  Al  Al8  1  0.75002478  0.91664225  0.75001556  1.0
  Al  Al9  1  0.75002478  0.58335775  0.25001556  1.0
  Al  Al10  1  0.24997522  0.41664225  0.74998444  1.0
  Al  Al11  1  0.24997522  0.08335775  0.24998444  1.0
  F  F12  1  1.04728431  0.92216341  0.64328087  1.0
  F  F13  1  1.04728431  0.57783659  0.14328087  1.0
  F  F14  1  -0.04728431  0.42216341  0.85671913  1.0
  F  F15  1  -0.04728431  0.07783659  0.35671913  1.0
  F  F16  1  0.89006952  0.76516750  0.85682420  1.0
  F  F17  1  0.89006952  0.73483250  0.35682420  1.0
  F  F18  1  0.10993048  0.26516750  0.64317580  1.0
  F  F19  1  0.10993048  0.23483250  0.14317580  1.0
  F  F20  1  0.90714889  0.43756453  0.35682827  1.0
  F  F21  1  0.90714889  0.06243547  0.85682827  1.0
  F  F22  1  0.09285111  0.93756453  0.14317173  1.0
  F  F23  1  0.09285111  0.56243547  0.64317173  1.0
  F  F24  1  0.60972030  0.76524975  0.64321302  1.0
  F  F25  1  0.60972030  0.73475025  0.14321302  1.0
  F  F26  1  0.39027970  0.26524975  0.85678698  1.0
  F  F27  1  0.39027970  0.23475025  0.35678698  1.0
  F  F28  1  0.40689739  0.56251589  0.85677340  1.0
  F  F29  1  0.40689739  0.93748411  0.35677340  1.0
  F  F30  1  0.59310261  0.06251589  0.64322660  1.0
  F  F31  1  0.59310261  0.43748411  0.14322660  1.0
  F  F32  1  0.45280887  0.92229711  0.85679086  1.0
  F  F33  1  0.45280887  0.57770289  0.35679086  1.0
  F  F34  1  0.54719113  0.42229711  0.64320914  1.0
  F  F35  1  0.54719113  0.07770289  0.14320914  1.0
