# generated using pymatgen
data_Rb2LiFeF6
_symmetry_space_group_name_H-M   'P 1'
_cell_length_a   10.35072673
_cell_length_b   10.35072673
_cell_length_c   10.35072673
_cell_angle_alpha   33.66282649
_cell_angle_beta   33.66282649
_cell_angle_gamma   33.66282649
_symmetry_Int_Tables_number   1
_chemical_formula_structural   Rb2LiFeF6
_chemical_formula_sum   'Rb4 Li2 Fe2 F12'
_cell_volume   303.54829427
_cell_formula_units_Z   2
loop_
 _symmetry_equiv_pos_site_id
 _symmetry_equiv_pos_as_xyz
  1  'x, y, z'
loop_
 _atom_site_type_symbol
 _atom_site_label
 _atom_site_symmetry_multiplicity
 _atom_site_fract_x
 _atom_site_fract_y
 _atom_site_fract_z
 _atom_site_occupancy
  Rb  Rb0  1  0.87241013  -0.12758987  -0.12758987  1.0
  Rb  Rb1  1  0.12758987  0.12758987  0.12758987  1.0
  Rb  Rb2  1  0.71686624  -0.28313376  -0.28313376  1.0
  Rb  Rb3  1  0.28313376  0.28313376  0.28313376  1.0
  Li  Li4  1  0.59616750  0.59616750  -0.40383250  1.0
  Li  Li5  1  0.40383250  0.40383250  -0.59616750  1.0
  Fe  Fe6  1  0.00000000  0.00000000  0.00000000  1.0
  Fe  Fe7  1  0.50000000  0.50000000  -0.50000000  1.0
  F  F8  1  0.83941477  0.39209519  -0.60790481  1.0
  F  F9  1  0.39209519  0.39209519  -0.16058523  1.0
  F  F10  1  0.39209519  0.83941477  -0.60790481  1.0
  F  F11  1  0.16058523  0.60790481  -0.39209519  1.0
  F  F12  1  0.60790481  0.60790481  -0.83941477  1.0
  F  F13  1  0.60790481  0.16058523  -0.39209519  1.0
  F  F14  1  0.27728601  0.80383090  -0.19616910  1.0
  F  F15  1  0.80383090  0.80383090  -0.72271399  1.0
  F  F16  1  0.80383090  0.27728601  -0.19616910  1.0
  F  F17  1  0.72271399  0.19616910  -0.80383090  1.0
  F  F18  1  0.19616910  0.19616910  -0.27728601  1.0
  F  F19  1  0.19616910  0.72271399  -0.80383090  1.0
