# generated using pymatgen
data_SbI(OF4)2
_symmetry_space_group_name_H-M   'P 1'
_cell_length_a   6.30097432
_cell_length_b   10.61160171
_cell_length_c   13.45957778
_cell_angle_alpha   90.00000000
_cell_angle_beta   103.68536546
_cell_angle_gamma   90.00000000
_symmetry_Int_Tables_number   1
_chemical_formula_structural   SbI(OF4)2
_chemical_formula_sum   'Sb4 I4 O8 F32'
_cell_volume   874.40347821
_cell_formula_units_Z   4
loop_
 _symmetry_equiv_pos_site_id
 _symmetry_equiv_pos_as_xyz
  1  'x, y, z'
loop_
 _atom_site_type_symbol
 _atom_site_label
 _atom_site_symmetry_multiplicity
 _atom_site_fract_x
 _atom_site_fract_y
 _atom_site_fract_z
 _atom_site_occupancy
  Sb  Sb0  1  1.00523245  0.75414355  0.51196707  1.0
  Sb  Sb1  1  1.00523245  0.74585645  0.01196707  1.0
  Sb  Sb2  1  -0.00523245  0.25414355  0.98803293  1.0
  Sb  Sb3  1  -0.00523245  0.24585645  0.48803293  1.0
  I  I4  1  0.73753356  0.51364887  0.82225964  1.0
  I  I5  1  0.73753356  0.98635113  0.32225964  1.0
  I  I6  1  0.26246644  0.01364887  0.67774036  1.0
  I  I7  1  0.26246644  0.48635113  0.17774036  1.0
  O  O8  1  0.92519411  0.65270445  0.86952500  1.0
  O  O9  1  0.92519411  0.84729555  0.36952500  1.0
  O  O10  1  0.07480589  0.15270445  0.63047500  1.0
  O  O11  1  0.07480589  0.34729555  0.13047500  1.0
  O  O12  1  0.80081965  0.41697211  0.94428655  1.0
  O  O13  1  0.80081965  0.08302789  0.44428655  1.0
  O  O14  1  0.19918035  0.91697211  0.55571345  1.0
  O  O15  1  0.19918035  0.58302789  0.05571345  1.0
  F  F16  1  0.95579005  0.43915554  0.76284349  1.0
  F  F17  1  0.95579005  0.06084446  0.26284349  1.0
  F  F18  1  0.04420995  0.93915554  0.73715651  1.0
  F  F19  1  0.04420995  0.56084446  0.23715651  1.0
  F  F20  1  0.88536312  0.18103158  0.85728352  1.0
  F  F21  1  0.88536312  0.31896842  0.35728352  1.0
  F  F22  1  0.11463688  0.68103158  0.64271648  1.0
  F  F23  1  0.11463688  0.81896842  0.14271648  1.0
  F  F24  1  0.82780241  0.88375281  0.95411553  1.0
  F  F25  1  0.82780241  0.61624719  0.45411553  1.0
  F  F26  1  0.17219759  0.38375281  0.54588447  1.0
  F  F27  1  0.17219759  0.11624719  0.04588447  1.0
  F  F28  1  0.77065283  0.83758579  0.55186980  1.0
  F  F29  1  0.77065283  0.66241421  0.05186980  1.0
  F  F30  1  0.22934717  0.33758579  0.94813020  1.0
  F  F31  1  0.22934717  0.16241421  0.44813020  1.0
  F  F32  1  0.64488632  0.60305870  0.69563778  1.0
  F  F33  1  0.64488632  0.89694130  0.19563778  1.0
  F  F34  1  0.35511368  0.10305870  0.80436222  1.0
  F  F35  1  0.35511368  0.39694130  0.30436222  1.0
  F  F36  1  0.45710027  0.88550028  0.74749207  1.0
  F  F37  1  0.45710027  0.61449972  0.24749207  1.0
  F  F38  1  0.54289973  0.38550028  0.75250793  1.0
  F  F39  1  0.54289973  0.11449972  0.25250793  1.0
  F  F40  1  0.48736998  0.58446004  0.85943623  1.0
  F  F41  1  0.48736998  0.91553996  0.35943623  1.0
  F  F42  1  0.51263002  0.08446004  0.64056377  1.0
  F  F43  1  0.51263002  0.41553996  0.14056377  1.0
  F  F44  1  0.24418998  0.79867613  0.95842356  1.0
  F  F45  1  0.24418998  0.70132387  0.45842356  1.0
  F  F46  1  0.75581002  0.29867613  0.54157644  1.0
  F  F47  1  0.75581002  0.20132387  0.04157644  1.0
