# generated using pymatgen
data_K2Nb4Fe2O13
_symmetry_space_group_name_H-M   'P 1'
_cell_length_a   8.24118272
_cell_length_b   8.24118272
_cell_length_c   9.59548168
_cell_angle_alpha   79.42085956
_cell_angle_beta   100.57914044
_cell_angle_gamma   152.27038278
_symmetry_Int_Tables_number   1
_chemical_formula_structural   K2Nb4Fe2O13
_chemical_formula_sum   'K2 Nb4 Fe2 O13'
_cell_volume   297.76329858
_cell_formula_units_Z   1
loop_
 _symmetry_equiv_pos_site_id
 _symmetry_equiv_pos_as_xyz
  1  'x, y, z'
loop_
 _atom_site_type_symbol
 _atom_site_label
 _atom_site_symmetry_multiplicity
 _atom_site_fract_x
 _atom_site_fract_y
 _atom_site_fract_z
 _atom_site_occupancy
  Fe  Fe0  1  0.23776272  -0.23776272  0.78454994  1.0
  Fe  Fe1  1  0.76223728  0.23776272  0.21545006  1.0
  K  K2  1  0.55213401  0.44786599  0.75168600  1.0
  K  K3  1  0.44786599  -0.44786599  0.24831400  1.0
  O  O4  1  0.93120459  0.06879541  0.69908205  1.0
  O  O5  1  0.06879541  -0.06879541  0.30091795  1.0
  O  O6  1  0.86717572  0.13282428  0.38744031  1.0
  O  O7  1  0.13282428  -0.13282428  0.61255969  1.0
  O  O8  1  0.69834184  0.30165816  0.44107511  1.0
  O  O9  1  0.30165816  -0.30165816  0.55892489  1.0
  O  O10  1  0.37470293  -0.37470293  0.88704914  1.0
  O  O11  1  0.62529707  0.37470293  0.11295086  1.0
  O  O12  1  0.16707243  -0.16707243  0.92440419  1.0
  O  O13  1  0.83292757  0.16707243  0.07559581  1.0
  O  O14  1  0.00000000  0.00000000  0.00000000  1.0
  O  O15  1  0.77313599  0.22686401  0.75131189  1.0
  O  O16  1  0.22686401  -0.22686401  0.24868811  1.0
  Nb  Nb17  1  0.87874977  0.12125023  0.91215521  1.0
  Nb  Nb18  1  0.12125023  -0.12125023  0.08784479  1.0
  Nb  Nb19  1  0.83511977  0.16488023  0.56083634  1.0
  Nb  Nb20  1  0.16488023  -0.16488023  0.43916366  1.0
