# generated using pymatgen
data_TiCdO3
_symmetry_space_group_name_H-M   'P 1'
_cell_length_a   7.68429187
_cell_length_b   5.48460336
_cell_length_c   5.38543893
_cell_angle_alpha   90.00000000
_cell_angle_beta   90.00000000
_cell_angle_gamma   90.00000000
_symmetry_Int_Tables_number   1
_chemical_formula_structural   TiCdO3
_chemical_formula_sum   'Ti4 Cd4 O12'
_cell_volume   226.97090182
_cell_formula_units_Z   4
loop_
 _symmetry_equiv_pos_site_id
 _symmetry_equiv_pos_as_xyz
  1  'x, y, z'
loop_
 _atom_site_type_symbol
 _atom_site_label
 _atom_site_symmetry_multiplicity
 _atom_site_fract_x
 _atom_site_fract_y
 _atom_site_fract_z
 _atom_site_occupancy
  Ti  Ti0  1  0.24687041  0.24479024  0.51305679  1.0
  Ti  Ti1  1  0.74687041  0.75520976  0.01305679  1.0
  Ti  Ti2  1  0.75312959  0.24479024  0.51305679  1.0
  Ti  Ti3  1  0.25312959  0.75520976  0.01305679  1.0
  Cd  Cd4  1  0.50000000  0.29321783  1.00715080  1.0
  Cd  Cd5  1  0.00000000  0.70678217  0.50715080  1.0
  Cd  Cd6  1  0.50000000  0.78306089  0.49460505  1.0
  Cd  Cd7  1  0.00000000  0.21693911  -0.00539495  1.0
  O  O8  1  0.50000000  0.72073406  0.90455067  1.0
  O  O9  1  0.00000000  0.27926594  0.40455067  1.0
  O  O10  1  0.29547238  0.04875403  0.18772572  1.0
  O  O11  1  0.79547238  0.95124597  0.68772572  1.0
  O  O12  1  0.70452762  0.04875403  0.18772572  1.0
  O  O13  1  0.20452762  0.95124597  0.68772572  1.0
  O  O14  1  0.29710361  0.54873657  0.28911123  1.0
  O  O15  1  0.79710361  0.45126343  0.78911123  1.0
  O  O16  1  0.70289639  0.54873657  0.28911123  1.0
  O  O17  1  0.20289639  0.45126343  0.78911123  1.0
  O  O18  1  0.50000000  0.22163653  0.58090600  1.0
  O  O19  1  0.00000000  0.77836347  1.08090600  1.0
