# generated using pymatgen
data_NaAg(NO2)2
_symmetry_space_group_name_H-M   'P 1'
_cell_length_a   7.27710516
_cell_length_b   6.98996460
_cell_length_c   7.26136215
_cell_angle_alpha   61.37613327
_cell_angle_beta   57.47403322
_cell_angle_gamma   61.14983351
_symmetry_Int_Tables_number   1
_chemical_formula_structural   NaAg(NO2)2
_chemical_formula_sum   'Na2 Ag2 N4 O8'
_cell_volume   260.43312550
_cell_formula_units_Z   2
loop_
 _symmetry_equiv_pos_site_id
 _symmetry_equiv_pos_as_xyz
  1  'x, y, z'
loop_
 _atom_site_type_symbol
 _atom_site_label
 _atom_site_symmetry_multiplicity
 _atom_site_fract_x
 _atom_site_fract_y
 _atom_site_fract_z
 _atom_site_occupancy
  Na  Na0  1  0.25000000  0.25000000  1.25000000  1.0
  Na  Na1  1  -0.50000000  0.50000000  0.50000000  1.0
  Ag  Ag2  1  -0.25000000  0.75000000  0.75000000  1.0
  Ag  Ag3  1  0.00000000  0.00000000  0.00000000  1.0
  N  N4  1  0.48539275  0.01460725  1.48539275  1.0
  N  N5  1  0.01460725  0.48539275  1.01460725  1.0
  N  N6  1  -0.20069260  0.20069260  0.79930740  1.0
  N  N7  1  0.20069260  -0.20069260  1.20069260  1.0
  O  O8  1  -0.10810320  0.26169313  0.58554821  1.0
  O  O9  1  0.26086187  0.58554821  1.26169313  1.0
  O  O10  1  0.58554821  0.26086187  -0.10810320  1.0
  O  O11  1  0.26169313  -0.10810320  1.26086187  1.0
  O  O12  1  0.79892936  -0.45157833  1.10246386  1.0
  O  O13  1  -0.44981489  1.10246386  0.54842167  1.0
  O  O14  1  1.10246386  -0.44981489  0.79892936  1.0
  O  O15  1  -0.45157833  0.79892936  0.55018511  1.0
