# generated using pymatgen
data_Y2Te4O11
_symmetry_space_group_name_H-M   'P 1'
_cell_length_a   6.77202432
_cell_length_b   6.77202432
_cell_length_c   16.45450699
_cell_angle_alpha   76.30608438
_cell_angle_beta   103.69391562
_cell_angle_gamma   134.68993147
_symmetry_Int_Tables_number   1
_chemical_formula_structural   Y2Te4O11
_chemical_formula_sum   'Y4 Te8 O22'
_cell_volume   518.51679643
_cell_formula_units_Z   2
loop_
 _symmetry_equiv_pos_site_id
 _symmetry_equiv_pos_as_xyz
  1  'x, y, z'
loop_
 _atom_site_type_symbol
 _atom_site_label
 _atom_site_symmetry_multiplicity
 _atom_site_fract_x
 _atom_site_fract_y
 _atom_site_fract_z
 _atom_site_occupancy
  Y  Y0  1  1.62672531  -0.13368218  0.46181314  1.0
  Y  Y1  1  1.13368218  0.37327469  0.96181314  1.0
  Y  Y2  1  0.86631782  -0.37327469  0.03818686  1.0
  Y  Y3  1  0.37327469  0.13368218  0.53818686  1.0
  Te  Te4  1  0.65850937  -0.09620814  0.80159165  1.0
  Te  Te5  1  1.09620814  -0.65850937  0.30159165  1.0
  Te  Te6  1  0.90379186  0.65850937  0.69840835  1.0
  Te  Te7  1  1.34149063  0.09620814  0.19840835  1.0
  Te  Te8  1  0.34159614  0.08638514  0.87516036  1.0
  Te  Te9  1  0.91361486  0.65840386  0.37516036  1.0
  Te  Te10  1  1.08638514  -0.65840386  0.62483964  1.0
  Te  Te11  1  1.65840386  -0.08638514  0.12483964  1.0
  O  O12  1  1.91267068  -0.04492568  0.90371912  1.0
  O  O13  1  1.04492568  -0.91267068  0.40371912  1.0
  O  O14  1  0.95507432  0.91267068  0.59628088  1.0
  O  O15  1  0.08732932  0.04492568  0.09628088  1.0
  O  O16  1  1.74363981  0.16240969  0.54878575  1.0
  O  O17  1  0.83759031  -0.74363981  0.04878575  1.0
  O  O18  1  1.16240969  0.74363981  0.95121425  1.0
  O  O19  1  0.25636019  -0.16240969  0.45121425  1.0
  O  O20  1  0.69476209  0.18363028  0.87169263  1.0
  O  O21  1  0.81636972  -0.69476209  0.37169263  1.0
  O  O22  1  1.18363028  0.69476209  0.62830737  1.0
  O  O23  1  1.30523791  -0.18363028  0.12830737  1.0
  O  O24  1  0.59530062  0.28526142  0.66782839  1.0
  O  O25  1  0.71473858  -0.59530062  0.16782839  1.0
  O  O26  1  1.28526142  0.59530062  0.83217161  1.0
  O  O27  1  1.40469938  -0.28526142  0.33217161  1.0
  O  O28  1  0.46600510  0.33502819  0.95461778  1.0
  O  O29  1  0.66497181  0.53399490  0.45461778  1.0
  O  O30  1  1.33502819  -0.53399490  0.54538222  1.0
  O  O31  1  1.53399490  -0.33502819  0.04538222  1.0
  O  O32  1  0.62818641  0.62818641  0.75000000  1.0
  O  O33  1  0.37181359  0.37181359  0.25000000  1.0
