# generated using pymatgen
data_YGaNi
_symmetry_space_group_name_H-M   'P 1'
_cell_length_a   6.89888040
_cell_length_b   4.30655204
_cell_length_c   7.32956450
_cell_angle_alpha   90.00000000
_cell_angle_beta   90.00000000
_cell_angle_gamma   90.00000000
_symmetry_Int_Tables_number   1
_chemical_formula_structural   YGaNi
_chemical_formula_sum   'Y4 Ga4 Ni4'
_cell_volume   217.76420123
_cell_formula_units_Z   4
loop_
 _symmetry_equiv_pos_site_id
 _symmetry_equiv_pos_as_xyz
  1  'x, y, z'
loop_
 _atom_site_type_symbol
 _atom_site_label
 _atom_site_symmetry_multiplicity
 _atom_site_fract_x
 _atom_site_fract_y
 _atom_site_fract_z
 _atom_site_occupancy
  Y  Y0  1  0.98249861  0.75000000  0.69733151  1.0
  Y  Y1  1  0.48249861  0.75000000  0.80266849  1.0
  Y  Y2  1  0.01750139  0.25000000  0.30266849  1.0
  Y  Y3  1  0.51750139  0.25000000  0.19733151  1.0
  Ga  Ga4  1  0.82127420  0.75000000  0.07923074  1.0
  Ga  Ga5  1  0.32127420  0.75000000  0.42076926  1.0
  Ga  Ga6  1  0.17872580  0.25000000  0.92076926  1.0
  Ga  Ga7  1  0.67872580  0.25000000  0.57923074  1.0
  Ni  Ni8  1  0.70765613  0.75000000  0.40702956  1.0
  Ni  Ni9  1  0.20765613  0.75000000  0.09297044  1.0
  Ni  Ni10  1  0.29234387  0.25000000  0.59297044  1.0
  Ni  Ni11  1  0.79234387  0.25000000  0.90702956  1.0
