# generated using pymatgen
data_PWO5
_symmetry_space_group_name_H-M   'P 1'
_cell_length_a   5.37986289
_cell_length_b   12.46391158
_cell_length_c   13.16841284
_cell_angle_alpha   90.00000000
_cell_angle_beta   90.00000000
_cell_angle_gamma   90.00000000
_symmetry_Int_Tables_number   1
_chemical_formula_structural   PWO5
_chemical_formula_sum   'P8 W8 O40'
_cell_volume   882.99653770
_cell_formula_units_Z   8
loop_
 _symmetry_equiv_pos_site_id
 _symmetry_equiv_pos_as_xyz
  1  'x, y, z'
loop_
 _atom_site_type_symbol
 _atom_site_label
 _atom_site_symmetry_multiplicity
 _atom_site_fract_x
 _atom_site_fract_y
 _atom_site_fract_z
 _atom_site_occupancy
  P  P0  1  0.24998750  0.86886500  0.02139451  1.0
  P  P1  1  0.24998750  0.63113500  0.02139451  1.0
  P  P2  1  0.74998750  0.86886500  0.47860549  1.0
  P  P3  1  0.74998750  0.63113500  0.47860549  1.0
  P  P4  1  0.75001250  0.36886500  0.97860549  1.0
  P  P5  1  0.75001250  0.13113500  0.97860549  1.0
  P  P6  1  0.25001250  0.36886500  0.52139451  1.0
  P  P7  1  0.25001250  0.13113500  0.52139451  1.0
  W  W8  1  0.24996839  0.89969146  0.65261656  1.0
  W  W9  1  0.24996839  0.60030854  0.65261656  1.0
  W  W10  1  0.74996839  0.89969146  0.84738344  1.0
  W  W11  1  0.74996839  0.60030854  0.84738344  1.0
  W  W12  1  0.75003161  0.39969146  0.34738344  1.0
  W  W13  1  0.75003161  0.10030854  0.34738344  1.0
  W  W14  1  0.25003161  0.39969146  0.15261656  1.0
  W  W15  1  0.25003161  0.10030854  0.15261656  1.0
  O  O16  1  0.51253135  0.88137117  0.54088658  1.0
  O  O17  1  0.51253135  0.61862883  0.54088658  1.0
  O  O18  1  1.01253135  0.88137117  0.95911342  1.0
  O  O19  1  1.01253135  0.61862883  0.95911342  1.0
  O  O20  1  0.48746865  0.38137117  0.45911342  1.0
  O  O21  1  0.48746865  0.11862883  0.45911342  1.0
  O  O22  1  -0.01253135  0.38137117  0.04088658  1.0
  O  O23  1  -0.01253135  0.11862883  0.04088658  1.0
  O  O24  1  0.48733605  0.88142089  0.95905742  1.0
  O  O25  1  0.48733605  0.61857911  0.95905742  1.0
  O  O26  1  0.98733605  0.88142089  0.54094258  1.0
  O  O27  1  0.98733605  0.61857911  0.54094258  1.0
  O  O28  1  0.51266395  0.38142089  0.04094258  1.0
  O  O29  1  0.51266395  0.11857911  0.04094258  1.0
  O  O30  1  0.01266395  0.38142089  0.45905742  1.0
  O  O31  1  0.01266395  0.11857911  0.45905742  1.0
  O  O32  1  0.24994313  0.44134527  0.61571585  1.0
  O  O33  1  0.24994313  0.05865473  0.61571585  1.0
  O  O34  1  0.74994313  0.44134527  0.88428415  1.0
  O  O35  1  0.74994313  0.05865473  0.88428415  1.0
  O  O36  1  0.75005687  0.94134527  0.38428415  1.0
  O  O37  1  0.75005687  0.55865473  0.38428415  1.0
  O  O38  1  0.25005687  0.94134527  0.11571585  1.0
  O  O39  1  0.25005687  0.55865473  0.11571585  1.0
  O  O40  1  -0.00000307  0.91737568  0.75001294  1.0
  O  O41  1  -0.00000307  0.58262432  0.75001294  1.0
  O  O42  1  0.49999693  0.91737568  0.74998706  1.0
  O  O43  1  0.49999693  0.58262432  0.74998706  1.0
  O  O44  1  1.00000307  0.41737568  0.24998706  1.0
  O  O45  1  1.00000307  0.08262432  0.24998706  1.0
  O  O46  1  0.50000307  0.41737568  0.25001294  1.0
  O  O47  1  0.50000307  0.08262432  0.25001294  1.0
  O  O48  1  0.25014110  0.75000000  0.07052931  1.0
  O  O49  1  0.75014110  0.75000000  0.42947069  1.0
  O  O50  1  0.74985890  0.25000000  0.92947069  1.0
  O  O51  1  0.24985890  0.25000000  0.57052931  1.0
  O  O52  1  0.24994020  0.75000000  0.66772674  1.0
  O  O53  1  0.74994020  0.75000000  0.83227326  1.0
  O  O54  1  0.75005980  0.25000000  0.33227326  1.0
  O  O55  1  0.25005980  0.25000000  0.16772674  1.0
