# generated using pymatgen
data_CaBPO5
_symmetry_space_group_name_H-M   'P 1'
_cell_length_a   6.70091033
_cell_length_b   6.70091033
_cell_length_c   6.80328201
_cell_angle_alpha   90.00000000
_cell_angle_beta   90.00000000
_cell_angle_gamma   120.00000000
_symmetry_Int_Tables_number   1
_chemical_formula_structural   CaBPO5
_chemical_formula_sum   'Ca3 B3 P3 O15'
_cell_volume   264.55545283
_cell_formula_units_Z   3
loop_
 _symmetry_equiv_pos_site_id
 _symmetry_equiv_pos_as_xyz
  1  'x, y, z'
loop_
 _atom_site_type_symbol
 _atom_site_label
 _atom_site_symmetry_multiplicity
 _atom_site_fract_x
 _atom_site_fract_y
 _atom_site_fract_z
 _atom_site_occupancy
  Ca  Ca0  1  0.39764720  0.39764720  0.00000000  1.0
  Ca  Ca1  1  0.00000000  0.60235280  0.66666667  1.0
  Ca  Ca2  1  0.60235280  0.00000000  0.33333333  1.0
  B  B3  1  0.89824174  0.89824174  0.00000000  1.0
  B  B4  1  -0.00000000  0.10175826  0.66666667  1.0
  B  B5  1  0.10175826  0.00000000  0.33333333  1.0
  P  P6  1  0.41775512  0.41775512  0.50000000  1.0
  P  P7  1  -0.00000000  0.58224488  0.16666667  1.0
  P  P8  1  0.58224488  0.00000000  0.83333333  1.0
  O  O9  1  0.39620468  0.86139884  0.68225389  1.0
  O  O10  1  0.86139884  0.39620468  0.31774611  1.0
  O  O11  1  0.46519416  0.60379532  0.34892056  1.0
  O  O12  1  0.13860116  0.53480584  0.01558723  1.0
  O  O13  1  0.60379532  0.46519416  0.65107944  1.0
  O  O14  1  0.53480584  0.13860116  0.98441277  1.0
  O  O15  1  0.84326559  0.65108314  0.03814436  1.0
  O  O16  1  0.65108314  0.84326559  0.96185564  1.0
  O  O17  1  0.80781755  0.15673441  0.70481103  1.0
  O  O18  1  0.34891686  0.19218245  0.37147770  1.0
  O  O19  1  0.15673441  0.80781755  0.29518897  1.0
  O  O20  1  0.19218245  0.34891686  0.62852230  1.0
  O  O21  1  0.95403739  0.95403739  0.50000000  1.0
  O  O22  1  0.00000000  0.04596261  0.16666667  1.0
  O  O23  1  0.04596261  0.00000000  0.83333333  1.0
