# generated using pymatgen
data_Na2Ta4O11
_symmetry_space_group_name_H-M   'P 1'
_cell_length_a   12.85154533
_cell_length_b   12.85154533
_cell_length_c   12.85154533
_cell_angle_alpha   28.22321262
_cell_angle_beta   28.22321262
_cell_angle_gamma   28.22321262
_symmetry_Int_Tables_number   1
_chemical_formula_structural   Na2Ta4O11
_chemical_formula_sum   'Na4 Ta8 O22'
_cell_volume   419.40515404
_cell_formula_units_Z   2
loop_
 _symmetry_equiv_pos_site_id
 _symmetry_equiv_pos_as_xyz
  1  'x, y, z'
loop_
 _atom_site_type_symbol
 _atom_site_label
 _atom_site_symmetry_multiplicity
 _atom_site_fract_x
 _atom_site_fract_y
 _atom_site_fract_z
 _atom_site_occupancy
  Na  Na0  1  0.83410208  0.83410208  -0.16589792  1.0
  Na  Na1  1  0.33410208  0.33410208  0.33410208  1.0
  Na  Na2  1  0.66589792  0.66589792  -0.33410208  1.0
  Na  Na3  1  0.16589792  0.16589792  0.16589792  1.0
  Ta  Ta4  1  1.11231485  -0.25000000  0.38768515  1.0
  Ta  Ta5  1  0.61231485  -0.11231485  0.25000000  1.0
  Ta  Ta6  1  0.25000000  0.61231485  -0.11231485  1.0
  Ta  Ta7  1  0.75000000  0.38768515  0.11231485  1.0
  Ta  Ta8  1  0.88768515  0.25000000  -0.38768515  1.0
  Ta  Ta9  1  1.38768515  0.11231485  -0.25000000  1.0
  Ta  Ta10  1  1.00000000  -0.00000000  -0.00000000  1.0
  Ta  Ta11  1  0.50000000  0.50000000  0.50000000  1.0
  O  O12  1  0.93755603  0.24578921  -0.27568661  1.0
  O  O13  1  1.43755603  0.22431339  -0.25421079  1.0
  O  O14  1  0.77568661  0.25421079  -0.43755603  1.0
  O  O15  1  1.27568661  0.06244397  -0.24578921  1.0
  O  O16  1  0.75421079  0.27568661  0.06244397  1.0
  O  O17  1  0.25421079  0.56244397  -0.22431339  1.0
  O  O18  1  1.06244397  -0.24578921  0.27568661  1.0
  O  O19  1  0.56244397  0.77568661  -0.74578921  1.0
  O  O20  1  0.72431339  -0.06244397  0.24578921  1.0
  O  O21  1  1.22431339  -0.25421079  0.43755603  1.0
  O  O22  1  0.74578921  0.43755603  0.22431339  1.0
  O  O23  1  1.24578921  -0.27568661  -0.06244397  1.0
  O  O24  1  0.50326258  0.75000000  -0.00326258  1.0
  O  O25  1  1.00326258  -0.50326258  0.25000000  1.0
  O  O26  1  0.25000000  1.00326258  -0.50326258  1.0
  O  O27  1  0.75000000  0.99673742  -0.49673742  1.0
  O  O28  1  0.49673742  0.25000000  0.00326258  1.0
  O  O29  1  0.99673742  0.50326258  -0.25000000  1.0
  O  O30  1  0.90612902  -0.09387098  -0.09387098  1.0
  O  O31  1  0.40612902  0.40612902  0.40612902  1.0
  O  O32  1  0.59387098  0.59387098  -0.40612902  1.0
  O  O33  1  1.09387098  0.09387098  0.09387098  1.0
