# generated using pymatgen
data_Mn3ZnO7
_symmetry_space_group_name_H-M   'P 1'
_cell_length_a   6.54479466
_cell_length_b   6.54479466
_cell_length_c   6.54479466
_cell_angle_alpha   70.93573361
_cell_angle_beta   70.93573361
_cell_angle_gamma   70.93573361
_symmetry_Int_Tables_number   1
_chemical_formula_structural   Mn3ZnO7
_chemical_formula_sum   'Mn6 Zn2 O14'
_cell_volume   242.72415167
_cell_formula_units_Z   2
loop_
 _symmetry_equiv_pos_site_id
 _symmetry_equiv_pos_as_xyz
  1  'x, y, z'
loop_
 _atom_site_type_symbol
 _atom_site_label
 _atom_site_symmetry_multiplicity
 _atom_site_fract_x
 _atom_site_fract_y
 _atom_site_fract_z
 _atom_site_occupancy
  Mn  Mn0  1  0.42079800  0.86048548  -0.28428079  1.0
  Mn  Mn1  1  1.13951452  1.28428079  0.57920200  1.0
  Mn  Mn2  1  1.28428079  1.57920200  0.13951452  1.0
  Mn  Mn3  1  1.57920200  1.13951452  0.28428079  1.0
  Mn  Mn4  1  0.86048548  0.71571921  -0.57920200  1.0
  Mn  Mn5  1  0.71571921  0.42079800  -0.13951452  1.0
  Zn  Zn6  1  0.87199051  0.87199051  -0.12800949  1.0
  Zn  Zn7  1  1.12800949  1.12800949  0.12800949  1.0
  O  O8  1  0.40837201  0.55721669  -0.16184099  1.0
  O  O9  1  0.44278331  0.16184099  -0.40837201  1.0
  O  O10  1  0.16184099  0.59162799  -0.55721669  1.0
  O  O11  1  0.59162799  0.44278331  -0.83815901  1.0
  O  O12  1  0.55721669  0.83815901  -0.59162799  1.0
  O  O13  1  0.83815901  0.40837201  -0.44278331  1.0
  O  O14  1  0.67023564  0.13445243  -0.01891340  1.0
  O  O15  1  0.86554757  0.01891340  -0.67023564  1.0
  O  O16  1  1.01891340  -0.67023564  -0.13445243  1.0
  O  O17  1  0.32976436  -0.13445243  0.01891340  1.0
  O  O18  1  1.13445243  -0.01891340  -0.32976436  1.0
  O  O19  1  0.98108660  -0.32976436  0.13445243  1.0
  O  O20  1  0.73613674  0.73613674  -0.26386326  1.0
  O  O21  1  1.26386326  1.26386326  0.26386326  1.0
