# generated using pymatgen
data_AlH6IO4
_symmetry_space_group_name_H-M   'P 1'
_cell_length_a   8.43497784
_cell_length_b   8.43497784
_cell_length_c   5.26302625
_cell_angle_alpha   72.64973136
_cell_angle_beta   107.35026864
_cell_angle_gamma   69.18741773
_symmetry_Int_Tables_number   1
_chemical_formula_structural   AlH6IO4
_chemical_formula_sum   'Al2 H12 I2 O8'
_cell_volume   297.85221913
_cell_formula_units_Z   2
loop_
 _symmetry_equiv_pos_site_id
 _symmetry_equiv_pos_as_xyz
  1  'x, y, z'
loop_
 _atom_site_type_symbol
 _atom_site_label
 _atom_site_symmetry_multiplicity
 _atom_site_fract_x
 _atom_site_fract_y
 _atom_site_fract_z
 _atom_site_occupancy
  Al  Al0  1  1.45216260  0.45216260  0.75000000  1.0
  Al  Al1  1  0.54783740  0.54783740  0.25000000  1.0
  H  H2  1  1.34686735  -0.20490805  0.69130764  1.0
  H  H3  1  1.20490805  0.65313265  0.19130764  1.0
  H  H4  1  0.79509195  0.34686735  0.80869236  1.0
  H  H5  1  1.65313265  0.20490805  0.30869236  1.0
  H  H6  1  1.59995398  0.11062847  0.78795169  1.0
  H  H7  1  0.88937153  0.40004602  0.28795169  1.0
  H  H8  1  1.11062847  0.59995398  0.71204831  1.0
  H  H9  1  1.40004602  -0.11062847  0.21204831  1.0
  H  H10  1  1.37755255  0.20209007  0.61760232  1.0
  H  H11  1  0.79790993  0.62244745  0.11760232  1.0
  H  H12  1  1.20209007  0.37755255  0.88239768  1.0
  H  H13  1  1.62244745  -0.20209007  0.38239768  1.0
  I  I14  1  0.84851953  0.84851953  0.75000000  1.0
  I  I15  1  1.15148047  0.15148047  0.25000000  1.0
  O  O16  1  1.41450216  -0.33889375  0.83397440  1.0
  O  O17  1  1.33889375  0.58549784  0.33397440  1.0
  O  O18  1  0.66110625  0.41450216  0.66602560  1.0
  O  O19  1  1.58549784  0.33889375  0.16602560  1.0
  O  O20  1  1.48004366  0.20355642  0.76861017  1.0
  O  O21  1  0.79644358  0.51995634  0.26861017  1.0
  O  O22  1  1.20355642  0.48004366  0.73138983  1.0
  O  O23  1  1.51995634  -0.20355642  0.23138983  1.0
