# generated using pymatgen
data_BaTi18Mn3O38
_symmetry_space_group_name_H-M   'P 1'
_cell_length_a   9.24173141
_cell_length_b   9.24173141
_cell_length_c   9.24173141
_cell_angle_alpha   68.92048667
_cell_angle_beta   68.92048667
_cell_angle_gamma   68.92048667
_symmetry_Int_Tables_number   1
_chemical_formula_structural   BaTi18Mn3O38
_chemical_formula_sum   'Ba1 Ti18 Mn3 O38'
_cell_volume   662.74682494
_cell_formula_units_Z   1
loop_
 _symmetry_equiv_pos_site_id
 _symmetry_equiv_pos_as_xyz
  1  'x, y, z'
loop_
 _atom_site_type_symbol
 _atom_site_label
 _atom_site_symmetry_multiplicity
 _atom_site_fract_x
 _atom_site_fract_y
 _atom_site_fract_z
 _atom_site_occupancy
  O  O0  1  0.64473761  -0.51097240  0.01392507  1.0
  O  O1  1  0.51097240  0.98607493  -0.64473761  1.0
  O  O2  1  0.98607493  0.35526239  -0.48902760  1.0
  O  O3  1  0.35526239  0.51097240  -0.01392507  1.0
  O  O4  1  0.48902760  0.01392507  -0.35526239  1.0
  O  O5  1  1.01392507  -0.35526239  -0.51097240  1.0
  O  O6  1  0.43881973  0.73931076  -0.34601825  1.0
  O  O7  1  0.26068924  0.34601825  -0.43881973  1.0
  O  O8  1  0.34601825  0.56118027  -0.73931076  1.0
  O  O9  1  0.56118027  0.26068924  -0.65398175  1.0
  O  O10  1  0.73931076  0.65398175  -0.56118027  1.0
  O  O11  1  0.65398175  0.43881973  -0.26068924  1.0
  O  O12  1  0.63469752  0.98671982  -0.10807509  1.0
  O  O13  1  1.01328018  1.10807509  0.36530248  1.0
  O  O14  1  1.10807509  1.36530248  0.01328018  1.0
  O  O15  1  1.36530248  1.01328018  0.10807509  1.0
  O  O16  1  0.98671982  0.89192491  -0.36530248  1.0
  O  O17  1  0.89192491  0.63469752  -0.01328018  1.0
  O  O18  1  1.57617224  1.20195008  0.04302079  1.0
  O  O19  1  0.79804992  0.95697921  -0.57617224  1.0
  O  O20  1  0.95697921  0.42382776  -0.20195008  1.0
  O  O21  1  0.42382776  0.79804992  -0.04302079  1.0
  O  O22  1  1.20195008  1.04302079  0.57617224  1.0
  O  O23  1  1.04302079  1.57617224  0.20195008  1.0
  O  O24  1  0.80844045  -0.12112960  0.12589136  1.0
  O  O25  1  0.12112960  0.87410864  -0.80844045  1.0
  O  O26  1  0.87410864  0.19155955  -0.87887040  1.0
  O  O27  1  0.19155955  0.12112960  -0.12589136  1.0
  O  O28  1  0.87887040  0.12589136  -0.19155955  1.0
  O  O29  1  1.12589136  -0.19155955  -0.12112960  1.0
  O  O30  1  0.71328654  0.71328654  -0.28671346  1.0
  O  O31  1  1.28671346  1.28671346  0.28671346  1.0
  O  O32  1  0.79465048  0.42511928  -0.74451202  1.0
  O  O33  1  0.57488072  0.74451202  -0.79465048  1.0
  O  O34  1  0.74451202  0.20534952  -0.42511928  1.0
  O  O35  1  0.20534952  0.57488072  -0.25548798  1.0
  O  O36  1  0.42511928  0.25548798  -0.20534952  1.0
  O  O37  1  0.25548798  0.79465048  -0.57488072  1.0
  Ti  Ti38  1  0.58825370  -0.03269642  0.13947750  1.0
  Ti  Ti39  1  1.03269642  -0.13947750  -0.58825370  1.0
  Ti  Ti40  1  0.86052250  -0.58825370  0.03269642  1.0
  Ti  Ti41  1  0.41174630  0.03269642  -0.13947750  1.0
  Ti  Ti42  1  0.96730358  0.13947750  -0.41174630  1.0
  Ti  Ti43  1  1.13947750  -0.41174630  -0.03269642  1.0
  Ti  Ti44  1  0.81320633  -0.34781954  0.21334992  1.0
  Ti  Ti45  1  0.34781954  0.78665008  -0.81320633  1.0
  Ti  Ti46  1  0.78665008  0.18679367  -0.65218046  1.0
  Ti  Ti47  1  0.18679367  0.34781954  -0.21334992  1.0
  Ti  Ti48  1  0.65218046  0.21334992  -0.18679367  1.0
  Ti  Ti49  1  1.21334992  -0.18679367  -0.34781954  1.0
  Ti  Ti50  1  0.52163067  0.62407279  -0.15047012  1.0
  Ti  Ti51  1  0.37592721  0.15047012  -0.52163067  1.0
  Ti  Ti52  1  0.15047012  0.47836933  -0.62407279  1.0
  Ti  Ti53  1  0.47836933  0.37592721  -0.84952988  1.0
  Ti  Ti54  1  0.62407279  0.84952988  -0.47836933  1.0
  Ti  Ti55  1  0.84952988  0.52163067  -0.37592721  1.0
  Ba  Ba56  1  0.50000000  0.50000000  -0.50000000  1.0
  Mn  Mn57  1  0.00000000  0.00000000  0.00000000  1.0
  Mn  Mn58  1  0.81014488  0.81014488  -0.18985512  1.0
  Mn  Mn59  1  1.18985512  1.18985512  0.18985512  1.0
