# generated using pymatgen
data_Al(HO)3
_symmetry_space_group_name_H-M   'P 1'
_cell_length_a   5.36847447
_cell_length_b   5.08225805
_cell_length_c   5.15956874
_cell_angle_alpha   59.05501319
_cell_angle_beta   63.87478505
_cell_angle_gamma   73.51573697
_symmetry_Int_Tables_number   1
_chemical_formula_structural   Al(HO)3
_chemical_formula_sum   'Al2 H6 O6'
_cell_volume   108.10009592
_cell_formula_units_Z   2
loop_
 _symmetry_equiv_pos_site_id
 _symmetry_equiv_pos_as_xyz
  1  'x, y, z'
loop_
 _atom_site_type_symbol
 _atom_site_label
 _atom_site_symmetry_multiplicity
 _atom_site_fract_x
 _atom_site_fract_y
 _atom_site_fract_z
 _atom_site_occupancy
  Al  Al0  1  -0.99810226  -0.16206992  0.82770934  1.0
  Al  Al1  1  -0.00189774  0.16206992  0.17229066  1.0
  H  H2  1  -0.79769494  0.32953370  0.58604191  1.0
  H  H3  1  -0.20230506  -0.32953370  0.41395809  1.0
  H  H4  1  -0.58402987  -0.11845642  0.33287896  1.0
  H  H5  1  -0.41597013  0.11845642  0.66712104  1.0
  H  H6  1  -0.58853543  -0.54126155  0.90412607  1.0
  H  H7  1  -0.41146457  0.54126155  0.09587393  1.0
  O  O8  1  -0.78898091  0.12953142  0.77022154  1.0
  O  O9  1  -0.21101909  -0.12953142  0.22977846  1.0
  O  O10  1  -0.78267569  -0.14978650  0.41066627  1.0
  O  O11  1  -0.21732431  0.14978650  0.58933373  1.0
  O  O12  1  -0.78185589  0.48300906  0.03511141  1.0
  O  O13  1  -0.21814411  -0.48300906  0.96488859  1.0
