# generated using pymatgen
data_TaTe4
_symmetry_space_group_name_H-M   'P 1'
_cell_length_a   9.36808246
_cell_length_b   9.36808246
_cell_length_c   20.92172055
_cell_angle_alpha   90.00000000
_cell_angle_beta   90.00000000
_cell_angle_gamma   90.00000000
_symmetry_Int_Tables_number   1
_chemical_formula_structural   TaTe4
_chemical_formula_sum   'Ta12 Te48'
_cell_volume   1836.11046903
_cell_formula_units_Z   12
loop_
 _symmetry_equiv_pos_site_id
 _symmetry_equiv_pos_as_xyz
  1  'x, y, z'
loop_
 _atom_site_type_symbol
 _atom_site_label
 _atom_site_symmetry_multiplicity
 _atom_site_fract_x
 _atom_site_fract_y
 _atom_site_fract_z
 _atom_site_occupancy
  Ta  Ta0  1  0.00000000  0.50000000  0.91533671  1.0
  Ta  Ta1  1  0.00000000  0.50000000  0.41533671  1.0
  Ta  Ta2  1  0.50000000  0.00000000  0.08466329  1.0
  Ta  Ta3  1  0.50000000  0.00000000  0.58466329  1.0
  Ta  Ta4  1  0.00000000  0.50000000  0.76376058  1.0
  Ta  Ta5  1  0.00000000  0.50000000  0.26376058  1.0
  Ta  Ta6  1  0.50000000  0.00000000  0.23623942  1.0
  Ta  Ta7  1  0.50000000  0.00000000  0.73623942  1.0
  Ta  Ta8  1  0.00000000  0.50000000  0.06881975  1.0
  Ta  Ta9  1  0.00000000  0.50000000  0.56881975  1.0
  Ta  Ta10  1  0.50000000  0.00000000  0.93118025  1.0
  Ta  Ta11  1  0.50000000  0.00000000  0.43118025  1.0
  Te  Te12  1  0.08398763  0.25809513  0.83553150  1.0
  Te  Te13  1  0.91601237  0.25809513  0.33553150  1.0
  Te  Te14  1  0.08398763  0.74190487  0.33553150  1.0
  Te  Te15  1  0.91601237  0.74190487  0.83553150  1.0
  Te  Te16  1  0.75809513  0.58398763  0.33553150  1.0
  Te  Te17  1  0.24190487  0.58398763  0.83553150  1.0
  Te  Te18  1  0.75809513  0.41601237  0.83553150  1.0
  Te  Te19  1  0.24190487  0.41601237  0.33553150  1.0
  Te  Te20  1  0.41601237  0.24190487  0.16446850  1.0
  Te  Te21  1  0.58398763  0.24190487  0.66446850  1.0
  Te  Te22  1  0.41601237  0.75809513  0.66446850  1.0
  Te  Te23  1  0.58398763  0.75809513  0.16446850  1.0
  Te  Te24  1  0.74190487  0.91601237  0.66446850  1.0
  Te  Te25  1  0.25809513  0.91601237  0.16446850  1.0
  Te  Te26  1  0.74190487  0.08398763  0.16446850  1.0
  Te  Te27  1  0.25809513  0.08398763  0.66446850  1.0
  Te  Te28  1  0.09646259  0.71316910  0.66611478  1.0
  Te  Te29  1  0.90353741  0.71316910  0.16611478  1.0
  Te  Te30  1  0.09646259  0.28683090  0.16611478  1.0
  Te  Te31  1  0.90353741  0.28683090  0.66611478  1.0
  Te  Te32  1  0.21316910  0.59646259  0.16611478  1.0
  Te  Te33  1  0.78683090  0.59646259  0.66611478  1.0
  Te  Te34  1  0.21316910  0.40353741  0.66611478  1.0
  Te  Te35  1  0.78683090  0.40353741  0.16611478  1.0
  Te  Te36  1  0.40353741  0.78683090  0.33388522  1.0
  Te  Te37  1  0.59646259  0.78683090  0.83388522  1.0
  Te  Te38  1  0.40353741  0.21316910  0.83388522  1.0
  Te  Te39  1  0.59646259  0.21316910  0.33388522  1.0
  Te  Te40  1  0.28683090  0.90353741  0.83388522  1.0
  Te  Te41  1  0.71316910  0.90353741  0.33388522  1.0
  Te  Te42  1  0.28683090  0.09646259  0.33388522  1.0
  Te  Te43  1  0.71316910  0.09646259  0.83388522  1.0
  Te  Te44  1  0.23734474  0.40825530  0.99661917  1.0
  Te  Te45  1  0.76265526  0.40825530  0.49661917  1.0
  Te  Te46  1  0.23734474  0.59174470  0.49661917  1.0
  Te  Te47  1  0.76265526  0.59174470  0.99661917  1.0
  Te  Te48  1  0.90825530  0.73734474  0.49661917  1.0
  Te  Te49  1  0.09174470  0.73734474  0.99661917  1.0
  Te  Te50  1  0.90825530  0.26265526  0.99661917  1.0
  Te  Te51  1  0.09174470  0.26265526  0.49661917  1.0
  Te  Te52  1  0.26265526  0.09174470  0.00338083  1.0
  Te  Te53  1  0.73734474  0.09174470  0.50338083  1.0
  Te  Te54  1  0.26265526  0.90825530  0.50338083  1.0
  Te  Te55  1  0.73734474  0.90825530  0.00338083  1.0
  Te  Te56  1  0.59174470  0.76265526  0.50338083  1.0
  Te  Te57  1  0.40825530  0.76265526  0.00338083  1.0
  Te  Te58  1  0.59174470  0.23734474  0.00338083  1.0
  Te  Te59  1  0.40825530  0.23734474  0.50338083  1.0
