# generated using pymatgen
data_CsCuBr3
_symmetry_space_group_name_H-M   'P 1'
_cell_length_a   7.62096263
_cell_length_b   7.62096263
_cell_length_c   13.13813205
_cell_angle_alpha   90.00000000
_cell_angle_beta   90.00000000
_cell_angle_gamma   118.09611417
_symmetry_Int_Tables_number   1
_chemical_formula_structural   CsCuBr3
_chemical_formula_sum   'Cs4 Cu4 Br12'
_cell_volume   673.13172739
_cell_formula_units_Z   4
loop_
 _symmetry_equiv_pos_site_id
 _symmetry_equiv_pos_as_xyz
  1  'x, y, z'
loop_
 _atom_site_type_symbol
 _atom_site_label
 _atom_site_symmetry_multiplicity
 _atom_site_fract_x
 _atom_site_fract_y
 _atom_site_fract_z
 _atom_site_occupancy
  Cs  Cs0  1  -0.18129751  1.18129751  0.25000000  1.0
  Cs  Cs1  1  0.18129751  0.81870249  0.75000000  1.0
  Cs  Cs2  1  0.52166973  0.52166973  0.00000000  1.0
  Cs  Cs3  1  0.47833027  0.47833027  0.50000000  1.0
  Cu  Cu4  1  0.16573851  0.86637152  0.12097245  1.0
  Cu  Cu5  1  -0.13362848  1.16573851  0.87902755  1.0
  Cu  Cu6  1  0.13362848  0.83426149  0.37902755  1.0
  Cu  Cu7  1  -0.16573851  1.13362848  0.62097245  1.0
  Br  Br8  1  -0.17327283  1.68756088  0.28644919  1.0
  Br  Br9  1  0.68756088  0.82672717  0.71355081  1.0
  Br  Br10  1  -0.68756088  1.17327283  0.21355081  1.0
  Br  Br11  1  0.17327283  0.31243912  0.78644919  1.0
  Br  Br12  1  0.04000181  1.58018588  0.01556456  1.0
  Br  Br13  1  0.58018588  1.04000181  0.98443544  1.0
  Br  Br14  1  -0.58018588  0.95999819  0.48443544  1.0
  Br  Br15  1  -0.04000181  0.41981412  0.51556456  1.0
  Br  Br16  1  0.29353426  0.70646574  0.25000000  1.0
  Br  Br17  1  -0.29353426  1.29353426  0.75000000  1.0
  Br  Br18  1  1.01552692  1.01552692  0.00000000  1.0
  Br  Br19  1  -0.01552692  -0.01552692  0.50000000  1.0
