# generated using pymatgen
data_NaCaBeSi2O6F
_symmetry_space_group_name_H-M   'P 1'
_cell_length_a   7.47634283
_cell_length_b   7.45577047
_cell_length_c   10.11594666
_cell_angle_alpha   90.00000000
_cell_angle_beta   90.00000000
_cell_angle_gamma   90.00000000
_symmetry_Int_Tables_number   1
_chemical_formula_structural   NaCaBeSi2O6F
_chemical_formula_sum   'Na4 Ca4 Be4 Si8 O24 F4'
_cell_volume   563.88204768
_cell_formula_units_Z   4
loop_
 _symmetry_equiv_pos_site_id
 _symmetry_equiv_pos_as_xyz
  1  'x, y, z'
loop_
 _atom_site_type_symbol
 _atom_site_label
 _atom_site_symmetry_multiplicity
 _atom_site_fract_x
 _atom_site_fract_y
 _atom_site_fract_z
 _atom_site_occupancy
  Na  Na0  1  0.56778557  0.35343349  0.00484883  1.0
  Na  Na1  1  0.43221443  0.85343349  0.49515117  1.0
  Na  Na2  1  0.06778557  0.14656651  0.99515117  1.0
  Na  Na3  1  0.93221443  0.64656651  0.50484883  1.0
  Ca  Ca4  1  0.89478181  0.67439749  0.98890924  1.0
  Ca  Ca5  1  0.10521819  0.17439749  0.51109076  1.0
  Ca  Ca6  1  0.39478181  0.82560251  0.01109076  1.0
  Ca  Ca7  1  0.60521819  0.32560251  0.48890924  1.0
  Be  Be8  1  0.89020714  0.37129994  0.71673999  1.0
  Be  Be9  1  0.10979286  0.87129994  0.78326001  1.0
  Be  Be10  1  0.39020714  0.12870006  0.28326001  1.0
  Be  Be11  1  0.60979286  0.62870006  0.21673999  1.0
  Si  Si12  1  0.89217501  0.34855031  0.22705723  1.0
  Si  Si13  1  0.10782499  0.84855031  0.27294277  1.0
  Si  Si14  1  0.39217501  0.15144969  0.77294277  1.0
  Si  Si15  1  0.60782499  0.65144969  0.72705723  1.0
  Si  Si16  1  0.23955234  0.51539237  0.75055996  1.0
  Si  Si17  1  0.76044766  0.01539237  0.74944004  1.0
  Si  Si18  1  0.73955234  0.98460763  0.24944004  1.0
  Si  Si19  1  0.26044766  0.48460763  0.25055996  1.0
  O  O20  1  0.33446060  0.35042026  0.83852702  1.0
  O  O21  1  0.66553940  0.85042026  0.66147298  1.0
  O  O22  1  0.83446060  0.14957974  0.16147298  1.0
  O  O23  1  0.16553940  0.64957974  0.33852702  1.0
  O  O24  1  0.09385947  0.39401556  0.16170163  1.0
  O  O25  1  0.90614053  0.89401556  0.33829837  1.0
  O  O26  1  0.59385947  0.10598444  0.83829837  1.0
  O  O27  1  0.40614053  0.60598444  0.66170163  1.0
  O  O28  1  0.08674422  0.42918421  0.65526730  1.0
  O  O29  1  0.91325578  0.92918421  0.84473270  1.0
  O  O30  1  0.58674422  0.07081579  0.34473270  1.0
  O  O31  1  0.41325578  0.57081579  0.15526730  1.0
  O  O32  1  0.76057595  0.49552346  0.15971354  1.0
  O  O33  1  0.23942405  0.99552346  0.34028646  1.0
  O  O34  1  0.26057595  0.00447654  0.84028646  1.0
  O  O35  1  0.73942405  0.50447654  0.65971354  1.0
  O  O36  1  0.16037504  0.67178493  0.84695124  1.0
  O  O37  1  0.83962496  0.17178493  0.65304876  1.0
  O  O38  1  0.66037504  0.82821507  0.15304876  1.0
  O  O39  1  0.33962496  0.32821507  0.34695124  1.0
  O  O40  1  0.10591566  0.83938452  0.11416261  1.0
  O  O41  1  0.89408434  0.33938452  0.38583739  1.0
  O  O42  1  0.60591566  0.66061548  0.88583739  1.0
  O  O43  1  0.39408434  0.16061548  0.61416261  1.0
  F  F44  1  0.89789743  0.37540066  0.87474204  1.0
  F  F45  1  0.10210257  0.87540066  0.62525796  1.0
  F  F46  1  0.39789743  0.12459934  0.12525796  1.0
  F  F47  1  0.60210257  0.62459934  0.37474204  1.0
