# generated using pymatgen
data_Cs3Ti2Cl9
_symmetry_space_group_name_H-M   'P 1'
_cell_length_a   7.50996619
_cell_length_b   7.50996619
_cell_length_c   18.46875295
_cell_angle_alpha   90.00000000
_cell_angle_beta   90.00000000
_cell_angle_gamma   120.00000000
_symmetry_Int_Tables_number   1
_chemical_formula_structural   Cs3Ti2Cl9
_chemical_formula_sum   'Cs6 Ti4 Cl18'
_cell_volume   902.07815801
_cell_formula_units_Z   2
loop_
 _symmetry_equiv_pos_site_id
 _symmetry_equiv_pos_as_xyz
  1  'x, y, z'
loop_
 _atom_site_type_symbol
 _atom_site_label
 _atom_site_symmetry_multiplicity
 _atom_site_fract_x
 _atom_site_fract_y
 _atom_site_fract_z
 _atom_site_occupancy
  Cs  Cs0  1  0.33333333  0.66666667  0.42861127  1.0
  Cs  Cs1  1  0.33333333  0.66666667  0.07138873  1.0
  Cs  Cs2  1  0.66666667  0.33333333  0.92861127  1.0
  Cs  Cs3  1  0.66666667  0.33333333  0.57138873  1.0
  Cs  Cs4  1  0.00000000  0.00000000  0.25000000  1.0
  Cs  Cs5  1  0.00000000  0.00000000  0.75000000  1.0
  Ti  Ti6  1  0.33333333  0.66666667  0.83420584  1.0
  Ti  Ti7  1  0.33333333  0.66666667  0.66579416  1.0
  Ti  Ti8  1  0.66666667  0.33333333  0.33420584  1.0
  Ti  Ti9  1  0.66666667  0.33333333  0.16579416  1.0
  Cl  Cl10  1  0.18043435  0.81956565  0.90359169  1.0
  Cl  Cl11  1  0.18043435  0.81956565  0.59640831  1.0
  Cl  Cl12  1  0.18043435  0.36086869  0.90359169  1.0
  Cl  Cl13  1  0.18043435  0.36086869  0.59640831  1.0
  Cl  Cl14  1  0.81956565  0.18043435  0.40359169  1.0
  Cl  Cl15  1  0.81956565  0.18043435  0.09640831  1.0
  Cl  Cl16  1  0.81956565  0.63913131  0.40359169  1.0
  Cl  Cl17  1  0.81956565  0.63913131  0.09640831  1.0
  Cl  Cl18  1  0.63913131  0.81956565  0.90359169  1.0
  Cl  Cl19  1  0.63913131  0.81956565  0.59640831  1.0
  Cl  Cl20  1  0.36086869  0.18043435  0.40359169  1.0
  Cl  Cl21  1  0.36086869  0.18043435  0.09640831  1.0
  Cl  Cl22  1  0.51494843  0.48505157  0.25000000  1.0
  Cl  Cl23  1  0.51494843  0.02989686  0.25000000  1.0
  Cl  Cl24  1  0.48505157  0.51494843  0.75000000  1.0
  Cl  Cl25  1  0.48505157  0.97010314  0.75000000  1.0
  Cl  Cl26  1  0.97010314  0.48505157  0.25000000  1.0
  Cl  Cl27  1  0.02989686  0.51494843  0.75000000  1.0
