# generated using pymatgen
data_RbSn2Cl5
_symmetry_space_group_name_H-M   'P 1'
_cell_length_a   9.40756673
_cell_length_b   9.40756673
_cell_length_c   9.40756673
_cell_angle_alpha   128.52583308
_cell_angle_beta   128.52583308
_cell_angle_gamma   75.77473421
_symmetry_Int_Tables_number   1
_chemical_formula_structural   RbSn2Cl5
_chemical_formula_sum   'Rb2 Sn4 Cl10'
_cell_volume   495.62564544
_cell_formula_units_Z   2
loop_
 _symmetry_equiv_pos_site_id
 _symmetry_equiv_pos_as_xyz
  1  'x, y, z'
loop_
 _atom_site_type_symbol
 _atom_site_label
 _atom_site_symmetry_multiplicity
 _atom_site_fract_x
 _atom_site_fract_y
 _atom_site_fract_z
 _atom_site_occupancy
  Rb  Rb0  1  0.75000000  0.75000000  1.00000000  1.0
  Rb  Rb1  1  0.25000000  0.25000000  0.00000000  1.0
  Sn  Sn2  1  0.32078017  0.82078017  1.14156034  1.0
  Sn  Sn3  1  0.17921983  0.32078017  0.50000000  1.0
  Sn  Sn4  1  0.82078017  0.67921983  1.50000000  1.0
  Sn  Sn5  1  0.67921983  0.17921983  0.85843966  1.0
  Cl  Cl6  1  0.70713387  1.20713387  1.16922269  1.0
  Cl  Cl7  1  0.96208883  0.46208883  1.16922269  1.0
  Cl  Cl8  1  0.53791117  0.70713387  0.50000000  1.0
  Cl  Cl9  1  0.79286613  0.96208883  1.50000000  1.0
  Cl  Cl10  1  1.20713387  1.03791117  1.50000000  1.0
  Cl  Cl11  1  0.46208883  0.29286613  0.50000000  1.0
  Cl  Cl12  1  1.03791117  0.53791117  0.83077731  1.0
  Cl  Cl13  1  0.29286613  0.79286613  0.83077731  1.0
  Cl  Cl14  1  0.00000000  0.00000000  0.00000000  1.0
  Cl  Cl15  1  0.50000000  0.50000000  1.00000000  1.0
