# generated using pymatgen
data_TeH5O6
_symmetry_space_group_name_H-M   'P 1'
_cell_length_a   6.47109132
_cell_length_b   9.40164896
_cell_length_c   8.54756596
_cell_angle_alpha   90.00000000
_cell_angle_beta   99.24982156
_cell_angle_gamma   90.00000000
_symmetry_Int_Tables_number   1
_chemical_formula_structural   TeH5O6
_chemical_formula_sum   'Te4 H20 O24'
_cell_volume   513.26280822
_cell_formula_units_Z   4
loop_
 _symmetry_equiv_pos_site_id
 _symmetry_equiv_pos_as_xyz
  1  'x, y, z'
loop_
 _atom_site_type_symbol
 _atom_site_label
 _atom_site_symmetry_multiplicity
 _atom_site_fract_x
 _atom_site_fract_y
 _atom_site_fract_z
 _atom_site_occupancy
  O  O0  1  0.96923929  0.43774408  0.21875904  1.0
  O  O1  1  0.96923929  0.06225592  0.71875904  1.0
  O  O2  1  0.03076071  0.93774408  0.28124096  1.0
  O  O3  1  0.03076071  0.56225592  0.78124096  1.0
  O  O4  1  0.83821824  0.17378591  0.41854985  1.0
  O  O5  1  0.83821824  0.32621409  0.91854985  1.0
  O  O6  1  0.16178176  0.67378591  0.08145015  1.0
  O  O7  1  0.16178176  0.82621409  0.58145015  1.0
  O  O8  1  0.67444365  0.15381304  0.11491067  1.0
  O  O9  1  0.67444365  0.34618696  0.61491067  1.0
  O  O10  1  0.32555635  0.65381304  0.38508933  1.0
  O  O11  1  0.32555635  0.84618696  0.88508933  1.0
  O  O12  1  0.57479991  0.43273237  0.29484633  1.0
  O  O13  1  0.57479991  0.06726763  0.79484633  1.0
  O  O14  1  0.42520009  0.93273237  0.20515367  1.0
  O  O15  1  0.42520009  0.56726763  0.70515367  1.0
  O  O16  1  0.24810065  0.37343398  0.48667671  1.0
  O  O17  1  0.24810065  0.12656602  0.98667671  1.0
  O  O18  1  0.75189935  0.87343398  0.01332329  1.0
  O  O19  1  0.75189935  0.62656602  0.51332329  1.0
  O  O20  1  0.72186179  0.90543015  0.46932987  1.0
  O  O21  1  0.72186179  0.59456985  0.96932987  1.0
  O  O22  1  0.27813821  0.40543015  0.03067013  1.0
  O  O23  1  0.27813821  0.09456985  0.53067013  1.0
  H  H24  1  0.84811064  0.89345060  0.11500804  1.0
  H  H25  1  0.84811064  0.60654940  0.61500804  1.0
  H  H26  1  0.15188936  0.39345060  0.38499196  1.0
  H  H27  1  0.15188936  0.10654940  0.88499196  1.0
  H  H28  1  0.82315946  0.45467712  0.23833525  1.0
  H  H29  1  0.82315946  0.04532288  0.73833525  1.0
  H  H30  1  0.17684054  0.95467712  0.26166475  1.0
  H  H31  1  0.17684054  0.54532288  0.76166475  1.0
  H  H32  1  0.78194048  0.16445516  0.30159836  1.0
  H  H33  1  0.78194048  0.33554484  0.80159836  1.0
  H  H34  1  0.21805952  0.66445516  0.19840164  1.0
  H  H35  1  0.21805952  0.83554484  0.69840164  1.0
  H  H36  1  0.73208211  0.21589767  0.03657244  1.0
  H  H37  1  0.73208211  0.28410233  0.53657244  1.0
  H  H38  1  0.26791789  0.71589767  0.46342756  1.0
  H  H39  1  0.26791789  0.78410233  0.96342756  1.0
  H  H40  1  0.45052443  0.41444092  0.21131555  1.0
  H  H41  1  0.45052443  0.08555908  0.71131555  1.0
  H  H42  1  0.54947557  0.91444092  0.28868445  1.0
  H  H43  1  0.54947557  0.58555908  0.78868445  1.0
  Te  Te44  1  0.00000000  0.50000000  0.00000000  1.0
  Te  Te45  1  0.00000000  0.00000000  0.50000000  1.0
  Te  Te46  1  0.50000000  0.50000000  0.50000000  1.0
  Te  Te47  1  0.50000000  0.00000000  -0.00000000  1.0
