# generated using pymatgen
data_NbS2
_symmetry_space_group_name_H-M   'P 1'
_cell_length_a   7.30716231
_cell_length_b   3.34419012
_cell_length_c   6.91496339
_cell_angle_alpha   83.03836627
_cell_angle_beta   27.01894785
_cell_angle_gamma   69.94268588
_symmetry_Int_Tables_number   1
_chemical_formula_structural   NbS2
_chemical_formula_sum   'Nb1 S2'
_cell_volume   65.03465756
_cell_formula_units_Z   1
loop_
 _symmetry_equiv_pos_site_id
 _symmetry_equiv_pos_as_xyz
  1  'x, y, z'
loop_
 _atom_site_type_symbol
 _atom_site_label
 _atom_site_symmetry_multiplicity
 _atom_site_fract_x
 _atom_site_fract_y
 _atom_site_fract_z
 _atom_site_occupancy
  Nb  Nb0  1  -0.00112474  -0.00112474  0.00112474  1.0
  S  S1  1  0.44905276  1.21607198  -0.21607198  1.0
  S  S2  1  1.21607198  0.44905276  -0.44905276  1.0
