# generated using pymatgen
data_Rb3H5Pd
_symmetry_space_group_name_H-M   'P 1'
_cell_length_a   7.85828156
_cell_length_b   7.85828156
_cell_length_c   6.07468718
_cell_angle_alpha   90.00000000
_cell_angle_beta   90.00000000
_cell_angle_gamma   90.00000000
_symmetry_Int_Tables_number   1
_chemical_formula_structural   Rb3H5Pd
_chemical_formula_sum   'Rb6 H10 Pd2'
_cell_volume   375.12766173
_cell_formula_units_Z   2
loop_
 _symmetry_equiv_pos_site_id
 _symmetry_equiv_pos_as_xyz
  1  'x, y, z'
loop_
 _atom_site_type_symbol
 _atom_site_label
 _atom_site_symmetry_multiplicity
 _atom_site_fract_x
 _atom_site_fract_y
 _atom_site_fract_z
 _atom_site_occupancy
  Rb  Rb0  1  0.31606379  0.18393621  0.50000000  1.0
  Rb  Rb1  1  0.81606379  0.31606379  0.50000000  1.0
  Rb  Rb2  1  0.68393621  0.81606379  0.50000000  1.0
  Rb  Rb3  1  0.18393621  0.68393621  0.50000000  1.0
  Rb  Rb4  1  0.50000000  0.50000000  0.00000000  1.0
  Rb  Rb5  1  0.00000000  0.00000000  0.00000000  1.0
  H  H6  1  0.89340027  0.60659973  0.80859463  1.0
  H  H7  1  0.89340027  0.60659973  0.19140537  1.0
  H  H8  1  0.39340027  0.89340027  0.80859463  1.0
  H  H9  1  0.39340027  0.89340027  0.19140537  1.0
  H  H10  1  0.10659973  0.39340027  0.80859463  1.0
  H  H11  1  0.10659973  0.39340027  0.19140537  1.0
  H  H12  1  0.60659973  0.10659973  0.80859463  1.0
  H  H13  1  0.60659973  0.10659973  0.19140537  1.0
  H  H14  1  0.50000000  0.50000000  0.50000000  1.0
  H  H15  1  0.00000000  0.00000000  0.50000000  1.0
  Pd  Pd16  1  0.50000000  0.00000000  0.00000000  1.0
  Pd  Pd17  1  0.00000000  0.50000000  0.00000000  1.0
