# generated using pymatgen
data_NiHO2
_symmetry_space_group_name_H-M   'P 1'
_cell_length_a   2.95558677
_cell_length_b   2.95558677
_cell_length_c   4.55372604
_cell_angle_alpha   90.00000000
_cell_angle_beta   90.00000000
_cell_angle_gamma   120.00000000
_symmetry_Int_Tables_number   1
_chemical_formula_structural   NiHO2
_chemical_formula_sum   'Ni1 H1 O2'
_cell_volume   34.44966138
_cell_formula_units_Z   1
loop_
 _symmetry_equiv_pos_site_id
 _symmetry_equiv_pos_as_xyz
  1  'x, y, z'
loop_
 _atom_site_type_symbol
 _atom_site_label
 _atom_site_symmetry_multiplicity
 _atom_site_fract_x
 _atom_site_fract_y
 _atom_site_fract_z
 _atom_site_occupancy
  O  O0  1  0.66666667  0.33333333  0.77527206  1.0
  O  O1  1  0.33333333  0.66666667  0.19946664  1.0
  Ni  Ni2  1  0.00000000  0.00000000  0.99640827  1.0
  H  H3  1  0.66666667  0.33333333  0.55882303  1.0
