# generated using pymatgen
data_La6Co13Ge
_symmetry_space_group_name_H-M   'P 1'
_cell_length_a   12.76150871
_cell_length_b   12.76150871
_cell_length_c   12.76150871
_cell_angle_alpha   143.36547625
_cell_angle_beta   143.36547625
_cell_angle_gamma   52.77719204
_symmetry_Int_Tables_number   1
_chemical_formula_structural   La6Co13Ge
_chemical_formula_sum   'La12 Co26 Ge2'
_cell_volume   735.54038257
_cell_formula_units_Z   2
loop_
 _symmetry_equiv_pos_site_id
 _symmetry_equiv_pos_as_xyz
  1  'x, y, z'
loop_
 _atom_site_type_symbol
 _atom_site_label
 _atom_site_symmetry_multiplicity
 _atom_site_fract_x
 _atom_site_fract_y
 _atom_site_fract_z
 _atom_site_occupancy
  Co  Co0  1  0.79725892  1.29725892  1.27324254  1.0
  Co  Co1  1  0.97598362  0.47598362  1.27324254  1.0
  Co  Co2  1  0.52401638  0.79725892  0.50000000  1.0
  Co  Co3  1  0.70274108  0.97598362  1.50000000  1.0
  Co  Co4  1  1.29725892  1.02401638  1.50000000  1.0
  Co  Co5  1  0.47598362  0.20274108  0.50000000  1.0
  Co  Co6  1  1.02401638  0.52401638  0.72675746  1.0
  Co  Co7  1  0.20274108  0.70274108  0.72675746  1.0
  Co  Co8  1  1.26638432  0.76638432  1.14585600  1.0
  Co  Co9  1  0.37947168  0.87947168  1.14585600  1.0
  Co  Co10  1  1.12052832  1.26638432  1.50000000  1.0
  Co  Co11  1  0.23361568  0.37947168  0.50000000  1.0
  Co  Co12  1  0.76638432  0.62052832  0.50000000  1.0
  Co  Co13  1  0.87947168  0.73361568  1.50000000  1.0
  Co  Co14  1  0.62052832  1.12052832  0.85414400  1.0
  Co  Co15  1  0.73361568  0.23361568  0.85414400  1.0
  Co  Co16  1  0.78697402  0.93504358  1.72201759  1.0
  Co  Co17  1  0.71302598  0.43504358  1.14806956  1.0
  Co  Co18  1  0.43504358  0.28697402  0.72201759  1.0
  Co  Co19  1  0.06495642  0.78697402  0.85193044  1.0
  Co  Co20  1  0.28697402  0.56495642  0.85193044  1.0
  Co  Co21  1  0.21302598  0.06495642  0.27798241  1.0
  Co  Co22  1  0.93504358  0.21302598  1.14806956  1.0
  Co  Co23  1  0.56495642  0.71302598  1.27798241  1.0
  Co  Co24  1  0.50000000  0.00000000  0.50000000  1.0
  Co  Co25  1  0.00000000  0.50000000  0.50000000  1.0
  Ge  Ge26  1  0.75000000  0.75000000  1.00000000  1.0
  Ge  Ge27  1  0.25000000  0.25000000  0.00000000  1.0
  La  La28  1  1.15029863  0.65029863  1.16931915  1.0
  La  La29  1  0.51902052  1.01902052  1.16931915  1.0
  La  La30  1  0.98097948  1.15029863  1.50000000  1.0
  La  La31  1  0.34970137  0.51902052  0.50000000  1.0
  La  La32  1  0.65029863  0.48097948  0.50000000  1.0
  La  La33  1  1.01902052  0.84970137  1.50000000  1.0
  La  La34  1  0.48097948  0.98097948  0.83068085  1.0
  La  La35  1  0.84970137  0.34970137  0.83068085  1.0
  La  La36  1  0.89599822  0.89599822  1.00000000  1.0
  La  La37  1  0.10400178  0.10400178  0.00000000  1.0
  La  La38  1  0.39599822  0.39599822  -0.00000000  1.0
  La  La39  1  0.60400178  0.60400178  1.00000000  1.0
