# generated using pymatgen
data_Bi2PO6
_symmetry_space_group_name_H-M   'P 1'
_cell_length_a   7.04633223
_cell_length_b   7.05752434
_cell_length_c   10.56396845
_cell_angle_alpha   90.00000000
_cell_angle_beta   107.99728870
_cell_angle_gamma   90.00000000
_symmetry_Int_Tables_number   1
_chemical_formula_structural   Bi2PO6
_chemical_formula_sum   'Bi8 P4 O24'
_cell_volume   499.63815852
_cell_formula_units_Z   4
loop_
 _symmetry_equiv_pos_site_id
 _symmetry_equiv_pos_as_xyz
  1  'x, y, z'
loop_
 _atom_site_type_symbol
 _atom_site_label
 _atom_site_symmetry_multiplicity
 _atom_site_fract_x
 _atom_site_fract_y
 _atom_site_fract_z
 _atom_site_occupancy
  O  O0  1  0.50679430  0.92595116  0.11893076  1.0
  O  O1  1  0.49320570  0.42595116  0.38106924  1.0
  O  O2  1  0.49320570  0.07404884  0.88106924  1.0
  O  O3  1  0.50679430  0.57404884  0.61893076  1.0
  O  O4  1  0.16485431  0.85137071  0.20110187  1.0
  O  O5  1  0.83514569  0.35137071  0.29889813  1.0
  O  O6  1  0.83514569  0.14862929  0.79889813  1.0
  O  O7  1  0.16485431  0.64862929  0.70110187  1.0
  O  O8  1  0.18696005  0.79325010  0.45146507  1.0
  O  O9  1  0.81303995  0.29325010  0.04853493  1.0
  O  O10  1  0.81303995  0.20674990  0.54853493  1.0
  O  O11  1  0.18696005  0.70674990  0.95146507  1.0
  O  O12  1  0.26842771  0.11002487  0.36857978  1.0
  O  O13  1  0.73157229  0.61002487  0.13142022  1.0
  O  O14  1  0.73157229  0.88997513  0.63142022  1.0
  O  O15  1  0.26842771  0.38997513  0.86857978  1.0
  O  O16  1  0.42545562  0.29231397  0.13665770  1.0
  O  O17  1  0.57454438  0.79231397  0.36334230  1.0
  O  O18  1  0.57454438  0.70768603  0.86334230  1.0
  O  O19  1  0.42545562  0.20768603  0.63665770  1.0
  O  O20  1  0.90425549  0.97780056  0.28778692  1.0
  O  O21  1  0.09574451  0.47780056  0.21221308  1.0
  O  O22  1  0.09574451  0.02219944  0.71221308  1.0
  O  O23  1  0.90425549  0.52219944  0.78778692  1.0
  Bi  Bi24  1  0.25576448  0.10420806  0.97449612  1.0
  Bi  Bi25  1  0.74423552  0.60420806  0.52550388  1.0
  Bi  Bi26  1  0.74423552  0.89579194  0.02550388  1.0
  Bi  Bi27  1  0.25576448  0.39579194  0.47449612  1.0
  Bi  Bi28  1  0.39479199  0.62697050  0.18252351  1.0
  Bi  Bi29  1  0.60520801  0.12697050  0.31747649  1.0
  Bi  Bi30  1  0.60520801  0.37302950  0.81747649  1.0
  Bi  Bi31  1  0.39479199  0.87302950  0.68252351  1.0
  P  P32  1  0.12935323  0.93111628  0.33034338  1.0
  P  P33  1  0.87064677  0.43111628  0.16965662  1.0
  P  P34  1  0.87064677  0.06888372  0.66965662  1.0
  P  P35  1  0.12935323  0.56888372  0.83034338  1.0
