# generated using pymatgen
data_H3PbS2N3
_symmetry_space_group_name_H-M   'P 1'
_cell_length_a   6.24943742
_cell_length_b   17.10691196
_cell_length_c   5.83452407
_cell_angle_alpha   90.00000000
_cell_angle_beta   91.89767538
_cell_angle_gamma   90.00000000
_symmetry_Int_Tables_number   1
_chemical_formula_structural   H3PbS2N3
_chemical_formula_sum   'H12 Pb4 S8 N12'
_cell_volume   623.41856348
_cell_formula_units_Z   4
loop_
 _symmetry_equiv_pos_site_id
 _symmetry_equiv_pos_as_xyz
  1  'x, y, z'
loop_
 _atom_site_type_symbol
 _atom_site_label
 _atom_site_symmetry_multiplicity
 _atom_site_fract_x
 _atom_site_fract_y
 _atom_site_fract_z
 _atom_site_occupancy
  H  H0  1  0.23936875  0.72373683  0.06581734  1.0
  H  H1  1  0.76063125  0.22373683  0.43418266  1.0
  H  H2  1  0.76063125  0.27626317  0.93418266  1.0
  H  H3  1  0.23936875  0.77626317  0.56581734  1.0
  H  H4  1  0.24708766  0.65865932  0.85890004  1.0
  H  H5  1  0.75291234  0.15865932  0.64109996  1.0
  H  H6  1  0.75291234  0.34134068  0.14109996  1.0
  H  H7  1  0.24708766  0.84134068  0.35890004  1.0
  H  H8  1  1.01798145  0.67572909  0.98827623  1.0
  H  H9  1  -0.01798145  0.17572909  0.51172377  1.0
  H  H10  1  -0.01798145  0.32427091  0.01172377  1.0
  H  H11  1  1.01798145  0.82427091  0.48827623  1.0
  Pb  Pb12  1  0.24002181  0.56477632  0.31425869  1.0
  Pb  Pb13  1  0.75997819  0.06477632  0.18574131  1.0
  Pb  Pb14  1  0.75997819  0.43522368  0.68574131  1.0
  Pb  Pb15  1  0.24002181  0.93522368  0.81425869  1.0
  S  S16  1  0.66869441  0.54861506  0.21384762  1.0
  S  S17  1  0.33130559  0.04861506  0.28615238  1.0
  S  S18  1  0.33130559  0.45138494  0.78615238  1.0
  S  S19  1  0.66869441  0.95138494  0.71384762  1.0
  S  S20  1  0.64522502  0.67395721  0.53765592  1.0
  S  S21  1  0.35477498  0.17395721  0.96234408  1.0
  S  S22  1  0.35477498  0.32604279  0.46234408  1.0
  S  S23  1  0.64522502  0.82604279  0.03765592  1.0
  N  N24  1  0.78531199  0.62106027  0.37560271  1.0
  N  N25  1  0.21468801  0.12106027  0.12439729  1.0
  N  N26  1  0.21468801  0.37893973  0.62439729  1.0
  N  N27  1  0.78531199  0.87893973  0.87560271  1.0
  N  N28  1  0.40222619  0.66147958  0.54290796  1.0
  N  N29  1  0.59777381  0.16147958  0.95709204  1.0
  N  N30  1  0.59777381  0.33852042  0.45709204  1.0
  N  N31  1  0.40222619  0.83852042  0.04290796  1.0
  N  N32  1  0.17978736  0.67017466  0.01442802  1.0
  N  N33  1  0.82021264  0.17017466  0.48557198  1.0
  N  N34  1  0.82021264  0.32982534  0.98557198  1.0
  N  N35  1  0.17978736  0.82982534  0.51442802  1.0
