# generated using pymatgen
data_YSBr
_symmetry_space_group_name_H-M   'P 1'
_cell_length_a   4.07258007
_cell_length_b   5.36455994
_cell_length_c   9.30613650
_cell_angle_alpha   90.00000000
_cell_angle_beta   90.00000000
_cell_angle_gamma   90.00000000
_symmetry_Int_Tables_number   1
_chemical_formula_structural   YSBr
_chemical_formula_sum   'Y2 S2 Br2'
_cell_volume   203.31674694
_cell_formula_units_Z   2
loop_
 _symmetry_equiv_pos_site_id
 _symmetry_equiv_pos_as_xyz
  1  'x, y, z'
loop_
 _atom_site_type_symbol
 _atom_site_label
 _atom_site_symmetry_multiplicity
 _atom_site_fract_x
 _atom_site_fract_y
 _atom_site_fract_z
 _atom_site_occupancy
  Y  Y0  1  0.00000000  0.50000000  0.12410193  1.0
  Y  Y1  1  0.50000000  0.00000000  0.87589807  1.0
  S  S2  1  0.00000000  0.00000000  0.07345399  1.0
  S  S3  1  0.50000000  0.50000000  0.92654601  1.0
  Br  Br4  1  0.00000000  0.00000000  0.66476111  1.0
  Br  Br5  1  0.50000000  0.50000000  0.33523889  1.0
