# generated using pymatgen
data_SrMnV2(AgO4)2
_symmetry_space_group_name_H-M   'P 1'
_cell_length_a   5.74262826
_cell_length_b   5.74262826
_cell_length_c   13.77220481
_cell_angle_alpha   88.92400328
_cell_angle_beta   91.07599672
_cell_angle_gamma   121.36083803
_symmetry_Int_Tables_number   1
_chemical_formula_structural   SrMnV2(AgO4)2
_chemical_formula_sum   'Sr2 Mn2 V4 Ag4 O16'
_cell_volume   387.73459931
_cell_formula_units_Z   2
loop_
 _symmetry_equiv_pos_site_id
 _symmetry_equiv_pos_as_xyz
  1  'x, y, z'
loop_
 _atom_site_type_symbol
 _atom_site_label
 _atom_site_symmetry_multiplicity
 _atom_site_fract_x
 _atom_site_fract_y
 _atom_site_fract_z
 _atom_site_occupancy
  Sr  Sr0  1  0.92064858  0.92064858  0.75000000  1.0
  Sr  Sr1  1  0.07935142  0.07935142  0.25000000  1.0
  Mn  Mn2  1  0.00000000  0.00000000  0.00000000  1.0
  Mn  Mn3  1  0.00000000  -0.00000000  0.50000000  1.0
  V  V4  1  0.63497673  0.28433205  0.87232315  1.0
  V  V5  1  0.71566795  0.36502327  0.37232315  1.0
  V  V6  1  1.28433205  0.63497673  0.62767685  1.0
  V  V7  1  0.36502327  -0.28433205  0.12767685  1.0
  Ag  Ag8  1  0.60759812  0.29342294  0.59978025  1.0
  Ag  Ag9  1  0.70657706  0.39240188  0.09978025  1.0
  Ag  Ag10  1  1.29342294  0.60759812  0.90021975  1.0
  Ag  Ag11  1  0.39240188  -0.29342294  0.40021975  1.0
  O  O12  1  0.57073523  -0.21968457  0.55383679  1.0
  O  O13  1  1.21968457  0.42926477  0.05383679  1.0
  O  O14  1  0.78031543  0.57073523  0.94616321  1.0
  O  O15  1  0.42926477  0.21968457  0.44616321  1.0
  O  O16  1  0.78022325  0.08850426  0.89921487  1.0
  O  O17  1  0.91149574  0.21977675  0.39921487  1.0
  O  O18  1  1.08850426  0.78022325  0.60078513  1.0
  O  O19  1  0.21977675  -0.08850426  0.10078513  1.0
  O  O20  1  0.71409054  0.40310997  0.75568511  1.0
  O  O21  1  0.59689003  0.28590946  0.25568511  1.0
  O  O22  1  0.40310997  -0.28590946  0.74431489  1.0
  O  O23  1  1.28590946  0.59689003  0.24431489  1.0
  O  O24  1  0.28130000  0.09466521  0.88589488  1.0
  O  O25  1  0.90533479  0.71870000  0.38589488  1.0
  O  O26  1  1.09466521  0.28130000  0.61410512  1.0
  O  O27  1  0.71870000  -0.09466521  0.11410512  1.0
