# generated using pymatgen
data_Mg2C
_symmetry_space_group_name_H-M   'P 1'
_cell_length_a   6.05754608
_cell_length_b   3.69309064
_cell_length_c   6.95441894
_cell_angle_alpha   90.00000000
_cell_angle_beta   90.00000000
_cell_angle_gamma   90.00000000
_symmetry_Int_Tables_number   1
_chemical_formula_structural   Mg2C
_chemical_formula_sum   'Mg8 C4'
_cell_volume   155.57776984
_cell_formula_units_Z   4
loop_
 _symmetry_equiv_pos_site_id
 _symmetry_equiv_pos_as_xyz
  1  'x, y, z'
loop_
 _atom_site_type_symbol
 _atom_site_label
 _atom_site_symmetry_multiplicity
 _atom_site_fract_x
 _atom_site_fract_y
 _atom_site_fract_z
 _atom_site_occupancy
  Mg  Mg0  1  0.48432971  0.25000000  0.15724606  1.0
  Mg  Mg1  1  0.98432971  0.25000000  0.34275394  1.0
  Mg  Mg2  1  0.51567029  0.75000000  0.84275394  1.0
  Mg  Mg3  1  0.01567029  0.75000000  0.65724606  1.0
  Mg  Mg4  1  0.85836720  0.25000000  0.92264135  1.0
  Mg  Mg5  1  0.35836720  0.25000000  0.57735865  1.0
  Mg  Mg6  1  0.14163280  0.75000000  0.07735865  1.0
  Mg  Mg7  1  0.64163280  0.75000000  0.42264135  1.0
  C  C8  1  0.75297502  0.75000000  0.10238983  1.0
  C  C9  1  0.25297502  0.75000000  0.39761017  1.0
  C  C10  1  0.24702498  0.25000000  0.89761017  1.0
  C  C11  1  0.74702498  0.25000000  0.60238983  1.0
