# generated using pymatgen
data_In3SnBr5
_symmetry_space_group_name_H-M   'P 1'
_cell_length_a   8.48812882
_cell_length_b   9.37401472
_cell_length_c   15.42608999
_cell_angle_alpha   90.00000000
_cell_angle_beta   90.00000000
_cell_angle_gamma   90.00000000
_symmetry_Int_Tables_number   1
_chemical_formula_structural   In3SnBr5
_chemical_formula_sum   'In12 Sn4 Br20'
_cell_volume   1227.42072961
_cell_formula_units_Z   4
loop_
 _symmetry_equiv_pos_site_id
 _symmetry_equiv_pos_as_xyz
  1  'x, y, z'
loop_
 _atom_site_type_symbol
 _atom_site_label
 _atom_site_symmetry_multiplicity
 _atom_site_fract_x
 _atom_site_fract_y
 _atom_site_fract_z
 _atom_site_occupancy
  In  In0  1  0.41517881  0.32475876  0.52146396  1.0
  In  In1  1  0.91517881  0.17524124  0.47853604  1.0
  In  In2  1  0.58482119  0.82475876  0.97853604  1.0
  In  In3  1  0.08482119  0.67524124  0.02146396  1.0
  In  In4  1  0.05019625  0.57396896  0.71084315  1.0
  In  In5  1  0.55019625  0.92603104  0.28915685  1.0
  In  In6  1  0.94980375  0.07396896  0.78915685  1.0
  In  In7  1  0.44980375  0.42603104  0.21084315  1.0
  In  In8  1  0.77833102  0.70784255  0.55306394  1.0
  In  In9  1  0.27833102  0.79215745  0.44693606  1.0
  In  In10  1  0.22166898  0.20784255  0.94693606  1.0
  In  In11  1  0.72166898  0.29215745  0.05306394  1.0
  Sn  Sn12  1  0.42671010  0.93647763  0.70045718  1.0
  Sn  Sn13  1  0.92671010  0.56352237  0.29954282  1.0
  Sn  Sn14  1  0.57328990  0.43647763  0.79954282  1.0
  Sn  Sn15  1  0.07328990  0.06352237  0.20045718  1.0
  Br  Br16  1  0.41168427  0.49876324  0.97772931  1.0
  Br  Br17  1  0.91168427  1.00123676  0.02227069  1.0
  Br  Br18  1  0.58831573  -0.00123676  0.52227069  1.0
  Br  Br19  1  0.08831573  0.50123676  0.47772931  1.0
  Br  Br20  1  0.41386835  0.65906405  0.63130136  1.0
  Br  Br21  1  0.91386835  0.84093595  0.36869864  1.0
  Br  Br22  1  0.58613165  0.15906405  0.86869864  1.0
  Br  Br23  1  0.08613165  0.34093595  0.13130136  1.0
  Br  Br24  1  0.27600054  0.30928093  0.72779695  1.0
  Br  Br25  1  0.77600054  0.19071907  0.27220305  1.0
  Br  Br26  1  0.72399946  0.80928093  0.77220305  1.0
  Br  Br27  1  0.22399946  0.69071907  0.22779695  1.0
  Br  Br28  1  0.23963272  0.84053497  0.84554268  1.0
  Br  Br29  1  0.73963272  0.65946503  0.15445732  1.0
  Br  Br30  1  0.76036728  0.34053497  0.65445732  1.0
  Br  Br31  1  0.26036728  0.15946503  0.34554268  1.0
  Br  Br32  1  0.10774963  0.95769245  0.60536615  1.0
  Br  Br33  1  0.60774963  0.54230755  0.39463385  1.0
  Br  Br34  1  0.89225037  0.45769245  0.89463385  1.0
  Br  Br35  1  0.39225037  0.04230755  0.10536615  1.0
