# generated using pymatgen
data_H4N2O3
_symmetry_space_group_name_H-M   'P 1'
_cell_length_a   5.80074383
_cell_length_b   5.80074383
_cell_length_c   4.92937628
_cell_angle_alpha   90.00000000
_cell_angle_beta   90.00000000
_cell_angle_gamma   90.00000000
_symmetry_Int_Tables_number   1
_chemical_formula_structural   H4N2O3
_chemical_formula_sum   'H8 N4 O6'
_cell_volume   165.86675370
_cell_formula_units_Z   2
loop_
 _symmetry_equiv_pos_site_id
 _symmetry_equiv_pos_as_xyz
  1  'x, y, z'
loop_
 _atom_site_type_symbol
 _atom_site_label
 _atom_site_symmetry_multiplicity
 _atom_site_fract_x
 _atom_site_fract_y
 _atom_site_fract_z
 _atom_site_occupancy
  H  H0  1  0.14222979  0.96789747  0.87802774  1.0
  H  H1  1  0.35777021  0.46789747  0.12197226  1.0
  H  H2  1  0.03210253  0.14222979  0.12197226  1.0
  H  H3  1  0.46789747  0.64222979  0.87802774  1.0
  H  H4  1  0.85777021  0.03210253  0.87802774  1.0
  H  H5  1  0.64222979  0.53210253  0.12197226  1.0
  H  H6  1  0.96789747  0.85777021  0.12197226  1.0
  H  H7  1  0.53210253  0.35777021  0.87802774  1.0
  N  N8  1  0.00000000  0.50000000  0.50110262  1.0
  N  N9  1  0.50000000  0.00000000  0.49889738  1.0
  N  N10  1  0.50000000  0.50000000  -0.00000000  1.0
  N  N11  1  0.00000000  0.00000000  0.00000000  1.0
  O  O12  1  0.36573211  0.86573211  0.62837654  1.0
  O  O13  1  0.13426789  0.36573211  0.37162346  1.0
  O  O14  1  0.63426789  0.13426789  0.62837654  1.0
  O  O15  1  0.86573211  0.63426789  0.37162346  1.0
  O  O16  1  0.00000000  0.50000000  0.75356018  1.0
  O  O17  1  0.50000000  0.00000000  0.24643982  1.0
