# generated using pymatgen
data_NiSeO5
_symmetry_space_group_name_H-M   'P 1'
_cell_length_a   5.36596216
_cell_length_b   5.36596216
_cell_length_c   7.34904313
_cell_angle_alpha   70.56069601
_cell_angle_beta   109.43930399
_cell_angle_gamma   76.69138369
_symmetry_Int_Tables_number   1
_chemical_formula_structural   NiSeO5
_chemical_formula_sum   'Ni2 Se2 O10'
_cell_volume   173.78606915
_cell_formula_units_Z   2
loop_
 _symmetry_equiv_pos_site_id
 _symmetry_equiv_pos_as_xyz
  1  'x, y, z'
loop_
 _atom_site_type_symbol
 _atom_site_label
 _atom_site_symmetry_multiplicity
 _atom_site_fract_x
 _atom_site_fract_y
 _atom_site_fract_z
 _atom_site_occupancy
  Se  Se0  1  0.93211949  -0.06788051  0.25000000  1.0
  Se  Se1  1  1.06788051  0.06788051  0.75000000  1.0
  Ni  Ni2  1  1.50000000  -0.00000000  0.50000000  1.0
  Ni  Ni3  1  1.00000000  -0.50000000  -0.00000000  1.0
  O  O4  1  0.81141161  -0.17788274  0.43407292  1.0
  O  O5  1  1.17788274  0.18858839  0.93407292  1.0
  O  O6  1  0.82211726  -0.18858839  0.06592708  1.0
  O  O7  1  1.18858839  0.17788274  0.56592708  1.0
  O  O8  1  0.29297768  -0.20474375  0.37890231  1.0
  O  O9  1  1.20474375  0.70702232  0.87890231  1.0
  O  O10  1  0.79525625  -0.70702232  0.12109769  1.0
  O  O11  1  1.70702232  0.20474375  0.62109769  1.0
  O  O12  1  1.32754541  0.32754541  0.25000000  1.0
  O  O13  1  0.67245459  -0.32754541  0.75000000  1.0
