# generated using pymatgen
data_Rb3PbCl5
_symmetry_space_group_name_H-M   'P 1'
_cell_length_a   8.95738754
_cell_length_b   15.94665060
_cell_length_c   8.47283753
_cell_angle_alpha   90.00000000
_cell_angle_beta   90.00000000
_cell_angle_gamma   90.00000000
_symmetry_Int_Tables_number   1
_chemical_formula_structural   Rb3PbCl5
_chemical_formula_sum   'Rb12 Pb4 Cl20'
_cell_volume   1210.26290367
_cell_formula_units_Z   4
loop_
 _symmetry_equiv_pos_site_id
 _symmetry_equiv_pos_as_xyz
  1  'x, y, z'
loop_
 _atom_site_type_symbol
 _atom_site_label
 _atom_site_symmetry_multiplicity
 _atom_site_fract_x
 _atom_site_fract_y
 _atom_site_fract_z
 _atom_site_occupancy
  Rb  Rb0  1  0.23784211  0.95409661  0.53257658  1.0
  Rb  Rb1  1  0.23784211  0.54590339  0.53257658  1.0
  Rb  Rb2  1  0.73784211  0.95409661  0.96742342  1.0
  Rb  Rb3  1  0.73784211  0.54590339  0.96742342  1.0
  Rb  Rb4  1  0.76215789  0.45409661  0.46742342  1.0
  Rb  Rb5  1  0.76215789  0.04590339  0.46742342  1.0
  Rb  Rb6  1  0.26215789  0.45409661  0.03257658  1.0
  Rb  Rb7  1  0.26215789  0.04590339  0.03257658  1.0
  Rb  Rb8  1  0.08111261  0.75000000  0.86154823  1.0
  Rb  Rb9  1  0.58111261  0.75000000  0.63845177  1.0
  Rb  Rb10  1  0.91888739  0.25000000  0.13845177  1.0
  Rb  Rb11  1  0.41888739  0.25000000  0.36154823  1.0
  Pb  Pb12  1  0.43991630  0.75000000  0.14211884  1.0
  Pb  Pb13  1  0.93991630  0.75000000  0.35788116  1.0
  Pb  Pb14  1  0.56008370  0.25000000  0.85788116  1.0
  Pb  Pb15  1  0.06008370  0.25000000  0.64211884  1.0
  Cl  Cl16  1  0.45502760  0.38696688  0.67437652  1.0
  Cl  Cl17  1  0.45502760  0.11303312  0.67437652  1.0
  Cl  Cl18  1  0.95502760  0.38696688  0.82562348  1.0
  Cl  Cl19  1  0.95502760  0.11303312  0.82562348  1.0
  Cl  Cl20  1  0.54497240  0.88696688  0.32562348  1.0
  Cl  Cl21  1  0.54497240  0.61303312  0.32562348  1.0
  Cl  Cl22  1  0.04497240  0.88696688  0.17437652  1.0
  Cl  Cl23  1  0.04497240  0.61303312  0.17437652  1.0
  Cl  Cl24  1  0.39111448  0.87438907  0.87375346  1.0
  Cl  Cl25  1  0.39111448  0.62561093  0.87375346  1.0
  Cl  Cl26  1  0.89111448  0.87438907  0.62624654  1.0
  Cl  Cl27  1  0.89111448  0.62561093  0.62624654  1.0
  Cl  Cl28  1  0.60888552  0.37438907  0.12624654  1.0
  Cl  Cl29  1  0.60888552  0.12561093  0.12624654  1.0
  Cl  Cl30  1  0.10888552  0.37438907  0.37375346  1.0
  Cl  Cl31  1  0.10888552  0.12561093  0.37375346  1.0
  Cl  Cl32  1  0.22484730  0.75000000  0.47545200  1.0
  Cl  Cl33  1  0.72484730  0.75000000  1.02454800  1.0
  Cl  Cl34  1  0.77515270  0.25000000  0.52454800  1.0
  Cl  Cl35  1  0.27515270  0.25000000  -0.02454800  1.0
