# generated using pymatgen
data_Ga2H6(SeO4)3
_symmetry_space_group_name_H-M   'P 1'
_cell_length_a   8.62808176
_cell_length_b   8.62808176
_cell_length_c   8.62808176
_cell_angle_alpha   65.71199143
_cell_angle_beta   65.71199143
_cell_angle_gamma   65.71199143
_symmetry_Int_Tables_number   1
_chemical_formula_structural   Ga2H6(SeO4)3
_chemical_formula_sum   'Ga4 H12 Se6 O24'
_cell_volume   510.47054383
_cell_formula_units_Z   2
loop_
 _symmetry_equiv_pos_site_id
 _symmetry_equiv_pos_as_xyz
  1  'x, y, z'
loop_
 _atom_site_type_symbol
 _atom_site_label
 _atom_site_symmetry_multiplicity
 _atom_site_fract_x
 _atom_site_fract_y
 _atom_site_fract_z
 _atom_site_occupancy
  Ga  Ga0  1  1.23562951  1.23562951  0.23562951  1.0
  Ga  Ga1  1  0.73562951  0.73562951  -0.26437049  1.0
  Ga  Ga2  1  0.00119316  0.00119316  0.00119316  1.0
  Ga  Ga3  1  0.50119316  0.50119316  -0.49880684  1.0
  H  H4  1  0.47324228  0.20294896  -0.49026837  1.0
  H  H5  1  0.97324228  1.00973163  -0.29705104  1.0
  H  H6  1  0.70294896  0.97324228  0.00973163  1.0
  H  H7  1  0.20294896  0.50973163  -0.52675772  1.0
  H  H8  1  1.00973163  0.70294896  -0.02675772  1.0
  H  H9  1  0.50973163  0.47324228  -0.79705104  1.0
  H  H10  1  0.53108366  0.66597338  -0.85308476  1.0
  H  H11  1  1.03108366  1.64691524  0.16597338  1.0
  H  H12  1  1.16597338  1.03108366  0.64691524  1.0
  H  H13  1  0.66597338  0.14691524  -0.46891634  1.0
  H  H14  1  1.64691524  1.16597338  0.03108366  1.0
  H  H15  1  0.14691524  0.53108366  -0.33402662  1.0
  Se  Se16  1  1.00748056  -0.05430515  -0.60434064  1.0
  Se  Se17  1  0.50748056  0.89565936  -0.55430515  1.0
  Se  Se18  1  0.44569485  0.50748056  -0.10434064  1.0
  Se  Se19  1  0.94569485  -0.60434064  0.00748056  1.0
  Se  Se20  1  0.89565936  0.44569485  -0.49251944  1.0
  Se  Se21  1  0.39565936  0.00748056  -0.05430515  1.0
  O  O22  1  1.33428753  1.09578968  0.44664379  1.0
  O  O23  1  0.83428753  0.94664379  -0.40421032  1.0
  O  O24  1  0.59578968  0.83428753  -0.05335621  1.0
  O  O25  1  1.09578968  1.44664379  0.33428753  1.0
  O  O26  1  0.94664379  0.59578968  -0.16571247  1.0
  O  O27  1  1.44664379  1.33428753  0.09578968  1.0
  O  O28  1  0.89016712  0.01436077  -0.75399778  1.0
  O  O29  1  0.39016712  0.74600222  -0.48563923  1.0
  O  O30  1  0.51436077  0.39016712  -0.25399778  1.0
  O  O31  1  1.01436077  -0.75399778  -0.10983288  1.0
  O  O32  1  0.74600222  0.51436077  -0.60983288  1.0
  O  O33  1  0.24600222  -0.10983288  0.01436077  1.0
  O  O34  1  1.02454965  1.14649044  0.37372752  1.0
  O  O35  1  0.52454965  0.87372752  -0.35350956  1.0
  O  O36  1  0.64649044  0.52454965  -0.12627248  1.0
  O  O37  1  1.14649044  1.37372752  0.02454965  1.0
  O  O38  1  0.87372752  0.64649044  -0.47545035  1.0
  O  O39  1  1.37372752  1.02454965  0.14649044  1.0
  O  O40  1  0.57077835  0.24895560  -0.51560526  1.0
  O  O41  1  1.07077835  -0.01560526  -0.25104440  1.0
  O  O42  1  0.74895560  0.07077835  -0.01560526  1.0
  O  O43  1  0.24895560  0.48439474  -0.42922165  1.0
  O  O44  1  0.98439474  -0.25104440  0.07077835  1.0
  O  O45  1  0.48439474  0.57077835  -0.75104440  1.0
