# generated using pymatgen
data_LaSn2Rh
_symmetry_space_group_name_H-M   'P 1'
_cell_length_a   9.77097351
_cell_length_b   9.77097351
_cell_length_c   4.64604644
_cell_angle_alpha   90.00000000
_cell_angle_beta   90.00000000
_cell_angle_gamma   152.87525332
_symmetry_Int_Tables_number   1
_chemical_formula_structural   LaSn2Rh
_chemical_formula_sum   'La2 Sn4 Rh2'
_cell_volume   202.23521267
_cell_formula_units_Z   2
loop_
 _symmetry_equiv_pos_site_id
 _symmetry_equiv_pos_as_xyz
  1  'x, y, z'
loop_
 _atom_site_type_symbol
 _atom_site_label
 _atom_site_symmetry_multiplicity
 _atom_site_fract_x
 _atom_site_fract_y
 _atom_site_fract_z
 _atom_site_occupancy
  La  La0  1  -0.11219918  0.11219918  0.25000000  1.0
  La  La1  1  0.11219918  0.88780082  0.75000000  1.0
  Sn  Sn2  1  -0.45580709  0.45580709  0.25000000  1.0
  Sn  Sn3  1  0.45580709  0.54419291  0.75000000  1.0
  Sn  Sn4  1  0.25084154  0.74915846  0.25000000  1.0
  Sn  Sn5  1  -0.25084154  0.25084154  0.75000000  1.0
  Rh  Rh6  1  -0.32091160  0.32091160  0.25000000  1.0
  Rh  Rh7  1  0.32091160  0.67908840  0.75000000  1.0
