# generated using pymatgen
data_Sc3Al3C2O5
_symmetry_space_group_name_H-M   'P 1'
_cell_length_a   3.27388737
_cell_length_b   3.27388737
_cell_length_c   31.79891703
_cell_angle_alpha   90.00000000
_cell_angle_beta   90.00000000
_cell_angle_gamma   120.00000000
_symmetry_Int_Tables_number   1
_chemical_formula_structural   Sc3Al3C2O5
_chemical_formula_sum   'Sc6 Al6 C4 O10'
_cell_volume   295.16878768
_cell_formula_units_Z   2
loop_
 _symmetry_equiv_pos_site_id
 _symmetry_equiv_pos_as_xyz
  1  'x, y, z'
loop_
 _atom_site_type_symbol
 _atom_site_label
 _atom_site_symmetry_multiplicity
 _atom_site_fract_x
 _atom_site_fract_y
 _atom_site_fract_z
 _atom_site_occupancy
  Sc  Sc0  1  0.33333333  0.66666667  0.34072653  1.0
  Sc  Sc1  1  0.33333333  0.66666667  0.15927347  1.0
  Sc  Sc2  1  0.66666667  0.33333333  0.84072653  1.0
  Sc  Sc3  1  0.66666667  0.33333333  0.65927347  1.0
  Sc  Sc4  1  -0.00000000  -0.00000000  0.50000000  1.0
  Sc  Sc5  1  0.00000000  0.00000000  0.00000000  1.0
  Al  Al6  1  0.33333333  0.66666667  0.93128885  1.0
  Al  Al7  1  0.33333333  0.66666667  0.56871115  1.0
  Al  Al8  1  0.66666667  0.33333333  0.43128885  1.0
  Al  Al9  1  0.66666667  0.33333333  0.06871115  1.0
  Al  Al10  1  0.00000000  0.00000000  0.25000000  1.0
  Al  Al11  1  -0.00000000  -0.00000000  0.75000000  1.0
  C  C12  1  0.33333333  0.66666667  0.45406649  1.0
  C  C13  1  0.33333333  0.66666667  0.04593351  1.0
  C  C14  1  0.66666667  0.33333333  0.95406649  1.0
  C  C15  1  0.66666667  0.33333333  0.54593351  1.0
  O  O16  1  0.33333333  0.66666667  0.87270634  1.0
  O  O17  1  0.33333333  0.66666667  0.62729366  1.0
  O  O18  1  0.66666667  0.33333333  0.37270634  1.0
  O  O19  1  0.66666667  0.33333333  0.12729366  1.0
  O  O20  1  -0.00000000  -0.00000000  0.30904605  1.0
  O  O21  1  0.00000000  -0.00000000  0.19095395  1.0
  O  O22  1  -0.00000000  0.00000000  0.80904605  1.0
  O  O23  1  -0.00000000  -0.00000000  0.69095395  1.0
  O  O24  1  0.33333333  0.66666667  0.25000000  1.0
  O  O25  1  0.66666667  0.33333333  0.75000000  1.0
