# generated using pymatgen
data_Na2Si2O5
_symmetry_space_group_name_H-M   'P 1'
_cell_length_a   8.23453741
_cell_length_b   12.20252230
_cell_length_c   4.91216548
_cell_angle_alpha   90.00000000
_cell_angle_beta   90.00000000
_cell_angle_gamma   90.00000000
_symmetry_Int_Tables_number   1
_chemical_formula_structural   Na2Si2O5
_chemical_formula_sum   'Na8 Si8 O20'
_cell_volume   493.58483256
_cell_formula_units_Z   4
loop_
 _symmetry_equiv_pos_site_id
 _symmetry_equiv_pos_as_xyz
  1  'x, y, z'
loop_
 _atom_site_type_symbol
 _atom_site_label
 _atom_site_symmetry_multiplicity
 _atom_site_fract_x
 _atom_site_fract_y
 _atom_site_fract_z
 _atom_site_occupancy
  Na  Na0  1  0.31294618  0.68949122  0.50129334  1.0
  Na  Na1  1  0.81294618  0.81050878  0.50129334  1.0
  Na  Na2  1  0.68705382  0.31050878  0.00129334  1.0
  Na  Na3  1  0.18705382  0.18949122  0.00129334  1.0
  Na  Na4  1  0.06136827  0.72272164  0.02495360  1.0
  Na  Na5  1  0.56136827  0.77727836  0.02495360  1.0
  Na  Na6  1  0.93863173  0.27727836  0.52495360  1.0
  Na  Na7  1  0.43863173  0.22272164  0.52495360  1.0
  Si  Si8  1  0.44672679  0.93326319  0.56817664  1.0
  Si  Si9  1  0.94672679  0.56673681  0.56817664  1.0
  Si  Si10  1  0.55327321  0.06673681  0.06817664  1.0
  Si  Si11  1  0.05327321  0.43326319  0.06817664  1.0
  Si  Si12  1  0.39263647  0.52638639  0.96265835  1.0
  Si  Si13  1  0.89263647  0.97361361  0.96265835  1.0
  Si  Si14  1  0.60736353  0.47361361  0.46265835  1.0
  Si  Si15  1  0.10736353  0.02638639  0.46265835  1.0
  O  O16  1  0.47297131  0.96347200  0.89558501  1.0
  O  O17  1  0.97297131  0.53652800  0.89558501  1.0
  O  O18  1  0.52702869  0.03652800  0.39558501  1.0
  O  O19  1  0.02702869  0.46347200  0.39558501  1.0
  O  O20  1  0.44598014  0.51455768  0.63711031  1.0
  O  O21  1  0.94598014  0.98544232  0.63711031  1.0
  O  O22  1  0.55401986  0.48544232  0.13711031  1.0
  O  O23  1  0.05401986  0.01455768  0.13711031  1.0
  O  O24  1  0.33710917  0.64996703  0.02173036  1.0
  O  O25  1  0.83710917  0.85003297  0.02173036  1.0
  O  O26  1  0.66289083  0.35003297  0.52173036  1.0
  O  O27  1  0.16289083  0.14996703  0.52173036  1.0
  O  O28  1  0.24857252  0.93164888  0.51348139  1.0
  O  O29  1  0.74857252  0.56835112  0.51348139  1.0
  O  O30  1  0.75142748  0.06835112  0.01348139  1.0
  O  O31  1  0.25142748  0.43164888  0.01348139  1.0
  O  O32  1  0.02563165  0.68371037  0.50661101  1.0
  O  O33  1  0.52563165  0.81628963  0.50661101  1.0
  O  O34  1  0.97436835  0.31628963  0.00661101  1.0
  O  O35  1  0.47436835  0.18371037  0.00661101  1.0
