# generated using pymatgen
data_Cs2Te3
_symmetry_space_group_name_H-M   'P 1'
_cell_length_a   7.60390471
_cell_length_b   7.60390471
_cell_length_c   8.67490807
_cell_angle_alpha   90.00000000
_cell_angle_beta   90.00000000
_cell_angle_gamma   111.09192648
_symmetry_Int_Tables_number   1
_chemical_formula_structural   Cs2Te3
_chemical_formula_sum   'Cs4 Te6'
_cell_volume   467.97411966
_cell_formula_units_Z   2
loop_
 _symmetry_equiv_pos_site_id
 _symmetry_equiv_pos_as_xyz
  1  'x, y, z'
loop_
 _atom_site_type_symbol
 _atom_site_label
 _atom_site_symmetry_multiplicity
 _atom_site_fract_x
 _atom_site_fract_y
 _atom_site_fract_z
 _atom_site_occupancy
  Cs  Cs0  1  0.08874685  0.91125315  0.55427610  1.0
  Cs  Cs1  1  -0.08874685  1.08874685  0.05427610  1.0
  Cs  Cs2  1  0.41491559  0.58508441  0.33984084  1.0
  Cs  Cs3  1  -0.41491559  1.41491559  0.83984084  1.0
  Te  Te4  1  -0.08581639  1.57410302  0.19386547  1.0
  Te  Te5  1  0.57410302  0.91418361  0.69386547  1.0
  Te  Te6  1  -0.57410302  1.08581639  0.19386547  1.0
  Te  Te7  1  0.08581639  0.42589698  0.69386547  1.0
  Te  Te8  1  0.21793170  0.78206830  -0.00284788  1.0
  Te  Te9  1  -0.21793170  1.21793170  0.49715212  1.0
