# generated using pymatgen
data_CuBIr
_symmetry_space_group_name_H-M   'P 1'
_cell_length_a   5.97110461
_cell_length_b   5.45221196
_cell_length_c   6.63094208
_cell_angle_alpha   58.25635844
_cell_angle_beta   50.94208218
_cell_angle_gamma   70.80155938
_symmetry_Int_Tables_number   1
_chemical_formula_structural   CuBIr
_chemical_formula_sum   'Cu4 B4 Ir4'
_cell_volume   142.55238675
_cell_formula_units_Z   4
loop_
 _symmetry_equiv_pos_site_id
 _symmetry_equiv_pos_as_xyz
  1  'x, y, z'
loop_
 _atom_site_type_symbol
 _atom_site_label
 _atom_site_symmetry_multiplicity
 _atom_site_fract_x
 _atom_site_fract_y
 _atom_site_fract_z
 _atom_site_occupancy
  Cu  Cu0  1  -0.13709634  0.46209245  1.36671460  1.0
  Cu  Cu1  1  0.88328540  -0.05828929  0.38709634  1.0
  Cu  Cu2  1  1.46209245  -0.13709634  0.30828929  1.0
  Cu  Cu3  1  0.94171071  -0.11671460  0.78790755  1.0
  B  B4  1  0.26693649  0.68429920  1.19695115  1.0
  B  B5  1  1.05304885  0.39818684  -0.01693649  1.0
  B  B6  1  1.68429920  0.26693649  -0.14818684  1.0
  B  B7  1  0.39818684  0.05304885  1.56570080  1.0
  Ir  Ir8  1  0.37881184  -0.37984364  0.84771393  1.0
  Ir  Ir9  1  0.40228607  1.09668213  0.87118816  1.0
  Ir  Ir10  1  0.62015636  0.37881184  1.15331787  1.0
  Ir  Ir11  1  1.09668213  -0.59771393  0.62984364  1.0
