# generated using pymatgen
data_Na3CuSnSe4
_symmetry_space_group_name_H-M   'P 1'
_cell_length_a   7.04913056
_cell_length_b   10.29861690
_cell_length_c   14.77940865
_cell_angle_alpha   90.00000000
_cell_angle_beta   118.03212317
_cell_angle_gamma   90.00000000
_symmetry_Int_Tables_number   1
_chemical_formula_structural   Na3CuSnSe4
_chemical_formula_sum   'Na12 Cu4 Sn4 Se16'
_cell_volume   947.05867990
_cell_formula_units_Z   4
loop_
 _symmetry_equiv_pos_site_id
 _symmetry_equiv_pos_as_xyz
  1  'x, y, z'
loop_
 _atom_site_type_symbol
 _atom_site_label
 _atom_site_symmetry_multiplicity
 _atom_site_fract_x
 _atom_site_fract_y
 _atom_site_fract_z
 _atom_site_occupancy
  Na  Na0  1  0.90532167  0.87909496  0.37131583  1.0
  Na  Na1  1  0.90532167  0.62090504  0.87131583  1.0
  Na  Na2  1  0.09467833  0.37909496  0.12868417  1.0
  Na  Na3  1  0.09467833  0.12090504  0.62868417  1.0
  Na  Na4  1  0.75410590  0.39334304  0.48221596  1.0
  Na  Na5  1  0.75410590  0.10665696  0.98221596  1.0
  Na  Na6  1  0.24589410  0.89334304  0.01778404  1.0
  Na  Na7  1  0.24589410  0.60665696  0.51778404  1.0
  Na  Na8  1  0.31008935  0.13851668  0.37566904  1.0
  Na  Na9  1  0.31008935  0.36148332  0.87566904  1.0
  Na  Na10  1  0.68991065  0.63851668  0.12433096  1.0
  Na  Na11  1  0.68991065  0.86148332  0.62433096  1.0
  Cu  Cu12  1  0.88230386  0.39501357  0.28719134  1.0
  Cu  Cu13  1  0.88230386  0.10498643  0.78719134  1.0
  Cu  Cu14  1  0.11769614  0.89501357  0.21280866  1.0
  Cu  Cu15  1  0.11769614  0.60498643  0.71280866  1.0
  Sn  Sn16  1  0.61064516  0.13859988  0.19518165  1.0
  Sn  Sn17  1  0.61064516  0.36140012  0.69518165  1.0
  Sn  Sn18  1  0.38935484  0.63859988  0.30481835  1.0
  Sn  Sn19  1  0.38935484  0.86140012  0.80481835  1.0
  Se  Se20  1  0.88746470  0.18326772  0.38340424  1.0
  Se  Se21  1  0.88746470  0.31673228  0.88340424  1.0
  Se  Se22  1  0.11253530  0.68326772  0.11659576  1.0
  Se  Se23  1  0.11253530  0.81673228  0.61659576  1.0
  Se  Se24  1  0.77949096  0.89983106  0.83964505  1.0
  Se  Se25  1  0.77949096  0.60016894  0.33964505  1.0
  Se  Se26  1  0.22050904  0.39983106  0.66035495  1.0
  Se  Se27  1  0.22050904  0.10016894  0.16035495  1.0
  Se  Se28  1  0.73373174  0.93027991  0.14075368  1.0
  Se  Se29  1  0.73373174  0.56972009  0.64075368  1.0
  Se  Se30  1  0.26626826  0.43027991  0.35924632  1.0
  Se  Se31  1  0.26626826  0.06972009  0.85924632  1.0
  Se  Se32  1  0.64490153  0.33980720  0.09975332  1.0
  Se  Se33  1  0.64490153  0.16019280  0.59975332  1.0
  Se  Se34  1  0.35509847  0.83980720  0.40024668  1.0
  Se  Se35  1  0.35509847  0.66019280  0.90024668  1.0
