# generated using pymatgen
data_Ca2Sb4Pd3
_symmetry_space_group_name_H-M   'P 1'
_cell_length_a   21.10058781
_cell_length_b   21.10058781
_cell_length_c   21.10058781
_cell_angle_alpha   167.67157400
_cell_angle_beta   167.67157400
_cell_angle_gamma   17.46899631
_symmetry_Int_Tables_number   1
_chemical_formula_structural   Ca2Sb4Pd3
_chemical_formula_sum   'Ca4 Sb8 Pd6'
_cell_volume   428.26373320
_cell_formula_units_Z   2
loop_
 _symmetry_equiv_pos_site_id
 _symmetry_equiv_pos_as_xyz
  1  'x, y, z'
loop_
 _atom_site_type_symbol
 _atom_site_label
 _atom_site_symmetry_multiplicity
 _atom_site_fract_x
 _atom_site_fract_y
 _atom_site_fract_z
 _atom_site_occupancy
  Ca  Ca0  1  0.68643635  0.68643635  1.00000000  1.0
  Ca  Ca1  1  0.31356365  0.31356365  0.00000000  1.0
  Ca  Ca2  1  0.55489135  0.55489135  1.00000000  1.0
  Ca  Ca3  1  0.44510865  0.44510865  0.00000000  1.0
  Sb  Sb4  1  0.38253867  0.88253867  0.50000000  1.0
  Sb  Sb5  1  0.61746133  0.11746133  0.50000000  1.0
  Sb  Sb6  1  0.88253867  0.38253867  0.50000000  1.0
  Sb  Sb7  1  0.11746133  0.61746133  0.50000000  1.0
  Sb  Sb8  1  0.96223410  0.96223410  1.00000000  1.0
  Sb  Sb9  1  0.03776590  0.03776590  0.00000000  1.0
  Sb  Sb10  1  0.78428968  0.78428968  1.00000000  1.0
  Sb  Sb11  1  0.21571032  0.21571032  0.00000000  1.0
  Pd  Pd12  1  0.84673247  0.84673247  1.00000000  1.0
  Pd  Pd13  1  0.15326753  0.15326753  0.00000000  1.0
  Pd  Pd14  1  0.25000000  0.75000000  0.50000000  1.0
  Pd  Pd15  1  0.75000000  0.25000000  0.50000000  1.0
  Pd  Pd16  1  0.50000000  0.00000000  0.50000000  1.0
  Pd  Pd17  1  0.00000000  0.50000000  0.50000000  1.0
