# generated using pymatgen
data_Li8GeO6
_symmetry_space_group_name_H-M   'P 1'
_cell_length_a   5.53669444
_cell_length_b   5.53669444
_cell_length_c   10.80252181
_cell_angle_alpha   90.00000000
_cell_angle_beta   90.00000000
_cell_angle_gamma   120.00000000
_symmetry_Int_Tables_number   1
_chemical_formula_structural   Li8GeO6
_chemical_formula_sum   'Li16 Ge2 O12'
_cell_volume   286.78530625
_cell_formula_units_Z   2
loop_
 _symmetry_equiv_pos_site_id
 _symmetry_equiv_pos_as_xyz
  1  'x, y, z'
loop_
 _atom_site_type_symbol
 _atom_site_label
 _atom_site_symmetry_multiplicity
 _atom_site_fract_x
 _atom_site_fract_y
 _atom_site_fract_z
 _atom_site_occupancy
  Li  Li0  1  0.68740957  0.68740957  0.39546054  1.0
  Li  Li1  1  0.68740957  0.00000000  0.89546054  1.0
  Li  Li2  1  -0.00000000  0.68740957  0.89546054  1.0
  Li  Li3  1  0.00000000  0.31259043  0.39546054  1.0
  Li  Li4  1  0.31259043  0.31259043  0.89546054  1.0
  Li  Li5  1  0.31259043  -0.00000000  0.39546054  1.0
  Li  Li6  1  0.60250940  0.60250940  0.03502875  1.0
  Li  Li7  1  0.60250940  0.00000000  0.53502875  1.0
  Li  Li8  1  -0.00000000  0.60250940  0.53502875  1.0
  Li  Li9  1  0.00000000  0.39749060  0.03502875  1.0
  Li  Li10  1  0.39749060  0.39749060  0.53502875  1.0
  Li  Li11  1  0.39749060  -0.00000000  0.03502875  1.0
  Li  Li12  1  0.33333333  0.66666667  0.25541491  1.0
  Li  Li13  1  0.33333333  0.66666667  0.75541491  1.0
  Li  Li14  1  0.66666667  0.33333333  0.25541491  1.0
  Li  Li15  1  0.66666667  0.33333333  0.75541491  1.0
  Ge  Ge16  1  -0.00000000  -0.00000000  0.16643687  1.0
  Ge  Ge17  1  0.00000000  0.00000000  0.66643687  1.0
  O  O18  1  0.33333333  0.66666667  0.44669761  1.0
  O  O19  1  0.33333333  0.66666667  0.94669761  1.0
  O  O20  1  0.66666667  0.33333333  0.44669761  1.0
  O  O21  1  0.66666667  0.33333333  0.94669761  1.0
  O  O22  1  0.69317917  0.69317917  0.21343057  1.0
  O  O23  1  0.69317917  0.00000000  0.71343057  1.0
  O  O24  1  0.00000000  0.69317917  0.71343057  1.0
  O  O25  1  0.00000000  0.30682083  0.21343057  1.0
  O  O26  1  0.30682083  0.30682083  0.71343057  1.0
  O  O27  1  0.30682083  -0.00000000  0.21343057  1.0
  O  O28  1  0.00000000  0.00000000  -0.00182149  1.0
  O  O29  1  -0.00000000  0.00000000  0.49817851  1.0
