# generated using pymatgen
data_KCaVO4
_symmetry_space_group_name_H-M   'P 1'
_cell_length_a   7.60567720
_cell_length_b   5.89464255
_cell_length_c   9.70934260
_cell_angle_alpha   90.00000000
_cell_angle_beta   90.00000000
_cell_angle_gamma   90.00000000
_symmetry_Int_Tables_number   1
_chemical_formula_structural   KCaVO4
_chemical_formula_sum   'K4 Ca4 V4 O16'
_cell_volume   435.29651477
_cell_formula_units_Z   4
loop_
 _symmetry_equiv_pos_site_id
 _symmetry_equiv_pos_as_xyz
  1  'x, y, z'
loop_
 _atom_site_type_symbol
 _atom_site_label
 _atom_site_symmetry_multiplicity
 _atom_site_fract_x
 _atom_site_fract_y
 _atom_site_fract_z
 _atom_site_occupancy
  K  K0  1  0.75004388  0.75000000  0.43282630  1.0
  K  K1  1  0.25004388  0.75000000  0.06717370  1.0
  K  K2  1  0.24995612  0.25000000  0.56717370  1.0
  K  K3  1  0.74995612  0.25000000  0.93282630  1.0
  Ca  Ca4  1  0.49998208  0.75000000  0.75000109  1.0
  Ca  Ca5  1  0.99998208  0.75000000  0.74999891  1.0
  Ca  Ca6  1  0.50001792  0.25000000  0.24999891  1.0
  Ca  Ca7  1  0.00001792  0.25000000  0.25000109  1.0
  V  V8  1  0.75002381  0.75000000  0.08859489  1.0
  V  V9  1  0.25002381  0.75000000  0.41140511  1.0
  V  V10  1  0.24997619  0.25000000  0.91140511  1.0
  V  V11  1  0.74997619  0.25000000  0.58859489  1.0
  O  O12  1  0.75002025  0.99338987  0.19379501  1.0
  O  O13  1  0.75002025  0.50661013  0.19379501  1.0
  O  O14  1  0.25002025  0.99338987  0.30620499  1.0
  O  O15  1  0.25002025  0.50661013  0.30620499  1.0
  O  O16  1  0.24997975  0.49338987  0.80620499  1.0
  O  O17  1  0.24997975  0.00661013  0.80620499  1.0
  O  O18  1  0.74997975  0.49338987  0.69379501  1.0
  O  O19  1  0.74997975  0.00661013  0.69379501  1.0
  O  O20  1  0.92671057  0.75000000  -0.01780381  1.0
  O  O21  1  0.42671057  0.75000000  0.51780381  1.0
  O  O22  1  0.07328943  0.25000000  1.01780381  1.0
  O  O23  1  0.57328943  0.25000000  0.48219619  1.0
  O  O24  1  0.07338492  0.75000000  0.51785881  1.0
  O  O25  1  0.57338492  0.75000000  0.98214119  1.0
  O  O26  1  0.92661508  0.25000000  0.48214119  1.0
  O  O27  1  0.42661508  0.25000000  0.01785881  1.0
