# generated using pymatgen
data_TlPO4
_symmetry_space_group_name_H-M   'P 1'
_cell_length_a   9.18099669
_cell_length_b   4.60656008
_cell_length_c   16.21092633
_cell_angle_alpha   90.00000000
_cell_angle_beta   106.42829876
_cell_angle_gamma   90.00000000
_symmetry_Int_Tables_number   1
_chemical_formula_structural   TlPO4
_chemical_formula_sum   'Tl8 P8 O32'
_cell_volume   657.61541451
_cell_formula_units_Z   8
loop_
 _symmetry_equiv_pos_site_id
 _symmetry_equiv_pos_as_xyz
  1  'x, y, z'
loop_
 _atom_site_type_symbol
 _atom_site_label
 _atom_site_symmetry_multiplicity
 _atom_site_fract_x
 _atom_site_fract_y
 _atom_site_fract_z
 _atom_site_occupancy
  Tl  Tl0  1  0.92777786  0.24989078  0.35548585  1.0
  Tl  Tl1  1  0.92777786  0.25010922  0.85548585  1.0
  Tl  Tl2  1  0.07222214  0.74989078  0.14451415  1.0
  Tl  Tl3  1  0.07222214  0.75010922  0.64451415  1.0
  Tl  Tl4  1  0.42775809  0.25002167  0.35546244  1.0
  Tl  Tl5  1  0.42775809  0.24997833  0.85546244  1.0
  Tl  Tl6  1  0.57224191  0.75002167  0.14453756  1.0
  Tl  Tl7  1  0.57224191  0.74997833  0.64453756  1.0
  P  P8  1  0.81473411  0.25002702  0.12940745  1.0
  P  P9  1  0.81473411  0.24997298  0.62940745  1.0
  P  P10  1  0.18526589  0.75002702  0.37059255  1.0
  P  P11  1  0.18526589  0.74997298  0.87059255  1.0
  P  P12  1  0.31474360  0.25002843  0.12943842  1.0
  P  P13  1  0.31474360  0.24997157  0.62943842  1.0
  P  P14  1  0.68525640  0.75002843  0.37056158  1.0
  P  P15  1  0.68525640  0.74997157  0.87056158  1.0
  O  O16  1  0.93630286  0.05415666  0.19354787  1.0
  O  O17  1  0.93630286  0.44584334  0.69354787  1.0
  O  O18  1  0.06369714  0.55415666  0.30645213  1.0
  O  O19  1  0.06369714  0.94584334  0.80645213  1.0
  O  O20  1  0.89059547  0.43806359  0.07334838  1.0
  O  O21  1  0.89059547  0.06193641  0.57334838  1.0
  O  O22  1  0.10940453  0.93806359  0.42665162  1.0
  O  O23  1  0.10940453  0.56193641  0.92665162  1.0
  O  O24  1  0.74272108  0.94603412  0.30643810  1.0
  O  O25  1  0.74272108  0.55396588  0.80643810  1.0
  O  O26  1  0.25727892  0.44603412  0.19356190  1.0
  O  O27  1  0.25727892  0.05396588  0.69356190  1.0
  O  O28  1  0.81706786  0.93816567  0.92656135  1.0
  O  O29  1  0.81706786  0.56183433  0.42656135  1.0
  O  O30  1  0.18293214  0.43816567  0.57343865  1.0
  O  O31  1  0.18293214  0.06183433  0.07343865  1.0
  O  O32  1  0.75730852  0.44614347  0.19351731  1.0
  O  O33  1  0.75730852  0.05385653  0.69351731  1.0
  O  O34  1  0.24269148  0.94614347  0.30648269  1.0
  O  O35  1  0.24269148  0.55385653  0.80648269  1.0
  O  O36  1  0.68292128  0.06180274  0.07342159  1.0
  O  O37  1  0.68292128  0.43819726  0.57342159  1.0
  O  O38  1  0.31707872  0.56180274  0.42657841  1.0
  O  O39  1  0.31707872  0.93819726  0.92657841  1.0
  O  O40  1  0.60938093  0.93811631  0.42659781  1.0
  O  O41  1  0.60938093  0.56188369  0.92659781  1.0
  O  O42  1  0.39061907  0.43811631  0.07340219  1.0
  O  O43  1  0.39061907  0.06188369  0.57340219  1.0
  O  O44  1  0.43631404  0.05418329  0.19358528  1.0
  O  O45  1  0.43631404  0.44581671  0.69358528  1.0
  O  O46  1  0.56368596  0.55418329  0.30641472  1.0
  O  O47  1  0.56368596  0.94581671  0.80641472  1.0
