# generated using pymatgen
data_Sr5Nb4O15
_symmetry_space_group_name_H-M   'P 1'
_cell_length_a   5.70927900
_cell_length_b   5.70927900
_cell_length_c   23.20567964
_cell_angle_alpha   90.00000000
_cell_angle_beta   90.00000000
_cell_angle_gamma   120.00000000
_symmetry_Int_Tables_number   1
_chemical_formula_structural   Sr5Nb4O15
_chemical_formula_sum   'Sr10 Nb8 O30'
_cell_volume   655.06961727
_cell_formula_units_Z   2
loop_
 _symmetry_equiv_pos_site_id
 _symmetry_equiv_pos_as_xyz
  1  'x, y, z'
loop_
 _atom_site_type_symbol
 _atom_site_label
 _atom_site_symmetry_multiplicity
 _atom_site_fract_x
 _atom_site_fract_y
 _atom_site_fract_z
 _atom_site_occupancy
  Sr  Sr0  1  0.33333333  0.66666667  0.02878105  1.0
  Sr  Sr1  1  0.33333333  0.66666667  0.52878105  1.0
  Sr  Sr2  1  0.66666667  0.33333333  0.47121895  1.0
  Sr  Sr3  1  0.66666667  0.33333333  0.97121895  1.0
  Sr  Sr4  1  0.33333333  0.66666667  0.35839662  1.0
  Sr  Sr5  1  0.33333333  0.66666667  0.85839662  1.0
  Sr  Sr6  1  0.66666667  0.33333333  0.14160338  1.0
  Sr  Sr7  1  0.66666667  0.33333333  0.64160338  1.0
  Sr  Sr8  1  0.00000000  0.00000000  0.25000000  1.0
  Sr  Sr9  1  0.00000000  0.00000000  0.75000000  1.0
  Nb  Nb10  1  0.33333333  0.66666667  0.19747195  1.0
  Nb  Nb11  1  0.33333333  0.66666667  0.69747195  1.0
  Nb  Nb12  1  0.66666667  0.33333333  0.30252805  1.0
  Nb  Nb13  1  0.66666667  0.33333333  0.80252805  1.0
  Nb  Nb14  1  0.00000000  0.00000000  0.09130714  1.0
  Nb  Nb15  1  0.00000000  0.00000000  0.59130714  1.0
  Nb  Nb16  1  0.00000000  0.00000000  0.40869286  1.0
  Nb  Nb17  1  0.00000000  0.00000000  0.90869286  1.0
  O  O18  1  0.11707295  0.78476126  0.15427879  1.0
  O  O19  1  0.11707295  0.33231169  0.65427879  1.0
  O  O20  1  0.78476126  0.11707295  0.34572121  1.0
  O  O21  1  0.78476126  0.66768831  0.84572121  1.0
  O  O22  1  0.66768831  0.78476126  0.65427879  1.0
  O  O23  1  0.66768831  0.88292705  0.15427879  1.0
  O  O24  1  0.21523874  0.88292705  0.65427879  1.0
  O  O25  1  0.21523874  0.33231169  0.15427879  1.0
  O  O26  1  0.88292705  0.66768831  0.34572121  1.0
  O  O27  1  0.88292705  0.21523874  0.84572121  1.0
  O  O28  1  0.33231169  0.11707295  0.84572121  1.0
  O  O29  1  0.33231169  0.21523874  0.34572121  1.0
  O  O30  1  0.76601146  0.66952118  0.05605194  1.0
  O  O31  1  0.76601146  0.09649028  0.55605194  1.0
  O  O32  1  0.66952118  0.76601146  0.44394806  1.0
  O  O33  1  0.66952118  0.90350972  0.94394806  1.0
  O  O34  1  0.90350972  0.66952118  0.55605194  1.0
  O  O35  1  0.90350972  0.23398854  0.05605194  1.0
  O  O36  1  0.33047882  0.23398854  0.55605194  1.0
  O  O37  1  0.33047882  0.09649028  0.05605194  1.0
  O  O38  1  0.23398854  0.90350972  0.44394806  1.0
  O  O39  1  0.23398854  0.33047882  0.94394806  1.0
  O  O40  1  0.09649028  0.76601146  0.94394806  1.0
  O  O41  1  0.09649028  0.33047882  0.44394806  1.0
  O  O42  1  0.54540538  0.54540538  0.25000000  1.0
  O  O43  1  0.54540538  0.00000000  0.75000000  1.0
  O  O44  1  0.00000000  0.54540538  0.75000000  1.0
  O  O45  1  0.00000000  0.45459462  0.25000000  1.0
  O  O46  1  0.45459462  0.45459462  0.75000000  1.0
  O  O47  1  0.45459462  0.00000000  0.25000000  1.0
