# generated using pymatgen
data_NaCo2Se2O7
_symmetry_space_group_name_H-M   'P 1'
_cell_length_a   13.72062285
_cell_length_b   6.19045101
_cell_length_c   8.02787924
_cell_angle_alpha   90.00000000
_cell_angle_beta   90.00000000
_cell_angle_gamma   90.00000000
_symmetry_Int_Tables_number   1
_chemical_formula_structural   NaCo2Se2O7
_chemical_formula_sum   'Na4 Co8 Se8 O28'
_cell_volume   681.86272296
_cell_formula_units_Z   4
loop_
 _symmetry_equiv_pos_site_id
 _symmetry_equiv_pos_as_xyz
  1  'x, y, z'
loop_
 _atom_site_type_symbol
 _atom_site_label
 _atom_site_symmetry_multiplicity
 _atom_site_fract_x
 _atom_site_fract_y
 _atom_site_fract_z
 _atom_site_occupancy
  Co  Co0  1  0.50000000  0.00000000  0.50000000  1.0
  Co  Co1  1  0.50000000  0.50000000  0.50000000  1.0
  Co  Co2  1  0.00000000  0.00000000  0.00000000  1.0
  Co  Co3  1  0.00000000  0.50000000  0.00000000  1.0
  Co  Co4  1  0.38754251  0.75000000  0.76857334  1.0
  Co  Co5  1  0.88754251  0.75000000  0.73142666  1.0
  Co  Co6  1  0.61245749  0.25000000  0.23142666  1.0
  Co  Co7  1  0.11245749  0.25000000  0.26857334  1.0
  O  O8  1  0.26764149  0.95179162  0.79376379  1.0
  O  O9  1  0.26764149  0.54820838  0.79376379  1.0
  O  O10  1  0.76764149  0.95179162  0.70623621  1.0
  O  O11  1  0.76764149  0.54820838  0.70623621  1.0
  O  O12  1  0.73235851  0.45179162  0.20623621  1.0
  O  O13  1  0.73235851  0.04820838  0.20623621  1.0
  O  O14  1  0.23235851  0.45179162  0.29376379  1.0
  O  O15  1  0.23235851  0.04820838  0.29376379  1.0
  O  O16  1  0.41755381  0.75000000  0.02034236  1.0
  O  O17  1  0.91755381  0.75000000  0.47965764  1.0
  O  O18  1  0.58244619  0.25000000  0.97965764  1.0
  O  O19  1  0.08244619  0.25000000  0.52034236  1.0
  O  O20  1  0.42968664  0.75000000  0.53837171  1.0
  O  O21  1  0.92968664  0.75000000  0.96162829  1.0
  O  O22  1  0.57031336  0.25000000  0.46162829  1.0
  O  O23  1  0.07031336  0.25000000  0.03837171  1.0
  O  O24  1  0.12424935  0.75000000  0.96621380  1.0
  O  O25  1  0.62424935  0.75000000  0.53378620  1.0
  O  O26  1  0.87575065  0.25000000  0.03378620  1.0
  O  O27  1  0.37575065  0.25000000  0.46621380  1.0
  O  O28  1  0.48949066  0.47297440  0.74328663  1.0
  O  O29  1  0.48949066  0.02702560  0.74328663  1.0
  O  O30  1  0.98949066  0.47297440  0.75671337  1.0
  O  O31  1  0.98949066  0.02702560  0.75671337  1.0
  O  O32  1  0.51050934  0.97297440  0.25671337  1.0
  O  O33  1  0.51050934  0.52702560  0.25671337  1.0
  O  O34  1  0.01050934  0.97297440  0.24328663  1.0
  O  O35  1  0.01050934  0.52702560  0.24328663  1.0
  Na  Na36  1  0.26202777  0.75000000  0.13727627  1.0
  Na  Na37  1  0.76202777  0.75000000  0.36272373  1.0
  Na  Na38  1  0.73797223  0.25000000  0.86272373  1.0
  Na  Na39  1  0.23797223  0.25000000  0.63727627  1.0
  Se  Se40  1  0.18012662  0.75000000  0.77310166  1.0
  Se  Se41  1  0.68012662  0.75000000  0.72689834  1.0
  Se  Se42  1  0.81987338  0.25000000  0.22689834  1.0
  Se  Se43  1  0.31987338  0.25000000  0.27310166  1.0
  Se  Se44  1  0.02649280  0.75000000  0.37470550  1.0
  Se  Se45  1  0.52649280  0.75000000  0.12529450  1.0
  Se  Se46  1  0.97350720  0.25000000  0.62529450  1.0
  Se  Se47  1  0.47350720  0.25000000  0.87470550  1.0
