# generated using pymatgen
data_Sr6(CoO3)5
_symmetry_space_group_name_H-M   'P 1'
_cell_length_a   6.90493897
_cell_length_b   6.90493897
_cell_length_c   6.90493897
_cell_angle_alpha   87.72646209
_cell_angle_beta   87.72646209
_cell_angle_gamma   87.72646209
_symmetry_Int_Tables_number   1
_chemical_formula_structural   Sr6(CoO3)5
_chemical_formula_sum   'Sr6 Co5 O15'
_cell_volume   328.45747513
_cell_formula_units_Z   1
loop_
 _symmetry_equiv_pos_site_id
 _symmetry_equiv_pos_as_xyz
  1  'x, y, z'
loop_
 _atom_site_type_symbol
 _atom_site_label
 _atom_site_symmetry_multiplicity
 _atom_site_fract_x
 _atom_site_fract_y
 _atom_site_fract_z
 _atom_site_occupancy
  O  O0  1  0.53178340  0.84175232  -0.29907663  1.0
  O  O1  1  1.29907663  1.15824768  0.46821660  1.0
  O  O2  1  1.15824768  1.46821660  0.29907663  1.0
  O  O3  1  1.46821660  1.29907663  0.15824768  1.0
  O  O4  1  0.70092337  0.53178340  -0.15824768  1.0
  O  O5  1  0.84175232  0.70092337  -0.46821660  1.0
  O  O6  1  0.34726735  0.50000000  -0.34726735  1.0
  O  O7  1  0.50000000  0.65273265  -0.65273265  1.0
  O  O8  1  0.65273265  0.34726735  -0.50000000  1.0
  O  O9  1  0.73777748  -0.12685787  0.04485999  1.0
  O  O10  1  0.95514001  0.12685787  -0.73777748  1.0
  O  O11  1  1.12685787  -0.73777748  -0.04485999  1.0
  O  O12  1  0.26222252  -0.04485999  0.12685787  1.0
  O  O13  1  1.04485999  -0.26222252  -0.12685787  1.0
  O  O14  1  0.87314213  0.04485999  -0.26222252  1.0
  Sr  Sr15  1  0.82925136  0.50000000  -0.82925136  1.0
  Sr  Sr16  1  0.50000000  0.17074864  -0.17074864  1.0
  Sr  Sr17  1  0.17074864  0.82925136  -0.50000000  1.0
  Sr  Sr18  1  0.64187656  1.00000000  -0.64187656  1.0
  Sr  Sr19  1  0.00000000  0.35812344  -0.35812344  1.0
  Sr  Sr20  1  0.35812344  -0.35812344  0.00000000  1.0
  Co  Co21  1  0.00000000  0.00000000  0.00000000  1.0
  Co  Co22  1  0.59686932  0.59686932  -0.40313068  1.0
  Co  Co23  1  0.40313068  0.40313068  -0.59686932  1.0
  Co  Co24  1  0.79396560  0.79396560  -0.20603440  1.0
  Co  Co25  1  1.20603440  1.20603440  0.20603440  1.0
