# generated using pymatgen
data_Ca2Y3Si3O13
_symmetry_space_group_name_H-M   'P 1'
_cell_length_a   9.44959663
_cell_length_b   6.89815966
_cell_length_c   9.44946726
_cell_angle_alpha   90.00000000
_cell_angle_beta   120.00010698
_cell_angle_gamma   90.00000000
_symmetry_Int_Tables_number   1
_chemical_formula_structural   Ca2Y3Si3O13
_chemical_formula_sum   'Ca4 Y6 Si6 O26'
_cell_volume   533.43806197
_cell_formula_units_Z   2
loop_
 _symmetry_equiv_pos_site_id
 _symmetry_equiv_pos_as_xyz
  1  'x, y, z'
loop_
 _atom_site_type_symbol
 _atom_site_label
 _atom_site_symmetry_multiplicity
 _atom_site_fract_x
 _atom_site_fract_y
 _atom_site_fract_z
 _atom_site_occupancy
  Y  Y0  1  0.75776161  0.23380693  0.75299477  1.0
  Y  Y1  1  0.24223839  0.73380693  0.24700523  1.0
  Y  Y2  1  0.24701040  0.23379351  0.00484219  1.0
  Y  Y3  1  0.75298960  0.73379351  0.99515781  1.0
  Y  Y4  1  0.00481915  0.73379018  0.75780287  1.0
  Y  Y5  1  0.99518085  0.23379018  0.24219713  1.0
  O  O6  1  0.29657463  0.73375636  0.82255494  1.0
  O  O7  1  0.70342537  0.23375636  0.17744506  1.0
  O  O8  1  0.47583814  0.23383981  0.58927614  1.0
  O  O9  1  0.52416186  0.73383981  0.41072386  1.0
  O  O10  1  0.11341205  0.23380206  0.52413191  1.0
  O  O11  1  0.88658795  0.73380206  0.47586809  1.0
  O  O12  1  0.82256520  0.23375322  0.52601855  1.0
  O  O13  1  0.17743480  0.73375322  0.47398145  1.0
  O  O14  1  0.41068790  0.23381495  0.88662438  1.0
  O  O15  1  0.58931210  0.73381495  0.11337562  1.0
  O  O16  1  0.08828978  0.04810203  0.75964377  1.0
  O  O17  1  0.91171023  0.54810203  0.24035623  1.0
  O  O18  1  0.08818571  0.41941364  0.75967746  1.0
  O  O19  1  0.91181429  0.91941364  0.24032254  1.0
  O  O20  1  0.67129710  0.04810439  0.91172856  1.0
  O  O21  1  0.32870290  0.54810439  0.08827144  1.0
  O  O22  1  0.67137325  0.41945050  0.91178261  1.0
  O  O23  1  0.32862675  0.91945050  0.08821739  1.0
  O  O24  1  0.75968248  0.91943130  0.67155371  1.0
  O  O25  1  0.24031752  0.41943130  0.32844629  1.0
  O  O26  1  -0.00003055  0.23365776  -0.00001051  1.0
  O  O27  1  1.00003055  0.73365776  1.00001051  1.0
  O  O28  1  0.52595586  0.73377490  0.70337313  1.0
  O  O29  1  0.47404414  0.23377490  0.29662687  1.0
  O  O30  1  0.75962302  0.54810932  0.67138819  1.0
  O  O31  1  0.24037698  0.04810932  0.32861181  1.0
  Si  Si32  1  0.02127287  0.23376724  0.63222810  1.0
  Si  Si33  1  0.97872713  0.73376724  0.36777190  1.0
  Si  Si34  1  0.61090923  0.23378197  0.97873628  1.0
  Si  Si35  1  0.38909077  0.73378197  0.02126372  1.0
  Si  Si36  1  0.63222913  0.73379209  0.61095138  1.0
  Si  Si37  1  0.36777087  0.23379209  0.38904862  1.0
  Ca  Ca38  1  0.33332458  0.98084674  0.66668243  1.0
  Ca  Ca39  1  0.66667542  0.48084674  0.33331757  1.0
  Ca  Ca40  1  0.33336490  0.48671109  0.66672221  1.0
  Ca  Ca41  1  0.66663510  0.98671109  0.33327779  1.0
