# generated using pymatgen
data_SrCo2(AsO4)2
_symmetry_space_group_name_H-M   'P 1'
_cell_length_a   7.17841071
_cell_length_b   5.69617050
_cell_length_c   9.73417872
_cell_angle_alpha   70.80069150
_cell_angle_beta   67.48491333
_cell_angle_gamma   81.27067248
_symmetry_Int_Tables_number   1
_chemical_formula_structural   SrCo2(AsO4)2
_chemical_formula_sum   'Sr2 Co4 As4 O16'
_cell_volume   347.08425813
_cell_formula_units_Z   2
loop_
 _symmetry_equiv_pos_site_id
 _symmetry_equiv_pos_as_xyz
  1  'x, y, z'
loop_
 _atom_site_type_symbol
 _atom_site_label
 _atom_site_symmetry_multiplicity
 _atom_site_fract_x
 _atom_site_fract_y
 _atom_site_fract_z
 _atom_site_occupancy
  O  O0  1  -0.11794532  -0.73232571  0.60900005  1.0
  O  O1  1  0.11794532  -0.26767429  0.39099995  1.0
  O  O2  1  0.25759719  -0.69305139  0.71376150  1.0
  O  O3  1  -0.25759719  -0.30694861  0.28623850  1.0
  O  O4  1  -0.42957792  -0.60369888  0.85380605  1.0
  O  O5  1  0.42957792  -0.39630112  0.14619395  1.0
  O  O6  1  -0.07083604  -0.33978687  0.74652214  1.0
  O  O7  1  0.07083604  -0.66021313  0.25347786  1.0
  O  O8  1  0.34051891  -0.17728302  0.60851268  1.0
  O  O9  1  -0.34051891  -0.82271698  0.39148732  1.0
  O  O10  1  0.81727624  -0.63060277  0.08044480  1.0
  O  O11  1  -0.81727624  -0.36939723  0.91955520  1.0
  O  O12  1  -0.18507592  -1.03685429  0.94129482  1.0
  O  O13  1  0.18507592  0.03685429  0.05870518  1.0
  O  O14  1  0.42891124  -0.92727434  0.20664622  1.0
  O  O15  1  -0.42891124  -0.07272566  0.79335378  1.0
  Sr  Sr16  1  0.25849617  -0.75109558  0.45132336  1.0
  Sr  Sr17  1  -0.25849617  -0.24890442  0.54867664  1.0
  As  As18  1  -0.27740661  -0.85474675  0.79536715  1.0
  As  As19  1  0.27740661  -0.14525325  0.20463285  1.0
  As  As20  1  0.17315939  -0.40352051  0.74629559  1.0
  As  As21  1  -0.17315939  -0.59647949  0.25370441  1.0
  Co  Co22  1  -0.32497953  -0.38932170  0.94611758  1.0
  Co  Co23  1  0.32497953  -0.61067830  0.05388242  1.0
  Co  Co24  1  0.72700364  -0.97323751  0.14680232  1.0
  Co  Co25  1  -0.72700364  -0.02676249  0.85319768  1.0
