# generated using pymatgen
data_Na(LiSi2)3
_symmetry_space_group_name_H-M   'P 1'
_cell_length_a   17.98707873
_cell_length_b   3.80098648
_cell_length_c   10.30915534
_cell_angle_alpha   90.00000000
_cell_angle_beta   90.00000000
_cell_angle_gamma   90.00000000
_symmetry_Int_Tables_number   1
_chemical_formula_structural   Na(LiSi2)3
_chemical_formula_sum   'Na4 Li12 Si24'
_cell_volume   704.82296238
_cell_formula_units_Z   4
loop_
 _symmetry_equiv_pos_site_id
 _symmetry_equiv_pos_as_xyz
  1  'x, y, z'
loop_
 _atom_site_type_symbol
 _atom_site_label
 _atom_site_symmetry_multiplicity
 _atom_site_fract_x
 _atom_site_fract_y
 _atom_site_fract_z
 _atom_site_occupancy
  Na  Na0  1  0.42430357  0.75000000  0.24873807  1.0
  Na  Na1  1  0.92430357  0.75000000  0.25126193  1.0
  Na  Na2  1  0.57569643  0.25000000  0.75126193  1.0
  Na  Na3  1  0.07569643  0.25000000  0.74873807  1.0
  Li  Li4  1  0.47219459  0.75000000  0.59199714  1.0
  Li  Li5  1  0.97219459  0.75000000  0.90800286  1.0
  Li  Li6  1  0.52780541  0.25000000  0.40800286  1.0
  Li  Li7  1  0.02780541  0.25000000  0.09199714  1.0
  Li  Li8  1  0.31272316  0.75000000  0.93613951  1.0
  Li  Li9  1  0.81272316  0.75000000  0.56386049  1.0
  Li  Li10  1  0.68727684  0.25000000  0.06386049  1.0
  Li  Li11  1  0.18727684  0.25000000  0.43613951  1.0
  Li  Li12  1  0.06806785  0.75000000  0.51457295  1.0
  Li  Li13  1  0.56806785  0.75000000  0.98542705  1.0
  Li  Li14  1  0.93193215  0.25000000  0.48542705  1.0
  Li  Li15  1  0.43193215  0.25000000  0.01457295  1.0
  Si  Si16  1  0.80406329  0.75000000  0.02374916  1.0
  Si  Si17  1  0.30406329  0.75000000  0.47625084  1.0
  Si  Si18  1  0.19593671  0.25000000  0.97625084  1.0
  Si  Si19  1  0.69593671  0.25000000  0.52374916  1.0
  Si  Si20  1  0.44571918  0.75000000  0.83466320  1.0
  Si  Si21  1  0.94571918  0.75000000  0.66533680  1.0
  Si  Si22  1  0.55428082  0.25000000  0.16533680  1.0
  Si  Si23  1  0.05428082  0.25000000  0.33466320  1.0
  Si  Si24  1  0.25101230  0.75000000  0.25769586  1.0
  Si  Si25  1  0.75101230  0.75000000  0.24230414  1.0
  Si  Si26  1  0.74898770  0.25000000  0.74230414  1.0
  Si  Si27  1  0.24898770  0.25000000  0.75769586  1.0
  Si  Si28  1  0.20510687  0.75000000  0.63966025  1.0
  Si  Si29  1  0.70510687  0.75000000  0.86033975  1.0
  Si  Si30  1  0.79489313  0.25000000  0.36033975  1.0
  Si  Si31  1  0.29489313  0.25000000  0.13966025  1.0
  Si  Si32  1  0.11725082  0.75000000  0.00331919  1.0
  Si  Si33  1  0.61725082  0.75000000  0.49668081  1.0
  Si  Si34  1  0.88274918  0.25000000  0.99668081  1.0
  Si  Si35  1  0.38274918  0.25000000  0.50331919  1.0
  Si  Si36  1  0.11698956  0.75000000  0.24166948  1.0
  Si  Si37  1  0.61698956  0.75000000  0.25833052  1.0
  Si  Si38  1  0.88301044  0.25000000  0.75833052  1.0
  Si  Si39  1  0.38301044  0.25000000  0.74166948  1.0
