# generated using pymatgen
data_Ca3FeRhO6
_symmetry_space_group_name_H-M   'P 1'
_cell_length_a   6.44106101
_cell_length_b   6.44106101
_cell_length_c   6.44106101
_cell_angle_alpha   91.66307581
_cell_angle_beta   91.66307581
_cell_angle_gamma   91.66307581
_symmetry_Int_Tables_number   1
_chemical_formula_structural   Ca3FeRhO6
_chemical_formula_sum   'Ca6 Fe2 Rh2 O12'
_cell_volume   266.87764931
_cell_formula_units_Z   2
loop_
 _symmetry_equiv_pos_site_id
 _symmetry_equiv_pos_as_xyz
  1  'x, y, z'
loop_
 _atom_site_type_symbol
 _atom_site_label
 _atom_site_symmetry_multiplicity
 _atom_site_fract_x
 _atom_site_fract_y
 _atom_site_fract_z
 _atom_site_occupancy
  Ca  Ca0  1  0.88283477  1.25000000  -0.38283477  1.0
  Ca  Ca1  1  1.38283477  0.11716523  -0.25000000  1.0
  Ca  Ca2  1  0.75000000  0.38283477  0.11716523  1.0
  Ca  Ca3  1  1.25000000  0.61716523  -0.11716523  1.0
  Ca  Ca4  1  1.11716523  -0.25000000  0.38283477  1.0
  Ca  Ca5  1  0.61716523  0.88283477  0.25000000  1.0
  Fe  Fe6  1  0.25000000  0.25000000  0.25000000  1.0
  Fe  Fe7  1  0.75000000  0.75000000  0.75000000  1.0
  Rh  Rh8  1  0.50000000  0.50000000  0.50000000  1.0
  Rh  Rh9  1  0.00000000  0.00000000  0.00000000  1.0
  O  O10  1  1.20132504  0.40164223  -0.46079885  1.0
  O  O11  1  0.70132504  1.03920115  -0.09835777  1.0
  O  O12  1  0.96079885  0.09835777  0.29867496  1.0
  O  O13  1  1.46079885  -0.20132504  0.59835777  1.0
  O  O14  1  1.59835777  0.46079885  -0.20132504  1.0
  O  O15  1  1.09835777  0.29867496  -0.03920115  1.0
  O  O16  1  0.79867496  0.59835777  0.46079885  1.0
  O  O17  1  1.29867496  -0.03920115  0.09835777  1.0
  O  O18  1  0.53920115  1.20132504  -0.59835777  1.0
  O  O19  1  1.03920115  0.90164223  -0.29867496  1.0
  O  O20  1  0.90164223  0.70132504  0.03920115  1.0
  O  O21  1  0.40164223  0.53920115  0.20132504  1.0
