# generated using pymatgen
data_V(PO3)3
_symmetry_space_group_name_H-M   'P 1'
_cell_length_a   7.46042640
_cell_length_b   7.46042640
_cell_length_c   9.60775251
_cell_angle_alpha   57.29717588
_cell_angle_beta   122.70282412
_cell_angle_gamma   128.04999854
_symmetry_Int_Tables_number   1
_chemical_formula_structural   V(PO3)3
_chemical_formula_sum   'V2 P6 O18'
_cell_volume   336.56642483
_cell_formula_units_Z   2
loop_
 _symmetry_equiv_pos_site_id
 _symmetry_equiv_pos_as_xyz
  1  'x, y, z'
loop_
 _atom_site_type_symbol
 _atom_site_label
 _atom_site_symmetry_multiplicity
 _atom_site_fract_x
 _atom_site_fract_y
 _atom_site_fract_z
 _atom_site_occupancy
  V  V0  1  0.98862696  0.49107851  0.74904654  1.0
  V  V1  1  1.50892149  0.01137304  0.24904654  1.0
  P  P2  1  0.98698528  -0.78523415  0.57320176  1.0
  P  P3  1  1.78523415  0.01301472  0.07320176  1.0
  P  P4  1  1.02284161  0.80246140  0.92474738  1.0
  P  P5  1  0.19753860  -0.02284161  0.42474738  1.0
  P  P6  1  0.43802084  0.45375803  0.48652980  1.0
  P  P7  1  0.54624197  0.56197916  -0.01347020  1.0
  O  O8  1  0.89960802  0.34086923  0.58464459  1.0
  O  O9  1  1.65913077  0.10039198  0.08464459  1.0
  O  O10  1  0.06249475  0.03389918  0.75724171  1.0
  O  O11  1  0.96610082  0.93750525  0.25724171  1.0
  O  O12  1  1.24524585  -0.59473445  0.54641656  1.0
  O  O13  1  1.59473445  -0.24524585  0.04641656  1.0
  O  O14  1  1.31150832  0.51445525  0.84167190  1.0
  O  O15  1  1.48554475  -0.31150832  0.34167190  1.0
  O  O16  1  0.90348244  0.17134125  0.93272874  1.0
  O  O17  1  1.82865875  0.09651756  0.43272874  1.0
  O  O18  1  1.05828639  0.63114360  0.91627137  1.0
  O  O19  1  1.36885640  -0.05828639  0.41627137  1.0
  O  O20  1  1.11468780  0.82439879  0.58387326  1.0
  O  O21  1  1.17560121  -0.11468780  0.08387326  1.0
  O  O22  1  0.64649560  0.43096372  0.64686804  1.0
  O  O23  1  1.56903628  0.35350440  0.14686804  1.0
  O  O24  1  0.74433131  0.69521484  0.89575834  1.0
  O  O25  1  0.30478516  0.25566869  0.39575834  1.0
