# generated using pymatgen
data_Li2CuB4(PbO5)2
_symmetry_space_group_name_H-M   'P 1'
_cell_length_a   8.83224685
_cell_length_b   8.83224685
_cell_length_c   14.02639068
_cell_angle_alpha   56.74661931
_cell_angle_beta   123.25338069
_cell_angle_gamma   147.83781695
_symmetry_Int_Tables_number   1
_chemical_formula_structural   Li2CuB4(PbO5)2
_chemical_formula_sum   'Li4 Cu2 B8 Pb4 O20'
_cell_volume   478.29552159
_cell_formula_units_Z   2
loop_
 _symmetry_equiv_pos_site_id
 _symmetry_equiv_pos_as_xyz
  1  'x, y, z'
loop_
 _atom_site_type_symbol
 _atom_site_label
 _atom_site_symmetry_multiplicity
 _atom_site_fract_x
 _atom_site_fract_y
 _atom_site_fract_z
 _atom_site_occupancy
  Li  Li0  1  0.62897558  -0.00282286  0.86762205  1.0
  Li  Li1  1  1.00282286  -0.62897558  0.36762205  1.0
  Li  Li2  1  0.99717714  0.62897558  0.63237795  1.0
  Li  Li3  1  1.37102442  0.00282286  0.13237795  1.0
  Cu  Cu4  1  0.50000000  -0.00000000  0.00000000  1.0
  Cu  Cu5  1  1.00000000  -0.50000000  0.50000000  1.0
  B  B6  1  1.57792929  -0.17395481  0.52293972  1.0
  B  B7  1  1.17395481  -0.57792929  0.02293972  1.0
  B  B8  1  0.82604519  0.57792929  0.97706028  1.0
  B  B9  1  0.42207071  0.17395481  0.47706028  1.0
  B  B10  1  1.52474854  -0.17311597  0.68313346  1.0
  B  B11  1  1.17311597  -0.52474854  0.18313346  1.0
  B  B12  1  0.82688403  0.52474854  0.81686654  1.0
  B  B13  1  0.47525146  0.17311597  0.31686654  1.0
  Pb  Pb14  1  1.13779055  -0.79586704  0.85917661  1.0
  Pb  Pb15  1  1.79586704  -0.13779055  0.35917661  1.0
  Pb  Pb16  1  0.20413296  0.13779056  0.64082339  1.0
  Pb  Pb17  1  0.86220944  0.79586704  0.14082339  1.0
  O  O18  1  1.79144707  -0.04218773  0.48372692  1.0
  O  O19  1  1.04218773  0.20855293  0.98372692  1.0
  O  O20  1  0.95781227  -0.20855293  0.01627308  1.0
  O  O21  1  0.20855293  0.04218773  0.51627308  1.0
  O  O22  1  1.68460517  -0.08458583  0.62342355  1.0
  O  O23  1  1.08458583  -0.68460517  0.12342355  1.0
  O  O24  1  0.91541417  0.68460517  0.87657645  1.0
  O  O25  1  0.31539483  0.08458583  0.37657645  1.0
  O  O26  1  0.66716631  -0.07753427  0.78433777  1.0
  O  O27  1  1.07753427  -0.66716631  0.28433777  1.0
  O  O28  1  0.92246573  0.66716631  0.71566223  1.0
  O  O29  1  1.33283369  0.07753427  0.21566223  1.0
  O  O30  1  0.37518422  -0.29523089  0.97289956  1.0
  O  O31  1  1.29523089  -0.37518422  0.47289956  1.0
  O  O32  1  0.70476911  0.37518422  0.52710044  1.0
  O  O33  1  1.62481578  0.29523089  0.02710044  1.0
  O  O34  1  0.63977446  0.23556128  0.85333185  1.0
  O  O35  1  0.76443872  -0.63977446  0.35333185  1.0
  O  O36  1  1.23556128  0.63977446  0.64666815  1.0
  O  O37  1  1.36022554  -0.23556128  0.14666815  1.0
