# generated using pymatgen
data_Ba4Os6ClO18
_symmetry_space_group_name_H-M   'P 1'
_cell_length_a   8.18033069
_cell_length_b   8.18033069
_cell_length_c   8.18033069
_cell_angle_alpha   109.47122063
_cell_angle_beta   109.47122063
_cell_angle_gamma   109.47122063
_symmetry_Int_Tables_number   1
_chemical_formula_structural   Ba4Os6ClO18
_chemical_formula_sum   'Ba4 Os6 Cl1 O18'
_cell_volume   421.39627387
_cell_formula_units_Z   1
loop_
 _symmetry_equiv_pos_site_id
 _symmetry_equiv_pos_as_xyz
  1  'x, y, z'
loop_
 _atom_site_type_symbol
 _atom_site_label
 _atom_site_symmetry_multiplicity
 _atom_site_fract_x
 _atom_site_fract_y
 _atom_site_fract_z
 _atom_site_occupancy
  Ba  Ba0  1  0.62910497  0.62910497  0.62910497  1.0
  Ba  Ba1  1  1.00000000  1.00000000  0.37089503  1.0
  Ba  Ba2  1  1.00000000  0.37089503  1.00000000  1.0
  Ba  Ba3  1  0.37089503  1.00000000  1.00000000  1.0
  Os  Os4  1  0.36592120  0.86592120  0.50000000  1.0
  Os  Os5  1  0.50000000  0.36592120  0.86592120  1.0
  Os  Os6  1  0.50000000  0.63407880  0.13407880  1.0
  Os  Os7  1  0.86592120  0.50000000  0.36592120  1.0
  Os  Os8  1  0.13407880  0.50000000  0.63407880  1.0
  Os  Os9  1  0.63407880  0.13407880  0.50000000  1.0
  Cl  Cl10  1  0.00000000  0.00000000  0.00000000  1.0
  O  O11  1  0.37225694  0.65088245  0.30285345  1.0
  O  O12  1  1.34802900  1.06940348  0.69714655  1.0
  O  O13  1  0.30285345  0.37225694  0.65088245  1.0
  O  O14  1  0.72137449  0.65197100  0.34911755  1.0
  O  O15  1  0.65088245  0.30285345  0.37225694  1.0
  O  O16  1  0.93059652  1.27862551  1.62774306  1.0
  O  O17  1  0.65197100  0.34911755  0.72137449  1.0
  O  O18  1  1.62774306  0.93059652  1.27862551  1.0
  O  O19  1  1.27862551  1.62774306  0.93059652  1.0
  O  O20  1  0.69714655  1.34802900  1.06940348  1.0
  O  O21  1  1.06940348  0.69714655  1.34802900  1.0
  O  O22  1  0.34911755  0.72137449  0.65197100  1.0
  O  O23  1  0.66154269  0.66154269  0.00000000  1.0
  O  O24  1  0.00000000  0.66154269  0.66154269  1.0
  O  O25  1  0.00000000  0.33845731  0.33845731  1.0
  O  O26  1  0.66154269  0.00000000  0.66154269  1.0
  O  O27  1  0.33845731  0.00000000  0.33845731  1.0
  O  O28  1  0.33845731  0.33845731  0.00000000  1.0
