# generated using pymatgen
data_La2Sn3(PbS4)3
_symmetry_space_group_name_H-M   'P 1'
_cell_length_a   4.01950431
_cell_length_b   20.90060697
_cell_length_c   11.75503131
_cell_angle_alpha   90.00000000
_cell_angle_beta   90.00000000
_cell_angle_gamma   90.00000000
_symmetry_Int_Tables_number   1
_chemical_formula_structural   La2Sn3(PbS4)3
_chemical_formula_sum   'La4 Sn6 Pb6 S24'
_cell_volume   987.54111730
_cell_formula_units_Z   2
loop_
 _symmetry_equiv_pos_site_id
 _symmetry_equiv_pos_as_xyz
  1  'x, y, z'
loop_
 _atom_site_type_symbol
 _atom_site_label
 _atom_site_symmetry_multiplicity
 _atom_site_fract_x
 _atom_site_fract_y
 _atom_site_fract_z
 _atom_site_occupancy
  La  La0  1  0.50000000  0.41357071  0.15083134  1.0
  La  La1  1  0.50000000  0.58642929  0.65083134  1.0
  La  La2  1  0.50000000  0.89323219  0.32743917  1.0
  La  La3  1  0.50000000  0.10676781  0.82743917  1.0
  Sn  Sn4  1  0.00000000  0.90903965  0.01752485  1.0
  Sn  Sn5  1  0.00000000  0.09096035  0.51752485  1.0
  Sn  Sn6  1  0.00000000  0.74836849  0.50406328  1.0
  Sn  Sn7  1  0.00000000  0.25163151  0.00406328  1.0
  Sn  Sn8  1  0.00000000  0.42450069  0.49435701  1.0
  Sn  Sn9  1  0.00000000  0.57549931  0.99435701  1.0
  Pb  Pb10  1  0.50000000  0.91553379  0.70793951  1.0
  Pb  Pb11  1  0.50000000  0.08446621  0.20793951  1.0
  Pb  Pb12  1  0.50000000  0.74107455  0.90040012  1.0
  Pb  Pb13  1  0.50000000  0.25892545  0.40040012  1.0
  Pb  Pb14  1  0.50000000  0.62573395  0.27145613  1.0
  Pb  Pb15  1  0.50000000  0.37426605  0.77145613  1.0
  S  S16  1  0.50000000  0.26241820  0.14649282  1.0
  S  S17  1  0.50000000  0.73758180  0.64649282  1.0
  S  S18  1  0.00000000  0.97094182  0.20549086  1.0
  S  S19  1  0.00000000  0.02905818  0.70549086  1.0
  S  S20  1  0.00000000  0.87169877  0.50241768  1.0
  S  S21  1  0.00000000  0.12830123  1.00241768  1.0
  S  S22  1  0.00000000  0.84125842  0.83754750  1.0
  S  S23  1  0.00000000  0.15874158  0.33754750  1.0
  S  S24  1  0.00000000  0.67602403  0.10179615  1.0
  S  S25  1  0.00000000  0.32397597  0.60179615  1.0
  S  S26  1  0.00000000  0.62698204  0.47652108  1.0
  S  S27  1  0.00000000  0.37301796  0.97652108  1.0
  S  S28  1  0.00000000  0.51391006  0.18235084  1.0
  S  S29  1  0.00000000  0.48608994  0.68235084  1.0
  S  S30  1  0.00000000  0.35771396  0.31006773  1.0
  S  S31  1  0.00000000  0.64228604  0.81006773  1.0
  S  S32  1  0.50000000  0.97809353  0.93340331  1.0
  S  S33  1  0.50000000  0.02190647  0.43340331  1.0
  S  S34  1  0.50000000  0.84027588  0.09646351  1.0
  S  S35  1  0.50000000  0.15972412  0.59646351  1.0
  S  S36  1  0.50000000  0.75442656  0.35414361  1.0
  S  S37  1  0.50000000  0.24557344  0.85414361  1.0
  S  S38  1  0.50000000  0.48614673  0.42859351  1.0
  S  S39  1  0.50000000  0.51385327  0.92859351  1.0
