# generated using pymatgen
data_Sr3AlO4F
_symmetry_space_group_name_H-M   'P 1'
_cell_length_a   7.41424163
_cell_length_b   7.41424163
_cell_length_c   7.41424163
_cell_angle_alpha   125.20109171
_cell_angle_beta   125.20109171
_cell_angle_gamma   81.20522174
_symmetry_Int_Tables_number   1
_chemical_formula_structural   Sr3AlO4F
_chemical_formula_sum   'Sr6 Al2 O8 F2'
_cell_volume   262.13021328
_cell_formula_units_Z   2
loop_
 _symmetry_equiv_pos_site_id
 _symmetry_equiv_pos_as_xyz
  1  'x, y, z'
loop_
 _atom_site_type_symbol
 _atom_site_label
 _atom_site_symmetry_multiplicity
 _atom_site_fract_x
 _atom_site_fract_y
 _atom_site_fract_z
 _atom_site_occupancy
  Sr  Sr0  1  0.33113811  0.83113811  1.16227621  1.0
  Sr  Sr1  1  0.16886189  0.33113811  0.50000000  1.0
  Sr  Sr2  1  0.83113811  0.66886189  1.50000000  1.0
  Sr  Sr3  1  0.66886189  0.16886189  0.83772379  1.0
  Sr  Sr4  1  0.75000000  0.75000000  1.00000000  1.0
  Sr  Sr5  1  0.25000000  0.25000000  -0.00000000  1.0
  Al  Al6  1  0.25000000  0.75000000  0.50000000  1.0
  Al  Al7  1  0.75000000  0.25000000  0.50000000  1.0
  O  O8  1  0.70962046  1.20962046  1.21486206  1.0
  O  O9  1  1.00524160  0.50524160  1.21486206  1.0
  O  O10  1  0.49475840  0.70962046  0.50000000  1.0
  O  O11  1  0.79037954  1.00524160  1.50000000  1.0
  O  O12  1  1.20962046  0.99475840  1.50000000  1.0
  O  O13  1  0.50524160  0.29037954  0.50000000  1.0
  O  O14  1  0.99475840  0.49475840  0.78513794  1.0
  O  O15  1  0.29037954  0.79037954  0.78513794  1.0
  F  F16  1  0.00000000  0.00000000  0.00000000  1.0
  F  F17  1  0.50000000  0.50000000  1.00000000  1.0
