# generated using pymatgen
data_BaTeO5
_symmetry_space_group_name_H-M   'P 1'
_cell_length_a   7.36522654
_cell_length_b   7.36522654
_cell_length_c   7.83505324
_cell_angle_alpha   90.00000000
_cell_angle_beta   90.00000000
_cell_angle_gamma   89.17479502
_symmetry_Int_Tables_number   1
_chemical_formula_structural   BaTeO5
_chemical_formula_sum   'Ba4 Te4 O20'
_cell_volume   424.98061984
_cell_formula_units_Z   4
loop_
 _symmetry_equiv_pos_site_id
 _symmetry_equiv_pos_as_xyz
  1  'x, y, z'
loop_
 _atom_site_type_symbol
 _atom_site_label
 _atom_site_symmetry_multiplicity
 _atom_site_fract_x
 _atom_site_fract_y
 _atom_site_fract_z
 _atom_site_occupancy
  O  O0  1  0.18132218  0.81867782  0.50000000  1.0
  O  O1  1  -0.68132218  0.68132218  -0.00000000  1.0
  O  O2  1  -0.31867782  0.31867782  -0.00000000  1.0
  O  O3  1  -0.18132218  1.18132218  0.50000000  1.0
  O  O4  1  0.15730620  0.99751919  0.80338913  1.0
  O  O5  1  -0.50248081  0.65730620  0.30338913  1.0
  O  O6  1  0.50248081  1.34269380  0.30338913  1.0
  O  O7  1  -0.15730620  1.00248081  0.80338913  1.0
  O  O8  1  0.34269380  1.50248081  0.69661087  1.0
  O  O9  1  0.00248081  0.84269380  0.19661087  1.0
  O  O10  1  -0.00248081  1.15730620  0.19661087  1.0
  O  O11  1  -0.34269380  0.49751919  0.69661087  1.0
  O  O12  1  0.00035180  1.65330418  0.77385038  1.0
  O  O13  1  0.15330418  1.50035180  0.27385038  1.0
  O  O14  1  -0.15330418  1.49964820  0.27385038  1.0
  O  O15  1  -0.00035180  1.34669582  0.77385038  1.0
  O  O16  1  0.49964820  0.84669582  0.72614962  1.0
  O  O17  1  0.34669582  0.99964820  0.22614962  1.0
  O  O18  1  0.65330418  1.00035180  0.22614962  1.0
  O  O19  1  0.50035180  1.15330418  0.72614962  1.0
  Ba  Ba20  1  -0.21720020  0.78279980  0.50000000  1.0
  Ba  Ba21  1  0.28279980  1.28279980  0.00000000  1.0
  Ba  Ba22  1  -0.28279980  0.71720020  -0.00000000  1.0
  Ba  Ba23  1  0.21720020  1.21720020  0.50000000  1.0
  Te  Te24  1  0.25000000  0.75000000  0.75000000  1.0
  Te  Te25  1  0.25000000  0.75000000  0.25000000  1.0
  Te  Te26  1  -0.25000000  0.25000000  0.25000000  1.0
  Te  Te27  1  -0.25000000  0.25000000  0.75000000  1.0
