# generated using pymatgen
data_TiPO4
_symmetry_space_group_name_H-M   'P 1'
_cell_length_a   5.20265394
_cell_length_b   8.13243800
_cell_length_c   7.68098344
_cell_angle_alpha   90.00000000
_cell_angle_beta   123.91369528
_cell_angle_gamma   90.00000000
_symmetry_Int_Tables_number   1
_chemical_formula_structural   TiPO4
_chemical_formula_sum   'Ti4 P4 O16'
_cell_volume   269.69772034
_cell_formula_units_Z   4
loop_
 _symmetry_equiv_pos_site_id
 _symmetry_equiv_pos_as_xyz
  1  'x, y, z'
loop_
 _atom_site_type_symbol
 _atom_site_label
 _atom_site_symmetry_multiplicity
 _atom_site_fract_x
 _atom_site_fract_y
 _atom_site_fract_z
 _atom_site_occupancy
  Ti  Ti0  1  0.67774464  0.05509292  0.89243867  1.0
  Ti  Ti1  1  0.32225536  0.55509292  0.60756133  1.0
  Ti  Ti2  1  0.32225536  0.94490708  0.10756133  1.0
  Ti  Ti3  1  0.67774464  0.44490708  0.39243867  1.0
  P  P4  1  0.83779116  0.81435492  0.59398838  1.0
  P  P5  1  0.16220884  0.31435492  0.90601162  1.0
  P  P6  1  0.16220884  0.18564508  0.40601162  1.0
  P  P7  1  0.83779116  0.68564508  0.09398838  1.0
  O  O8  1  0.90060635  0.90670988  0.79419913  1.0
  O  O9  1  0.09939365  0.40670988  0.70580087  1.0
  O  O10  1  0.09939365  0.09329012  0.20580087  1.0
  O  O11  1  0.90060635  0.59329012  0.29419913  1.0
  O  O12  1  0.15551367  0.75783057  0.64581562  1.0
  O  O13  1  0.84448633  0.25783057  0.85418438  1.0
  O  O14  1  0.84448633  0.24216943  0.35418438  1.0
  O  O15  1  0.15551367  0.74216943  0.14581562  1.0
  O  O16  1  0.66572536  0.92939140  0.40446244  1.0
  O  O17  1  0.33427464  0.42939140  1.09553756  1.0
  O  O18  1  0.33427464  0.07060860  0.59553756  1.0
  O  O19  1  0.66572536  0.57060860  -0.09553756  1.0
  O  O20  1  0.63396767  0.65332652  0.54400648  1.0
  O  O21  1  0.36603233  0.15332652  0.95599352  1.0
  O  O22  1  0.36603233  0.34667348  0.45599352  1.0
  O  O23  1  0.63396767  0.84667348  0.04400648  1.0
