# generated using pymatgen
data_Fe4As2O11
_symmetry_space_group_name_H-M   'P 1'
_cell_length_a   5.08834527
_cell_length_b   6.48323375
_cell_length_c   6.84121830
_cell_angle_alpha   108.53695044
_cell_angle_beta   106.90525429
_cell_angle_gamma   97.75544593
_symmetry_Int_Tables_number   1
_chemical_formula_structural   Fe4As2O11
_chemical_formula_sum   'Fe4 As2 O11'
_cell_volume   198.19285057
_cell_formula_units_Z   1
loop_
 _symmetry_equiv_pos_site_id
 _symmetry_equiv_pos_as_xyz
  1  'x, y, z'
loop_
 _atom_site_type_symbol
 _atom_site_label
 _atom_site_symmetry_multiplicity
 _atom_site_fract_x
 _atom_site_fract_y
 _atom_site_fract_z
 _atom_site_occupancy
  Fe  Fe0  1  0.89596153  0.75043970  0.97605237  1.0
  Fe  Fe1  1  0.10403847  0.24956030  0.02394763  1.0
  Fe  Fe2  1  0.34121496  0.86933148  0.74804629  1.0
  Fe  Fe3  1  0.65878504  0.13066852  0.25195371  1.0
  As  As4  1  0.65981585  0.68586091  0.39411009  1.0
  As  As5  1  0.34018415  0.31413909  0.60588991  1.0
  O  O6  1  0.92716059  0.70137833  0.62934361  1.0
  O  O7  1  0.07283941  0.29862167  0.37065639  1.0
  O  O8  1  0.78661843  0.84427210  0.26030710  1.0
  O  O9  1  0.21338157  0.15572790  0.73969290  1.0
  O  O10  1  0.74519971  0.03299364  0.95574583  1.0
  O  O11  1  0.25480029  0.96700636  0.04425417  1.0
  O  O12  1  0.47655914  0.59477958  0.79606405  1.0
  O  O13  1  0.52344086  0.40522042  0.20393595  1.0
  O  O14  1  0.38585435  0.77979574  0.46352162  1.0
  O  O15  1  0.61414565  0.22020426  0.53647838  1.0
  O  O16  1  -0.00000000  0.50000000  -0.00000000  1.0
