# generated using pymatgen
data_CrBiO3
_symmetry_space_group_name_H-M   'P 1'
_cell_length_a   5.63242490
_cell_length_b   7.79034855
_cell_length_c   5.44246551
_cell_angle_alpha   90.00000000
_cell_angle_beta   90.00000000
_cell_angle_gamma   90.00000000
_symmetry_Int_Tables_number   1
_chemical_formula_structural   CrBiO3
_chemical_formula_sum   'Cr4 Bi4 O12'
_cell_volume   238.80751218
_cell_formula_units_Z   4
loop_
 _symmetry_equiv_pos_site_id
 _symmetry_equiv_pos_as_xyz
  1  'x, y, z'
loop_
 _atom_site_type_symbol
 _atom_site_label
 _atom_site_symmetry_multiplicity
 _atom_site_fract_x
 _atom_site_fract_y
 _atom_site_fract_z
 _atom_site_occupancy
  Cr  Cr0  1  0.50000000  0.00000000  0.50000000  1.0
  Cr  Cr1  1  0.50000000  0.50000000  0.50000000  1.0
  Cr  Cr2  1  0.00000000  0.00000000  0.00000000  1.0
  Cr  Cr3  1  0.00000000  0.50000000  0.00000000  1.0
  Bi  Bi4  1  0.05173991  0.75000000  0.50965672  1.0
  Bi  Bi5  1  0.55173991  0.75000000  0.99034328  1.0
  Bi  Bi6  1  0.94826009  0.25000000  0.49034328  1.0
  Bi  Bi7  1  0.44826009  0.25000000  0.00965672  1.0
  O  O8  1  0.29711564  0.95613583  0.80062868  1.0
  O  O9  1  0.29711564  0.54386417  0.80062868  1.0
  O  O10  1  0.79711564  0.95613583  0.69937132  1.0
  O  O11  1  0.79711564  0.54386417  0.69937132  1.0
  O  O12  1  0.70288436  0.45613583  0.19937132  1.0
  O  O13  1  0.70288436  0.04386417  0.19937132  1.0
  O  O14  1  0.20288436  0.45613583  0.30062868  1.0
  O  O15  1  0.20288436  0.04386417  0.30062868  1.0
  O  O16  1  0.97398096  0.75000000  0.09011792  1.0
  O  O17  1  0.47398096  0.75000000  0.40988208  1.0
  O  O18  1  0.02601904  0.25000000  0.90988208  1.0
  O  O19  1  0.52601904  0.25000000  0.59011792  1.0
