# generated using pymatgen
data_Ba
_symmetry_space_group_name_H-M   'P 1'
_cell_length_a   11.70631506
_cell_length_b   11.70631506
_cell_length_c   7.55130574
_cell_angle_alpha   90.00000000
_cell_angle_beta   90.00000000
_cell_angle_gamma   120.00000000
_symmetry_Int_Tables_number   1
_chemical_formula_structural   Ba
_chemical_formula_sum   Ba12
_cell_volume   896.17557446
_cell_formula_units_Z   12
loop_
 _symmetry_equiv_pos_site_id
 _symmetry_equiv_pos_as_xyz
  1  'x, y, z'
loop_
 _atom_site_type_symbol
 _atom_site_label
 _atom_site_symmetry_multiplicity
 _atom_site_fract_x
 _atom_site_fract_y
 _atom_site_fract_z
 _atom_site_occupancy
  Ba  Ba0  1  0.20685553  0.00000000  0.25000000  1.0
  Ba  Ba1  1  0.79314447  0.79314447  0.25000000  1.0
  Ba  Ba2  1  0.00000000  0.20685553  0.25000000  1.0
  Ba  Ba3  1  0.20685553  0.20685553  0.75000000  1.0
  Ba  Ba4  1  0.00000000  0.79314447  0.75000000  1.0
  Ba  Ba5  1  0.79314447  0.00000000  0.75000000  1.0
  Ba  Ba6  1  0.57656950  0.00000000  0.25000000  1.0
  Ba  Ba7  1  0.42343050  0.42343050  0.25000000  1.0
  Ba  Ba8  1  -0.00000000  0.57656950  0.25000000  1.0
  Ba  Ba9  1  0.57656950  0.57656950  0.75000000  1.0
  Ba  Ba10  1  0.00000000  0.42343050  0.75000000  1.0
  Ba  Ba11  1  0.42343050  0.00000000  0.75000000  1.0
