# generated using pymatgen
data_Hg2SeO4
_symmetry_space_group_name_H-M   'P 1'
_cell_length_a   6.37477526
_cell_length_b   4.86620055
_cell_length_c   8.89231424
_cell_angle_alpha   90.00000000
_cell_angle_beta   92.12851612
_cell_angle_gamma   90.00000000
_symmetry_Int_Tables_number   1
_chemical_formula_structural   Hg2SeO4
_chemical_formula_sum   'Hg4 Se2 O8'
_cell_volume   275.65757484
_cell_formula_units_Z   2
loop_
 _symmetry_equiv_pos_site_id
 _symmetry_equiv_pos_as_xyz
  1  'x, y, z'
loop_
 _atom_site_type_symbol
 _atom_site_label
 _atom_site_symmetry_multiplicity
 _atom_site_fract_x
 _atom_site_fract_y
 _atom_site_fract_z
 _atom_site_occupancy
  Hg  Hg0  1  0.68755291  0.92259338  0.47386298  1.0
  Hg  Hg1  1  0.68755291  0.07740662  -0.02613702  1.0
  Hg  Hg2  1  0.31244709  0.92259338  1.02613702  1.0
  Hg  Hg3  1  0.31244709  0.07740662  0.52613702  1.0
  Se  Se4  1  0.00000000  0.55845637  0.25000000  1.0
  Se  Se5  1  0.00000000  0.44154363  0.75000000  1.0
  O  O6  1  0.00836909  0.77179144  0.09665791  1.0
  O  O7  1  0.00836909  0.22820856  0.59665791  1.0
  O  O8  1  0.99163091  0.77179144  0.40334209  1.0
  O  O9  1  0.99163091  0.22820856  0.90334209  1.0
  O  O10  1  0.77900150  0.38313106  0.23423848  1.0
  O  O11  1  0.77900150  0.61686894  0.73423848  1.0
  O  O12  1  0.22099850  0.38313106  0.26576152  1.0
  O  O13  1  0.22099850  0.61686894  0.76576152  1.0
