# generated using pymatgen
data_RbMgF3
_symmetry_space_group_name_H-M   'P 1'
_cell_length_a   5.93043246
_cell_length_b   5.93043246
_cell_length_c   14.43105705
_cell_angle_alpha   90.00000000
_cell_angle_beta   90.00000000
_cell_angle_gamma   120.00000000
_symmetry_Int_Tables_number   1
_chemical_formula_structural   RbMgF3
_chemical_formula_sum   'Rb6 Mg6 F18'
_cell_volume   439.54313732
_cell_formula_units_Z   6
loop_
 _symmetry_equiv_pos_site_id
 _symmetry_equiv_pos_as_xyz
  1  'x, y, z'
loop_
 _atom_site_type_symbol
 _atom_site_label
 _atom_site_symmetry_multiplicity
 _atom_site_fract_x
 _atom_site_fract_y
 _atom_site_fract_z
 _atom_site_occupancy
  Rb  Rb0  1  0.33333333  0.66666667  0.40127991  1.0
  Rb  Rb1  1  0.33333333  0.66666667  0.09872009  1.0
  Rb  Rb2  1  0.66666667  0.33333333  0.90127991  1.0
  Rb  Rb3  1  0.66666667  0.33333333  0.59872009  1.0
  Rb  Rb4  1  0.00000000  0.00000000  0.25000000  1.0
  Rb  Rb5  1  0.00000000  0.00000000  0.75000000  1.0
  Mg  Mg6  1  0.33333333  0.66666667  0.84737974  1.0
  Mg  Mg7  1  0.33333333  0.66666667  0.65262026  1.0
  Mg  Mg8  1  0.66666667  0.33333333  0.34737974  1.0
  Mg  Mg9  1  0.66666667  0.33333333  0.15262026  1.0
  Mg  Mg10  1  0.00000000  0.00000000  0.50000000  1.0
  Mg  Mg11  1  0.00000000  0.00000000  0.00000000  1.0
  F  F12  1  0.16598953  0.83401047  0.92028436  1.0
  F  F13  1  0.16598953  0.83401047  0.57971564  1.0
  F  F14  1  0.16598953  0.33197907  0.92028436  1.0
  F  F15  1  0.16598953  0.33197907  0.57971564  1.0
  F  F16  1  0.83401047  0.16598953  0.42028436  1.0
  F  F17  1  0.83401047  0.16598953  0.07971564  1.0
  F  F18  1  0.83401047  0.66802093  0.42028436  1.0
  F  F19  1  0.83401047  0.66802093  0.07971564  1.0
  F  F20  1  0.66802093  0.83401047  0.92028436  1.0
  F  F21  1  0.66802093  0.83401047  0.57971564  1.0
  F  F22  1  0.33197907  0.16598953  0.42028436  1.0
  F  F23  1  0.33197907  0.16598953  0.07971564  1.0
  F  F24  1  0.52122524  0.47877476  0.25000000  1.0
  F  F25  1  0.52122524  0.04245049  0.25000000  1.0
  F  F26  1  0.47877476  0.52122524  0.75000000  1.0
  F  F27  1  0.47877476  0.95754951  0.75000000  1.0
  F  F28  1  0.95754951  0.47877476  0.25000000  1.0
  F  F29  1  0.04245049  0.52122524  0.75000000  1.0
