# generated using pymatgen
data_Eu(BO2)2
_symmetry_space_group_name_H-M   'P 1'
_cell_length_a   12.04949928
_cell_length_b   4.37208019
_cell_length_c   6.69952487
_cell_angle_alpha   90.00000000
_cell_angle_beta   90.00000000
_cell_angle_gamma   90.00000000
_symmetry_Int_Tables_number   1
_chemical_formula_structural   Eu(BO2)2
_chemical_formula_sum   'Eu4 B8 O16'
_cell_volume   352.94019612
_cell_formula_units_Z   4
loop_
 _symmetry_equiv_pos_site_id
 _symmetry_equiv_pos_as_xyz
  1  'x, y, z'
loop_
 _atom_site_type_symbol
 _atom_site_label
 _atom_site_symmetry_multiplicity
 _atom_site_fract_x
 _atom_site_fract_y
 _atom_site_fract_z
 _atom_site_occupancy
  Eu  Eu0  1  0.50000000  0.23393594  0.75000000  1.0
  Eu  Eu1  1  0.50000000  0.76606406  0.25000000  1.0
  Eu  Eu2  1  0.00000000  0.73393594  0.75000000  1.0
  Eu  Eu3  1  0.00000000  0.26606406  0.25000000  1.0
  B  B4  1  0.19406602  0.17368837  0.62408269  1.0
  B  B5  1  0.19406602  0.82631163  0.12408269  1.0
  B  B6  1  0.69406602  0.67368837  0.87591731  1.0
  B  B7  1  0.69406602  0.32631163  0.37591731  1.0
  B  B8  1  0.80593398  0.17368837  0.87591731  1.0
  B  B9  1  0.80593398  0.82631163  0.37591731  1.0
  B  B10  1  0.30593398  0.67368837  0.62408269  1.0
  B  B11  1  0.30593398  0.32631163  0.12408269  1.0
  O  O12  1  0.28880439  0.35505513  0.64522154  1.0
  O  O13  1  0.28880439  0.64494487  0.14522154  1.0
  O  O14  1  0.78880439  0.85505513  0.85477846  1.0
  O  O15  1  0.78880439  0.14494487  0.35477846  1.0
  O  O16  1  0.71119561  0.35505513  0.85477846  1.0
  O  O17  1  0.71119561  0.64494487  0.35477846  1.0
  O  O18  1  0.21119561  0.85505513  0.64522154  1.0
  O  O19  1  0.21119561  0.14494487  0.14522154  1.0
  O  O20  1  0.09007246  0.26749623  0.59107165  1.0
  O  O21  1  0.09007246  0.73250377  0.09107165  1.0
  O  O22  1  0.59007246  0.76749623  0.90892835  1.0
  O  O23  1  0.59007246  0.23250377  0.40892835  1.0
  O  O24  1  0.90992754  0.26749623  0.90892835  1.0
  O  O25  1  0.90992754  0.73250377  0.40892835  1.0
  O  O26  1  0.40992754  0.76749623  0.59107165  1.0
  O  O27  1  0.40992754  0.23250377  0.09107165  1.0
