# generated using pymatgen
data_SnH4(Cl2O)2
_symmetry_space_group_name_H-M   'P 1'
_cell_length_a   9.08806608
_cell_length_b   8.10770772
_cell_length_c   11.50434049
_cell_angle_alpha   90.00000000
_cell_angle_beta   90.00000000
_cell_angle_gamma   90.00000000
_symmetry_Int_Tables_number   1
_chemical_formula_structural   SnH4(Cl2O)2
_chemical_formula_sum   'Sn4 H16 Cl16 O8'
_cell_volume   847.67873206
_cell_formula_units_Z   4
loop_
 _symmetry_equiv_pos_site_id
 _symmetry_equiv_pos_as_xyz
  1  'x, y, z'
loop_
 _atom_site_type_symbol
 _atom_site_label
 _atom_site_symmetry_multiplicity
 _atom_site_fract_x
 _atom_site_fract_y
 _atom_site_fract_z
 _atom_site_occupancy
  Sn  Sn0  1  0.00000000  0.95929532  0.75000000  1.0
  Sn  Sn1  1  0.50000000  0.54070468  0.25000000  1.0
  Sn  Sn2  1  0.00000000  0.04070468  0.25000000  1.0
  Sn  Sn3  1  0.50000000  0.45929532  0.75000000  1.0
  H  H4  1  0.97585380  0.18242846  0.55991521  1.0
  H  H5  1  0.52414620  0.31757154  0.05991521  1.0
  H  H6  1  0.47585380  0.31757154  0.44008479  1.0
  H  H7  1  0.02414620  0.18242846  0.94008479  1.0
  H  H8  1  0.02414620  0.81757154  0.44008479  1.0
  H  H9  1  0.47585380  0.68242846  0.94008479  1.0
  H  H10  1  0.52414620  0.68242846  0.55991521  1.0
  H  H11  1  0.97585380  0.81757154  0.05991521  1.0
  H  H12  1  0.82193803  0.18994267  0.62891333  1.0
  H  H13  1  0.67806197  0.31005733  0.12891333  1.0
  H  H14  1  0.32193803  0.31005733  0.37108667  1.0
  H  H15  1  0.17806197  0.18994267  0.87108667  1.0
  H  H16  1  0.17806197  0.81005733  0.37108667  1.0
  H  H17  1  0.32193803  0.68994267  0.87108667  1.0
  H  H18  1  0.67806197  0.68994267  0.62891333  1.0
  H  H19  1  0.82193803  0.81005733  0.12891333  1.0
  Cl  Cl20  1  0.08535425  0.75657996  0.89523327  1.0
  Cl  Cl21  1  0.41464575  0.74342004  0.39523327  1.0
  Cl  Cl22  1  0.58535425  0.74342004  0.10476673  1.0
  Cl  Cl23  1  0.91464575  0.75657996  0.60476673  1.0
  Cl  Cl24  1  0.91464575  0.24342004  0.10476673  1.0
  Cl  Cl25  1  0.58535425  0.25657996  0.60476673  1.0
  Cl  Cl26  1  0.41464575  0.25657996  0.89523327  1.0
  Cl  Cl27  1  0.08535425  0.24342004  0.39523327  1.0
  Cl  Cl28  1  0.23275372  0.99027625  0.65941124  1.0
  Cl  Cl29  1  0.26724628  0.50972375  0.15941124  1.0
  Cl  Cl30  1  0.73275372  0.50972375  0.34058876  1.0
  Cl  Cl31  1  0.76724628  0.99027625  0.84058876  1.0
  Cl  Cl32  1  0.76724628  0.00972375  0.34058876  1.0
  Cl  Cl33  1  0.73275372  0.49027625  0.84058876  1.0
  Cl  Cl34  1  0.26724628  0.49027625  0.65941124  1.0
  Cl  Cl35  1  0.23275372  0.00972375  0.15941124  1.0
  O  O36  1  0.92844737  0.16758814  0.63671601  1.0
  O  O37  1  0.57155263  0.33241186  0.13671601  1.0
  O  O38  1  0.42844737  0.33241186  0.36328399  1.0
  O  O39  1  0.07155263  0.16758814  0.86328399  1.0
  O  O40  1  0.07155263  0.83241186  0.36328399  1.0
  O  O41  1  0.42844737  0.66758814  0.86328399  1.0
  O  O42  1  0.57155263  0.66758814  0.63671601  1.0
  O  O43  1  0.92844737  0.83241186  0.13671601  1.0
