# generated using pymatgen
data_Y4MgNi
_symmetry_space_group_name_H-M   'P 1'
_cell_length_a   9.66745881
_cell_length_b   9.66745881
_cell_length_c   9.66745881
_cell_angle_alpha   60.00000000
_cell_angle_beta   60.00000000
_cell_angle_gamma   60.00000000
_symmetry_Int_Tables_number   1
_chemical_formula_structural   Y4MgNi
_chemical_formula_sum   'Y16 Mg4 Ni4'
_cell_volume   638.88397232
_cell_formula_units_Z   4
loop_
 _symmetry_equiv_pos_site_id
 _symmetry_equiv_pos_as_xyz
  1  'x, y, z'
loop_
 _atom_site_type_symbol
 _atom_site_label
 _atom_site_symmetry_multiplicity
 _atom_site_fract_x
 _atom_site_fract_y
 _atom_site_fract_z
 _atom_site_occupancy
  Y  Y0  1  -0.34615836  0.65384164  0.65384164  1.0
  Y  Y1  1  1.03847509  0.65384164  -0.34615836  1.0
  Y  Y2  1  -0.34615836  0.65384164  1.03847509  1.0
  Y  Y3  1  0.65384164  1.03847509  -0.34615836  1.0
  Y  Y4  1  0.06472594  0.43527406  0.43527406  1.0
  Y  Y5  1  0.43527406  0.43527406  0.06472594  1.0
  Y  Y6  1  0.43527406  0.06472594  0.43527406  1.0
  Y  Y7  1  0.06472594  0.06472594  0.43527406  1.0
  Y  Y8  1  0.06472594  0.43527406  0.06472594  1.0
  Y  Y9  1  0.43527406  0.06472594  0.06472594  1.0
  Y  Y10  1  -0.81208994  0.81208994  0.81208994  1.0
  Y  Y11  1  -0.18791006  0.81208994  0.18791006  1.0
  Y  Y12  1  -0.18791006  0.18791006  0.81208994  1.0
  Y  Y13  1  0.18791006  1.18791006  -0.18791006  1.0
  Y  Y14  1  0.18791006  -0.18791006  0.18791006  1.0
  Y  Y15  1  -0.18791006  0.18791006  0.18791006  1.0
  Mg  Mg16  1  0.42058250  1.42058250  0.42058250  1.0
  Mg  Mg17  1  -0.26174749  0.42058250  0.42058250  1.0
  Mg  Mg18  1  0.42058250  1.42058250  -0.26174749  1.0
  Mg  Mg19  1  0.42058250  -0.26174749  0.42058250  1.0
  Ni  Ni20  1  0.85820493  0.85820493  -0.14179507  1.0
  Ni  Ni21  1  0.42538520  0.85820493  -0.14179507  1.0
  Ni  Ni22  1  0.85820493  0.85820493  -0.57461480  1.0
  Ni  Ni23  1  0.85820493  0.42538520  -0.14179507  1.0
