# generated using pymatgen
data_SrSnO3
_symmetry_space_group_name_H-M   'P 1'
_cell_length_a   8.21836087
_cell_length_b   8.21836087
_cell_length_c   8.21836087
_cell_angle_alpha   90.00000000
_cell_angle_beta   90.00000000
_cell_angle_gamma   90.00000000
_symmetry_Int_Tables_number   1
_chemical_formula_structural   SrSnO3
_chemical_formula_sum   'Sr8 Sn8 O24'
_cell_volume   555.08005393
_cell_formula_units_Z   8
loop_
 _symmetry_equiv_pos_site_id
 _symmetry_equiv_pos_as_xyz
  1  'x, y, z'
loop_
 _atom_site_type_symbol
 _atom_site_label
 _atom_site_symmetry_multiplicity
 _atom_site_fract_x
 _atom_site_fract_y
 _atom_site_fract_z
 _atom_site_occupancy
  Sr  Sr0  1  0.49984018  -0.00015982  0.50015982  1.0
  Sr  Sr1  1  -0.00015982  0.50015982  0.49984018  1.0
  Sr  Sr2  1  0.50015982  0.49984018  -0.00015982  1.0
  Sr  Sr3  1  0.00015982  0.00015982  0.00015982  1.0
  Sr  Sr4  1  -0.00002013  0.49997987  0.00002013  1.0
  Sr  Sr5  1  0.49997987  0.00002013  -0.00002013  1.0
  Sr  Sr6  1  0.00002013  -0.00002013  0.49997987  1.0
  Sr  Sr7  1  0.50002013  0.50002013  0.50002013  1.0
  Sn  Sn8  1  0.24996327  0.74996327  0.75003673  1.0
  Sn  Sn9  1  0.74996327  0.75003673  0.24996327  1.0
  Sn  Sn10  1  0.75003673  0.24996327  0.74996327  1.0
  Sn  Sn11  1  0.25003673  0.25003673  0.25003673  1.0
  Sn  Sn12  1  0.75001278  0.25001278  0.24998722  1.0
  Sn  Sn13  1  0.25001278  0.24998722  0.75001278  1.0
  Sn  Sn14  1  0.24998722  0.75001278  0.25001278  1.0
  Sn  Sn15  1  0.74998722  0.74998722  0.74998722  1.0
  O  O16  1  0.49997318  0.74986087  0.74989512  1.0
  O  O17  1  -0.00002682  0.75013913  0.25010488  1.0
  O  O18  1  0.24986087  0.75010488  0.50002682  1.0
  O  O19  1  0.74986087  0.74989512  0.49997318  1.0
  O  O20  1  0.25010488  -0.00002682  0.75013913  1.0
  O  O21  1  0.75010488  0.50002682  0.24986087  1.0
  O  O22  1  0.50002682  0.24986087  0.75010488  1.0
  O  O23  1  0.00002682  0.25013913  0.24989512  1.0
  O  O24  1  0.75013913  0.25010488  -0.00002682  1.0
  O  O25  1  0.25013913  0.24989512  0.00002682  1.0
  O  O26  1  0.74989512  0.49997318  0.74986087  1.0
  O  O27  1  0.24989512  0.00002682  0.25013913  1.0
  O  O28  1  0.25005204  0.75007943  0.00002595  1.0
  O  O29  1  0.75005204  0.74992057  -0.00002595  1.0
  O  O30  1  0.25007943  0.49997405  0.74994796  1.0
  O  O31  1  0.75007943  0.00002595  0.25005204  1.0
  O  O32  1  -0.00002595  0.75005204  0.74992057  1.0
  O  O33  1  0.49997405  0.74994796  0.25007943  1.0
  O  O34  1  0.74994796  0.25007943  0.49997405  1.0
  O  O35  1  0.24994796  0.24992057  0.50002595  1.0
  O  O36  1  0.74992057  -0.00002595  0.75005204  1.0
  O  O37  1  0.24992057  0.50002595  0.24994796  1.0
  O  O38  1  0.00002595  0.25005204  0.75007943  1.0
  O  O39  1  0.50002595  0.24994796  0.24992057  1.0
