# generated using pymatgen
data_MnC4NO5
_symmetry_space_group_name_H-M   'P 1'
_cell_length_a   6.99133221
_cell_length_b   6.99133221
_cell_length_c   10.17924339
_cell_angle_alpha   75.59263187
_cell_angle_beta   104.40736813
_cell_angle_gamma   120.71098992
_symmetry_Int_Tables_number   1
_chemical_formula_structural   MnC4NO5
_chemical_formula_sum   'Mn2 C8 N2 O10'
_cell_volume   409.86478618
_cell_formula_units_Z   2
loop_
 _symmetry_equiv_pos_site_id
 _symmetry_equiv_pos_as_xyz
  1  'x, y, z'
loop_
 _atom_site_type_symbol
 _atom_site_label
 _atom_site_symmetry_multiplicity
 _atom_site_fract_x
 _atom_site_fract_y
 _atom_site_fract_z
 _atom_site_occupancy
  Mn  Mn0  1  0.36026796  0.36026796  0.75000000  1.0
  Mn  Mn1  1  0.63973204  0.63973204  0.25000000  1.0
  C  C2  1  0.45576017  0.19486067  0.69404099  1.0
  C  C3  1  0.80513933  0.54423983  0.19404099  1.0
  C  C4  1  1.19486067  0.45576017  0.80595901  1.0
  C  C5  1  0.54423983  -0.19486067  0.30595901  1.0
  C  C6  1  0.29896943  0.14803033  0.90305514  1.0
  C  C7  1  0.85196967  0.70103057  0.40305514  1.0
  C  C8  1  1.14803033  0.29896943  0.59694486  1.0
  C  C9  1  0.70103057  -0.14803033  0.09694486  1.0
  N  N10  1  0.60392912  0.60392912  0.75000000  1.0
  N  N11  1  0.39607088  0.39607088  0.25000000  1.0
  O  O12  1  0.73299325  -0.01817075  0.99786611  1.0
  O  O13  1  1.01817075  0.26700675  0.49786611  1.0
  O  O14  1  0.98182925  0.73299325  0.50213389  1.0
  O  O15  1  0.26700675  0.01817075  0.00213389  1.0
  O  O16  1  0.51064038  0.08763360  0.65920259  1.0
  O  O17  1  0.91236640  0.48935962  0.15920259  1.0
  O  O18  1  1.08763360  0.51064038  0.84079741  1.0
  O  O19  1  0.48935962  -0.08763360  0.34079741  1.0
  O  O20  1  0.77253861  0.77253861  0.75000000  1.0
  O  O21  1  0.22746139  0.22746139  0.25000000  1.0
