# generated using pymatgen
data_Hg3(SeO3)4
_symmetry_space_group_name_H-M   'P 1'
_cell_length_a   9.88504094
_cell_length_b   9.63864033
_cell_length_c   8.10566263
_cell_angle_alpha   90.00000000
_cell_angle_beta   112.97365594
_cell_angle_gamma   90.00000000
_symmetry_Int_Tables_number   1
_chemical_formula_structural   Hg3(SeO3)4
_chemical_formula_sum   'Hg6 Se8 O24'
_cell_volume   711.03922635
_cell_formula_units_Z   2
loop_
 _symmetry_equiv_pos_site_id
 _symmetry_equiv_pos_as_xyz
  1  'x, y, z'
loop_
 _atom_site_type_symbol
 _atom_site_label
 _atom_site_symmetry_multiplicity
 _atom_site_fract_x
 _atom_site_fract_y
 _atom_site_fract_z
 _atom_site_occupancy
  O  O0  1  0.04012827  0.24433203  0.59428397  1.0
  O  O1  1  0.04012827  0.25566797  0.09428397  1.0
  O  O2  1  0.95987173  0.74433203  0.90571603  1.0
  O  O3  1  0.95987173  0.75566797  0.40571603  1.0
  O  O4  1  0.09410400  0.01614862  0.78496734  1.0
  O  O5  1  0.09410400  0.48385138  0.28496734  1.0
  O  O6  1  0.90589600  0.51614862  0.71503266  1.0
  O  O7  1  0.90589600  0.98385138  0.21503266  1.0
  O  O8  1  0.27282072  0.42452221  0.13040823  1.0
  O  O9  1  0.27282072  0.07547779  0.63040823  1.0
  O  O10  1  0.72717928  0.92452221  0.36959177  1.0
  O  O11  1  0.72717928  0.57547779  0.86959177  1.0
  O  O12  1  0.79631407  0.08292893  0.77370345  1.0
  O  O13  1  0.79631407  0.41707107  0.27370345  1.0
  O  O14  1  0.20368593  0.58292893  0.72629655  1.0
  O  O15  1  0.20368593  0.91707107  0.22629655  1.0
  O  O16  1  0.38024027  0.06108721  0.09931987  1.0
  O  O17  1  0.38024027  0.43891279  0.59931987  1.0
  O  O18  1  0.61975973  0.56108721  0.40068013  1.0
  O  O19  1  0.61975973  0.93891279  0.90068013  1.0
  O  O20  1  0.65202641  0.27513123  0.44638031  1.0
  O  O21  1  0.65202641  0.22486877  0.94638031  1.0
  O  O22  1  0.34797359  0.77513123  0.05361969  1.0
  O  O23  1  0.34797359  0.72486877  0.55361969  1.0
  Hg  Hg24  1  0.15451267  0.61340463  0.01452303  1.0
  Hg  Hg25  1  0.15451267  0.88659537  0.51452303  1.0
  Hg  Hg26  1  0.84548733  0.11340463  0.48547697  1.0
  Hg  Hg27  1  0.84548733  0.38659537  0.98547697  1.0
  Hg  Hg28  1  0.00000000  0.00000000  0.00000000  1.0
  Hg  Hg29  1  -0.00000000  0.50000000  0.50000000  1.0
  Se  Se30  1  0.19098669  0.15816491  0.75603900  1.0
  Se  Se31  1  0.19098669  0.34183509  0.25603900  1.0
  Se  Se32  1  0.80901331  0.65816491  0.74396100  1.0
  Se  Se33  1  0.80901331  0.84183509  0.24396100  1.0
  Se  Se34  1  0.63223573  0.41118222  0.30589957  1.0
  Se  Se35  1  0.63223573  0.08881778  0.80589957  1.0
  Se  Se36  1  0.36776427  0.91118222  0.19410043  1.0
  Se  Se37  1  0.36776427  0.58881778  0.69410043  1.0
