# generated using pymatgen
data_Ti6Be15Cu8
_symmetry_space_group_name_H-M   'P 1'
_cell_length_a   7.60617891
_cell_length_b   7.60617891
_cell_length_c   7.60617891
_cell_angle_alpha   60.00000000
_cell_angle_beta   60.00000000
_cell_angle_gamma   60.00000000
_symmetry_Int_Tables_number   1
_chemical_formula_structural   Ti6Be15Cu8
_chemical_formula_sum   'Ti6 Be15 Cu8'
_cell_volume   311.16060872
_cell_formula_units_Z   1
loop_
 _symmetry_equiv_pos_site_id
 _symmetry_equiv_pos_as_xyz
  1  'x, y, z'
loop_
 _atom_site_type_symbol
 _atom_site_label
 _atom_site_symmetry_multiplicity
 _atom_site_fract_x
 _atom_site_fract_y
 _atom_site_fract_z
 _atom_site_occupancy
  Ti  Ti0  1  -0.69670073  0.69670073  0.69670073  1.0
  Ti  Ti1  1  -0.30329927  0.30329927  0.69670073  1.0
  Ti  Ti2  1  0.69670073  0.69670073  -0.69670073  1.0
  Ti  Ti3  1  0.30329927  1.30329927  -0.30329927  1.0
  Ti  Ti4  1  0.30329927  -0.30329927  1.30329927  1.0
  Ti  Ti5  1  -0.30329927  0.30329927  0.30329927  1.0
  Be  Be6  1  0.67314686  0.67314686  -0.32685314  1.0
  Be  Be7  1  1.32685314  0.32685314  0.01944059  1.0
  Be  Be8  1  1.32685314  0.01944059  0.32685314  1.0
  Be  Be9  1  0.98055941  0.67314686  -0.32685314  1.0
  Be  Be10  1  1.01944059  0.32685314  0.32685314  1.0
  Be  Be11  1  0.67314686  0.98055941  -0.32685314  1.0
  Be  Be12  1  0.67314686  0.67314686  -0.01944059  1.0
  Be  Be13  1  1.32685314  0.32685314  0.32685314  1.0
  Be  Be14  1  1.50000000  0.00000000  -0.00000000  1.0
  Be  Be15  1  1.00000000  0.50000000  -0.50000000  1.0
  Be  Be16  1  0.00000000  1.50000000  -0.00000000  1.0
  Be  Be17  1  0.50000000  1.00000000  -0.50000000  1.0
  Be  Be18  1  0.00000000  0.00000000  0.50000000  1.0
  Be  Be19  1  0.50000000  -0.50000000  1.00000000  1.0
  Be  Be20  1  0.00000000  0.00000000  0.00000000  1.0
  Cu  Cu21  1  0.87780813  0.87780813  -0.12219187  1.0
  Cu  Cu22  1  1.12219187  0.12219187  0.63342440  1.0
  Cu  Cu23  1  1.12219187  0.63342440  0.12219187  1.0
  Cu  Cu24  1  0.36657560  0.87780813  -0.12219187  1.0
  Cu  Cu25  1  1.63342440  0.12219187  0.12219187  1.0
  Cu  Cu26  1  0.87780813  0.36657560  -0.12219187  1.0
  Cu  Cu27  1  0.87780813  0.87780813  -0.63342440  1.0
  Cu  Cu28  1  1.12219187  0.12219187  0.12219187  1.0
