# generated using pymatgen
data_PH3W(CO)5
_symmetry_space_group_name_H-M   'P 1'
_cell_length_a   11.43723348
_cell_length_b   7.02178493
_cell_length_c   13.61663121
_cell_angle_alpha   90.00000000
_cell_angle_beta   94.41245258
_cell_angle_gamma   90.00000000
_symmetry_Int_Tables_number   1
_chemical_formula_structural   PH3W(CO)5
_chemical_formula_sum   'P4 H12 W4 C20 O20'
_cell_volume   1090.30762311
_cell_formula_units_Z   4
loop_
 _symmetry_equiv_pos_site_id
 _symmetry_equiv_pos_as_xyz
  1  'x, y, z'
loop_
 _atom_site_type_symbol
 _atom_site_label
 _atom_site_symmetry_multiplicity
 _atom_site_fract_x
 _atom_site_fract_y
 _atom_site_fract_z
 _atom_site_occupancy
  P  P0  1  0.71779053  0.09755708  0.69232415  1.0
  P  P1  1  0.28220947  0.59755708  0.80767585  1.0
  P  P2  1  0.28220947  0.90244292  0.30767585  1.0
  P  P3  1  0.71779053  0.40244292  0.19232415  1.0
  H  H4  1  0.69398980  0.29332681  0.67398690  1.0
  H  H5  1  0.30601020  0.79332681  0.82601310  1.0
  H  H6  1  0.30601020  0.70667319  0.32601310  1.0
  H  H7  1  0.69398980  0.20667319  0.17398690  1.0
  H  H8  1  0.80508682  0.07163516  0.62510678  1.0
  H  H9  1  0.19491318  0.57163516  0.87489322  1.0
  H  H10  1  0.19491318  0.92836484  0.37489322  1.0
  H  H11  1  0.80508682  0.42836484  0.12510678  1.0
  H  H12  1  0.62105452  0.01981746  0.63424038  1.0
  H  H13  1  0.37894548  0.51981746  0.86575962  1.0
  H  H14  1  0.37894548  0.98018254  0.36575962  1.0
  H  H15  1  0.62105452  0.48018254  0.13424038  1.0
  W  W16  1  0.75627422  0.98821326  0.86827344  1.0
  W  W17  1  0.24372578  0.48821326  0.63172656  1.0
  W  W18  1  0.24372578  0.01178674  0.13172656  1.0
  W  W19  1  0.75627422  0.51178674  0.36827344  1.0
  C  C20  1  0.60398184  0.11618780  0.90212088  1.0
  C  C21  1  0.39601816  0.61618780  0.59787912  1.0
  C  C22  1  0.39601816  0.88381220  0.09787912  1.0
  C  C23  1  0.60398184  0.38381220  0.40212088  1.0
  C  C24  1  0.66837786  0.74141452  0.83308087  1.0
  C  C25  1  0.33162214  0.24141452  0.66691913  1.0
  C  C26  1  0.33162214  0.25858548  0.16691913  1.0
  C  C27  1  0.66837786  0.75858548  0.33308087  1.0
  C  C28  1  0.91019373  0.86607685  0.83275918  1.0
  C  C29  1  0.08980627  0.36607685  0.66724082  1.0
  C  C30  1  0.08980627  0.13392315  0.16724082  1.0
  C  C31  1  0.91019373  0.63392315  0.33275918  1.0
  C  C32  1  0.84389805  0.23745456  0.90127428  1.0
  C  C33  1  0.15610195  0.73745456  0.59872572  1.0
  C  C34  1  0.15610195  0.76254544  0.09872572  1.0
  C  C35  1  0.84389805  0.26254544  0.40127428  1.0
  C  C36  1  0.78518906  0.89812425  0.00754685  1.0
  C  C37  1  0.21481094  0.39812425  0.49245315  1.0
  C  C38  1  0.21481094  0.10187575  0.99245315  1.0
  C  C39  1  0.78518906  0.60187575  0.50754685  1.0
  O  O40  1  0.51857471  0.18998525  0.92301307  1.0
  O  O41  1  0.48142529  0.68998525  0.57698693  1.0
  O  O42  1  0.48142529  0.81001475  0.07698693  1.0
  O  O43  1  0.51857471  0.31001475  0.42301307  1.0
  O  O44  1  0.61840782  0.60080015  0.81385643  1.0
  O  O45  1  0.38159218  0.10080015  0.68614357  1.0
  O  O46  1  0.38159218  0.39919985  0.18614357  1.0
  O  O47  1  0.61840782  0.89919985  0.31385643  1.0
  O  O48  1  -0.00235245  0.79827608  0.81310603  1.0
  O  O49  1  1.00235245  0.29827608  0.68689397  1.0
  O  O50  1  1.00235245  0.20172392  0.18689397  1.0
  O  O51  1  -0.00235245  0.70172392  0.31310603  1.0
  O  O52  1  0.89257951  0.37853627  0.92120399  1.0
  O  O53  1  0.10742049  0.87853627  0.57879601  1.0
  O  O54  1  0.10742049  0.62146373  0.07879601  1.0
  O  O55  1  0.89257951  0.12146373  0.42120399  1.0
  O  O56  1  0.80105964  0.84488276  0.08850416  1.0
  O  O57  1  0.19894036  0.34488276  0.41149584  1.0
  O  O58  1  0.19894036  0.15511724  0.91149584  1.0
  O  O59  1  0.80105964  0.65511724  0.58850416  1.0
