# generated using pymatgen
data_FeAgP2O7
_symmetry_space_group_name_H-M   'P 1'
_cell_length_a   7.42668255
_cell_length_b   8.22384172
_cell_length_c   9.70618187
_cell_angle_alpha   90.00000000
_cell_angle_beta   111.29697229
_cell_angle_gamma   90.00000000
_symmetry_Int_Tables_number   1
_chemical_formula_structural   FeAgP2O7
_chemical_formula_sum   'Fe4 Ag4 P8 O28'
_cell_volume   552.33044410
_cell_formula_units_Z   4
loop_
 _symmetry_equiv_pos_site_id
 _symmetry_equiv_pos_as_xyz
  1  'x, y, z'
loop_
 _atom_site_type_symbol
 _atom_site_label
 _atom_site_symmetry_multiplicity
 _atom_site_fract_x
 _atom_site_fract_y
 _atom_site_fract_z
 _atom_site_occupancy
  Fe  Fe0  1  0.73916009  0.99004551  0.74499690  1.0
  Fe  Fe1  1  0.73916009  0.50995449  0.24499690  1.0
  Fe  Fe2  1  0.26083991  0.49004551  0.75500310  1.0
  Fe  Fe3  1  0.26083991  0.00995449  0.25500310  1.0
  O  O4  1  0.88480707  0.34453977  0.94228337  1.0
  O  O5  1  0.88480707  0.15546023  0.44228337  1.0
  O  O6  1  0.11519293  0.84453977  0.55771663  1.0
  O  O7  1  0.11519293  0.65546023  0.05771663  1.0
  O  O8  1  0.36002066  0.61484190  0.60517962  1.0
  O  O9  1  0.36002066  0.88515810  0.10517962  1.0
  O  O10  1  0.63997934  0.11484190  0.89482038  1.0
  O  O11  1  0.63997934  0.38515810  0.39482038  1.0
  O  O12  1  0.31588978  0.69062672  0.89193885  1.0
  O  O13  1  0.31588978  0.80937328  0.39193885  1.0
  O  O14  1  0.68411022  0.19062672  0.60806115  1.0
  O  O15  1  0.68411022  0.30937328  0.10806115  1.0
  O  O16  1  0.80826477  0.86181522  0.60236639  1.0
  O  O17  1  0.80826477  0.63818478  0.10236639  1.0
  O  O18  1  0.19173523  0.36181522  0.89763361  1.0
  O  O19  1  0.19173523  0.13818478  0.39763361  1.0
  O  O20  1  0.81344835  0.79848999  0.88253969  1.0
  O  O21  1  0.81344835  0.70151001  0.38253969  1.0
  O  O22  1  0.18655165  0.29848999  0.61746031  1.0
  O  O23  1  0.18655165  0.20151001  0.11746031  1.0
  O  O24  1  0.98924404  0.59010280  0.64556023  1.0
  O  O25  1  0.98924404  0.90989720  0.14556023  1.0
  O  O26  1  0.01075596  0.09010280  0.85443977  1.0
  O  O27  1  0.01075596  0.40989720  0.35443977  1.0
  O  O28  1  0.46017748  0.91578082  0.66072117  1.0
  O  O29  1  0.46017748  0.58421918  0.16072117  1.0
  O  O30  1  0.53982252  0.41578082  0.83927883  1.0
  O  O31  1  0.53982252  0.08421918  0.33927883  1.0
  Ag  Ag32  1  0.69727699  0.52095471  0.67744988  1.0
  Ag  Ag33  1  0.69727699  0.97904529  0.17744988  1.0
  Ag  Ag34  1  0.30272301  0.02095471  0.82255012  1.0
  Ag  Ag35  1  0.30272301  0.47904529  0.32255012  1.0
  P  P36  1  0.92309729  0.74236169  0.54544683  1.0
  P  P37  1  0.92309729  0.75763831  0.04544683  1.0
  P  P38  1  0.07690271  0.24236169  0.95455317  1.0
  P  P39  1  0.07690271  0.25763831  0.45455317  1.0
  P  P40  1  0.67544090  0.29376272  0.94832696  1.0
  P  P41  1  0.67544090  0.20623728  0.44832696  1.0
  P  P42  1  0.32455910  0.79376272  0.55167304  1.0
  P  P43  1  0.32455910  0.70623728  0.05167304  1.0
