# generated using pymatgen
data_CsC10
_symmetry_space_group_name_H-M   'P 1'
_cell_length_a   10.38934292
_cell_length_b   10.38934292
_cell_length_c   10.38934292
_cell_angle_alpha   109.47122063
_cell_angle_beta   109.47122063
_cell_angle_gamma   109.47122063
_symmetry_Int_Tables_number   1
_chemical_formula_structural   CsC10
_chemical_formula_sum   'Cs6 C60'
_cell_volume   863.26146134
_cell_formula_units_Z   6
loop_
 _symmetry_equiv_pos_site_id
 _symmetry_equiv_pos_as_xyz
  1  'x, y, z'
loop_
 _atom_site_type_symbol
 _atom_site_label
 _atom_site_symmetry_multiplicity
 _atom_site_fract_x
 _atom_site_fract_y
 _atom_site_fract_z
 _atom_site_occupancy
  Cs  Cs0  1  0.77684473  0.27684473  0.50000000  1.0
  Cs  Cs1  1  0.50000000  0.22315527  0.72315527  1.0
  Cs  Cs2  1  0.50000000  0.77684473  0.27684473  1.0
  Cs  Cs3  1  0.27684473  0.50000000  0.77684473  1.0
  Cs  Cs4  1  0.72315527  0.50000000  0.22315527  1.0
  Cs  Cs5  1  0.22315527  0.72315527  0.50000000  1.0
  C  C6  1  0.94040782  1.29165414  1.23206196  1.0
  C  C7  1  0.94040782  0.70834586  0.64875368  1.0
  C  C8  1  0.05959218  0.29165414  0.35124632  1.0
  C  C9  1  0.05959218  0.70834586  0.76793804  1.0
  C  C10  1  0.64875368  0.94040782  0.70834586  1.0
  C  C11  1  1.23206196  0.94040782  1.29165414  1.0
  C  C12  1  0.70834586  0.76793804  0.05959218  1.0
  C  C13  1  0.70834586  0.64875368  0.94040782  1.0
  C  C14  1  0.76793804  0.05959218  0.70834586  1.0
  C  C15  1  0.35124632  0.05959218  0.29165414  1.0
  C  C16  1  0.29165414  0.35124632  0.05959218  1.0
  C  C17  1  1.29165414  1.23206196  0.94040782  1.0
  C  C18  1  1.72273394  1.13331861  0.97660024  1.0
  C  C19  1  0.72273394  0.74613370  0.58941533  1.0
  C  C20  1  1.15671837  1.13331861  0.41058467  1.0
  C  C21  1  1.15671837  0.74613370  1.02339976  1.0
  C  C22  1  0.58941533  0.84328163  0.86668139  1.0
  C  C23  1  0.58941533  0.72273394  0.74613370  1.0
  C  C24  1  0.97660024  0.84328163  0.25386630  1.0
  C  C25  1  0.97660024  1.72273394  1.13331861  1.0
  C  C26  1  0.74613370  1.02339976  1.15671837  1.0
  C  C27  1  0.74613370  0.58941533  0.72273394  1.0
  C  C28  1  0.86668139  1.02339976  1.27726606  1.0
  C  C29  1  0.86668139  0.58941533  0.84328163  1.0
  C  C30  1  0.84328163  0.25386630  0.97660024  1.0
  C  C31  1  0.84328163  0.86668139  0.58941533  1.0
  C  C32  1  0.27726606  0.25386630  0.41058467  1.0
  C  C33  1  1.27726606  0.86668139  1.02339976  1.0
  C  C34  1  1.02339976  1.27726606  0.86668139  1.0
  C  C35  1  1.02339976  1.15671837  0.74613370  1.0
  C  C36  1  0.41058467  0.27726606  0.25386630  1.0
  C  C37  1  0.41058467  1.15671837  1.13331861  1.0
  C  C38  1  1.13331861  0.41058467  1.15671837  1.0
  C  C39  1  1.13331861  0.97660024  1.72273394  1.0
  C  C40  1  0.25386630  0.41058467  0.27726606  1.0
  C  C41  1  0.25386630  0.97660024  0.84328163  1.0
  C  C42  1  0.78247969  1.15643949  1.13429818  1.0
  C  C43  1  0.78247969  0.64818151  0.62604020  1.0
  C  C44  1  1.02214131  1.15643949  0.37395980  1.0
  C  C45  1  1.02214131  1.64818151  0.86570182  1.0
  C  C46  1  0.62604020  0.97785869  0.84356051  1.0
  C  C47  1  0.62604020  0.78247969  0.64818151  1.0
  C  C48  1  1.13429818  0.97785869  1.35181849  1.0
  C  C49  1  1.13429818  0.78247969  1.15643949  1.0
  C  C50  1  1.64818151  0.86570182  1.02214131  1.0
  C  C51  1  0.64818151  0.62604020  0.78247969  1.0
  C  C52  1  0.84356051  0.86570182  0.21752031  1.0
  C  C53  1  0.84356051  0.62604020  0.97785869  1.0
  C  C54  1  0.97785869  1.35181849  1.13429818  1.0
  C  C55  1  0.97785869  0.84356051  0.62604020  1.0
  C  C56  1  0.21752031  0.35181849  0.37395980  1.0
  C  C57  1  0.21752031  0.84356051  0.86570182  1.0
  C  C58  1  0.86570182  0.21752031  0.84356051  1.0
  C  C59  1  0.86570182  1.02214131  1.64818151  1.0
  C  C60  1  0.37395980  0.21752031  0.35181849  1.0
  C  C61  1  0.37395980  1.02214131  1.15643949  1.0
  C  C62  1  1.15643949  0.37395980  1.02214131  1.0
  C  C63  1  1.15643949  1.13429818  0.78247969  1.0
  C  C64  1  0.35181849  0.37395980  0.21752031  1.0
  C  C65  1  1.35181849  1.13429818  0.97785869  1.0
