# generated using pymatgen
data_Cu3SbS3
_symmetry_space_group_name_H-M   'P 1'
_cell_length_a   6.58130251
_cell_length_b   8.17104589
_cell_length_c   10.26726499
_cell_angle_alpha   90.00000000
_cell_angle_beta   90.00000000
_cell_angle_gamma   90.00000000
_symmetry_Int_Tables_number   1
_chemical_formula_structural   Cu3SbS3
_chemical_formula_sum   'Cu12 Sb4 S12'
_cell_volume   552.13372423
_cell_formula_units_Z   4
loop_
 _symmetry_equiv_pos_site_id
 _symmetry_equiv_pos_as_xyz
  1  'x, y, z'
loop_
 _atom_site_type_symbol
 _atom_site_label
 _atom_site_symmetry_multiplicity
 _atom_site_fract_x
 _atom_site_fract_y
 _atom_site_fract_z
 _atom_site_occupancy
  Cu  Cu0  1  0.36758674  0.63256604  0.91206909  1.0
  Cu  Cu1  1  0.86758674  0.86743396  0.08793091  1.0
  Cu  Cu2  1  0.63241326  0.13256604  0.58793091  1.0
  Cu  Cu3  1  0.13241326  0.36743396  0.41206909  1.0
  Cu  Cu4  1  0.48709185  0.42217644  0.53485451  1.0
  Cu  Cu5  1  0.98709185  0.07782356  0.46514549  1.0
  Cu  Cu6  1  0.51290815  0.92217644  0.96514549  1.0
  Cu  Cu7  1  0.01290815  0.57782356  0.03485451  1.0
  Cu  Cu8  1  0.44123145  0.82930593  0.59249928  1.0
  Cu  Cu9  1  0.94123145  0.67069407  0.40750072  1.0
  Cu  Cu10  1  0.55876855  0.32930593  0.90750072  1.0
  Cu  Cu11  1  0.05876855  0.17069407  0.09249928  1.0
  Sb  Sb12  1  0.88671679  0.72784418  0.73499581  1.0
  Sb  Sb13  1  0.38671679  0.77215582  0.26500419  1.0
  Sb  Sb14  1  0.11328321  0.22784418  0.76500419  1.0
  Sb  Sb15  1  0.61328321  0.27215582  0.23499581  1.0
  S  S16  1  0.37808986  0.44768494  0.74791020  1.0
  S  S17  1  0.87808986  0.05231506  0.25208980  1.0
  S  S18  1  0.62191014  0.94768494  0.75208980  1.0
  S  S19  1  0.12191014  0.55231506  0.24791020  1.0
  S  S20  1  0.10064822  0.84130355  0.55321961  1.0
  S  S21  1  0.60064822  0.65869645  0.44678039  1.0
  S  S22  1  0.89935178  0.34130355  0.94678039  1.0
  S  S23  1  0.39935178  0.15869645  0.05321961  1.0
  S  S24  1  0.10026760  0.81674843  0.92679619  1.0
  S  S25  1  0.60026760  0.68325157  0.07320381  1.0
  S  S26  1  0.89973240  0.31674843  0.57320381  1.0
  S  S27  1  0.39973240  0.18325157  0.42679619  1.0
