# generated using pymatgen
data_Mn2GeO4
_symmetry_space_group_name_H-M   'P 1'
_cell_length_a   8.12734698
_cell_length_b   8.12734698
_cell_length_c   8.12734698
_cell_angle_alpha   136.12314465
_cell_angle_beta   82.62795276
_cell_angle_gamma   114.04666950
_symmetry_Int_Tables_number   1
_chemical_formula_structural   Mn2GeO4
_chemical_formula_sum   'Mn8 Ge4 O16'
_cell_volume   327.99008635
_cell_formula_units_Z   4
loop_
 _symmetry_equiv_pos_site_id
 _symmetry_equiv_pos_as_xyz
  1  'x, y, z'
loop_
 _atom_site_type_symbol
 _atom_site_label
 _atom_site_symmetry_multiplicity
 _atom_site_fract_x
 _atom_site_fract_y
 _atom_site_fract_z
 _atom_site_occupancy
  Mn  Mn0  1  0.71951002  0.96951002  0.75000000  1.0
  Mn  Mn1  1  1.28048998  1.03048998  1.25000000  1.0
  Mn  Mn2  1  0.00000000  0.00000000  0.00000000  1.0
  Mn  Mn3  1  0.50000000  1.00000000  0.50000000  1.0
  Mn  Mn4  1  1.12285305  0.50000000  1.12285305  1.0
  Mn  Mn5  1  0.87714695  1.50000000  0.87714695  1.0
  Mn  Mn6  1  1.12285305  1.00000000  1.62285305  1.0
  Mn  Mn7  1  0.87714695  1.00000000  0.37714695  1.0
  O  O8  1  1.47224336  0.72224336  0.75000000  1.0
  O  O9  1  0.52775664  0.27775664  0.25000000  1.0
  O  O10  1  0.96790537  1.21790537  0.75000000  1.0
  O  O11  1  1.03209463  0.78209463  1.25000000  1.0
  O  O12  1  0.87323198  0.74165657  0.62192717  1.0
  O  O13  1  1.38027059  0.74869519  1.12192717  1.0
  O  O14  1  1.12676802  1.25834343  1.37807283  1.0
  O  O15  1  0.61972941  1.25130481  0.87807283  1.0
  O  O16  1  1.12676802  0.74869519  0.86842459  1.0
  O  O17  1  0.61972941  0.74165657  0.36842459  1.0
  O  O18  1  0.87323198  1.25130481  1.13157541  1.0
  O  O19  1  1.38027059  1.25834343  1.63157541  1.0
  O  O20  1  1.74105225  0.74577206  0.99528019  1.0
  O  O21  1  1.74950813  1.25422794  1.49528019  1.0
  O  O22  1  0.25894775  0.25422794  0.00471981  1.0
  O  O23  1  0.25049187  0.74577206  0.50471981  1.0
  Ge  Ge24  1  1.49769510  0.61637447  0.88132063  1.0
  Ge  Ge25  1  0.76494615  0.38362553  0.38132063  1.0
  Ge  Ge26  1  0.50230490  0.38362553  0.11867937  1.0
  Ge  Ge27  1  1.23505385  0.61637447  0.61867937  1.0
