# generated using pymatgen
data_Cs2WSe4
_symmetry_space_group_name_H-M   'P 1'
_cell_length_a   10.76799101
_cell_length_b   7.61424153
_cell_length_c   13.51929042
_cell_angle_alpha   90.00000000
_cell_angle_beta   90.00000000
_cell_angle_gamma   90.00000000
_symmetry_Int_Tables_number   1
_chemical_formula_structural   Cs2WSe4
_chemical_formula_sum   'Cs8 W4 Se16'
_cell_volume   1108.44776201
_cell_formula_units_Z   4
loop_
 _symmetry_equiv_pos_site_id
 _symmetry_equiv_pos_as_xyz
  1  'x, y, z'
loop_
 _atom_site_type_symbol
 _atom_site_label
 _atom_site_symmetry_multiplicity
 _atom_site_fract_x
 _atom_site_fract_y
 _atom_site_fract_z
 _atom_site_occupancy
  Cs  Cs0  1  0.84793005  0.75000000  0.39571993  1.0
  Cs  Cs1  1  0.34793005  0.75000000  0.10428007  1.0
  Cs  Cs2  1  0.15206995  0.25000000  0.60428007  1.0
  Cs  Cs3  1  0.65206995  0.25000000  0.89571993  1.0
  Cs  Cs4  1  0.53839905  0.75000000  0.66368327  1.0
  Cs  Cs5  1  0.03839905  0.75000000  0.83631673  1.0
  Cs  Cs6  1  0.46160095  0.25000000  0.33631673  1.0
  Cs  Cs7  1  0.96160095  0.25000000  0.16368327  1.0
  W  W8  1  0.75226394  0.75000000  0.07639918  1.0
  W  W9  1  0.25226394  0.75000000  0.42360082  1.0
  W  W10  1  0.24773606  0.25000000  0.92360082  1.0
  W  W11  1  0.74773606  0.25000000  0.57639918  1.0
  Se  Se12  1  0.66215701  0.99921127  0.14657459  1.0
  Se  Se13  1  0.66215701  0.50078873  0.14657459  1.0
  Se  Se14  1  0.16215701  0.99921127  0.35342541  1.0
  Se  Se15  1  0.16215701  0.50078873  0.35342541  1.0
  Se  Se16  1  0.33784299  0.49921127  0.85342541  1.0
  Se  Se17  1  0.33784299  0.00078873  0.85342541  1.0
  Se  Se18  1  0.83784299  0.49921127  0.64657459  1.0
  Se  Se19  1  0.83784299  0.00078873  0.64657459  1.0
  Se  Se20  1  0.96632370  0.75000000  0.10804524  1.0
  Se  Se21  1  0.46632370  0.75000000  0.39195476  1.0
  Se  Se22  1  0.03367630  0.25000000  0.89195476  1.0
  Se  Se23  1  0.53367630  0.25000000  0.60804524  1.0
  Se  Se24  1  0.21399630  0.75000000  0.59387878  1.0
  Se  Se25  1  0.71399630  0.75000000  0.90612122  1.0
  Se  Se26  1  0.78600370  0.25000000  0.40612122  1.0
  Se  Se27  1  0.28600370  0.25000000  0.09387878  1.0
