# generated using pymatgen
data_Sr4V3O10
_symmetry_space_group_name_H-M   'P 1'
_cell_length_a   14.33207664
_cell_length_b   14.33207664
_cell_length_c   14.33207664
_cell_angle_alpha   164.57828398
_cell_angle_beta   164.57828398
_cell_angle_gamma   21.87646736
_symmetry_Int_Tables_number   1
_chemical_formula_structural   Sr4V3O10
_chemical_formula_sum   'Sr4 V3 O10'
_cell_volume   208.14275385
_cell_formula_units_Z   1
loop_
 _symmetry_equiv_pos_site_id
 _symmetry_equiv_pos_as_xyz
  1  'x, y, z'
loop_
 _atom_site_type_symbol
 _atom_site_label
 _atom_site_symmetry_multiplicity
 _atom_site_fract_x
 _atom_site_fract_y
 _atom_site_fract_z
 _atom_site_occupancy
  Sr  Sr0  1  0.70254478  0.70254478  1.00000000  1.0
  Sr  Sr1  1  0.29745522  0.29745522  0.00000000  1.0
  Sr  Sr2  1  0.56835238  0.56835238  1.00000000  1.0
  Sr  Sr3  1  0.43164762  0.43164762  -0.00000000  1.0
  O  O4  1  0.36202382  0.86202382  0.50000000  1.0
  O  O5  1  0.63797618  0.13797618  0.50000000  1.0
  O  O6  1  0.86202382  0.36202382  0.50000000  1.0
  O  O7  1  0.13797618  0.63797618  0.50000000  1.0
  O  O8  1  0.93096629  0.93096629  1.00000000  1.0
  O  O9  1  0.06903371  0.06903371  -0.00000000  1.0
  O  O10  1  0.79159426  0.79159426  1.00000000  1.0
  O  O11  1  0.20840574  0.20840574  -0.00000000  1.0
  O  O12  1  0.50000000  0.00000000  0.50000000  1.0
  O  O13  1  0.00000000  0.50000000  0.50000000  1.0
  V  V14  1  0.86180279  0.86180279  1.00000000  1.0
  V  V15  1  0.13819721  0.13819721  -0.00000000  1.0
  V  V16  1  0.00000000  0.00000000  0.00000000  1.0
