# generated using pymatgen
data_Cd4Si4O9
_symmetry_space_group_name_H-M   'P 1'
_cell_length_a   5.81152461
_cell_length_b   8.28922308
_cell_length_c   11.33919624
_cell_angle_alpha   90.00000000
_cell_angle_beta   96.18483901
_cell_angle_gamma   90.00000000
_symmetry_Int_Tables_number   1
_chemical_formula_structural   Cd4Si4O9
_chemical_formula_sum   'Cd8 Si8 O18'
_cell_volume   543.06396670
_cell_formula_units_Z   2
loop_
 _symmetry_equiv_pos_site_id
 _symmetry_equiv_pos_as_xyz
  1  'x, y, z'
loop_
 _atom_site_type_symbol
 _atom_site_label
 _atom_site_symmetry_multiplicity
 _atom_site_fract_x
 _atom_site_fract_y
 _atom_site_fract_z
 _atom_site_occupancy
  O  O0  1  0.83249994  0.21965645  1.07595289  1.0
  O  O1  1  0.16750006  0.71965645  0.42404711  1.0
  O  O2  1  0.16750006  0.78034355  -0.07595289  1.0
  O  O3  1  0.83249994  0.28034355  0.57595289  1.0
  O  O4  1  0.89218609  0.91052793  0.11969537  1.0
  O  O5  1  0.10781391  0.41052793  0.38030463  1.0
  O  O6  1  0.10781391  0.08947207  0.88030463  1.0
  O  O7  1  0.89218609  0.58947207  0.61969537  1.0
  O  O8  1  0.55347014  0.07132194  0.22549138  1.0
  O  O9  1  0.44652986  0.57132194  0.27450862  1.0
  O  O10  1  0.44652986  0.92867806  0.77450862  1.0
  O  O11  1  0.55347014  0.42867806  0.72549138  1.0
  O  O12  1  0.31187970  0.35379687  -0.01113774  1.0
  O  O13  1  0.68812030  0.85379687  0.51113774  1.0
  O  O14  1  0.68812030  0.64620313  1.01113774  1.0
  O  O15  1  0.31187970  0.14620313  0.48886226  1.0
  O  O16  1  0.50000000  0.00000000  0.00000000  1.0
  O  O17  1  0.50000000  0.50000000  0.50000000  1.0
  Cd  Cd18  1  0.79070637  0.80548871  0.84066908  1.0
  Cd  Cd19  1  0.20929363  0.30548871  0.65933092  1.0
  Cd  Cd20  1  0.20929363  0.19451129  0.15933092  1.0
  Cd  Cd21  1  0.79070637  0.69451129  0.34066908  1.0
  Cd  Cd22  1  0.69359967  0.38879758  0.92068108  1.0
  Cd  Cd23  1  0.30640033  0.88879758  0.57931892  1.0
  Cd  Cd24  1  0.30640033  0.61120242  0.07931892  1.0
  Cd  Cd25  1  0.69359967  0.11120242  0.42068108  1.0
  Si  Si26  1  0.88422592  0.70903678  0.11923872  1.0
  Si  Si27  1  0.11577408  0.20903678  0.38076128  1.0
  Si  Si28  1  0.11577408  0.29096322  0.88076128  1.0
  Si  Si29  1  0.88422592  0.79096322  0.61923872  1.0
  Si  Si30  1  0.69378067  0.05733171  0.10837555  1.0
  Si  Si31  1  0.30621933  0.55733171  0.39162445  1.0
  Si  Si32  1  0.30621933  0.94266829  0.89162445  1.0
  Si  Si33  1  0.69378067  0.44266829  0.60837555  1.0
