# generated using pymatgen
data_PbSeO4
_symmetry_space_group_name_H-M   'P 1'
_cell_length_a   7.07753585
_cell_length_b   7.55855188
_cell_length_c   8.89177701
_cell_angle_alpha   90.00000000
_cell_angle_beta   126.71755893
_cell_angle_gamma   90.00000000
_symmetry_Int_Tables_number   1
_chemical_formula_structural   PbSeO4
_chemical_formula_sum   'Pb4 Se4 O16'
_cell_volume   381.29653688
_cell_formula_units_Z   4
loop_
 _symmetry_equiv_pos_site_id
 _symmetry_equiv_pos_as_xyz
  1  'x, y, z'
loop_
 _atom_site_type_symbol
 _atom_site_label
 _atom_site_symmetry_multiplicity
 _atom_site_fract_x
 _atom_site_fract_y
 _atom_site_fract_z
 _atom_site_occupancy
  Pb  Pb0  1  0.80235112  0.85355087  0.21341151  1.0
  Pb  Pb1  1  0.80235112  0.64644913  0.71341151  1.0
  Pb  Pb2  1  0.19764888  0.35355087  0.28658849  1.0
  Pb  Pb3  1  0.19764888  0.14644913  0.78658849  1.0
  Se  Se4  1  0.68937934  0.33687295  0.30420028  1.0
  Se  Se5  1  0.68937934  0.16312705  0.80420028  1.0
  Se  Se6  1  0.31062066  0.83687295  0.19579972  1.0
  Se  Se7  1  0.31062066  0.66312705  0.69579972  1.0
  O  O8  1  0.41274416  0.29362772  0.11947144  1.0
  O  O9  1  0.41274416  0.20637228  0.61947144  1.0
  O  O10  1  0.58725584  0.79362772  0.38052856  1.0
  O  O11  1  0.58725584  0.70637228  0.88052856  1.0
  O  O12  1  0.86636689  0.15917338  0.38243007  1.0
  O  O13  1  0.86636689  0.34082662  0.88243007  1.0
  O  O14  1  0.13363311  0.65917338  0.11756993  1.0
  O  O15  1  0.13363311  0.84082662  0.61756993  1.0
  O  O16  1  0.81768209  0.49426128  0.26314226  1.0
  O  O17  1  0.81768209  0.00573872  0.76314226  1.0
  O  O18  1  0.18231791  0.99426128  0.23685774  1.0
  O  O19  1  0.18231791  0.50573872  0.73685774  1.0
  O  O20  1  0.65303367  0.39457944  0.46889946  1.0
  O  O21  1  0.65303367  0.10542056  0.96889946  1.0
  O  O22  1  0.34696633  0.89457944  0.03110054  1.0
  O  O23  1  0.34696633  0.60542056  0.53110054  1.0
