# generated using pymatgen
data_NaTi4(GeO6)2
_symmetry_space_group_name_H-M   'P 1'
_cell_length_a   12.19096479
_cell_length_b   12.19096479
_cell_length_c   4.90142481
_cell_angle_alpha   90.00000000
_cell_angle_beta   90.00000000
_cell_angle_gamma   90.00000000
_symmetry_Int_Tables_number   1
_chemical_formula_structural   NaTi4(GeO6)2
_chemical_formula_sum   'Na2 Ti8 Ge4 O24'
_cell_volume   728.44790535
_cell_formula_units_Z   2
loop_
 _symmetry_equiv_pos_site_id
 _symmetry_equiv_pos_as_xyz
  1  'x, y, z'
loop_
 _atom_site_type_symbol
 _atom_site_label
 _atom_site_symmetry_multiplicity
 _atom_site_fract_x
 _atom_site_fract_y
 _atom_site_fract_z
 _atom_site_occupancy
  Na  Na0  1  0.50000000  0.50000000  0.00000000  1.0
  Na  Na1  1  0.00000000  0.00000000  0.00000000  1.0
  Ti  Ti2  1  0.14829967  0.35170033  0.90972637  1.0
  Ti  Ti3  1  0.14829967  0.64829967  0.90972637  1.0
  Ti  Ti4  1  0.64829967  0.85170033  0.09027363  1.0
  Ti  Ti5  1  0.64829967  0.14829967  0.09027363  1.0
  Ti  Ti6  1  0.35170033  0.14829967  0.09027363  1.0
  Ti  Ti7  1  0.35170033  0.85170033  0.09027363  1.0
  Ti  Ti8  1  0.85170033  0.64829967  0.90972637  1.0
  Ti  Ti9  1  0.85170033  0.35170033  0.90972637  1.0
  Ge  Ge10  1  0.75000000  0.25000000  0.50000000  1.0
  Ge  Ge11  1  0.75000000  0.75000000  0.50000000  1.0
  Ge  Ge12  1  0.25000000  0.75000000  0.50000000  1.0
  Ge  Ge13  1  0.25000000  0.25000000  0.50000000  1.0
  O  O14  1  0.22654139  0.87674076  0.25959571  1.0
  O  O15  1  0.22654139  0.12325924  0.25959571  1.0
  O  O16  1  0.72654139  0.37674076  0.74040429  1.0
  O  O17  1  0.72654139  0.62325924  0.74040429  1.0
  O  O18  1  0.87674076  0.22654139  0.74040429  1.0
  O  O19  1  0.87674076  0.77345861  0.74040429  1.0
  O  O20  1  0.37674076  0.72654139  0.25959571  1.0
  O  O21  1  0.37674076  0.27345861  0.25959571  1.0
  O  O22  1  0.77345861  0.87674076  0.25959571  1.0
  O  O23  1  0.77345861  0.12325924  0.25959571  1.0
  O  O24  1  0.27345861  0.37674076  0.74040429  1.0
  O  O25  1  0.27345861  0.62325924  0.74040429  1.0
  O  O26  1  0.12325924  0.22654139  0.74040429  1.0
  O  O27  1  0.12325924  0.77345861  0.74040429  1.0
  O  O28  1  0.62325924  0.72654139  0.25959571  1.0
  O  O29  1  0.62325924  0.27345861  0.25959571  1.0
  O  O30  1  0.33757863  0.16242137  0.72968263  1.0
  O  O31  1  0.33757863  0.83757863  0.72968263  1.0
  O  O32  1  0.83757863  0.66242137  0.27031737  1.0
  O  O33  1  0.83757863  0.33757863  0.27031737  1.0
  O  O34  1  0.16242137  0.33757863  0.27031737  1.0
  O  O35  1  0.16242137  0.66242137  0.27031737  1.0
  O  O36  1  0.66242137  0.83757863  0.72968263  1.0
  O  O37  1  0.66242137  0.16242137  0.72968263  1.0
