# generated using pymatgen
data_Ti2Co
_symmetry_space_group_name_H-M   'P 1'
_cell_length_a   7.93224004
_cell_length_b   7.93224004
_cell_length_c   7.93224004
_cell_angle_alpha   60.00000000
_cell_angle_beta   60.00000000
_cell_angle_gamma   60.00000000
_symmetry_Int_Tables_number   1
_chemical_formula_structural   Ti2Co
_chemical_formula_sum   'Ti16 Co8'
_cell_volume   352.91697317
_cell_formula_units_Z   8
loop_
 _symmetry_equiv_pos_site_id
 _symmetry_equiv_pos_as_xyz
  1  'x, y, z'
loop_
 _atom_site_type_symbol
 _atom_site_label
 _atom_site_symmetry_multiplicity
 _atom_site_fract_x
 _atom_site_fract_y
 _atom_site_fract_z
 _atom_site_occupancy
  Ti  Ti0  1  0.62500000  1.12500000  0.12500000  1.0
  Ti  Ti1  1  0.12500000  1.62500000  0.12500000  1.0
  Ti  Ti2  1  0.12500000  0.12500000  1.62500000  1.0
  Ti  Ti3  1  0.12500000  0.12500000  0.12500000  1.0
  Ti  Ti4  1  0.31296405  1.31296405  -0.31296405  1.0
  Ti  Ti5  1  0.68703595  0.68703595  -0.68703595  1.0
  Ti  Ti6  1  0.31296405  -0.31296405  0.31296405  1.0
  Ti  Ti7  1  0.68703595  -0.68703595  0.68703595  1.0
  Ti  Ti8  1  -0.31296405  0.31296405  0.31296405  1.0
  Ti  Ti9  1  -0.68703595  0.68703595  0.68703595  1.0
  Ti  Ti10  1  0.93703595  0.93703595  -0.43703595  1.0
  Ti  Ti11  1  -0.43703595  0.56296405  0.93703595  1.0
  Ti  Ti12  1  0.93703595  0.56296405  0.93703595  1.0
  Ti  Ti13  1  0.56296405  0.93703595  0.56296405  1.0
  Ti  Ti14  1  0.56296405  0.93703595  -0.06296405  1.0
  Ti  Ti15  1  0.93703595  0.56296405  -0.43703595  1.0
  Co  Co16  1  -0.02739680  1.34246560  0.34246560  1.0
  Co  Co17  1  0.34246560  0.97260320  0.34246560  1.0
  Co  Co18  1  0.34246560  1.34246560  -0.02739680  1.0
  Co  Co19  1  0.34246560  1.34246560  0.34246560  1.0
  Co  Co20  1  -0.72260320  0.90753440  0.90753440  1.0
  Co  Co21  1  0.90753440  -0.72260320  0.90753440  1.0
  Co  Co22  1  0.90753440  0.90753440  -0.72260320  1.0
  Co  Co23  1  0.90753440  0.90753440  0.90753440  1.0
