# generated using pymatgen
data_MoPb
_symmetry_space_group_name_H-M   'P 1'
_cell_length_a   5.33077111
_cell_length_b   5.33077111
_cell_length_c   5.33077111
_cell_angle_alpha   132.09907857
_cell_angle_beta   132.09907857
_cell_angle_gamma   70.07258801
_symmetry_Int_Tables_number   1
_chemical_formula_structural   MoPb
_chemical_formula_sum   'Mo2 Pb2'
_cell_volume   81.75977962
_cell_formula_units_Z   2
loop_
 _symmetry_equiv_pos_site_id
 _symmetry_equiv_pos_as_xyz
  1  'x, y, z'
loop_
 _atom_site_type_symbol
 _atom_site_label
 _atom_site_symmetry_multiplicity
 _atom_site_fract_x
 _atom_site_fract_y
 _atom_site_fract_z
 _atom_site_occupancy
  Mo  Mo0  1  0.75000000  0.25000000  0.50000000  1.0
  Mo  Mo1  1  -0.00000000  -0.00000000  -0.00000000  1.0
  Pb  Pb2  1  0.25000000  0.75000000  0.50000000  1.0
  Pb  Pb3  1  0.50000000  0.50000000  1.00000000  1.0
