# generated using pymatgen
data_CsEuSiS4
_symmetry_space_group_name_H-M   'P 1'
_cell_length_a   6.61202413
_cell_length_b   6.84212321
_cell_length_c   18.02580233
_cell_angle_alpha   90.00000000
_cell_angle_beta   90.00000000
_cell_angle_gamma   90.00000000
_symmetry_Int_Tables_number   1
_chemical_formula_structural   CsEuSiS4
_chemical_formula_sum   'Cs4 Eu4 Si4 S16'
_cell_volume   815.49241258
_cell_formula_units_Z   4
loop_
 _symmetry_equiv_pos_site_id
 _symmetry_equiv_pos_as_xyz
  1  'x, y, z'
loop_
 _atom_site_type_symbol
 _atom_site_label
 _atom_site_symmetry_multiplicity
 _atom_site_fract_x
 _atom_site_fract_y
 _atom_site_fract_z
 _atom_site_occupancy
  Si  Si0  1  0.28790133  0.98384109  0.66692595  1.0
  Si  Si1  1  0.78790133  0.51615891  0.33307405  1.0
  Si  Si2  1  0.71209867  0.48384109  0.83307405  1.0
  Si  Si3  1  0.21209867  0.01615891  0.16692595  1.0
  Cs  Cs4  1  0.47669513  0.49554815  0.53338794  1.0
  Cs  Cs5  1  -0.02330487  0.00445185  0.46661206  1.0
  Cs  Cs6  1  0.52330487  0.99554815  0.96661206  1.0
  Cs  Cs7  1  1.02330487  0.50445185  0.03338794  1.0
  S  S8  1  0.45836682  0.48889815  0.90493129  1.0
  S  S9  1  0.95836682  0.01110185  0.09506871  1.0
  S  S10  1  0.54163318  0.98889815  0.59506871  1.0
  S  S11  1  0.04163318  0.51110185  0.40493129  1.0
  S  S12  1  0.07168156  0.75818260  0.64522343  1.0
  S  S13  1  0.57168156  0.74181740  0.35477657  1.0
  S  S14  1  0.92831844  0.25818260  0.85477657  1.0
  S  S15  1  0.42831844  0.24181740  0.14522343  1.0
  S  S16  1  0.38599595  0.75289148  0.15666024  1.0
  S  S17  1  0.88599595  0.74710852  0.84333976  1.0
  S  S18  1  0.61400405  0.25289148  0.34333976  1.0
  S  S19  1  0.11400405  0.24710852  0.65666024  1.0
  S  S20  1  0.39271657  0.92654482  0.77696792  1.0
  S  S21  1  0.89271657  0.57345518  0.22303208  1.0
  S  S22  1  0.60728343  0.42654482  0.72303208  1.0
  S  S23  1  0.10728343  0.07345518  0.27696792  1.0
  Eu  Eu24  1  0.21076082  0.53188001  0.77462153  1.0
  Eu  Eu25  1  0.71076082  0.96811999  0.22537847  1.0
  Eu  Eu26  1  0.78923918  0.03188001  0.72537847  1.0
  Eu  Eu27  1  0.28923918  0.46811999  0.27462153  1.0
