# generated using pymatgen
data_CaAl12Si4O27
_symmetry_space_group_name_H-M   'P 1'
_cell_length_a   7.31588864
_cell_length_b   7.31588864
_cell_length_c   8.69773553
_cell_angle_alpha   90.00000000
_cell_angle_beta   90.00000000
_cell_angle_gamma   120.00000000
_symmetry_Int_Tables_number   1
_chemical_formula_structural   CaAl12Si4O27
_chemical_formula_sum   'Ca1 Al12 Si4 O27'
_cell_volume   403.15402710
_cell_formula_units_Z   1
loop_
 _symmetry_equiv_pos_site_id
 _symmetry_equiv_pos_as_xyz
  1  'x, y, z'
loop_
 _atom_site_type_symbol
 _atom_site_label
 _atom_site_symmetry_multiplicity
 _atom_site_fract_x
 _atom_site_fract_y
 _atom_site_fract_z
 _atom_site_occupancy
  Ca  Ca0  1  -0.00000000  -0.00000000  0.50000000  1.0
  Al  Al1  1  0.79306979  0.74315967  0.14703054  1.0
  Al  Al2  1  0.74315967  0.95008988  0.85296946  1.0
  Al  Al3  1  0.95008988  0.20693021  0.14703054  1.0
  Al  Al4  1  0.25684033  0.04991012  0.14703054  1.0
  Al  Al5  1  0.20693021  0.25684033  0.85296946  1.0
  Al  Al6  1  0.04991012  0.79306979  0.85296946  1.0
  Al  Al7  1  0.08578861  0.63263610  0.36515811  1.0
  Al  Al8  1  0.63263610  0.54684749  0.63484189  1.0
  Al  Al9  1  0.54684749  0.91421139  0.36515811  1.0
  Al  Al10  1  0.36736390  0.45315251  0.36515811  1.0
  Al  Al11  1  0.91421139  0.36736390  0.63484189  1.0
  Al  Al12  1  0.45315251  0.08578861  0.63484189  1.0
  Si  Si13  1  0.33333333  0.66666667  0.05329124  1.0
  Si  Si14  1  0.66666667  0.33333333  0.94670876  1.0
  Si  Si15  1  0.33333333  0.66666667  0.64123502  1.0
  Si  Si16  1  0.66666667  0.33333333  0.35876498  1.0
  O  O17  1  0.30204547  0.84489780  0.50065495  1.0
  O  O18  1  0.84489780  0.54285232  0.49934505  1.0
  O  O19  1  0.54285232  0.69795453  0.50065495  1.0
  O  O20  1  0.15510220  0.45714768  0.50065495  1.0
  O  O21  1  0.69795453  0.15510220  0.49934505  1.0
  O  O22  1  0.45714768  0.30204547  0.49934505  1.0
  O  O23  1  0.25446514  0.83389579  0.00812070  1.0
  O  O24  1  0.83389579  0.57943065  0.99187930  1.0
  O  O25  1  0.57943065  0.74553486  0.00812070  1.0
  O  O26  1  0.16610421  0.42056935  0.00812070  1.0
  O  O27  1  0.74553486  0.16610421  0.99187930  1.0
  O  O28  1  0.42056935  0.25446514  0.99187930  1.0
  O  O29  1  0.04475978  0.82014987  0.25934571  1.0
  O  O30  1  0.82014987  0.77539010  0.74065429  1.0
  O  O31  1  0.77539010  0.95524022  0.25934571  1.0
  O  O32  1  0.17985013  0.22460990  0.25934571  1.0
  O  O33  1  0.95524022  0.17985013  0.74065429  1.0
  O  O34  1  0.22460990  0.04475978  0.74065429  1.0
  O  O35  1  0.61202555  0.50802412  0.26177253  1.0
  O  O36  1  0.50802412  0.89599857  0.73822747  1.0
  O  O37  1  0.89599857  0.38797445  0.26177253  1.0
  O  O38  1  0.49197588  0.10400143  0.26177253  1.0
  O  O39  1  0.38797445  0.49197588  0.73822747  1.0
  O  O40  1  0.10400142  0.61202555  0.73822747  1.0
  O  O41  1  0.33333333  0.66666667  0.25054974  1.0
  O  O42  1  0.66666667  0.33333333  0.74945026  1.0
  O  O43  1  -0.00000000  -0.00000000  -0.00000000  1.0
