# generated using pymatgen
data_Al2O3
_symmetry_space_group_name_H-M   'P 1'
_cell_length_a   4.88986551
_cell_length_b   8.40503198
_cell_length_c   9.03748122
_cell_angle_alpha   90.00000000
_cell_angle_beta   90.00000000
_cell_angle_gamma   90.00000000
_symmetry_Int_Tables_number   1
_chemical_formula_structural   Al2O3
_chemical_formula_sum   'Al16 O24'
_cell_volume   371.43574217
_cell_formula_units_Z   8
loop_
 _symmetry_equiv_pos_site_id
 _symmetry_equiv_pos_as_xyz
  1  'x, y, z'
loop_
 _atom_site_type_symbol
 _atom_site_label
 _atom_site_symmetry_multiplicity
 _atom_site_fract_x
 _atom_site_fract_y
 _atom_site_fract_z
 _atom_site_occupancy
  Al  Al0  1  0.18421089  0.66016067  0.01623812  1.0
  Al  Al1  1  0.81578911  0.33983933  0.51623812  1.0
  Al  Al2  1  0.31578911  0.16016067  0.51623812  1.0
  Al  Al3  1  0.68421089  0.83983933  0.01623812  1.0
  Al  Al4  1  0.68645543  0.15365960  0.79461409  1.0
  Al  Al5  1  0.31354457  0.84634040  0.29461409  1.0
  Al  Al6  1  0.81354457  0.65365960  0.29461409  1.0
  Al  Al7  1  0.18645543  0.34634040  0.79461409  1.0
  Al  Al8  1  0.32304431  0.84763454  0.70706210  1.0
  Al  Al9  1  0.67695569  0.15236546  0.20706210  1.0
  Al  Al10  1  0.17695569  0.34763454  0.20706210  1.0
  Al  Al11  1  0.82304431  0.65236546  0.70706210  1.0
  Al  Al12  1  0.17347447  0.03091481  1.00609664  1.0
  Al  Al13  1  0.82652553  0.96908519  0.50609664  1.0
  Al  Al14  1  0.32652553  0.53091481  0.50609664  1.0
  Al  Al15  1  0.67347447  0.46908519  1.00609664  1.0
  O  O16  1  0.84384610  0.66089836  0.90593785  1.0
  O  O17  1  0.15615390  0.33910164  0.40593785  1.0
  O  O18  1  0.65615390  0.16089836  0.40593785  1.0
  O  O19  1  0.34384610  0.83910164  0.90593785  1.0
  O  O20  1  0.52203904  0.01183195  0.64167241  1.0
  O  O21  1  0.47796096  0.98816805  0.14167241  1.0
  O  O22  1  0.97796096  0.51183195  0.14167241  1.0
  O  O23  1  0.02203904  0.48816805  0.64167241  1.0
  O  O24  1  0.98145754  0.83134449  0.64742301  1.0
  O  O25  1  0.01854246  0.16865551  0.14742301  1.0
  O  O26  1  0.51854246  0.33134449  0.14742301  1.0
  O  O27  1  0.48145754  0.66865551  0.64742301  1.0
  O  O28  1  0.02136893  0.82420012  0.13484514  1.0
  O  O29  1  0.97863107  0.17579988  0.63484514  1.0
  O  O30  1  0.47863107  0.32420012  0.63484514  1.0
  O  O31  1  0.52136893  0.67579988  0.13484514  1.0
  O  O32  1  0.34340491  0.16873390  0.88003011  1.0
  O  O33  1  0.65659509  0.83126610  0.38003011  1.0
  O  O34  1  0.15659509  0.66873390  0.38003011  1.0
  O  O35  1  0.84340491  0.33126610  0.88003011  1.0
  O  O36  1  0.84328269  0.00110131  -0.08781946  1.0
  O  O37  1  0.15671731  0.99889869  0.41218054  1.0
  O  O38  1  0.65671731  0.50110131  0.41218054  1.0
  O  O39  1  0.34328269  0.49889869  -0.08781946  1.0
