# generated using pymatgen
data_GaFe2CuSe4
_symmetry_space_group_name_H-M   'P 1'
_cell_length_a   6.94193511
_cell_length_b   6.94193511
_cell_length_c   6.94193511
_cell_angle_alpha   131.98765436
_cell_angle_beta   131.98765436
_cell_angle_gamma   70.24852617
_symmetry_Int_Tables_number   1
_chemical_formula_structural   GaFe2CuSe4
_chemical_formula_sum   'Ga1 Fe2 Cu1 Se4'
_cell_volume   181.15146973
_cell_formula_units_Z   1
loop_
 _symmetry_equiv_pos_site_id
 _symmetry_equiv_pos_as_xyz
  1  'x, y, z'
loop_
 _atom_site_type_symbol
 _atom_site_label
 _atom_site_symmetry_multiplicity
 _atom_site_fract_x
 _atom_site_fract_y
 _atom_site_fract_z
 _atom_site_occupancy
  Ga  Ga0  1  0.00000000  0.00000000  0.00000000  1.0
  Fe  Fe1  1  0.25000000  0.75000000  0.50000000  1.0
  Fe  Fe2  1  0.75000000  0.25000000  0.50000000  1.0
  Cu  Cu3  1  0.50000000  0.50000000  1.00000000  1.0
  Se  Se4  1  0.37920436  0.87278758  1.00000000  1.0
  Se  Se5  1  1.12721242  1.12721242  1.50641678  1.0
  Se  Se6  1  0.62079564  0.62079564  0.49358322  1.0
  Se  Se7  1  0.87278758  0.37920436  1.00000000  1.0
