# generated using pymatgen
data_Gd4(SiS4)3
_symmetry_space_group_name_H-M   'P 1'
_cell_length_a   11.33197269
_cell_length_b   11.33197269
_cell_length_c   11.33197269
_cell_angle_alpha   114.87826504
_cell_angle_beta   114.87826504
_cell_angle_gamma   114.87826504
_symmetry_Int_Tables_number   1
_chemical_formula_structural   Gd4(SiS4)3
_chemical_formula_sum   'Gd8 Si6 S24'
_cell_volume   823.36181482
_cell_formula_units_Z   2
loop_
 _symmetry_equiv_pos_site_id
 _symmetry_equiv_pos_as_xyz
  1  'x, y, z'
loop_
 _atom_site_type_symbol
 _atom_site_label
 _atom_site_symmetry_multiplicity
 _atom_site_fract_x
 _atom_site_fract_y
 _atom_site_fract_z
 _atom_site_occupancy
  Gd  Gd0  1  0.47321591  -0.06390941  -0.28548498  1.0
  Gd  Gd1  1  0.43609059  0.97321591  -0.78548498  1.0
  Gd  Gd2  1  0.97321591  0.21451502  0.43609059  1.0
  Gd  Gd3  1  0.71451502  0.47321591  -0.06390941  1.0
  Gd  Gd4  1  1.21451502  1.43609059  -0.02678409  1.0
  Gd  Gd5  1  0.93609059  0.71451502  0.47321591  1.0
  Gd  Gd6  1  -0.00922190  -0.00922190  -0.00922190  1.0
  Gd  Gd7  1  0.49077810  0.49077810  0.49077810  1.0
  Si  Si8  1  0.64168372  0.85349658  -0.53116716  1.0
  Si  Si9  1  0.35349658  0.14168372  -0.03116716  1.0
  Si  Si10  1  1.14168372  0.96883284  0.35349658  1.0
  Si  Si11  1  1.46883284  0.64168372  0.85349658  1.0
  Si  Si12  1  0.96883284  0.35349658  0.14168372  1.0
  Si  Si13  1  0.85349658  0.46883284  0.64168372  1.0
  S  S14  1  0.85299352  1.12269787  -0.41401010  1.0
  S  S15  1  0.62269787  0.35299352  0.08598990  1.0
  S  S16  1  0.35299352  0.08598990  -0.37730213  1.0
  S  S17  1  0.58598990  -0.14700648  0.12269787  1.0
  S  S18  1  1.08598990  0.62269787  0.35299352  1.0
  S  S19  1  1.12269787  0.58598990  0.85299352  1.0
  S  S20  1  0.67686654  0.86417590  -0.32140797  1.0
  S  S21  1  0.36417590  0.17686654  0.17859203  1.0
  S  S22  1  1.17686654  1.17859203  0.36417590  1.0
  S  S23  1  0.67859203  -0.32313346  -0.13582410  1.0
  S  S24  1  1.17859203  0.36417590  0.17686654  1.0
  S  S25  1  0.86417590  0.67859203  0.67686654  1.0
  S  S26  1  0.80923540  0.27830415  -0.11184009  1.0
  S  S27  1  0.77830415  0.30923540  0.38815991  1.0
  S  S28  1  1.30923540  0.38815991  0.77830415  1.0
  S  S29  1  0.88815991  0.80923540  0.27830415  1.0
  S  S30  1  0.38815991  0.77830415  -0.69076460  1.0
  S  S31  1  1.27830415  0.88815991  0.80923540  1.0
  S  S32  1  0.79879863  0.11880309  0.08807031  1.0
  S  S33  1  0.61880309  1.29879863  -0.41192969  1.0
  S  S34  1  1.29879863  0.58807031  0.61880309  1.0
  S  S35  1  1.08807031  0.79879863  0.11880309  1.0
  S  S36  1  0.58807031  0.61880309  -0.70120137  1.0
  S  S37  1  1.11880309  1.08807031  0.79879863  1.0
