# generated using pymatgen
data_Ca5MnSi9(Pb3O11)3
_symmetry_space_group_name_H-M   'P 1'
_cell_length_a   9.95401855
_cell_length_b   9.95401855
_cell_length_c   10.28397873
_cell_angle_alpha   90.00000000
_cell_angle_beta   90.00000000
_cell_angle_gamma   120.00000000
_symmetry_Int_Tables_number   1
_chemical_formula_structural   Ca5MnSi9(Pb3O11)3
_chemical_formula_sum   'Ca5 Mn1 Si9 Pb9 O33'
_cell_volume   882.44712529
_cell_formula_units_Z   1
loop_
 _symmetry_equiv_pos_site_id
 _symmetry_equiv_pos_as_xyz
  1  'x, y, z'
loop_
 _atom_site_type_symbol
 _atom_site_label
 _atom_site_symmetry_multiplicity
 _atom_site_fract_x
 _atom_site_fract_y
 _atom_site_fract_z
 _atom_site_occupancy
  Ca  Ca0  1  0.66666667  0.33333333  0.66069726  1.0
  Ca  Ca1  1  0.66666667  0.33333333  0.33930274  1.0
  Ca  Ca2  1  -0.00000000  -0.00000000  0.67901714  1.0
  Ca  Ca3  1  -0.00000000  -0.00000000  0.32098286  1.0
  Ca  Ca4  1  0.66666667  0.33333333  0.00000000  1.0
  Mn  Mn5  1  -0.00000000  -0.00000000  -0.00000000  1.0
  Si  Si6  1  0.71544706  0.64668828  0.85170164  1.0
  Si  Si7  1  0.93124122  0.28455294  0.85170164  1.0
  Si  Si8  1  0.35331172  0.06875878  0.85170164  1.0
  Si  Si9  1  0.71544706  0.64668828  0.14829836  1.0
  Si  Si10  1  0.93124122  0.28455294  0.14829836  1.0
  Si  Si11  1  0.35331172  0.06875878  0.14829836  1.0
  Si  Si12  1  0.30945002  0.25792640  0.50000000  1.0
  Si  Si13  1  0.94847638  0.69054998  0.50000000  1.0
  Si  Si14  1  0.74207360  0.05152362  0.50000000  1.0
  Pb  Pb15  1  0.33361903  0.39600675  0.82400966  1.0
  Pb  Pb16  1  0.06238772  0.66638097  0.82400966  1.0
  Pb  Pb17  1  0.60399325  0.93761228  0.82400966  1.0
  Pb  Pb18  1  0.33361903  0.39600675  0.17599034  1.0
  Pb  Pb19  1  0.06238772  0.66638097  0.17599034  1.0
  Pb  Pb20  1  0.60399325  0.93761228  0.17599034  1.0
  Pb  Pb21  1  0.08094409  0.40036380  0.50000000  1.0
  Pb  Pb22  1  0.31941971  0.91905591  0.50000000  1.0
  Pb  Pb23  1  0.59963620  0.68058029  0.50000000  1.0
  O  O24  1  0.57246781  0.59860735  0.74848432  1.0
  O  O25  1  0.02613955  0.42753219  0.74848432  1.0
  O  O26  1  0.40139265  0.97386045  0.74848432  1.0
  O  O27  1  0.57246781  0.59860735  0.25151568  1.0
  O  O28  1  0.02613955  0.42753219  0.25151568  1.0
  O  O29  1  0.40139265  0.97386045  0.25151568  1.0
  O  O30  1  0.79158964  0.53263375  0.82999558  1.0
  O  O31  1  0.74104411  0.20841036  0.82999558  1.0
  O  O32  1  0.46736625  0.25895589  0.82999558  1.0
  O  O33  1  0.79158964  0.53263375  0.17000442  1.0
  O  O34  1  0.74104411  0.20841036  0.17000442  1.0
  O  O35  1  0.46736625  0.25895589  0.17000442  1.0
  O  O36  1  0.84739821  0.82784488  0.84954373  1.0
  O  O37  1  0.98044667  0.15260179  0.84954373  1.0
  O  O38  1  0.17215512  0.01955333  0.84954373  1.0
  O  O39  1  0.84739821  0.82784488  0.15045627  1.0
  O  O40  1  0.98044667  0.15260179  0.15045627  1.0
  O  O41  1  0.17215512  0.01955333  0.15045627  1.0
  O  O42  1  0.63025131  0.59250654  0.00000000  1.0
  O  O43  1  0.96225524  0.36974869  0.00000000  1.0
  O  O44  1  0.40749346  0.03774476  0.00000000  1.0
  O  O45  1  0.49380917  0.32322763  0.50000000  1.0
  O  O46  1  0.82941846  0.50619083  0.50000000  1.0
  O  O47  1  0.67677237  0.17058154  0.50000000  1.0
  O  O48  1  0.20394228  0.06596149  0.50000000  1.0
  O  O49  1  0.86201921  0.79605772  0.50000000  1.0
  O  O50  1  0.93403851  0.13798079  0.50000000  1.0
  O  O51  1  0.24573422  0.31675436  0.62440522  1.0
  O  O52  1  0.07102015  0.75426578  0.62440522  1.0
  O  O53  1  0.68324564  0.92897985  0.62440522  1.0
  O  O54  1  0.24573422  0.31675436  0.37559478  1.0
  O  O55  1  0.07102015  0.75426578  0.37559478  1.0
  O  O56  1  0.68324564  0.92897985  0.37559478  1.0
