# generated using pymatgen
data_CsH2CO3
_symmetry_space_group_name_H-M   'P 1'
_cell_length_a   6.14484704
_cell_length_b   11.12502659
_cell_length_c   6.40891858
_cell_angle_alpha   90.00000000
_cell_angle_beta   109.28392795
_cell_angle_gamma   90.00000000
_symmetry_Int_Tables_number   1
_chemical_formula_structural   CsH2CO3
_chemical_formula_sum   'Cs4 H8 C4 O12'
_cell_volume   413.54230354
_cell_formula_units_Z   4
loop_
 _symmetry_equiv_pos_site_id
 _symmetry_equiv_pos_as_xyz
  1  'x, y, z'
loop_
 _atom_site_type_symbol
 _atom_site_label
 _atom_site_symmetry_multiplicity
 _atom_site_fract_x
 _atom_site_fract_y
 _atom_site_fract_z
 _atom_site_occupancy
  Cs  Cs0  1  0.61255586  0.61170223  0.79558265  1.0
  Cs  Cs1  1  0.61255586  0.88829777  0.29558265  1.0
  Cs  Cs2  1  0.38744414  0.11170223  0.70441735  1.0
  Cs  Cs3  1  0.38744414  0.38829777  0.20441735  1.0
  H  H4  1  0.84429886  0.23718971  0.56073454  1.0
  H  H5  1  0.84429886  0.26281029  0.06073454  1.0
  H  H6  1  0.15570114  0.73718971  0.93926546  1.0
  H  H7  1  0.15570114  0.76281029  0.43926546  1.0
  H  H8  1  0.83820420  0.35510274  0.87305139  1.0
  H  H9  1  0.83820420  0.14489726  0.37305139  1.0
  H  H10  1  0.16179580  0.85510274  0.62694861  1.0
  H  H11  1  0.16179580  0.64489726  0.12694861  1.0
  C  C12  1  0.97677678  0.93961557  0.93056901  1.0
  C  C13  1  0.97677678  0.56038443  0.43056901  1.0
  C  C14  1  0.02322322  0.43961557  0.56943099  1.0
  C  C15  1  0.02322322  0.06038443  0.06943099  1.0
  O  O16  1  0.84787092  0.39401065  0.60614353  1.0
  O  O17  1  0.84787092  0.10598935  0.10614353  1.0
  O  O18  1  0.15212908  0.89401065  0.89385647  1.0
  O  O19  1  0.15212908  0.60598935  0.39385647  1.0
  O  O20  1  0.77659878  0.89670598  0.86811293  1.0
  O  O21  1  0.77659878  0.60329402  0.36811293  1.0
  O  O22  1  0.22340122  0.39670598  0.63188707  1.0
  O  O23  1  0.22340122  0.10329402  0.13188707  1.0
  O  O24  1  0.17978829  0.65085959  0.97947300  1.0
  O  O25  1  0.17978829  0.84914041  0.47947300  1.0
  O  O26  1  0.82021171  0.15085959  0.52052700  1.0
  O  O27  1  0.82021171  0.34914041  0.02052700  1.0
