# generated using pymatgen
data_CsLa(WO4)2
_symmetry_space_group_name_H-M   'P 1'
_cell_length_a   7.82245090
_cell_length_b   7.82245090
_cell_length_c   7.88322986
_cell_angle_alpha   62.37069400
_cell_angle_beta   117.62930600
_cell_angle_gamma   90.74169712
_symmetry_Int_Tables_number   1
_chemical_formula_structural   CsLa(WO4)2
_chemical_formula_sum   'Cs2 La2 W4 O16'
_cell_volume   365.87024000
_cell_formula_units_Z   2
loop_
 _symmetry_equiv_pos_site_id
 _symmetry_equiv_pos_as_xyz
  1  'x, y, z'
loop_
 _atom_site_type_symbol
 _atom_site_label
 _atom_site_symmetry_multiplicity
 _atom_site_fract_x
 _atom_site_fract_y
 _atom_site_fract_z
 _atom_site_occupancy
  Cs  Cs0  1  0.19506317  0.19506317  0.25000000  1.0
  Cs  Cs1  1  0.80493683  0.80493683  0.75000000  1.0
  La  La2  1  0.77403775  0.77403775  0.25000000  1.0
  La  La3  1  0.22596225  0.22596225  0.75000000  1.0
  W  W4  1  0.68976768  0.31312362  0.22751598  1.0
  W  W5  1  0.68687638  0.31023232  0.72751598  1.0
  W  W6  1  1.31312362  -0.31023232  0.27248402  1.0
  W  W7  1  1.31023232  -0.31312362  0.77248402  1.0
  O  O8  1  1.58131348  -0.37416672  0.02832599  1.0
  O  O9  1  1.37416672  -0.58131348  0.52832599  1.0
  O  O10  1  0.62583328  0.58131348  0.47167401  1.0
  O  O11  1  0.41868652  0.37416672  0.97167401  1.0
  O  O12  1  0.78098499  0.06520490  0.29498044  1.0
  O  O13  1  0.93479510  0.21901501  0.79498044  1.0
  O  O14  1  1.06520490  -0.21901501  0.20501956  1.0
  O  O15  1  1.21901501  -0.06520490  0.70501956  1.0
  O  O16  1  1.38229719  -0.07816242  0.13900133  1.0
  O  O17  1  1.07816242  -0.38229719  0.63900133  1.0
  O  O18  1  0.92183758  0.38229719  0.36099867  1.0
  O  O19  1  0.61770281  0.07816242  0.86099867  1.0
  O  O20  1  0.61689800  0.25043418  0.42873708  1.0
  O  O21  1  0.74956582  0.38310200  0.92873708  1.0
  O  O22  1  1.25043418  -0.38310200  0.07126292  1.0
  O  O23  1  1.38310200  -0.25043418  0.57126292  1.0
