# generated using pymatgen
data_Ba5V3ClO12
_symmetry_space_group_name_H-M   'P 1'
_cell_length_a   10.71182951
_cell_length_b   10.71182951
_cell_length_c   7.79827482
_cell_angle_alpha   90.00000000
_cell_angle_beta   90.00000000
_cell_angle_gamma   120.00000000
_symmetry_Int_Tables_number   1
_chemical_formula_structural   Ba5V3ClO12
_chemical_formula_sum   'Ba10 V6 Cl2 O24'
_cell_volume   774.91928906
_cell_formula_units_Z   2
loop_
 _symmetry_equiv_pos_site_id
 _symmetry_equiv_pos_as_xyz
  1  'x, y, z'
loop_
 _atom_site_type_symbol
 _atom_site_label
 _atom_site_symmetry_multiplicity
 _atom_site_fract_x
 _atom_site_fract_y
 _atom_site_fract_z
 _atom_site_occupancy
  Ba  Ba0  1  0.99439922  0.74474471  0.25000000  1.0
  Ba  Ba1  1  0.74474471  0.75034549  0.75000000  1.0
  Ba  Ba2  1  0.75034549  0.00560078  0.25000000  1.0
  Ba  Ba3  1  0.25525529  0.24965451  0.25000000  1.0
  Ba  Ba4  1  0.00560078  0.25525529  0.75000000  1.0
  Ba  Ba5  1  0.24965451  0.99439922  0.75000000  1.0
  Ba  Ba6  1  0.33333333  0.66666667  0.50122413  1.0
  Ba  Ba7  1  0.33333333  0.66666667  0.99877587  1.0
  Ba  Ba8  1  0.66666667  0.33333333  0.00122413  1.0
  Ba  Ba9  1  0.66666667  0.33333333  0.49877587  1.0
  V  V10  1  0.37111573  0.96550099  0.25000000  1.0
  V  V11  1  0.96550099  0.59438526  0.75000000  1.0
  V  V12  1  0.59438526  0.62888427  0.25000000  1.0
  V  V13  1  0.03449901  0.40561474  0.25000000  1.0
  V  V14  1  0.62888427  0.03449901  0.75000000  1.0
  V  V15  1  0.40561474  0.37111573  0.75000000  1.0
  Cl  Cl16  1  0.00000000  0.00000000  0.50000000  1.0
  Cl  Cl17  1  0.00000000  0.00000000  0.00000000  1.0
  O  O18  1  0.26032835  0.90509897  0.42608494  1.0
  O  O19  1  0.26032835  0.90509897  0.07391506  1.0
  O  O20  1  0.90509897  0.64477062  0.92608494  1.0
  O  O21  1  0.90509897  0.64477062  0.57391506  1.0
  O  O22  1  0.64477062  0.73967165  0.42608494  1.0
  O  O23  1  0.64477062  0.73967165  0.07391506  1.0
  O  O24  1  0.09490103  0.35522938  0.42608494  1.0
  O  O25  1  0.09490103  0.35522938  0.07391506  1.0
  O  O26  1  0.73967165  0.09490103  0.92608494  1.0
  O  O27  1  0.73967165  0.09490103  0.57391506  1.0
  O  O28  1  0.35522938  0.26032835  0.92608494  1.0
  O  O29  1  0.35522938  0.26032835  0.57391506  1.0
  O  O30  1  0.46848569  0.87590540  0.25000000  1.0
  O  O31  1  0.87590540  0.40741971  0.75000000  1.0
  O  O32  1  0.40741971  0.53151431  0.25000000  1.0
  O  O33  1  0.12409460  0.59258029  0.25000000  1.0
  O  O34  1  0.53151431  0.12409460  0.75000000  1.0
  O  O35  1  0.59258029  0.46848569  0.75000000  1.0
  O  O36  1  0.67106976  0.51993530  0.25000000  1.0
  O  O37  1  0.51993530  0.84886554  0.75000000  1.0
  O  O38  1  0.84886554  0.32893024  0.25000000  1.0
  O  O39  1  0.48006470  0.15113446  0.25000000  1.0
  O  O40  1  0.32893024  0.48006470  0.75000000  1.0
  O  O41  1  0.15113446  0.67106976  0.75000000  1.0
