# generated using pymatgen
data_GdFePO
_symmetry_space_group_name_H-M   'P 1'
_cell_length_a   3.85980167
_cell_length_b   3.85980167
_cell_length_c   8.06992215
_cell_angle_alpha   90.00000000
_cell_angle_beta   90.00000000
_cell_angle_gamma   90.00000000
_symmetry_Int_Tables_number   1
_chemical_formula_structural   GdFePO
_chemical_formula_sum   'Gd2 Fe2 P2 O2'
_cell_volume   120.22625620
_cell_formula_units_Z   2
loop_
 _symmetry_equiv_pos_site_id
 _symmetry_equiv_pos_as_xyz
  1  'x, y, z'
loop_
 _atom_site_type_symbol
 _atom_site_label
 _atom_site_symmetry_multiplicity
 _atom_site_fract_x
 _atom_site_fract_y
 _atom_site_fract_z
 _atom_site_occupancy
  Gd  Gd0  1  0.50000000  0.00000000  0.14707963  1.0
  Gd  Gd1  1  0.00000000  0.50000000  0.85292037  1.0
  Fe  Fe2  1  0.00000000  0.00000000  0.50000000  1.0
  Fe  Fe3  1  0.50000000  0.50000000  0.50000000  1.0
  P  P4  1  0.50000000  0.00000000  0.63368263  1.0
  P  P5  1  0.00000000  0.50000000  0.36631737  1.0
  O  O6  1  0.00000000  0.00000000  0.00000000  1.0
  O  O7  1  0.50000000  0.50000000  0.00000000  1.0
