# generated using pymatgen
data_BaMo2(PO6)2
_symmetry_space_group_name_H-M   'P 1'
_cell_length_a   6.45949715
_cell_length_b   7.29678869
_cell_length_c   10.22809279
_cell_angle_alpha   90.00000000
_cell_angle_beta   94.64644692
_cell_angle_gamma   90.00000000
_symmetry_Int_Tables_number   1
_chemical_formula_structural   BaMo2(PO6)2
_chemical_formula_sum   'Ba2 Mo4 P4 O24'
_cell_volume   480.50232863
_cell_formula_units_Z   2
loop_
 _symmetry_equiv_pos_site_id
 _symmetry_equiv_pos_as_xyz
  1  'x, y, z'
loop_
 _atom_site_type_symbol
 _atom_site_label
 _atom_site_symmetry_multiplicity
 _atom_site_fract_x
 _atom_site_fract_y
 _atom_site_fract_z
 _atom_site_occupancy
  Ba  Ba0  1  0.00000000  0.00000000  0.00000000  1.0
  Ba  Ba1  1  -0.00000000  0.50000000  0.50000000  1.0
  Mo  Mo2  1  0.73086841  0.53119476  0.82679122  1.0
  Mo  Mo3  1  0.73086841  0.96880524  0.32679122  1.0
  Mo  Mo4  1  0.26913159  0.03119476  0.67320878  1.0
  Mo  Mo5  1  0.26913159  0.46880524  0.17320878  1.0
  P  P6  1  0.76309740  0.94055083  0.65528296  1.0
  P  P7  1  0.76309740  0.55944917  0.15528296  1.0
  P  P8  1  0.23690260  0.44055083  0.84471704  1.0
  P  P9  1  0.23690260  0.05944917  0.34471704  1.0
  O  O10  1  0.77199784  0.32072303  0.89998815  1.0
  O  O11  1  0.77199784  0.17927697  0.39998815  1.0
  O  O12  1  0.22800216  0.82072303  0.60001185  1.0
  O  O13  1  0.22800216  0.67927697  0.10001185  1.0
  O  O14  1  0.75382164  0.81836679  0.77894535  1.0
  O  O15  1  0.75382164  0.68163321  0.27894535  1.0
  O  O16  1  0.24617836  0.31836679  0.72105465  1.0
  O  O17  1  0.24617836  0.18163321  0.22105465  1.0
  O  O18  1  0.95331118  0.07248888  0.68084518  1.0
  O  O19  1  0.95331118  0.42751112  0.18084518  1.0
  O  O20  1  0.04668882  0.57248888  0.81915482  1.0
  O  O21  1  0.04668882  0.92751112  0.31915482  1.0
  O  O22  1  0.77680155  0.83280568  0.52634535  1.0
  O  O23  1  0.77680155  0.66719432  0.02634535  1.0
  O  O24  1  0.22319845  0.33280568  0.97365465  1.0
  O  O25  1  0.22319845  0.16719432  0.47365465  1.0
  O  O26  1  0.43638792  0.56495268  0.85461535  1.0
  O  O27  1  0.43638792  0.93504732  0.35461535  1.0
  O  O28  1  0.56361208  0.06495268  0.64538465  1.0
  O  O29  1  0.56361208  0.43504732  0.14538465  1.0
  O  O30  1  0.30599879  0.97468327  0.83638158  1.0
  O  O31  1  0.30599879  0.52531673  0.33638158  1.0
  O  O32  1  0.69400121  0.47468327  0.66361842  1.0
  O  O33  1  0.69400121  0.02531673  0.16361842  1.0
