# generated using pymatgen
data_Hf4Si7Ni4
_symmetry_space_group_name_H-M   'P 1'
_cell_length_a   9.47520463
_cell_length_b   9.47520463
_cell_length_c   9.47520463
_cell_angle_alpha   94.17517115
_cell_angle_beta   94.17517115
_cell_angle_gamma   148.69218733
_symmetry_Int_Tables_number   1
_chemical_formula_structural   Hf4Si7Ni4
_chemical_formula_sum   'Hf8 Si14 Ni8'
_cell_volume   425.64742491
_cell_formula_units_Z   2
loop_
 _symmetry_equiv_pos_site_id
 _symmetry_equiv_pos_as_xyz
  1  'x, y, z'
loop_
 _atom_site_type_symbol
 _atom_site_label
 _atom_site_symmetry_multiplicity
 _atom_site_fract_x
 _atom_site_fract_y
 _atom_site_fract_z
 _atom_site_occupancy
  Hf  Hf0  1  0.00000000  0.80546710  0.80546710  1.0
  Hf  Hf1  1  0.80546710  1.00000000  0.80546710  1.0
  Hf  Hf2  1  1.19453290  1.00000000  1.19453290  1.0
  Hf  Hf3  1  0.00000000  0.19453290  0.19453290  1.0
  Hf  Hf4  1  0.63678190  0.63678190  0.27356380  1.0
  Hf  Hf5  1  1.36321810  0.63678190  1.00000000  1.0
  Hf  Hf6  1  0.63678190  0.36321810  1.00000000  1.0
  Hf  Hf7  1  0.36321810  0.36321810  0.72643620  1.0
  Si  Si8  1  0.50000000  0.79585205  0.29585205  1.0
  Si  Si9  1  0.79585205  0.50000000  1.29585205  1.0
  Si  Si10  1  0.20414795  0.50000000  0.70414795  1.0
  Si  Si11  1  0.50000000  1.20414795  0.70414795  1.0
  Si  Si12  1  0.00000000  0.59102887  0.59102887  1.0
  Si  Si13  1  0.59102887  1.00000000  0.59102887  1.0
  Si  Si14  1  1.40897113  1.00000000  1.40897113  1.0
  Si  Si15  1  0.00000000  0.40897113  0.40897113  1.0
  Si  Si16  1  0.79122495  0.79122495  0.58244990  1.0
  Si  Si17  1  1.20877505  0.79122495  1.00000000  1.0
  Si  Si18  1  0.79122495  0.20877505  1.00000000  1.0
  Si  Si19  1  0.20877505  0.20877505  0.41755010  1.0
  Si  Si20  1  0.74984843  0.74984843  0.00000000  1.0
  Si  Si21  1  0.25015157  0.25015157  0.00000000  1.0
  Ni  Ni22  1  1.10296847  0.60296847  1.20593695  1.0
  Ni  Ni23  1  1.60296847  1.10296847  1.20593695  1.0
  Ni  Ni24  1  0.39703153  0.60296847  0.50000000  1.0
  Ni  Ni25  1  0.89703153  1.10296847  0.50000000  1.0
  Ni  Ni26  1  1.10296847  0.89703153  1.50000000  1.0
  Ni  Ni27  1  1.60296847  1.39703153  1.50000000  1.0
  Ni  Ni28  1  0.39703153  0.89703153  0.79406305  1.0
  Ni  Ni29  1  0.89703153  1.39703153  0.79406305  1.0
