# generated using pymatgen
data_IrSe2
_symmetry_space_group_name_H-M   'P 1'
_cell_length_a   21.21792865
_cell_length_b   3.79774611
_cell_length_c   6.00832060
_cell_angle_alpha   90.00000000
_cell_angle_beta   90.00000000
_cell_angle_gamma   90.00000000
_symmetry_Int_Tables_number   1
_chemical_formula_structural   IrSe2
_chemical_formula_sum   'Ir8 Se16'
_cell_volume   484.15231325
_cell_formula_units_Z   8
loop_
 _symmetry_equiv_pos_site_id
 _symmetry_equiv_pos_as_xyz
  1  'x, y, z'
loop_
 _atom_site_type_symbol
 _atom_site_label
 _atom_site_symmetry_multiplicity
 _atom_site_fract_x
 _atom_site_fract_y
 _atom_site_fract_z
 _atom_site_occupancy
  Ir  Ir0  1  0.42351381  0.75000000  0.57049603  1.0
  Ir  Ir1  1  0.92351381  0.75000000  0.92950397  1.0
  Ir  Ir2  1  0.57648619  0.25000000  0.42950397  1.0
  Ir  Ir3  1  0.07648619  0.25000000  0.07049603  1.0
  Ir  Ir4  1  0.19491782  0.75000000  0.55980211  1.0
  Ir  Ir5  1  0.69491782  0.75000000  0.94019789  1.0
  Ir  Ir6  1  0.80508218  0.25000000  0.44019789  1.0
  Ir  Ir7  1  0.30508218  0.25000000  0.05980211  1.0
  Se  Se8  1  0.37809754  0.75000000  0.95301585  1.0
  Se  Se9  1  0.87809754  0.75000000  0.54698415  1.0
  Se  Se10  1  0.62190246  0.25000000  0.04698415  1.0
  Se  Se11  1  0.12190246  0.25000000  0.45301585  1.0
  Se  Se12  1  0.23870105  0.75000000  0.18400510  1.0
  Se  Se13  1  0.73870105  0.75000000  0.31599490  1.0
  Se  Se14  1  0.76129895  0.25000000  0.81599490  1.0
  Se  Se15  1  0.26129895  0.25000000  0.68400510  1.0
  Se  Se16  1  0.13843956  0.75000000  0.92876394  1.0
  Se  Se17  1  0.63843956  0.75000000  0.57123606  1.0
  Se  Se18  1  0.86156044  0.25000000  0.07123606  1.0
  Se  Se19  1  0.36156044  0.25000000  0.42876394  1.0
  Se  Se20  1  0.00900355  0.75000000  0.22302598  1.0
  Se  Se21  1  0.50900355  0.75000000  0.27697402  1.0
  Se  Se22  1  0.99099645  0.25000000  0.77697402  1.0
  Se  Se23  1  0.49099645  0.25000000  0.72302598  1.0
