# generated using pymatgen
data_TeNOF3
_symmetry_space_group_name_H-M   'P 1'
_cell_length_a   12.50546935
_cell_length_b   12.50546935
_cell_length_c   5.73932729
_cell_angle_alpha   90.00000000
_cell_angle_beta   90.00000000
_cell_angle_gamma   90.00000000
_symmetry_Int_Tables_number   1
_chemical_formula_structural   TeNOF3
_chemical_formula_sum   'Te8 N8 O8 F24'
_cell_volume   897.55481983
_cell_formula_units_Z   8
loop_
 _symmetry_equiv_pos_site_id
 _symmetry_equiv_pos_as_xyz
  1  'x, y, z'
loop_
 _atom_site_type_symbol
 _atom_site_label
 _atom_site_symmetry_multiplicity
 _atom_site_fract_x
 _atom_site_fract_y
 _atom_site_fract_z
 _atom_site_occupancy
  Te  Te0  1  0.35684073  0.14315799  0.20464702  1.0
  Te  Te1  1  0.64315927  0.85684201  0.20464702  1.0
  Te  Te2  1  0.64315799  0.14315927  0.70464702  1.0
  Te  Te3  1  0.35684201  0.85684073  0.70464702  1.0
  Te  Te4  1  0.14315927  0.35684201  0.29535298  1.0
  Te  Te5  1  0.85684073  0.64315799  0.29535298  1.0
  Te  Te6  1  0.85684201  0.35684073  0.79535298  1.0
  Te  Te7  1  0.14315799  0.64315927  0.79535298  1.0
  N  N8  1  0.00000000  0.00000000  -0.00000000  1.0
  N  N9  1  0.50000000  0.50000000  0.50000000  1.0
  N  N10  1  0.50000000  0.50000000  -0.00000000  1.0
  N  N11  1  0.00000000  0.00000000  0.50000000  1.0
  N  N12  1  0.75000000  0.25000000  0.25000000  1.0
  N  N13  1  0.25000000  0.75000000  0.25000000  1.0
  N  N14  1  0.75000000  0.75000000  0.75000000  1.0
  N  N15  1  0.25000000  0.25000000  0.75000000  1.0
  O  O16  1  0.74648486  0.24646003  0.52717635  1.0
  O  O17  1  0.25351514  0.75353997  0.52717635  1.0
  O  O18  1  0.74646003  0.75351514  0.02717635  1.0
  O  O19  1  0.25353997  0.24648486  0.02717635  1.0
  O  O20  1  0.75351514  0.25353997  0.97282365  1.0
  O  O21  1  0.24648486  0.74646003  0.97282365  1.0
  O  O22  1  0.75353997  0.74648486  0.47282365  1.0
  O  O23  1  0.24646003  0.25351514  0.47282365  1.0
  F  F24  1  0.74091362  0.46247071  0.85931653  1.0
  F  F25  1  0.25908638  0.53752929  0.85931653  1.0
  F  F26  1  0.96247071  0.75908638  0.35931653  1.0
  F  F27  1  0.03752929  0.24091362  0.35931653  1.0
  F  F28  1  0.75908638  0.03752929  0.64068347  1.0
  F  F29  1  0.24091362  0.96247071  0.64068347  1.0
  F  F30  1  0.53752929  0.74091362  0.14068347  1.0
  F  F31  1  0.46247071  0.25908638  0.14068347  1.0
  F  F32  1  0.53755186  0.25910644  0.64066535  1.0
  F  F33  1  0.46244814  0.74089356  0.64066535  1.0
  F  F34  1  0.75910644  0.96244814  0.14066535  1.0
  F  F35  1  0.24089356  0.03755186  0.14066535  1.0
  F  F36  1  0.96244814  0.24089356  0.85933465  1.0
  F  F37  1  0.03755186  0.75910644  0.85933465  1.0
  F  F38  1  0.74089356  0.53755186  0.35933465  1.0
  F  F39  1  0.25910644  0.46244814  0.35933465  1.0
  F  F40  1  0.91955108  0.41954840  0.08510758  1.0
  F  F41  1  0.08044892  0.58045160  0.08510758  1.0
  F  F42  1  0.91954840  0.58044892  0.58510758  1.0
  F  F43  1  0.08045160  0.41955108  0.58510758  1.0
  F  F44  1  0.58044892  0.08045160  0.41489242  1.0
  F  F45  1  0.41955108  0.91954840  0.41489242  1.0
  F  F46  1  0.58045160  0.91955108  0.91489242  1.0
  F  F47  1  0.41954840  0.08044892  0.91489242  1.0
