# generated using pymatgen
data_Ba5B3CNO9
_symmetry_space_group_name_H-M   'P 1'
_cell_length_a   9.14723944
_cell_length_b   9.14723944
_cell_length_c   8.05735881
_cell_angle_alpha   90.00000000
_cell_angle_beta   90.00000000
_cell_angle_gamma   109.60637341
_symmetry_Int_Tables_number   1
_chemical_formula_structural   Ba5B3CNO9
_chemical_formula_sum   'Ba10 B6 C2 N2 O18'
_cell_volume   635.08664907
_cell_formula_units_Z   2
loop_
 _symmetry_equiv_pos_site_id
 _symmetry_equiv_pos_as_xyz
  1  'x, y, z'
loop_
 _atom_site_type_symbol
 _atom_site_label
 _atom_site_symmetry_multiplicity
 _atom_site_fract_x
 _atom_site_fract_y
 _atom_site_fract_z
 _atom_site_occupancy
  Ba  Ba0  1  0.00703315  0.26537435  0.06629337  1.0
  Ba  Ba1  1  -0.73462565  1.00703315  0.93370663  1.0
  Ba  Ba2  1  0.73462565  0.99296685  0.43370663  1.0
  Ba  Ba3  1  -0.00703315  1.73462565  0.56629337  1.0
  Ba  Ba4  1  0.35368520  0.64631480  0.25000000  1.0
  Ba  Ba5  1  -0.35368520  1.35368520  0.75000000  1.0
  Ba  Ba6  1  -0.36237789  1.36237789  0.25000000  1.0
  Ba  Ba7  1  0.36237789  0.63762211  0.75000000  1.0
  Ba  Ba8  1  0.75836101  0.75836101  0.00000000  1.0
  Ba  Ba9  1  0.24163899  0.24163899  0.50000000  1.0
  B  B10  1  -0.01428374  1.40506796  0.46942621  1.0
  B  B11  1  0.40506796  0.98571626  0.53057379  1.0
  B  B12  1  -0.40506796  1.01428374  0.03057379  1.0
  B  B13  1  0.01428374  0.59493204  0.96942621  1.0
  B  B14  1  0.37292822  0.37292822  0.00000000  1.0
  B  B15  1  0.62707178  0.62707178  0.50000000  1.0
  C  C16  1  0.11571165  0.88428835  0.25000000  1.0
  C  C17  1  -0.11571165  1.11571165  0.75000000  1.0
  N  N18  1  0.03677912  0.96322088  0.25000000  1.0
  N  N19  1  -0.03677912  1.03677912  0.75000000  1.0
  O  O20  1  0.14791990  0.56194080  0.00798895  1.0
  O  O21  1  -0.43805920  1.14791990  0.99201105  1.0
  O  O22  1  0.43805920  0.85208010  0.49201105  1.0
  O  O23  1  -0.14791990  1.43805920  0.50798895  1.0
  O  O24  1  -0.30796862  1.69049550  0.34883640  1.0
  O  O25  1  0.69049550  0.69203138  0.65116360  1.0
  O  O26  1  -0.69049550  1.30796862  0.15116360  1.0
  O  O27  1  0.30796862  0.30950450  0.84883640  1.0
  O  O28  1  -0.13261165  1.49060596  0.01186200  1.0
  O  O29  1  0.49060596  0.86738835  0.98813800  1.0
  O  O30  1  -0.49060596  1.13261165  0.48813800  1.0
  O  O31  1  0.13261165  0.50939404  0.51186200  1.0
  O  O32  1  -0.02563195  1.26975358  0.38392903  1.0
  O  O33  1  0.26975358  0.97436805  0.61607097  1.0
  O  O34  1  -0.26975358  1.02563195  0.11607097  1.0
  O  O35  1  0.02563195  0.73024642  0.88392903  1.0
  O  O36  1  0.50579416  0.50579416  0.00000000  1.0
  O  O37  1  0.49420584  0.49420584  0.50000000  1.0
