# generated using pymatgen
data_ZrFeF6
_symmetry_space_group_name_H-M   'P 1'
_cell_length_a   5.79587961
_cell_length_b   5.79587961
_cell_length_c   5.79587961
_cell_angle_alpha   60.00000000
_cell_angle_beta   60.00000000
_cell_angle_gamma   60.00000000
_symmetry_Int_Tables_number   1
_chemical_formula_structural   ZrFeF6
_chemical_formula_sum   'Zr1 Fe1 F6'
_cell_volume   137.67119098
_cell_formula_units_Z   1
loop_
 _symmetry_equiv_pos_site_id
 _symmetry_equiv_pos_as_xyz
  1  'x, y, z'
loop_
 _atom_site_type_symbol
 _atom_site_label
 _atom_site_symmetry_multiplicity
 _atom_site_fract_x
 _atom_site_fract_y
 _atom_site_fract_z
 _atom_site_occupancy
  Zr  Zr0  1  -0.50000000  0.50000000  0.50000000  1.0
  Fe  Fe1  1  0.00000000  0.00000000  0.00000000  1.0
  F  F2  1  -0.74730405  0.74730405  0.74730405  1.0
  F  F3  1  -0.25269595  0.25269595  0.74730405  1.0
  F  F4  1  0.74730405  0.74730405  -0.74730405  1.0
  F  F5  1  0.25269595  1.25269595  -0.25269595  1.0
  F  F6  1  0.25269595  -0.25269595  1.25269595  1.0
  F  F7  1  -0.25269595  0.25269595  0.25269595  1.0
