# generated using pymatgen
data_Lu10Cd3Co
_symmetry_space_group_name_H-M   'P 1'
_cell_length_a   9.36888619
_cell_length_b   9.36888619
_cell_length_c   9.47604917
_cell_angle_alpha   90.00000000
_cell_angle_beta   90.00000000
_cell_angle_gamma   120.00000000
_symmetry_Int_Tables_number   1
_chemical_formula_structural   Lu10Cd3Co
_chemical_formula_sum   'Lu20 Cd6 Co2'
_cell_volume   720.33391638
_cell_formula_units_Z   2
loop_
 _symmetry_equiv_pos_site_id
 _symmetry_equiv_pos_as_xyz
  1  'x, y, z'
loop_
 _atom_site_type_symbol
 _atom_site_label
 _atom_site_symmetry_multiplicity
 _atom_site_fract_x
 _atom_site_fract_y
 _atom_site_fract_z
 _atom_site_occupancy
  Lu  Lu0  1  0.00000000  0.00000000  0.50000000  1.0
  Lu  Lu1  1  0.00000000  0.00000000  0.00000000  1.0
  Lu  Lu2  1  0.54199229  0.45800771  0.25000000  1.0
  Lu  Lu3  1  0.54199229  0.08398458  0.25000000  1.0
  Lu  Lu4  1  0.45800771  0.54199229  0.75000000  1.0
  Lu  Lu5  1  0.45800771  0.91601542  0.75000000  1.0
  Lu  Lu6  1  0.91601542  0.45800771  0.25000000  1.0
  Lu  Lu7  1  0.08398458  0.54199229  0.75000000  1.0
  Lu  Lu8  1  0.21161145  0.78838855  0.43764665  1.0
  Lu  Lu9  1  0.21161145  0.78838855  0.06235335  1.0
  Lu  Lu10  1  0.21161145  0.42322291  0.43764665  1.0
  Lu  Lu11  1  0.21161145  0.42322291  0.06235335  1.0
  Lu  Lu12  1  0.78838855  0.21161145  0.93764665  1.0
  Lu  Lu13  1  0.78838855  0.21161145  0.56235335  1.0
  Lu  Lu14  1  0.78838855  0.57677709  0.93764665  1.0
  Lu  Lu15  1  0.78838855  0.57677709  0.56235335  1.0
  Lu  Lu16  1  0.57677709  0.78838855  0.43764665  1.0
  Lu  Lu17  1  0.57677709  0.78838855  0.06235335  1.0
  Lu  Lu18  1  0.42322291  0.21161145  0.93764665  1.0
  Lu  Lu19  1  0.42322291  0.21161145  0.56235335  1.0
  Cd  Cd20  1  0.88546106  0.11453894  0.25000000  1.0
  Cd  Cd21  1  0.88546106  0.77092211  0.25000000  1.0
  Cd  Cd22  1  0.11453894  0.88546106  0.75000000  1.0
  Cd  Cd23  1  0.11453894  0.22907789  0.75000000  1.0
  Cd  Cd24  1  0.22907789  0.11453894  0.25000000  1.0
  Cd  Cd25  1  0.77092211  0.88546106  0.75000000  1.0
  Co  Co26  1  0.33333333  0.66666667  0.25000000  1.0
  Co  Co27  1  0.66666667  0.33333333  0.75000000  1.0
