# generated using pymatgen
data_Rb4NaSi18
_symmetry_space_group_name_H-M   'P 1'
_cell_length_a   15.99067287
_cell_length_b   15.99067287
_cell_length_c   15.99067287
_cell_angle_alpha   60.00000000
_cell_angle_beta   60.00000000
_cell_angle_gamma   60.00000000
_symmetry_Int_Tables_number   1
_chemical_formula_structural   Rb4NaSi18
_chemical_formula_sum   'Rb8 Na2 Si36'
_cell_volume   2891.24715453
_cell_formula_units_Z   2
loop_
 _symmetry_equiv_pos_site_id
 _symmetry_equiv_pos_as_xyz
  1  'x, y, z'
loop_
 _atom_site_type_symbol
 _atom_site_label
 _atom_site_symmetry_multiplicity
 _atom_site_fract_x
 _atom_site_fract_y
 _atom_site_fract_z
 _atom_site_occupancy
  Rb  Rb0  1  -0.15052590  0.84947410  0.45157770  1.0
  Rb  Rb1  1  0.84947410  -0.54842230  0.84947410  1.0
  Rb  Rb2  1  0.40052590  0.40052590  0.40052590  1.0
  Rb  Rb3  1  -0.20157770  0.40052590  0.40052590  1.0
  Rb  Rb4  1  -0.54842230  0.84947410  0.84947410  1.0
  Rb  Rb5  1  0.84947410  -0.15052590  0.84947410  1.0
  Rb  Rb6  1  0.40052590  -0.20157770  0.40052590  1.0
  Rb  Rb7  1  0.40052590  0.40052590  -0.20157770  1.0
  Na  Na8  1  0.50000000  0.50000000  -0.50000000  1.0
  Na  Na9  1  0.75000000  -0.25000000  0.75000000  1.0
  Si  Si10  1  0.89001839  -0.10998161  1.03475971  1.0
  Si  Si11  1  -0.81479648  0.89001839  1.03475971  1.0
  Si  Si12  1  -0.81479648  1.03475971  0.89001839  1.0
  Si  Si13  1  0.89001839  0.03475971  0.89001839  1.0
  Si  Si14  1  0.35998161  0.35998161  0.06479648  1.0
  Si  Si15  1  0.35998161  0.06479648  0.35998161  1.0
  Si  Si16  1  0.21524029  0.06479648  0.35998161  1.0
  Si  Si17  1  0.21524029  0.35998161  0.06479648  1.0
  Si  Si18  1  0.89001839  -0.81479648  1.03475971  1.0
  Si  Si19  1  -0.10998161  1.03475971  0.18520352  1.0
  Si  Si20  1  0.06479648  0.35998161  0.35998161  1.0
  Si  Si21  1  0.21524029  0.35998161  0.35998161  1.0
  Si  Si22  1  1.03475971  -0.81479648  0.89001839  1.0
  Si  Si23  1  0.03475971  0.89001839  0.18520352  1.0
  Si  Si24  1  -0.10998161  0.89001839  0.18520352  1.0
  Si  Si25  1  0.89001839  -0.81479648  0.89001839  1.0
  Si  Si26  1  0.06479648  0.21524029  0.35998161  1.0
  Si  Si27  1  0.35998161  0.21524029  0.35998161  1.0
  Si  Si28  1  0.35998161  0.35998161  0.21524029  1.0
  Si  Si29  1  0.06479648  0.35998161  0.21524029  1.0
  Si  Si30  1  1.03475971  -0.10998161  0.89001839  1.0
  Si  Si31  1  -0.81479648  0.89001839  0.89001839  1.0
  Si  Si32  1  0.35998161  0.21524029  0.06479648  1.0
  Si  Si33  1  0.35998161  0.06479648  0.21524029  1.0
  Si  Si34  1  0.68026676  -0.31973324  0.95919973  1.0
  Si  Si35  1  0.68026676  -0.04080027  0.68026676  1.0
  Si  Si36  1  0.56973324  -0.43026676  0.56973324  1.0
  Si  Si37  1  1.29080027  -0.43026676  0.56973324  1.0
  Si  Si38  1  0.95919973  -0.31973324  0.68026676  1.0
  Si  Si39  1  0.68026676  -0.31973324  0.68026676  1.0
  Si  Si40  1  0.56973324  0.29080027  0.56973324  1.0
  Si  Si41  1  0.56973324  -0.43026676  1.29080027  1.0
  Si  Si42  1  0.62500000  -0.37500000  1.12500000  1.0
  Si  Si43  1  0.62500000  0.12500000  0.62500000  1.0
  Si  Si44  1  0.62500000  -0.37500000  0.62500000  1.0
  Si  Si45  1  1.12500000  -0.37500000  0.62500000  1.0
