# generated using pymatgen
data_YFe3
_symmetry_space_group_name_H-M   'P 1'
_cell_length_a   5.09163107
_cell_length_b   5.09163107
_cell_length_c   16.15970169
_cell_angle_alpha   90.00000000
_cell_angle_beta   90.00000000
_cell_angle_gamma   120.00000000
_symmetry_Int_Tables_number   1
_chemical_formula_structural   YFe3
_chemical_formula_sum   'Y6 Fe18'
_cell_volume   362.80881239
_cell_formula_units_Z   6
loop_
 _symmetry_equiv_pos_site_id
 _symmetry_equiv_pos_as_xyz
  1  'x, y, z'
loop_
 _atom_site_type_symbol
 _atom_site_label
 _atom_site_symmetry_multiplicity
 _atom_site_fract_x
 _atom_site_fract_y
 _atom_site_fract_z
 _atom_site_occupancy
  Y  Y0  1  0.33333333  0.66666667  0.96276720  1.0
  Y  Y1  1  0.33333333  0.66666667  0.53723280  1.0
  Y  Y2  1  0.66666667  0.33333333  0.46276720  1.0
  Y  Y3  1  0.66666667  0.33333333  0.03723280  1.0
  Y  Y4  1  0.33333333  0.66666667  0.75000000  1.0
  Y  Y5  1  0.66666667  0.33333333  0.25000000  1.0
  Fe  Fe6  1  0.16674169  0.83325831  0.37185246  1.0
  Fe  Fe7  1  0.16674169  0.83325831  0.12814754  1.0
  Fe  Fe8  1  0.16674169  0.33348339  0.37185246  1.0
  Fe  Fe9  1  0.16674169  0.33348339  0.12814754  1.0
  Fe  Fe10  1  0.83325831  0.16674169  0.87185246  1.0
  Fe  Fe11  1  0.83325831  0.16674169  0.62814754  1.0
  Fe  Fe12  1  0.83325831  0.66651661  0.87185246  1.0
  Fe  Fe13  1  0.83325831  0.66651661  0.62814754  1.0
  Fe  Fe14  1  0.66651661  0.83325831  0.37185246  1.0
  Fe  Fe15  1  0.66651661  0.83325831  0.12814754  1.0
  Fe  Fe16  1  0.33348339  0.16674169  0.87185246  1.0
  Fe  Fe17  1  0.33348339  0.16674169  0.62814754  1.0
  Fe  Fe18  1  0.33333333  0.66666667  0.25000000  1.0
  Fe  Fe19  1  0.66666667  0.33333333  0.75000000  1.0
  Fe  Fe20  1  -0.00000000  0.00000000  0.25000000  1.0
  Fe  Fe21  1  0.00000000  0.00000000  0.75000000  1.0
  Fe  Fe22  1  -0.00000000  -0.00000000  0.50000000  1.0
  Fe  Fe23  1  0.00000000  0.00000000  0.00000000  1.0
