# generated using pymatgen
data_Ca2GdTaO6
_symmetry_space_group_name_H-M   'P 1'
_cell_length_a   5.65089378
_cell_length_b   5.89394062
_cell_length_c   9.92197395
_cell_angle_alpha   90.00000000
_cell_angle_beta   124.58275700
_cell_angle_gamma   90.00000000
_symmetry_Int_Tables_number   1
_chemical_formula_structural   Ca2GdTaO6
_chemical_formula_sum   'Ca4 Gd2 Ta2 O12'
_cell_volume   272.07140993
_cell_formula_units_Z   2
loop_
 _symmetry_equiv_pos_site_id
 _symmetry_equiv_pos_as_xyz
  1  'x, y, z'
loop_
 _atom_site_type_symbol
 _atom_site_label
 _atom_site_symmetry_multiplicity
 _atom_site_fract_x
 _atom_site_fract_y
 _atom_site_fract_z
 _atom_site_occupancy
  Ta  Ta0  1  0.00000000  0.00000000  0.00000000  1.0
  Ta  Ta1  1  0.00000000  0.50000000  0.50000000  1.0
  Ca  Ca2  1  0.24013964  0.44768208  0.25496682  1.0
  Ca  Ca3  1  0.24013964  0.05231792  0.75496682  1.0
  Ca  Ca4  1  0.75986036  0.94768208  0.24503318  1.0
  Ca  Ca5  1  0.75986036  0.55231792  0.74503318  1.0
  Gd  Gd6  1  0.50000000  0.00000000  0.50000000  1.0
  Gd  Gd7  1  0.50000000  0.50000000  0.00000000  1.0
  O  O8  1  0.34727235  0.05384004  0.23041378  1.0
  O  O9  1  0.34727235  0.44615996  0.73041378  1.0
  O  O10  1  0.65272765  0.55384004  0.26958622  1.0
  O  O11  1  0.65272765  0.94615996  0.76958622  1.0
  O  O12  1  0.76629792  1.18015247  0.05512073  1.0
  O  O13  1  0.76629792  0.31984753  0.55512073  1.0
  O  O14  1  0.23370208  0.68015247  0.44487927  1.0
  O  O15  1  0.23370208  -0.18015247  0.94487927  1.0
  O  O16  1  0.89554350  0.71658471  0.07011192  1.0
  O  O17  1  0.89554350  0.78341529  0.57011192  1.0
  O  O18  1  0.10445650  0.21658471  0.42988808  1.0
  O  O19  1  0.10445650  0.28341529  0.92988808  1.0
