# generated using pymatgen
data_MnPb2WO6
_symmetry_space_group_name_H-M   'P 1'
_cell_length_a   11.85255801
_cell_length_b   7.98514570
_cell_length_c   5.95544090
_cell_angle_alpha   90.00000000
_cell_angle_beta   90.00000000
_cell_angle_gamma   90.00000000
_symmetry_Int_Tables_number   1
_chemical_formula_structural   MnPb2WO6
_chemical_formula_sum   'Mn4 Pb8 W4 O24'
_cell_volume   563.64914595
_cell_formula_units_Z   4
loop_
 _symmetry_equiv_pos_site_id
 _symmetry_equiv_pos_as_xyz
  1  'x, y, z'
loop_
 _atom_site_type_symbol
 _atom_site_label
 _atom_site_symmetry_multiplicity
 _atom_site_fract_x
 _atom_site_fract_y
 _atom_site_fract_z
 _atom_site_occupancy
  Mn  Mn0  1  0.61262885  0.25000000  0.73162261  1.0
  Mn  Mn1  1  0.11262885  0.25000000  0.76837739  1.0
  Mn  Mn2  1  0.38737115  0.75000000  0.26837739  1.0
  Mn  Mn3  1  0.88737115  0.75000000  0.23162261  1.0
  Pb  Pb4  1  0.65100033  0.99448555  0.20757867  1.0
  Pb  Pb5  1  0.65100033  0.50551445  0.20757867  1.0
  Pb  Pb6  1  0.15100033  0.99448555  0.29242133  1.0
  Pb  Pb7  1  0.15100033  0.50551445  0.29242133  1.0
  Pb  Pb8  1  0.34899967  0.49448555  0.79242133  1.0
  Pb  Pb9  1  0.34899967  0.00551445  0.79242133  1.0
  Pb  Pb10  1  0.84899967  0.49448555  0.70757867  1.0
  Pb  Pb11  1  0.84899967  0.00551445  0.70757867  1.0
  W  W12  1  0.88639820  0.25000000  0.25394985  1.0
  W  W13  1  0.38639820  0.25000000  0.24605015  1.0
  W  W14  1  0.11360180  0.75000000  0.74605015  1.0
  W  W15  1  0.61360180  0.75000000  0.75394985  1.0
  O  O16  1  0.86315500  0.48952822  0.28956973  1.0
  O  O17  1  0.86315500  0.01047178  0.28956973  1.0
  O  O18  1  0.36315500  0.48952822  0.21043027  1.0
  O  O19  1  0.36315500  0.01047178  0.21043027  1.0
  O  O20  1  0.13684500  0.98952822  0.71043027  1.0
  O  O21  1  0.13684500  0.51047178  0.71043027  1.0
  O  O22  1  0.63684500  0.98952822  0.78956973  1.0
  O  O23  1  0.63684500  0.51047178  0.78956973  1.0
  O  O24  1  0.99323123  0.25000000  0.49181466  1.0
  O  O25  1  0.49323123  0.25000000  0.00818534  1.0
  O  O26  1  0.00676877  0.75000000  0.50818534  1.0
  O  O27  1  0.50676877  0.75000000  0.99181466  1.0
  O  O28  1  0.98667212  0.25000000  0.02067954  1.0
  O  O29  1  0.48667212  0.25000000  0.47932046  1.0
  O  O30  1  0.01332788  0.75000000  0.97932046  1.0
  O  O31  1  0.51332788  0.75000000  0.52067954  1.0
  O  O32  1  0.76328327  0.25000000  0.54324341  1.0
  O  O33  1  0.26328327  0.25000000  0.95675659  1.0
  O  O34  1  0.23671673  0.75000000  0.45675659  1.0
  O  O35  1  0.73671673  0.75000000  0.04324341  1.0
  O  O36  1  0.75092930  0.25000000  0.06876724  1.0
  O  O37  1  0.25092930  0.25000000  0.43123276  1.0
  O  O38  1  0.24907070  0.75000000  0.93123276  1.0
  O  O39  1  0.74907070  0.75000000  0.56876724  1.0
