# generated using pymatgen
data_MgH10(SeO5)2
_symmetry_space_group_name_H-M   'P 1'
_cell_length_a   8.33077411
_cell_length_b   8.33077411
_cell_length_c   11.14915414
_cell_angle_alpha   57.23064819
_cell_angle_beta   122.76935181
_cell_angle_gamma   125.12455181
_symmetry_Int_Tables_number   1
_chemical_formula_structural   MgH10(SeO5)2
_chemical_formula_sum   'Mg2 H20 Se4 O20'
_cell_volume   501.55517114
_cell_formula_units_Z   2
loop_
 _symmetry_equiv_pos_site_id
 _symmetry_equiv_pos_as_xyz
  1  'x, y, z'
loop_
 _atom_site_type_symbol
 _atom_site_label
 _atom_site_symmetry_multiplicity
 _atom_site_fract_x
 _atom_site_fract_y
 _atom_site_fract_z
 _atom_site_occupancy
  Mg  Mg0  1  0.95841536  0.95841536  0.75000000  1.0
  Mg  Mg1  1  0.04158464  0.04158464  0.25000000  1.0
  H  H2  1  1.55643143  -0.32394943  0.66799484  1.0
  H  H3  1  1.32394944  -0.55643143  0.16799484  1.0
  H  H4  1  0.67605057  0.55643143  0.83200516  1.0
  H  H5  1  0.44356857  0.32394944  0.33200516  1.0
  H  H6  1  0.39789194  -0.25422714  0.94630556  1.0
  H  H7  1  1.25422714  -0.39789194  0.44630556  1.0
  H  H8  1  0.74577286  0.39789194  0.55369444  1.0
  H  H9  1  1.60210806  0.25422714  0.05369444  1.0
  H  H10  1  0.58255705  -0.05668968  0.77911194  1.0
  H  H11  1  1.05668968  -0.58255705  0.27911194  1.0
  H  H12  1  0.94331032  0.58255705  0.72088806  1.0
  H  H13  1  1.41744295  0.05668968  0.22088806  1.0
  H  H14  1  0.71036408  0.25437800  0.97232935  1.0
  H  H15  1  0.74562200  0.28963592  0.47232935  1.0
  H  H16  1  1.25437800  -0.28963592  0.52767065  1.0
  H  H17  1  1.28963592  -0.25437800  0.02767065  1.0
  H  H18  1  0.36563667  0.24086009  0.82979198  1.0
  H  H19  1  0.75913991  0.63436333  0.32979198  1.0
  H  H20  1  1.24086009  -0.63436333  0.67020802  1.0
  H  H21  1  1.63436333  -0.24086009  0.17020802  1.0
  Se  Se22  1  1.73697570  0.01142437  0.38327081  1.0
  Se  Se23  1  0.98857563  0.26302430  0.88327081  1.0
  Se  Se24  1  1.01142437  -0.26302430  0.11672919  1.0
  Se  Se25  1  0.26302430  -0.01142437  0.61672919  1.0
  O  O26  1  0.83877503  0.06402215  0.81249471  1.0
  O  O27  1  0.93597785  -0.83877503  0.31249471  1.0
  O  O28  1  1.06402215  0.83877503  0.68750529  1.0
  O  O29  1  1.16122497  -0.06402215  0.18750529  1.0
  O  O30  1  1.81775583  0.10364545  0.51826629  1.0
  O  O31  1  0.89635455  -0.81775583  0.01826629  1.0
  O  O32  1  1.10364545  0.81775583  0.98173371  1.0
  O  O33  1  0.18224417  -0.10364545  0.48173371  1.0
  O  O34  1  0.43041338  -0.14777616  0.77094922  1.0
  O  O35  1  1.14777616  -0.43041338  0.27094922  1.0
  O  O36  1  0.85222384  0.43041338  0.72905078  1.0
  O  O37  1  1.56958662  0.14777616  0.22905078  1.0
  O  O38  1  0.61251980  0.30459051  0.95374619  1.0
  O  O39  1  0.69540949  0.38748020  0.45374619  1.0
  O  O40  1  1.30459051  -0.38748020  0.54625381  1.0
  O  O41  1  1.38748020  -0.30459051  0.04625381  1.0
  O  O42  1  0.69370666  0.69370666  0.75000000  1.0
  O  O43  1  0.30629334  0.30629334  0.25000000  1.0
  O  O44  1  0.22575408  0.22575408  0.75000000  1.0
  O  O45  1  0.77424592  0.77424592  0.25000000  1.0
