# generated using pymatgen
data_Li5(NiN)3
_symmetry_space_group_name_H-M   'P 1'
_cell_length_a   6.51617600
_cell_length_b   6.51617600
_cell_length_c   3.46929932
_cell_angle_alpha   90.00000000
_cell_angle_beta   90.00000000
_cell_angle_gamma   120.00000000
_symmetry_Int_Tables_number   1
_chemical_formula_structural   Li5(NiN)3
_chemical_formula_sum   'Li5 Ni3 N3'
_cell_volume   127.57277871
_cell_formula_units_Z   1
loop_
 _symmetry_equiv_pos_site_id
 _symmetry_equiv_pos_as_xyz
  1  'x, y, z'
loop_
 _atom_site_type_symbol
 _atom_site_label
 _atom_site_symmetry_multiplicity
 _atom_site_fract_x
 _atom_site_fract_y
 _atom_site_fract_z
 _atom_site_occupancy
  Li  Li0  1  0.26235040  0.26235040  -0.00000000  1.0
  Li  Li1  1  0.00000000  0.73764960  -0.00000000  1.0
  Li  Li2  1  0.73764960  0.00000000  -0.00000000  1.0
  Li  Li3  1  0.33333333  0.66666667  0.00000000  1.0
  Li  Li4  1  0.66666667  0.33333333  0.00000000  1.0
  Ni  Ni5  1  0.63331163  0.63331163  0.50000000  1.0
  Ni  Ni6  1  0.00000000  0.36668837  0.50000000  1.0
  Ni  Ni7  1  0.36668837  0.00000000  0.50000000  1.0
  N  N8  1  0.63513422  0.63513422  0.00000000  1.0
  N  N9  1  -0.00000000  0.36486578  -0.00000000  1.0
  N  N10  1  0.36486578  0.00000000  -0.00000000  1.0
