# generated using pymatgen
data_FeWO4
_symmetry_space_group_name_H-M   'P 1'
_cell_length_a   4.72867368
_cell_length_b   5.74268122
_cell_length_c   4.98598285
_cell_angle_alpha   90.00000000
_cell_angle_beta   89.53261524
_cell_angle_gamma   90.00000000
_symmetry_Int_Tables_number   1
_chemical_formula_structural   FeWO4
_chemical_formula_sum   'Fe2 W2 O8'
_cell_volume   135.39118359
_cell_formula_units_Z   2
loop_
 _symmetry_equiv_pos_site_id
 _symmetry_equiv_pos_as_xyz
  1  'x, y, z'
loop_
 _atom_site_type_symbol
 _atom_site_label
 _atom_site_symmetry_multiplicity
 _atom_site_fract_x
 _atom_site_fract_y
 _atom_site_fract_z
 _atom_site_occupancy
  Fe  Fe0  1  -0.00000000  0.84680056  0.25000000  1.0
  Fe  Fe1  1  -0.00000000  0.15319944  0.75000000  1.0
  W  W2  1  0.50000000  0.32575905  0.25000000  1.0
  W  W3  1  0.50000000  0.67424095  0.75000000  1.0
  O  O4  1  0.75715830  0.87230226  0.89798920  1.0
  O  O5  1  0.75715830  0.12769774  0.39798920  1.0
  O  O6  1  0.24284170  0.87230226  0.60201080  1.0
  O  O7  1  0.24284170  0.12769774  0.10201080  1.0
  O  O8  1  0.71762291  0.61171795  0.42773488  1.0
  O  O9  1  0.71762291  0.38828205  0.92773488  1.0
  O  O10  1  0.28237709  0.61171795  0.07226512  1.0
  O  O11  1  0.28237709  0.38828205  0.57226512  1.0
