# generated using pymatgen
data_Rb5Tl11Cd2
_symmetry_space_group_name_H-M   'P 1'
_cell_length_a   11.14718938
_cell_length_b   11.14718938
_cell_length_c   5.78924385
_cell_angle_alpha   90.00000000
_cell_angle_beta   90.00000000
_cell_angle_gamma   72.83003562
_symmetry_Int_Tables_number   1
_chemical_formula_structural   Rb5Tl11Cd2
_chemical_formula_sum   'Rb5 Tl11 Cd2'
_cell_volume   687.31045685
_cell_formula_units_Z   1
loop_
 _symmetry_equiv_pos_site_id
 _symmetry_equiv_pos_as_xyz
  1  'x, y, z'
loop_
 _atom_site_type_symbol
 _atom_site_label
 _atom_site_symmetry_multiplicity
 _atom_site_fract_x
 _atom_site_fract_y
 _atom_site_fract_z
 _atom_site_occupancy
  Rb  Rb0  1  -0.60804866  1.22493071  0.50000000  1.0
  Rb  Rb1  1  -0.22493071  1.60804866  0.50000000  1.0
  Rb  Rb2  1  0.68114440  0.93930355  0.00000000  1.0
  Rb  Rb3  1  0.06069645  0.31885560  0.00000000  1.0
  Rb  Rb4  1  -0.20093452  1.20093452  0.50000000  1.0
  Tl  Tl5  1  -0.84975556  1.04621016  0.50000000  1.0
  Tl  Tl6  1  -0.04621016  1.84975556  0.50000000  1.0
  Tl  Tl7  1  0.46218452  0.86022806  0.50000000  1.0
  Tl  Tl8  1  0.13977194  0.53781548  0.50000000  1.0
  Tl  Tl9  1  0.51352649  0.69163427  0.00000000  1.0
  Tl  Tl10  1  0.30836573  0.48647351  0.00000000  1.0
  Tl  Tl11  1  0.31912935  0.99777151  0.00000000  1.0
  Tl  Tl12  1  0.00222849  0.68087065  0.00000000  1.0
  Tl  Tl13  1  0.45668439  0.54331561  0.50000000  1.0
  Tl  Tl14  1  -0.00150634  0.00150634  0.00000000  1.0
  Tl  Tl15  1  -0.39178608  1.39178608  0.00000000  1.0
  Cd  Cd16  1  0.23047013  0.76952987  0.75047087  1.0
  Cd  Cd17  1  0.23047013  0.76952987  0.24952913  1.0
