# generated using pymatgen
data_Be2Tl2Co(O3F4)2
_symmetry_space_group_name_H-M   'P 1'
_cell_length_a   5.49525846
_cell_length_b   9.98360949
_cell_length_c   10.93552785
_cell_angle_alpha   90.00000000
_cell_angle_beta   106.28028016
_cell_angle_gamma   90.00000000
_symmetry_Int_Tables_number   1
_chemical_formula_structural   Be2Tl2Co(O3F4)2
_chemical_formula_sum   'Be4 Tl4 Co2 O12 F16'
_cell_volume   575.89363877
_cell_formula_units_Z   2
loop_
 _symmetry_equiv_pos_site_id
 _symmetry_equiv_pos_as_xyz
  1  'x, y, z'
loop_
 _atom_site_type_symbol
 _atom_site_label
 _atom_site_symmetry_multiplicity
 _atom_site_fract_x
 _atom_site_fract_y
 _atom_site_fract_z
 _atom_site_occupancy
  Be  Be0  1  0.21332895  0.87432944  0.37417320  1.0
  Be  Be1  1  0.21332895  0.62567056  0.87417320  1.0
  Be  Be2  1  0.78667105  0.37432944  0.12582680  1.0
  Be  Be3  1  0.78667105  0.12567056  0.62582680  1.0
  Tl  Tl4  1  0.18680156  0.22432199  0.42535934  1.0
  Tl  Tl5  1  0.18680156  0.27567801  0.92535934  1.0
  Tl  Tl6  1  0.81319844  0.72432199  0.07464066  1.0
  Tl  Tl7  1  0.81319844  0.77567801  0.57464066  1.0
  Co  Co8  1  0.50000000  -0.00000000  0.00000000  1.0
  Co  Co9  1  0.50000000  0.50000000  0.50000000  1.0
  O  O10  1  0.18245801  0.96384240  -0.08703647  1.0
  O  O11  1  0.18245801  0.53615760  0.41296353  1.0
  O  O12  1  0.81754199  0.46384240  0.58703647  1.0
  O  O13  1  0.81754199  0.03615760  1.08703647  1.0
  O  O14  1  0.67267609  0.59290023  0.41602800  1.0
  O  O15  1  0.67267609  0.90709977  0.91602800  1.0
  O  O16  1  0.32732391  0.09290023  0.08397200  1.0
  O  O17  1  0.32732391  0.40709977  0.58397200  1.0
  O  O18  1  0.56603885  0.87026285  0.12671872  1.0
  O  O19  1  0.56603885  0.62973715  0.62671872  1.0
  O  O20  1  0.43396115  0.37026285  0.37328128  1.0
  O  O21  1  0.43396115  0.12973715  0.87328128  1.0
  F  F22  1  0.11680880  0.78508810  0.25344792  1.0
  F  F23  1  0.11680880  0.71491190  0.75344792  1.0
  F  F24  1  0.88319120  0.28508810  0.24655208  1.0
  F  F25  1  0.88319120  0.21491190  0.74655208  1.0
  F  F26  1  0.10911796  1.02153417  0.34783637  1.0
  F  F27  1  0.10911796  0.47846583  0.84783637  1.0
  F  F28  1  0.89088204  0.52153417  0.15216363  1.0
  F  F29  1  0.89088204  -0.02153417  0.65216363  1.0
  F  F30  1  0.12060021  0.68836630  -0.01162741  1.0
  F  F31  1  0.12060021  0.81163370  0.48837259  1.0
  F  F32  1  0.87939979  0.18836630  0.51162741  1.0
  F  F33  1  0.87939979  0.31163370  1.01162741  1.0
  F  F34  1  0.50944119  0.87678252  0.41874899  1.0
  F  F35  1  0.50944119  0.62321748  0.91874899  1.0
  F  F36  1  0.49055881  0.37678252  0.08125101  1.0
  F  F37  1  0.49055881  0.12321748  0.58125101  1.0
