# generated using pymatgen
data_NdSi3Os
_symmetry_space_group_name_H-M   'P 1'
_cell_length_a   5.82879483
_cell_length_b   5.82879483
_cell_length_c   5.82879483
_cell_angle_alpha   137.49136884
_cell_angle_beta   137.49136884
_cell_angle_gamma   61.68289058
_symmetry_Int_Tables_number   1
_chemical_formula_structural   NdSi3Os
_chemical_formula_sum   'Nd1 Si3 Os1'
_cell_volume   89.37530127
_cell_formula_units_Z   1
loop_
 _symmetry_equiv_pos_site_id
 _symmetry_equiv_pos_as_xyz
  1  'x, y, z'
loop_
 _atom_site_type_symbol
 _atom_site_label
 _atom_site_symmetry_multiplicity
 _atom_site_fract_x
 _atom_site_fract_y
 _atom_site_fract_z
 _atom_site_occupancy
  Nd  Nd0  1  0.57014508  0.57014508  1.00000000  1.0
  Si  Si1  1  0.83523615  0.33523615  0.50000000  1.0
  Si  Si2  1  0.33523615  0.83523615  0.50000000  1.0
  Si  Si3  1  -0.00907561  -0.00907561  0.00000000  1.0
  Os  Os4  1  0.22625824  0.22625824  -0.00000000  1.0
