# generated using pymatgen
data_SrCoP2O7
_symmetry_space_group_name_H-M   'P 1'
_cell_length_a   5.39087462
_cell_length_b   8.28888144
_cell_length_c   14.00586877
_cell_angle_alpha   90.00000000
_cell_angle_beta   112.58405844
_cell_angle_gamma   90.00000000
_symmetry_Int_Tables_number   1
_chemical_formula_structural   SrCoP2O7
_chemical_formula_sum   'Sr4 Co4 P8 O28'
_cell_volume   577.85129739
_cell_formula_units_Z   4
loop_
 _symmetry_equiv_pos_site_id
 _symmetry_equiv_pos_as_xyz
  1  'x, y, z'
loop_
 _atom_site_type_symbol
 _atom_site_label
 _atom_site_symmetry_multiplicity
 _atom_site_fract_x
 _atom_site_fract_y
 _atom_site_fract_z
 _atom_site_occupancy
  Sr  Sr0  1  0.99127137  0.16420451  0.27848064  1.0
  Sr  Sr1  1  0.99127137  0.33579549  0.77848064  1.0
  Sr  Sr2  1  0.00872863  0.66420451  0.22151936  1.0
  Sr  Sr3  1  0.00872863  0.83579549  0.72151936  1.0
  Co  Co4  1  0.71751695  0.85002882  0.39642495  1.0
  Co  Co5  1  0.71751695  0.64997118  0.89642495  1.0
  Co  Co6  1  0.28248305  0.35002882  0.10357505  1.0
  Co  Co7  1  0.28248305  0.14997118  0.60357505  1.0
  P  P8  1  0.66768481  0.19989651  0.47961785  1.0
  P  P9  1  0.66768481  0.30010349  0.97961785  1.0
  P  P10  1  0.33231519  0.69989651  0.02038215  1.0
  P  P11  1  0.33231519  0.80010349  0.52038215  1.0
  P  P12  1  0.58116727  0.46660616  0.33246174  1.0
  P  P13  1  0.58116727  0.03339384  0.83246174  1.0
  P  P14  1  0.41883273  0.96660616  0.16753826  1.0
  P  P15  1  0.41883273  0.53339384  0.66753826  1.0
  O  O16  1  0.89077358  0.31286569  0.08861420  1.0
  O  O17  1  0.89077358  0.18713431  0.58861420  1.0
  O  O18  1  0.10922642  0.81286569  0.41138580  1.0
  O  O19  1  0.10922642  0.68713431  0.91138580  1.0
  O  O20  1  0.80538489  0.44341405  0.29241849  1.0
  O  O21  1  0.80538489  0.05658595  0.79241849  1.0
  O  O22  1  0.19461511  0.94341405  0.20758151  1.0
  O  O23  1  0.19461511  0.55658595  0.70758151  1.0
  O  O24  1  0.73200121  0.09575512  0.39962102  1.0
  O  O25  1  0.73200121  0.40424488  0.89962102  1.0
  O  O26  1  0.26799879  0.59575512  0.10037898  1.0
  O  O27  1  0.26799879  0.90424488  0.60037898  1.0
  O  O28  1  0.68285408  0.38726990  0.44741678  1.0
  O  O29  1  0.68285408  0.11273010  0.94741678  1.0
  O  O30  1  0.31714592  0.88726990  0.05258322  1.0
  O  O31  1  0.31714592  0.61273010  0.55258322  1.0
  O  O32  1  0.48069886  0.14402336  0.15321747  1.0
  O  O33  1  0.48069886  0.35597664  0.65321747  1.0
  O  O34  1  0.51930114  0.64402336  0.34678253  1.0
  O  O35  1  0.51930114  0.85597664  0.84678253  1.0
  O  O36  1  0.37978558  0.16860152  0.47344030  1.0
  O  O37  1  0.37978558  0.33139848  0.97344030  1.0
  O  O38  1  0.62021442  0.66860152  0.02655970  1.0
  O  O39  1  0.62021442  0.83139848  0.52655970  1.0
  O  O40  1  0.31539232  0.38265320  0.26441683  1.0
  O  O41  1  0.31539232  0.11734680  0.76441683  1.0
  O  O42  1  0.68460768  0.88265320  0.23558317  1.0
  O  O43  1  0.68460768  0.61734680  0.73558317  1.0
