# generated using pymatgen
data_Ca2MnFeO5
_symmetry_space_group_name_H-M   'P 1'
_cell_length_a   5.40654166
_cell_length_b   14.76621674
_cell_length_c   5.60723472
_cell_angle_alpha   90.00000000
_cell_angle_beta   90.00000000
_cell_angle_gamma   90.00000000
_symmetry_Int_Tables_number   1
_chemical_formula_structural   Ca2MnFeO5
_chemical_formula_sum   'Ca8 Mn4 Fe4 O20'
_cell_volume   447.64890741
_cell_formula_units_Z   4
loop_
 _symmetry_equiv_pos_site_id
 _symmetry_equiv_pos_as_xyz
  1  'x, y, z'
loop_
 _atom_site_type_symbol
 _atom_site_label
 _atom_site_symmetry_multiplicity
 _atom_site_fract_x
 _atom_site_fract_y
 _atom_site_fract_z
 _atom_site_occupancy
  Mn  Mn0  1  0.50000000  0.50000000  0.50000000  1.0
  Mn  Mn1  1  0.50000000  0.00000000  0.50000000  1.0
  Mn  Mn2  1  0.00000000  0.50000000  0.00000000  1.0
  Mn  Mn3  1  0.00000000  0.00000000  0.00000000  1.0
  Fe  Fe4  1  0.44945769  0.25000000  0.57071143  1.0
  Fe  Fe5  1  0.94945769  0.25000000  0.92928857  1.0
  Fe  Fe6  1  0.55054231  0.75000000  0.42928857  1.0
  Fe  Fe7  1  0.05054231  0.75000000  0.07071143  1.0
  O  O8  1  0.24293326  0.48585223  0.74225461  1.0
  O  O9  1  0.24293326  0.01414777  0.74225461  1.0
  O  O10  1  0.74293326  0.48585223  0.75774539  1.0
  O  O11  1  0.74293326  0.01414777  0.75774539  1.0
  O  O12  1  0.75706674  0.98585223  0.25774539  1.0
  O  O13  1  0.75706674  0.51414777  0.25774539  1.0
  O  O14  1  0.25706674  0.98585223  0.24225461  1.0
  O  O15  1  0.25706674  0.51414777  0.24225461  1.0
  O  O16  1  0.08491031  0.25000000  0.60462930  1.0
  O  O17  1  0.58491031  0.25000000  0.89537070  1.0
  O  O18  1  0.91508969  0.75000000  0.39537070  1.0
  O  O19  1  0.41508969  0.75000000  0.10462930  1.0
  O  O20  1  0.47912049  0.86470293  0.56345279  1.0
  O  O21  1  0.47912049  0.63529707  0.56345279  1.0
  O  O22  1  0.97912049  0.86470293  0.93654721  1.0
  O  O23  1  0.97912049  0.63529707  0.93654721  1.0
  O  O24  1  0.52087951  0.36470293  0.43654721  1.0
  O  O25  1  0.52087951  0.13529707  0.43654721  1.0
  O  O26  1  0.02087951  0.36470293  0.06345279  1.0
  O  O27  1  0.02087951  0.13529707  0.06345279  1.0
  Ca  Ca28  1  0.48315201  0.39144129  0.02622158  1.0
  Ca  Ca29  1  0.48315201  0.10855871  0.02622158  1.0
  Ca  Ca30  1  0.98315201  0.39144129  0.47377842  1.0
  Ca  Ca31  1  0.98315201  0.10855871  0.47377842  1.0
  Ca  Ca32  1  0.51684799  0.89144129  0.97377842  1.0
  Ca  Ca33  1  0.51684799  0.60855871  0.97377842  1.0
  Ca  Ca34  1  0.01684799  0.89144129  0.52622158  1.0
  Ca  Ca35  1  0.01684799  0.60855871  0.52622158  1.0
