# generated using pymatgen
data_ZnS
_symmetry_space_group_name_H-M   'P 1'
_cell_length_a   3.85026400
_cell_length_b   3.85026400
_cell_length_c   50.32898484
_cell_angle_alpha   90.00000000
_cell_angle_beta   90.00000000
_cell_angle_gamma   120.00000000
_symmetry_Int_Tables_number   1
_chemical_formula_structural   ZnS
_chemical_formula_sum   'Zn16 S16'
_cell_volume   646.14474874
_cell_formula_units_Z   16
loop_
 _symmetry_equiv_pos_site_id
 _symmetry_equiv_pos_as_xyz
  1  'x, y, z'
loop_
 _atom_site_type_symbol
 _atom_site_label
 _atom_site_symmetry_multiplicity
 _atom_site_fract_x
 _atom_site_fract_y
 _atom_site_fract_z
 _atom_site_occupancy
  Zn  Zn0  1  0.00000000  0.00000000  0.06243580  1.0
  Zn  Zn1  1  -0.00000000  -0.00000000  0.31254014  1.0
  Zn  Zn2  1  0.00000000  0.00000000  0.49998053  1.0
  Zn  Zn3  1  0.00000000  0.00000000  0.68748281  1.0
  Zn  Zn4  1  0.00000000  0.00000000  0.87496796  1.0
  Zn  Zn5  1  0.66666667  0.33333333  0.18753652  1.0
  Zn  Zn6  1  0.66666667  0.33333333  0.37500192  1.0
  Zn  Zn7  1  0.66666667  0.33333333  0.56248161  1.0
  Zn  Zn8  1  0.66666667  0.33333333  0.74998114  1.0
  Zn  Zn9  1  0.66666667  0.33333333  0.93743343  1.0
  Zn  Zn10  1  0.33333333  0.66666667  -0.00011854  1.0
  Zn  Zn11  1  0.33333333  0.66666667  0.12497541  1.0
  Zn  Zn12  1  0.33333333  0.66666667  0.25007721  1.0
  Zn  Zn13  1  0.33333333  0.66666667  0.43748463  1.0
  Zn  Zn14  1  0.33333333  0.66666667  0.62498337  1.0
  Zn  Zn15  1  0.33333333  0.66666667  0.81247965  1.0
  S  S16  1  0.00000000  0.00000000  0.01550615  1.0
  S  S17  1  0.00000000  0.00000000  0.26568893  1.0
  S  S18  1  -0.00000000  -0.00000000  0.45311521  1.0
  S  S19  1  0.00000000  0.00000000  0.64061701  1.0
  S  S20  1  0.00000000  0.00000000  0.82810942  1.0
  S  S21  1  0.66666667  0.33333333  0.14060323  1.0
  S  S22  1  0.66666667  0.33333333  0.32815078  1.0
  S  S23  1  0.66666667  0.33333333  0.51561530  1.0
  S  S24  1  0.66666667  0.33333333  0.70311583  1.0
  S  S25  1  0.66666667  0.33333333  0.89058259  1.0
  S  S26  1  0.33333333  0.66666667  0.07813880  1.0
  S  S27  1  0.33333333  0.66666667  0.20323229  1.0
  S  S28  1  0.33333333  0.66666667  0.39062394  1.0
  S  S29  1  0.33333333  0.66666667  0.57811714  1.0
  S  S30  1  0.33333333  0.66666667  0.76561549  1.0
  S  S31  1  0.33333333  0.66666667  0.95304429  1.0
