# generated using pymatgen
data_La3IrO7
_symmetry_space_group_name_H-M   'P 1'
_cell_length_a   6.76743846
_cell_length_b   6.76743846
_cell_length_c   7.69271911
_cell_angle_alpha   90.00000000
_cell_angle_beta   90.00000000
_cell_angle_gamma   68.04586554
_symmetry_Int_Tables_number   1
_chemical_formula_structural   La3IrO7
_chemical_formula_sum   'La6 Ir2 O14'
_cell_volume   326.76434736
_cell_formula_units_Z   2
loop_
 _symmetry_equiv_pos_site_id
 _symmetry_equiv_pos_as_xyz
  1  'x, y, z'
loop_
 _atom_site_type_symbol
 _atom_site_label
 _atom_site_symmetry_multiplicity
 _atom_site_fract_x
 _atom_site_fract_y
 _atom_site_fract_z
 _atom_site_occupancy
  La  La0  1  0.08565418  0.46973588  0.25000000  1.0
  La  La1  1  -0.53026412  1.08565418  0.75000000  1.0
  La  La2  1  0.53026412  0.91434582  0.25000000  1.0
  La  La3  1  -0.08565418  1.53026412  0.75000000  1.0
  La  La4  1  0.00000000  0.00000000  0.50000000  1.0
  La  La5  1  0.00000000  0.00000000  0.00000000  1.0
  Ir  Ir6  1  0.50000000  0.50000000  0.50000000  1.0
  Ir  Ir7  1  0.50000000  0.50000000  0.00000000  1.0
  O  O8  1  -0.10289985  1.84181755  0.25000000  1.0
  O  O9  1  0.84181755  0.89710015  0.75000000  1.0
  O  O10  1  -0.84181755  1.10289985  0.25000000  1.0
  O  O11  1  0.10289985  0.15818245  0.75000000  1.0
  O  O12  1  -0.19224548  1.44131355  0.46136485  1.0
  O  O13  1  -0.19224548  1.44131355  0.03863515  1.0
  O  O14  1  0.44131355  0.80775452  0.96136485  1.0
  O  O15  1  0.44131355  0.80775452  0.53863515  1.0
  O  O16  1  -0.44131355  1.19224548  0.46136485  1.0
  O  O17  1  -0.44131355  1.19224548  0.03863515  1.0
  O  O18  1  0.19224548  0.55868645  0.96136485  1.0
  O  O19  1  0.19224548  0.55868645  0.53863515  1.0
  O  O20  1  0.41664216  0.58335784  0.25000000  1.0
  O  O21  1  -0.41664216  1.41664216  0.75000000  1.0
