# generated using pymatgen
data_BC2N
_symmetry_space_group_name_H-M   'P 1'
_cell_length_a   3.59818933
_cell_length_b   3.64679549
_cell_length_c   3.60423475
_cell_angle_alpha   90.00000000
_cell_angle_beta   90.00000000
_cell_angle_gamma   90.00000000
_symmetry_Int_Tables_number   1
_chemical_formula_structural   BC2N
_chemical_formula_sum   'B2 C4 N2'
_cell_volume   47.29426601
_cell_formula_units_Z   2
loop_
 _symmetry_equiv_pos_site_id
 _symmetry_equiv_pos_as_xyz
  1  'x, y, z'
loop_
 _atom_site_type_symbol
 _atom_site_label
 _atom_site_symmetry_multiplicity
 _atom_site_fract_x
 _atom_site_fract_y
 _atom_site_fract_z
 _atom_site_occupancy
  B  B0  1  0.74722012  0.50000000  0.00000000  1.0
  B  B1  1  0.25277988  0.50000000  0.50000000  1.0
  C  C2  1  0.50000000  0.75738512  0.25000000  1.0
  C  C3  1  0.50000000  0.24261488  0.75000000  1.0
  C  C4  1  0.25494083  0.00000000  0.00000000  1.0
  C  C5  1  0.74505917  0.00000000  0.50000000  1.0
  N  N6  1  0.00000000  0.75806356  0.75000000  1.0
  N  N7  1  0.00000000  0.24193644  0.25000000  1.0
