# generated using pymatgen
data_V3Zn2N
_symmetry_space_group_name_H-M   'P 1'
_cell_length_a   6.56608446
_cell_length_b   6.56608446
_cell_length_c   6.56608446
_cell_angle_alpha   90.00000000
_cell_angle_beta   90.00000000
_cell_angle_gamma   90.00000000
_symmetry_Int_Tables_number   1
_chemical_formula_structural   V3Zn2N
_chemical_formula_sum   'V12 Zn8 N4'
_cell_volume   283.08665373
_cell_formula_units_Z   4
loop_
 _symmetry_equiv_pos_site_id
 _symmetry_equiv_pos_as_xyz
  1  'x, y, z'
loop_
 _atom_site_type_symbol
 _atom_site_label
 _atom_site_symmetry_multiplicity
 _atom_site_fract_x
 _atom_site_fract_y
 _atom_site_fract_z
 _atom_site_occupancy
  V  V0  1  0.37500000  0.78715611  0.96284389  1.0
  V  V1  1  0.12500000  0.21284389  0.46284389  1.0
  V  V2  1  0.62500000  0.28715611  0.53715611  1.0
  V  V3  1  0.87500000  0.71284389  0.03715611  1.0
  V  V4  1  0.28715611  0.53715611  0.62500000  1.0
  V  V5  1  0.03715611  0.87500000  0.71284389  1.0
  V  V6  1  0.53715611  0.62500000  0.28715611  1.0
  V  V7  1  0.78715611  0.96284389  0.37500000  1.0
  V  V8  1  0.71284389  0.03715611  0.87500000  1.0
  V  V9  1  0.46284389  0.12500000  0.21284389  1.0
  V  V10  1  0.96284389  0.37500000  0.78715611  1.0
  V  V11  1  0.21284389  0.46284389  0.12500000  1.0
  Zn  Zn12  1  0.42704547  0.92704547  0.57295453  1.0
  Zn  Zn13  1  0.17704547  0.82295453  0.32295453  1.0
  Zn  Zn14  1  0.67704547  0.67704547  0.67704547  1.0
  Zn  Zn15  1  0.92704547  0.57295453  0.42704547  1.0
  Zn  Zn16  1  0.57295453  0.42704547  0.92704547  1.0
  Zn  Zn17  1  0.32295453  0.17704547  0.82295453  1.0
  Zn  Zn18  1  0.82295453  0.32295453  0.17704547  1.0
  Zn  Zn19  1  0.07295453  0.07295453  0.07295453  1.0
  N  N20  1  0.12500000  0.62500000  0.87500000  1.0
  N  N21  1  0.87500000  0.12500000  0.62500000  1.0
  N  N22  1  0.37500000  0.37500000  0.37500000  1.0
  N  N23  1  0.62500000  0.87500000  0.12500000  1.0
