# generated using pymatgen
data_BaMoO4
_symmetry_space_group_name_H-M   'P 1'
_cell_length_a   7.62130337
_cell_length_b   7.62130337
_cell_length_c   5.66644206
_cell_angle_alpha   68.17129057
_cell_angle_beta   111.82870943
_cell_angle_gamma   63.44894658
_symmetry_Int_Tables_number   1
_chemical_formula_structural   BaMoO4
_chemical_formula_sum   'Ba2 Mo2 O8'
_cell_volume   208.17976906
_cell_formula_units_Z   2
loop_
 _symmetry_equiv_pos_site_id
 _symmetry_equiv_pos_as_xyz
  1  'x, y, z'
loop_
 _atom_site_type_symbol
 _atom_site_label
 _atom_site_symmetry_multiplicity
 _atom_site_fract_x
 _atom_site_fract_y
 _atom_site_fract_z
 _atom_site_occupancy
  Ba  Ba0  1  0.62504145  0.62504145  0.75000000  1.0
  Ba  Ba1  1  1.37495855  0.37495855  0.25000000  1.0
  Mo  Mo2  1  1.12489627  0.12489627  0.75000000  1.0
  Mo  Mo3  1  0.87510373  0.87510373  0.25000000  1.0
  O  O4  1  1.31901415  0.08400297  0.10132489  1.0
  O  O5  1  0.91599703  0.68098585  0.60132489  1.0
  O  O6  1  1.08400297  0.31901415  0.39867511  1.0
  O  O7  1  1.68098585  -0.08400297  0.89867511  1.0
  O  O8  1  1.71787194  0.18549512  0.13366364  1.0
  O  O9  1  0.81450488  0.28212806  0.63366364  1.0
  O  O10  1  1.18549512  0.71787194  0.36633636  1.0
  O  O11  1  1.28212806  -0.18549512  0.86633636  1.0
