# generated using pymatgen
data_Cr2Te3
_symmetry_space_group_name_H-M   'P 1'
_cell_length_a   6.90781654
_cell_length_b   6.90781654
_cell_length_c   12.30934135
_cell_angle_alpha   90.00000000
_cell_angle_beta   90.00000000
_cell_angle_gamma   120.00000000
_symmetry_Int_Tables_number   1
_chemical_formula_structural   Cr2Te3
_chemical_formula_sum   'Cr8 Te12'
_cell_volume   508.68278022
_cell_formula_units_Z   4
loop_
 _symmetry_equiv_pos_site_id
 _symmetry_equiv_pos_as_xyz
  1  'x, y, z'
loop_
 _atom_site_type_symbol
 _atom_site_label
 _atom_site_symmetry_multiplicity
 _atom_site_fract_x
 _atom_site_fract_y
 _atom_site_fract_z
 _atom_site_occupancy
  Cr  Cr0  1  0.33333333  0.66666667  -0.00713786  1.0
  Cr  Cr1  1  0.33333333  0.66666667  0.50713786  1.0
  Cr  Cr2  1  0.66666667  0.33333333  0.49286214  1.0
  Cr  Cr3  1  0.66666667  0.33333333  0.00713786  1.0
  Cr  Cr4  1  0.33333333  0.66666667  0.25000000  1.0
  Cr  Cr5  1  0.66666667  0.33333333  0.75000000  1.0
  Cr  Cr6  1  0.00000000  0.00000000  0.00000000  1.0
  Cr  Cr7  1  0.00000000  -0.00000000  0.50000000  1.0
  Te  Te8  1  0.32948537  0.99547882  0.12252796  1.0
  Te  Te9  1  0.32948537  0.33400655  0.37747204  1.0
  Te  Te10  1  0.99547882  0.32948537  0.62252796  1.0
  Te  Te11  1  0.99547882  0.66599345  0.87747204  1.0
  Te  Te12  1  0.66599345  0.99547882  0.37747204  1.0
  Te  Te13  1  0.66599345  0.67051463  0.12252796  1.0
  Te  Te14  1  0.00452118  0.67051463  0.37747204  1.0
  Te  Te15  1  0.00452118  0.33400655  0.12252796  1.0
  Te  Te16  1  0.67051463  0.66599345  0.62252796  1.0
  Te  Te17  1  0.67051463  0.00452118  0.87747204  1.0
  Te  Te18  1  0.33400655  0.32948537  0.87747204  1.0
  Te  Te19  1  0.33400655  0.00452118  0.62252796  1.0
