# generated using pymatgen
data_Sr7Nb6O21
_symmetry_space_group_name_H-M   'P 1'
_cell_length_a   16.67086876
_cell_length_b   16.67086876
_cell_length_c   16.67086876
_cell_angle_alpha   19.73982173
_cell_angle_beta   19.73982173
_cell_angle_gamma   19.73982173
_symmetry_Int_Tables_number   1
_chemical_formula_structural   Sr7Nb6O21
_chemical_formula_sum   'Sr7 Nb6 O21'
_cell_volume   462.24091440
_cell_formula_units_Z   1
loop_
 _symmetry_equiv_pos_site_id
 _symmetry_equiv_pos_as_xyz
  1  'x, y, z'
loop_
 _atom_site_type_symbol
 _atom_site_label
 _atom_site_symmetry_multiplicity
 _atom_site_fract_x
 _atom_site_fract_y
 _atom_site_fract_z
 _atom_site_occupancy
  Sr  Sr0  1  0.15295571  0.15295571  0.15295571  1.0
  Sr  Sr1  1  0.84704429  -0.15295571  -0.15295571  1.0
  Sr  Sr2  1  0.23254411  0.23254411  0.23254411  1.0
  Sr  Sr3  1  0.76745589  -0.23254411  -0.23254411  1.0
  Sr  Sr4  1  0.38384893  0.38384893  -0.61615107  1.0
  Sr  Sr5  1  0.61615107  0.61615107  -0.38384893  1.0
  Sr  Sr6  1  0.00000000  0.00000000  0.00000000  1.0
  Nb  Nb7  1  0.07242140  0.07242140  0.07242140  1.0
  Nb  Nb8  1  0.92757860  -0.07242140  -0.07242140  1.0
  Nb  Nb9  1  0.30960354  0.30960354  0.30960354  1.0
  Nb  Nb10  1  0.69039646  -0.30960354  -0.30960354  1.0
  Nb  Nb11  1  0.45653327  0.45653327  -0.54346673  1.0
  Nb  Nb12  1  0.54346673  0.54346673  -0.45653327  1.0
  O  O13  1  0.21964911  0.75514024  -0.69501586  1.0
  O  O14  1  0.69501586  0.78035089  -0.75514024  1.0
  O  O15  1  0.24485976  0.69501586  -0.21964911  1.0
  O  O16  1  0.78035089  0.24485976  -0.30498414  1.0
  O  O17  1  0.30498414  0.21964911  -0.24485976  1.0
  O  O18  1  0.75514024  0.30498414  -0.78035089  1.0
  O  O19  1  0.29432922  0.85728911  -0.57205439  1.0
  O  O20  1  0.57205439  0.70567078  -0.85728911  1.0
  O  O21  1  0.14271089  0.57205439  -0.29432922  1.0
  O  O22  1  0.70567078  0.14271089  -0.42794561  1.0
  O  O23  1  0.42794561  0.29432922  -0.14271089  1.0
  O  O24  1  0.85728911  0.42794561  -0.70567078  1.0
  O  O25  1  0.37504450  -0.13969261  -0.09466785  1.0
  O  O26  1  1.09466785  -0.37504450  0.13969261  1.0
  O  O27  1  1.13969261  0.09466785  -0.37504450  1.0
  O  O28  1  0.62495550  0.13969261  0.09466785  1.0
  O  O29  1  0.90533215  -0.62495550  -0.13969261  1.0
  O  O30  1  0.86030739  -0.09466785  -0.62495550  1.0
  O  O31  1  0.50000000  -0.00000000  -0.50000000  1.0
  O  O32  1  0.50000000  -0.50000000  -0.00000000  1.0
  O  O33  1  -0.00000000  0.50000000  -0.50000000  1.0
