# generated using pymatgen
data_CuH2CBrN2
_symmetry_space_group_name_H-M   'P 1'
_cell_length_a   8.57304833
_cell_length_b   3.87147450
_cell_length_c   13.47753991
_cell_angle_alpha   90.00000000
_cell_angle_beta   90.00000000
_cell_angle_gamma   90.00000000
_symmetry_Int_Tables_number   1
_chemical_formula_structural   CuH2CBrN2
_chemical_formula_sum   'Cu4 H8 C4 Br4 N8'
_cell_volume   447.32410514
_cell_formula_units_Z   4
loop_
 _symmetry_equiv_pos_site_id
 _symmetry_equiv_pos_as_xyz
  1  'x, y, z'
loop_
 _atom_site_type_symbol
 _atom_site_label
 _atom_site_symmetry_multiplicity
 _atom_site_fract_x
 _atom_site_fract_y
 _atom_site_fract_z
 _atom_site_occupancy
  Cu  Cu0  1  0.89512273  0.75000000  0.04649462  1.0
  Cu  Cu1  1  0.39512273  0.75000000  0.45350538  1.0
  Cu  Cu2  1  0.10487727  0.25000000  0.95350538  1.0
  Cu  Cu3  1  0.60487727  0.25000000  0.54649462  1.0
  H  H4  1  0.89534787  0.75000000  0.27776843  1.0
  H  H5  1  0.39534787  0.75000000  0.22223157  1.0
  H  H6  1  0.10465213  0.25000000  0.72223157  1.0
  H  H7  1  0.60465213  0.25000000  0.77776843  1.0
  H  H8  1  0.81577446  0.75000000  0.39745833  1.0
  H  H9  1  0.31577446  0.75000000  0.10254167  1.0
  H  H10  1  0.18422554  0.25000000  0.60254167  1.0
  H  H11  1  0.68422554  0.25000000  0.89745833  1.0
  C  C12  1  0.55255035  0.75000000  0.11100818  1.0
  C  C13  1  0.05255035  0.75000000  0.38899182  1.0
  C  C14  1  0.44744965  0.25000000  0.88899182  1.0
  C  C15  1  0.94744965  0.25000000  0.61100818  1.0
  Br  Br16  1  0.46252548  0.75000000  0.63231107  1.0
  Br  Br17  1  0.96252548  0.75000000  0.86768893  1.0
  Br  Br18  1  0.53747452  0.25000000  0.36768893  1.0
  Br  Br19  1  0.03747452  0.25000000  0.13231107  1.0
  N  N20  1  0.91127958  0.75000000  0.35264805  1.0
  N  N21  1  0.41127958  0.75000000  0.14735195  1.0
  N  N22  1  0.08872042  0.25000000  0.64735195  1.0
  N  N23  1  0.58872042  0.25000000  0.85264805  1.0
  N  N24  1  0.68040289  0.75000000  0.08003708  1.0
  N  N25  1  0.18040289  0.75000000  0.41996292  1.0
  N  N26  1  0.31959711  0.25000000  0.91996292  1.0
  N  N27  1  0.81959711  0.25000000  0.58003708  1.0
