# generated using pymatgen
data_K2HfO6
_symmetry_space_group_name_H-M   'P 1'
_cell_length_a   11.89004095
_cell_length_b   11.89004095
_cell_length_c   5.85595163
_cell_angle_alpha   90.00000000
_cell_angle_beta   90.00000000
_cell_angle_gamma   59.70172999
_symmetry_Int_Tables_number   1
_chemical_formula_structural   K2HfO6
_chemical_formula_sum   'K8 Hf4 O24'
_cell_volume   714.79523802
_cell_formula_units_Z   4
loop_
 _symmetry_equiv_pos_site_id
 _symmetry_equiv_pos_as_xyz
  1  'x, y, z'
loop_
 _atom_site_type_symbol
 _atom_site_label
 _atom_site_symmetry_multiplicity
 _atom_site_fract_x
 _atom_site_fract_y
 _atom_site_fract_z
 _atom_site_occupancy
  Hf  Hf0  1  -0.75000000  0.75000000  0.49996218  1.0
  Hf  Hf1  1  -0.25000000  1.25000000  0.50003782  1.0
  Hf  Hf2  1  -0.00000000  1.00000000  0.00000000  1.0
  Hf  Hf3  1  -0.50000000  0.50000000  0.00000000  1.0
  O  O4  1  -0.12713955  0.62469389  0.10508589  1.0
  O  O5  1  -0.62713955  1.12469389  0.89491411  1.0
  O  O6  1  -0.12469389  0.62713955  0.89491411  1.0
  O  O7  1  -0.62469389  1.12713955  0.10508589  1.0
  O  O8  1  0.12469389  0.37286045  0.10508589  1.0
  O  O9  1  -0.37530611  0.87286045  0.89491411  1.0
  O  O10  1  0.12713955  0.37530611  0.89491411  1.0
  O  O11  1  -0.37286045  0.87530611  0.10508589  1.0
  O  O12  1  0.15107775  1.65107775  0.49970726  1.0
  O  O13  1  -0.34892225  1.15107775  0.50029274  1.0
  O  O14  1  -0.15107775  1.34892225  0.50029274  1.0
  O  O15  1  -0.65107775  0.84892225  0.49970726  1.0
  O  O16  1  -0.09886695  0.90113305  0.00000000  1.0
  O  O17  1  0.40113305  0.40113305  0.00000000  1.0
  O  O18  1  -0.40113305  0.59886695  0.00000000  1.0
  O  O19  1  0.09886695  0.09886695  0.00000000  1.0
  O  O20  1  -0.12501849  1.12501849  0.25000387  1.0
  O  O21  1  -0.62501849  0.62501849  0.74999613  1.0
  O  O22  1  -0.37498151  1.37498151  0.25000387  1.0
  O  O23  1  -0.87498151  0.87498151  0.74999613  1.0
  O  O24  1  -0.87498348  0.87498348  0.25000153  1.0
  O  O25  1  -0.37498348  1.37498348  0.74999847  1.0
  O  O26  1  -0.62501652  0.62501652  0.25000153  1.0
  O  O27  1  -0.12501652  1.12501652  0.74999847  1.0
  K  K28  1  -0.35349657  1.14650343  0.00022395  1.0
  K  K29  1  0.14650343  1.64650343  0.99977605  1.0
  K  K30  1  -0.64650343  0.85349657  0.99977605  1.0
  K  K31  1  -0.14650343  1.35349657  0.00022395  1.0
  K  K32  1  -0.10461875  0.89538125  0.50000000  1.0
  K  K33  1  0.39538125  0.39538125  0.50000000  1.0
  K  K34  1  -0.39538125  0.60461875  0.50000000  1.0
  K  K35  1  0.10461875  0.10461875  0.50000000  1.0
