# generated using pymatgen
data_Ba3ZnB5PO14
_symmetry_space_group_name_H-M   'P 1'
_cell_length_a   10.45646129
_cell_length_b   7.17198443
_cell_length_c   8.32783666
_cell_angle_alpha   90.00000000
_cell_angle_beta   90.00000000
_cell_angle_gamma   90.00000000
_symmetry_Int_Tables_number   1
_chemical_formula_structural   Ba3ZnB5PO14
_chemical_formula_sum   'Ba6 Zn2 B10 P2 O28'
_cell_volume   624.53426467
_cell_formula_units_Z   2
loop_
 _symmetry_equiv_pos_site_id
 _symmetry_equiv_pos_as_xyz
  1  'x, y, z'
loop_
 _atom_site_type_symbol
 _atom_site_label
 _atom_site_symmetry_multiplicity
 _atom_site_fract_x
 _atom_site_fract_y
 _atom_site_fract_z
 _atom_site_occupancy
  Ba  Ba0  1  0.23137091  0.93812693  0.79732447  1.0
  Ba  Ba1  1  0.73137091  0.06187307  0.29732447  1.0
  Ba  Ba2  1  0.76862909  0.93812693  0.79732447  1.0
  Ba  Ba3  1  0.26862909  0.06187307  0.29732447  1.0
  Ba  Ba4  1  0.50000000  0.47227983  0.08432393  1.0
  Ba  Ba5  1  0.00000000  0.52772017  0.58432393  1.0
  Zn  Zn6  1  0.50000000  0.26066811  0.68794557  1.0
  Zn  Zn7  1  -0.00000000  0.73933189  0.18794557  1.0
  B  B8  1  0.37724135  0.60111480  0.53204342  1.0
  B  B9  1  0.87724135  0.39888520  0.03204342  1.0
  B  B10  1  0.62275865  0.60111480  0.53204342  1.0
  B  B11  1  0.12275865  0.39888520  0.03204342  1.0
  B  B12  1  0.26375288  0.44856676  0.78300666  1.0
  B  B13  1  0.76375288  0.55143324  0.28300666  1.0
  B  B14  1  0.73624712  0.44856676  0.78300666  1.0
  B  B15  1  0.23624712  0.55143324  0.28300666  1.0
  B  B16  1  0.50000000  0.90507400  0.51810227  1.0
  B  B17  1  0.00000000  0.09492600  0.01810227  1.0
  P  P18  1  0.50000000  0.93548260  0.02111401  1.0
  P  P19  1  0.00000000  0.06451740  0.52111401  1.0
  O  O20  1  0.38431185  0.80979686  0.51604580  1.0
  O  O21  1  0.88431185  0.19020314  0.01604580  1.0
  O  O22  1  0.61568815  0.80979686  0.51604580  1.0
  O  O23  1  0.11568815  0.19020314  0.01604580  1.0
  O  O24  1  0.37633674  0.82086080  0.06113856  1.0
  O  O25  1  0.87633674  0.17913920  0.56113856  1.0
  O  O26  1  0.62366326  0.82086080  0.06113856  1.0
  O  O27  1  0.12366326  0.17913920  0.56113856  1.0
  O  O28  1  0.34737828  0.31178134  0.82032519  1.0
  O  O29  1  0.84737828  0.68821866  0.32032519  1.0
  O  O30  1  0.65262172  0.31178134  0.82032519  1.0
  O  O31  1  0.15262172  0.68821866  0.32032519  1.0
  O  O32  1  0.27325704  0.57039533  0.65214207  1.0
  O  O33  1  0.77325704  0.42960467  0.15214207  1.0
  O  O34  1  0.72674296  0.57039533  0.65214207  1.0
  O  O35  1  0.22674296  0.42960467  0.15214207  1.0
  O  O36  1  0.15579176  0.48726659  0.87582409  1.0
  O  O37  1  0.65579176  0.51273341  0.37582409  1.0
  O  O38  1  0.84420824  0.48726659  0.87582409  1.0
  O  O39  1  0.34420824  0.51273341  0.37582409  1.0
  O  O40  1  0.50000000  0.97914352  0.83836914  1.0
  O  O41  1  0.00000000  0.02085648  0.33836914  1.0
  O  O42  1  0.50000000  0.52881049  0.58855991  1.0
  O  O43  1  0.00000000  0.47118951  0.08855991  1.0
  O  O44  1  0.50000000  0.11273996  0.13030966  1.0
  O  O45  1  0.00000000  0.88726004  0.63030966  1.0
  O  O46  1  0.50000000  0.09408226  0.50107500  1.0
  O  O47  1  0.00000000  0.90591774  0.00107500  1.0
