# generated using pymatgen
data_Eu(LuSe2)2
_symmetry_space_group_name_H-M   'P 1'
_cell_length_a   12.41417662
_cell_length_b   4.05471682
_cell_length_c   14.67635564
_cell_angle_alpha   90.00000000
_cell_angle_beta   90.00000000
_cell_angle_gamma   90.00000000
_symmetry_Int_Tables_number   1
_chemical_formula_structural   Eu(LuSe2)2
_chemical_formula_sum   'Eu4 Lu8 Se16'
_cell_volume   738.74860832
_cell_formula_units_Z   4
loop_
 _symmetry_equiv_pos_site_id
 _symmetry_equiv_pos_as_xyz
  1  'x, y, z'
loop_
 _atom_site_type_symbol
 _atom_site_label
 _atom_site_symmetry_multiplicity
 _atom_site_fract_x
 _atom_site_fract_y
 _atom_site_fract_z
 _atom_site_occupancy
  Eu  Eu0  1  0.75961494  0.75000000  0.66718992  1.0
  Eu  Eu1  1  0.25961494  0.75000000  0.83281008  1.0
  Eu  Eu2  1  0.24038506  0.25000000  0.33281008  1.0
  Eu  Eu3  1  0.74038506  0.25000000  0.16718992  1.0
  Lu  Lu4  1  0.91481844  0.75000000  0.40390463  1.0
  Lu  Lu5  1  0.41481844  0.75000000  0.09609537  1.0
  Lu  Lu6  1  0.08518156  0.25000000  0.59609537  1.0
  Lu  Lu7  1  0.58518156  0.25000000  0.90390463  1.0
  Lu  Lu8  1  0.44047402  0.75000000  0.61165894  1.0
  Lu  Lu9  1  0.94047402  0.75000000  0.88834106  1.0
  Lu  Lu10  1  0.55952598  0.25000000  0.38834106  1.0
  Lu  Lu11  1  0.05952598  0.25000000  0.11165894  1.0
  Se  Se12  1  0.90630686  0.75000000  0.07657874  1.0
  Se  Se13  1  0.40630686  0.75000000  0.42342126  1.0
  Se  Se14  1  0.09369314  0.25000000  0.92342126  1.0
  Se  Se15  1  0.59369314  0.25000000  0.57657874  1.0
  Se  Se16  1  0.70373688  0.75000000  0.32800478  1.0
  Se  Se17  1  0.20373688  0.75000000  0.17199522  1.0
  Se  Se18  1  0.29626312  0.25000000  0.67199522  1.0
  Se  Se19  1  0.79626312  0.25000000  0.82800478  1.0
  Se  Se20  1  0.62955053  0.75000000  0.03345813  1.0
  Se  Se21  1  0.12955053  0.75000000  0.46654187  1.0
  Se  Se22  1  0.37044947  0.25000000  0.96654187  1.0
  Se  Se23  1  0.87044947  0.25000000  0.53345813  1.0
  Se  Se24  1  0.53053219  0.75000000  0.78496543  1.0
  Se  Se25  1  0.03053219  0.75000000  0.71503457  1.0
  Se  Se26  1  0.46946781  0.25000000  0.21503457  1.0
  Se  Se27  1  0.96946781  0.25000000  0.28496543  1.0
