# generated using pymatgen
data_GdH2ClO2
_symmetry_space_group_name_H-M   'P 1'
_cell_length_a   6.39146245
_cell_length_b   3.70474576
_cell_length_c   6.69330455
_cell_angle_alpha   90.00000000
_cell_angle_beta   106.14107279
_cell_angle_gamma   90.00000000
_symmetry_Int_Tables_number   1
_chemical_formula_structural   GdH2ClO2
_chemical_formula_sum   'Gd2 H4 Cl2 O4'
_cell_volume   152.24142123
_cell_formula_units_Z   2
loop_
 _symmetry_equiv_pos_site_id
 _symmetry_equiv_pos_as_xyz
  1  'x, y, z'
loop_
 _atom_site_type_symbol
 _atom_site_label
 _atom_site_symmetry_multiplicity
 _atom_site_fract_x
 _atom_site_fract_y
 _atom_site_fract_z
 _atom_site_occupancy
  Gd  Gd0  1  0.21612046  0.25000000  0.38716832  1.0
  Gd  Gd1  1  0.78387954  0.75000000  0.61283168  1.0
  H  H2  1  0.62280976  0.25000000  0.26761426  1.0
  H  H3  1  0.37719024  0.75000000  0.73238574  1.0
  H  H4  1  0.13560588  0.25000000  0.80504367  1.0
  H  H5  1  0.86439412  0.75000000  0.19495633  1.0
  Cl  Cl6  1  0.73369048  0.25000000  0.93002337  1.0
  Cl  Cl7  1  0.26630952  0.75000000  0.06997663  1.0
  O  O8  1  0.60374478  0.25000000  0.40757436  1.0
  O  O9  1  0.39625522  0.75000000  0.59242564  1.0
  O  O10  1  0.04537195  0.25000000  0.66074540  1.0
  O  O11  1  0.95462805  0.75000000  0.33925460  1.0
