# generated using pymatgen
data_Ta16Ni
_symmetry_space_group_name_H-M   'P 1'
_cell_length_a   10.71776216
_cell_length_b   10.71776216
_cell_length_c   10.71776216
_cell_angle_alpha   60.00000000
_cell_angle_beta   60.00000000
_cell_angle_gamma   60.00000000
_symmetry_Int_Tables_number   1
_chemical_formula_structural   Ta16Ni
_chemical_formula_sum   'Ta32 Ni2'
_cell_volume   870.55727170
_cell_formula_units_Z   2
loop_
 _symmetry_equiv_pos_site_id
 _symmetry_equiv_pos_as_xyz
  1  'x, y, z'
loop_
 _atom_site_type_symbol
 _atom_site_label
 _atom_site_symmetry_multiplicity
 _atom_site_fract_x
 _atom_site_fract_y
 _atom_site_fract_z
 _atom_site_occupancy
  Ta  Ta0  1  0.95347141  -0.58125908  0.67431626  1.0
  Ta  Ta1  1  -0.04652859  0.67431626  0.41874092  1.0
  Ta  Ta2  1  -0.16874092  0.29652859  0.29652859  1.0
  Ta  Ta3  1  0.57568374  0.29652859  0.29652859  1.0
  Ta  Ta4  1  -0.58125908  0.95347141  0.67431626  1.0
  Ta  Ta5  1  0.95347141  -0.04652859  0.67431626  1.0
  Ta  Ta6  1  0.95347141  -0.32568374  0.95347141  1.0
  Ta  Ta7  1  -0.58125908  0.67431626  0.95347141  1.0
  Ta  Ta8  1  0.29652859  -0.16874092  0.29652859  1.0
  Ta  Ta9  1  0.29652859  0.29652859  -0.16874092  1.0
  Ta  Ta10  1  0.57568374  0.29652859  -0.16874092  1.0
  Ta  Ta11  1  0.57568374  -0.16874092  0.29652859  1.0
  Ta  Ta12  1  0.67431626  -0.04652859  0.95347141  1.0
  Ta  Ta13  1  -0.58125908  0.95347141  0.95347141  1.0
  Ta  Ta14  1  0.29652859  0.57568374  -0.16874092  1.0
  Ta  Ta15  1  0.29652859  -0.16874092  0.57568374  1.0
  Ta  Ta16  1  -0.32568374  0.95347141  0.41874092  1.0
  Ta  Ta17  1  0.67431626  -0.58125908  0.95347141  1.0
  Ta  Ta18  1  0.95347141  -0.58125908  0.95347141  1.0
  Ta  Ta19  1  -0.04652859  0.95347141  0.41874092  1.0
  Ta  Ta20  1  0.29652859  0.57568374  0.29652859  1.0
  Ta  Ta21  1  -0.16874092  0.57568374  0.29652859  1.0
  Ta  Ta22  1  -0.16874092  0.29652859  0.57568374  1.0
  Ta  Ta23  1  0.29652859  0.29652859  0.57568374  1.0
  Ta  Ta24  1  0.67006274  -0.32993726  0.98981179  1.0
  Ta  Ta25  1  0.67006274  -0.01018821  0.67006274  1.0
  Ta  Ta26  1  0.57993726  -0.42006274  0.57993726  1.0
  Ta  Ta27  1  1.26018821  -0.42006274  0.57993726  1.0
  Ta  Ta28  1  0.98981179  -0.32993726  0.67006274  1.0
  Ta  Ta29  1  0.67006274  -0.32993726  0.67006274  1.0
  Ta  Ta30  1  0.57993726  0.26018821  0.57993726  1.0
  Ta  Ta31  1  0.57993726  -0.42006274  1.26018821  1.0
  Ni  Ni32  1  0.50000000  0.50000000  -0.50000000  1.0
  Ni  Ni33  1  0.75000000  -0.25000000  0.75000000  1.0
