# generated using pymatgen
data_Al12Mo
_symmetry_space_group_name_H-M   'P 1'
_cell_length_a   6.56515607
_cell_length_b   6.56515607
_cell_length_c   6.56515607
_cell_angle_alpha   109.47122063
_cell_angle_beta   109.47122063
_cell_angle_gamma   109.47122063
_symmetry_Int_Tables_number   1
_chemical_formula_structural   Al12Mo
_chemical_formula_sum   'Al12 Mo1'
_cell_volume   217.82778454
_cell_formula_units_Z   1
loop_
 _symmetry_equiv_pos_site_id
 _symmetry_equiv_pos_as_xyz
  1  'x, y, z'
loop_
 _atom_site_type_symbol
 _atom_site_label
 _atom_site_symmetry_multiplicity
 _atom_site_fract_x
 _atom_site_fract_y
 _atom_site_fract_z
 _atom_site_occupancy
  Al  Al0  1  0.81396765  1.30840991  1.12237756  1.0
  Al  Al1  1  0.81396765  0.69159009  0.50555774  1.0
  Al  Al2  1  0.18603235  0.30840991  0.49444226  1.0
  Al  Al3  1  0.18603235  0.69159009  0.87762244  1.0
  Al  Al4  1  0.50555774  0.81396765  0.69159009  1.0
  Al  Al5  1  1.12237756  0.81396765  1.30840991  1.0
  Al  Al6  1  0.69159009  0.87762244  0.18603235  1.0
  Al  Al7  1  0.69159009  0.50555774  0.81396765  1.0
  Al  Al8  1  0.87762244  0.18603235  0.69159009  1.0
  Al  Al9  1  0.49444226  0.18603235  0.30840991  1.0
  Al  Al10  1  0.30840991  0.49444226  0.18603235  1.0
  Al  Al11  1  1.30840991  1.12237756  0.81396765  1.0
  Mo  Mo12  1  0.00000000  0.00000000  0.00000000  1.0
