# generated using pymatgen
data_CoAg3F6
_symmetry_space_group_name_H-M   'P 1'
_cell_length_a   5.98152247
_cell_length_b   5.98152247
_cell_length_c   5.98152247
_cell_angle_alpha   116.67135547
_cell_angle_beta   116.67135547
_cell_angle_gamma   95.86906024
_symmetry_Int_Tables_number   1
_chemical_formula_structural   CoAg3F6
_chemical_formula_sum   'Co1 Ag3 F6'
_cell_volume   158.04430523
_cell_formula_units_Z   1
loop_
 _symmetry_equiv_pos_site_id
 _symmetry_equiv_pos_as_xyz
  1  'x, y, z'
loop_
 _atom_site_type_symbol
 _atom_site_label
 _atom_site_symmetry_multiplicity
 _atom_site_fract_x
 _atom_site_fract_y
 _atom_site_fract_z
 _atom_site_occupancy
  Co  Co0  1  0.00000000  0.00000000  0.00000000  1.0
  Ag  Ag1  1  1.25000000  0.75000000  0.50000000  1.0
  Ag  Ag2  1  0.75000000  1.25000000  0.50000000  1.0
  Ag  Ag3  1  0.50000000  0.50000000  -0.00000000  1.0
  F  F4  1  -0.00000000  0.70524662  0.70524662  1.0
  F  F5  1  0.70524662  -0.00000000  0.70524662  1.0
  F  F6  1  0.29475338  0.00000000  0.29475338  1.0
  F  F7  1  0.00000000  0.29475338  0.29475338  1.0
  F  F8  1  0.76612648  0.76612648  -0.00000000  1.0
  F  F9  1  0.23387352  0.23387352  -0.00000000  1.0
