# generated using pymatgen
data_BiSe
_symmetry_space_group_name_H-M   'P 1'
_cell_length_a   8.03234090
_cell_length_b   4.11330279
_cell_length_c   8.02499050
_cell_angle_alpha   75.25645201
_cell_angle_beta   29.68503680
_cell_angle_gamma   75.05851119
_symmetry_Int_Tables_number   1
_chemical_formula_structural   BiSe
_chemical_formula_sum   'Bi2 Se2'
_cell_volume   126.60890404
_cell_formula_units_Z   2
loop_
 _symmetry_equiv_pos_site_id
 _symmetry_equiv_pos_as_xyz
  1  'x, y, z'
loop_
 _atom_site_type_symbol
 _atom_site_label
 _atom_site_symmetry_multiplicity
 _atom_site_fract_x
 _atom_site_fract_y
 _atom_site_fract_z
 _atom_site_occupancy
  Bi  Bi0  1  0.40602677  -0.38262679  0.38262679  1.0
  Bi  Bi1  1  0.61737321  0.40602677  -0.40602677  1.0
  Se  Se2  1  1.12918268  0.83941734  -0.83941734  1.0
  Se  Se3  1  0.83941734  0.12918268  -0.12918268  1.0
