# generated using pymatgen
data_Ba3MgSb2O9
_symmetry_space_group_name_H-M   'P 1'
_cell_length_a   5.92347435
_cell_length_b   5.92347435
_cell_length_c   14.65128160
_cell_angle_alpha   90.00000000
_cell_angle_beta   90.00000000
_cell_angle_gamma   120.00000000
_symmetry_Int_Tables_number   1
_chemical_formula_structural   Ba3MgSb2O9
_chemical_formula_sum   'Ba6 Mg2 Sb4 O18'
_cell_volume   445.20421933
_cell_formula_units_Z   2
loop_
 _symmetry_equiv_pos_site_id
 _symmetry_equiv_pos_as_xyz
  1  'x, y, z'
loop_
 _atom_site_type_symbol
 _atom_site_label
 _atom_site_symmetry_multiplicity
 _atom_site_fract_x
 _atom_site_fract_y
 _atom_site_fract_z
 _atom_site_occupancy
  Ba  Ba0  1  0.33333333  0.66666667  0.41189930  1.0
  Ba  Ba1  1  0.33333333  0.66666667  0.08810070  1.0
  Ba  Ba2  1  0.66666667  0.33333333  0.91189930  1.0
  Ba  Ba3  1  0.66666667  0.33333333  0.58810070  1.0
  Ba  Ba4  1  0.00000000  0.00000000  0.25000000  1.0
  Ba  Ba5  1  0.00000000  0.00000000  0.75000000  1.0
  Mg  Mg6  1  0.00000000  0.00000000  0.50000000  1.0
  Mg  Mg7  1  0.00000000  0.00000000  0.00000000  1.0
  Sb  Sb8  1  0.33333333  0.66666667  0.84886855  1.0
  Sb  Sb9  1  0.33333333  0.66666667  0.65113145  1.0
  Sb  Sb10  1  0.66666667  0.33333333  0.34886855  1.0
  Sb  Sb11  1  0.66666667  0.33333333  0.15113145  1.0
  O  O12  1  0.16865063  0.83134937  0.91648155  1.0
  O  O13  1  0.16865063  0.83134937  0.58351845  1.0
  O  O14  1  0.16865063  0.33730127  0.91648155  1.0
  O  O15  1  0.16865063  0.33730127  0.58351845  1.0
  O  O16  1  0.83134937  0.16865063  0.41648155  1.0
  O  O17  1  0.83134937  0.16865063  0.08351845  1.0
  O  O18  1  0.83134937  0.66269873  0.41648155  1.0
  O  O19  1  0.83134937  0.66269873  0.08351845  1.0
  O  O20  1  0.66269873  0.83134937  0.91648155  1.0
  O  O21  1  0.66269873  0.83134937  0.58351845  1.0
  O  O22  1  0.33730127  0.16865063  0.41648155  1.0
  O  O23  1  0.33730127  0.16865063  0.08351845  1.0
  O  O24  1  0.51747319  0.48252681  0.25000000  1.0
  O  O25  1  0.51747319  0.03494638  0.25000000  1.0
  O  O26  1  0.48252681  0.51747319  0.75000000  1.0
  O  O27  1  0.48252681  0.96505362  0.75000000  1.0
  O  O28  1  0.96505362  0.48252681  0.25000000  1.0
  O  O29  1  0.03494638  0.51747319  0.75000000  1.0
