# generated using pymatgen
data_Ca5P3HO13
_symmetry_space_group_name_H-M   'P 1'
_cell_length_a   9.56372984
_cell_length_b   9.56372984
_cell_length_c   6.89145773
_cell_angle_alpha   90.00000000
_cell_angle_beta   90.00000000
_cell_angle_gamma   120.00000000
_symmetry_Int_Tables_number   1
_chemical_formula_structural   Ca5P3HO13
_chemical_formula_sum   'Ca10 P6 H2 O26'
_cell_volume   545.87892503
_cell_formula_units_Z   2
loop_
 _symmetry_equiv_pos_site_id
 _symmetry_equiv_pos_as_xyz
  1  'x, y, z'
loop_
 _atom_site_type_symbol
 _atom_site_label
 _atom_site_symmetry_multiplicity
 _atom_site_fract_x
 _atom_site_fract_y
 _atom_site_fract_z
 _atom_site_occupancy
  Ca  Ca0  1  0.33333333  0.66666667  -0.00249711  1.0
  Ca  Ca1  1  0.66666667  0.33333333  0.49750289  1.0
  Ca  Ca2  1  0.66666667  0.33333333  0.00070231  1.0
  Ca  Ca3  1  0.33333333  0.66666667  0.50070231  1.0
  Ca  Ca4  1  0.00136096  0.25116226  0.24898909  1.0
  Ca  Ca5  1  0.24980130  -0.00136096  0.24898909  1.0
  Ca  Ca6  1  0.74883774  0.75019870  0.24898909  1.0
  Ca  Ca7  1  -0.00136096  0.74883774  0.74898909  1.0
  Ca  Ca8  1  0.75019870  0.00136096  0.74898909  1.0
  Ca  Ca9  1  0.25116226  0.24980130  0.74898909  1.0
  P  P10  1  0.39965739  0.03012741  0.74778020  1.0
  P  P11  1  0.63047002  0.60034261  0.74778020  1.0
  P  P12  1  0.96987259  0.36952998  0.74778020  1.0
  P  P13  1  0.60034261  0.96987259  0.24778020  1.0
  P  P14  1  0.36952998  0.39965739  0.24778020  1.0
  P  P15  1  0.03012741  0.63047002  0.24778020  1.0
  H  H16  1  0.00000000  0.00000000  0.57312095  1.0
  H  H17  1  0.00000000  0.00000000  0.07312095  1.0
  O  O18  1  0.34701625  0.08725949  0.56426921  1.0
  O  O19  1  0.74024323  0.65298375  0.56426921  1.0
  O  O20  1  0.91274051  0.25975677  0.56426921  1.0
  O  O21  1  0.65298375  0.91274051  0.06426921  1.0
  O  O22  1  0.25975677  0.34701625  0.06426921  1.0
  O  O23  1  0.08725949  0.74024323  0.06426921  1.0
  O  O24  1  0.53633626  0.41105251  0.75222365  1.0
  O  O25  1  0.87471625  0.46366374  0.75222365  1.0
  O  O26  1  0.58894749  0.12528375  0.75222365  1.0
  O  O27  1  0.46366374  0.58894749  0.25222365  1.0
  O  O28  1  0.12528375  0.53633626  0.25222365  1.0
  O  O29  1  0.41105251  0.87471625  0.25222365  1.0
  O  O30  1  0.74398621  0.66160033  0.92817254  1.0
  O  O31  1  0.91761412  0.25601379  0.92817254  1.0
  O  O32  1  0.33839967  0.08238588  0.92817254  1.0
  O  O33  1  0.25601379  0.33839967  0.42817254  1.0
  O  O34  1  0.08238588  0.74398621  0.42817254  1.0
  O  O35  1  0.66160033  0.91761412  0.42817254  1.0
  O  O36  1  0.33297090  0.84490434  0.74655838  1.0
  O  O37  1  0.51193344  0.66702910  0.74655838  1.0
  O  O38  1  0.15509566  0.48806656  0.74655838  1.0
  O  O39  1  0.66702910  0.15509566  0.24655838  1.0
  O  O40  1  0.48806656  0.33297090  0.24655838  1.0
  O  O41  1  0.84490434  0.51193344  0.24655838  1.0
  O  O42  1  0.00000000  0.00000000  0.71469467  1.0
  O  O43  1  0.00000000  0.00000000  0.21469467  1.0
