# generated using pymatgen
data_Pb(C4N3)2
_symmetry_space_group_name_H-M   'P 1'
_cell_length_a   14.38847450
_cell_length_b   14.38847450
_cell_length_c   4.50523095
_cell_angle_alpha   90.00000000
_cell_angle_beta   90.00000000
_cell_angle_gamma   120.00000000
_symmetry_Int_Tables_number   1
_chemical_formula_structural   Pb(C4N3)2
_chemical_formula_sum   'Pb3 C24 N18'
_cell_volume   807.75042253
_cell_formula_units_Z   3
loop_
 _symmetry_equiv_pos_site_id
 _symmetry_equiv_pos_as_xyz
  1  'x, y, z'
loop_
 _atom_site_type_symbol
 _atom_site_label
 _atom_site_symmetry_multiplicity
 _atom_site_fract_x
 _atom_site_fract_y
 _atom_site_fract_z
 _atom_site_occupancy
  Pb  Pb0  1  0.33333333  0.66666667  0.71053888  1.0
  Pb  Pb1  1  0.66666667  0.33333333  0.71053888  1.0
  Pb  Pb2  1  0.00000000  0.00000000  0.12092007  1.0
  C  C3  1  0.36981721  0.90238658  0.29306249  1.0
  C  C4  1  0.90238658  0.36981721  0.29306249  1.0
  C  C5  1  0.53256937  0.63018279  0.29306249  1.0
  C  C6  1  0.09761342  0.46743063  0.29306249  1.0
  C  C7  1  0.63018279  0.53256937  0.29306249  1.0
  C  C8  1  0.46743063  0.09761342  0.29306249  1.0
  C  C9  1  0.09742995  0.71153226  0.76772371  1.0
  C  C10  1  0.71153226  0.09742995  0.76772371  1.0
  C  C11  1  0.61410231  0.90257005  0.76772371  1.0
  C  C12  1  0.28846774  0.38589769  0.76772371  1.0
  C  C13  1  0.90257005  0.61410231  0.76772371  1.0
  C  C14  1  0.38589769  0.28846774  0.76772371  1.0
  C  C15  1  0.72202133  0.72202133  0.16120215  1.0
  C  C16  1  0.00000000  0.27797867  0.16120215  1.0
  C  C17  1  0.27797867  0.00000000  0.16120215  1.0
  C  C18  1  0.62772414  0.62772414  0.24776068  1.0
  C  C19  1  -0.00000000  0.37227586  0.24776068  1.0
  C  C20  1  0.37227586  0.00000000  0.24776068  1.0
  C  C21  1  0.29168987  0.29168987  0.71187645  1.0
  C  C22  1  0.00000000  0.70831013  0.71187645  1.0
  C  C23  1  0.70831013  0.00000000  0.71187645  1.0
  C  C24  1  0.20106663  0.20106663  0.60366028  1.0
  C  C25  1  0.00000000  0.79893337  0.60366028  1.0
  C  C26  1  0.79893337  0.00000000  0.60366028  1.0
  N  N27  1  0.36689175  0.82012882  0.32690346  1.0
  N  N28  1  0.82012882  0.36689175  0.32690346  1.0
  N  N29  1  0.45323707  0.63310825  0.32690346  1.0
  N  N30  1  0.17987118  0.54676293  0.32690346  1.0
  N  N31  1  0.63310825  0.45323707  0.32690346  1.0
  N  N32  1  0.54676293  0.17987118  0.32690346  1.0
  N  N33  1  0.17837042  0.71397504  0.81663689  1.0
  N  N34  1  0.71397504  0.17837042  0.81663689  1.0
  N  N35  1  0.53560462  0.82162958  0.81663689  1.0
  N  N36  1  0.28602496  0.46439538  0.81663689  1.0
  N  N37  1  0.82162958  0.53560462  0.81663689  1.0
  N  N38  1  0.46439538  0.28602496  0.81663689  1.0
  N  N39  1  0.80005477  0.80005478  0.08817818  1.0
  N  N40  1  -0.00000000  0.19994522  0.08817818  1.0
  N  N41  1  0.19994522  0.00000000  0.08817818  1.0
  N  N42  1  0.12390820  0.12390820  0.52076990  1.0
  N  N43  1  -0.00000000  0.87609180  0.52076990  1.0
  N  N44  1  0.87609180  0.00000000  0.52076990  1.0
