# generated using pymatgen
data_NbAgO3
_symmetry_space_group_name_H-M   'P 1'
_cell_length_a   5.64103092
_cell_length_b   5.70790045
_cell_length_c   15.66320088
_cell_angle_alpha   90.00000000
_cell_angle_beta   90.00000000
_cell_angle_gamma   90.00000000
_symmetry_Int_Tables_number   1
_chemical_formula_structural   NbAgO3
_chemical_formula_sum   'Nb8 Ag8 O24'
_cell_volume   504.33067958
_cell_formula_units_Z   8
loop_
 _symmetry_equiv_pos_site_id
 _symmetry_equiv_pos_as_xyz
  1  'x, y, z'
loop_
 _atom_site_type_symbol
 _atom_site_label
 _atom_site_symmetry_multiplicity
 _atom_site_fract_x
 _atom_site_fract_y
 _atom_site_fract_z
 _atom_site_occupancy
  Nb  Nb0  1  0.75744197  0.28565220  0.87499905  1.0
  Nb  Nb1  1  0.75744197  0.28565220  0.62500095  1.0
  Nb  Nb2  1  0.75744197  0.21434780  0.37499905  1.0
  Nb  Nb3  1  0.75744197  0.21434780  0.12500095  1.0
  Nb  Nb4  1  0.24255803  0.78565220  0.87499905  1.0
  Nb  Nb5  1  0.24255803  0.78565220  0.62500095  1.0
  Nb  Nb6  1  0.24255803  0.71434780  0.37499905  1.0
  Nb  Nb7  1  0.24255803  0.71434780  0.12500095  1.0
  Ag  Ag8  1  0.73534296  0.78309685  0.75000000  1.0
  Ag  Ag9  1  0.73534296  0.71690315  0.25000000  1.0
  Ag  Ag10  1  0.26465704  0.28309685  0.75000000  1.0
  Ag  Ag11  1  0.26465704  0.21690315  0.25000000  1.0
  Ag  Ag12  1  0.73998776  0.75000000  -0.00000000  1.0
  Ag  Ag13  1  0.73998776  0.75000000  0.50000000  1.0
  Ag  Ag14  1  0.26001224  0.25000000  -0.00000000  1.0
  Ag  Ag15  1  0.26001224  0.25000000  0.50000000  1.0
  O  O16  1  0.96117239  0.95847916  0.88947940  1.0
  O  O17  1  0.96117239  0.95847916  0.61052060  1.0
  O  O18  1  0.96117239  0.54152084  0.38947940  1.0
  O  O19  1  0.96117239  0.54152084  0.11052060  1.0
  O  O20  1  0.03882761  0.45847916  0.88947940  1.0
  O  O21  1  0.03882761  0.45847916  0.61052060  1.0
  O  O22  1  0.03882761  0.04152084  0.38947940  1.0
  O  O23  1  0.03882761  0.04152084  0.11052060  1.0
  O  O24  1  0.54450863  0.53564829  0.86060573  1.0
  O  O25  1  0.54450863  0.53564829  0.63939427  1.0
  O  O26  1  0.54450863  0.96435171  0.36060573  1.0
  O  O27  1  0.54450863  0.96435171  0.13939427  1.0
  O  O28  1  0.45549137  0.03564829  0.86060573  1.0
  O  O29  1  0.45549137  0.03564829  0.63939427  1.0
  O  O30  1  0.45549137  0.46435171  0.36060573  1.0
  O  O31  1  0.45549137  0.46435171  0.13939427  1.0
  O  O32  1  0.80191667  0.22806793  0.75000000  1.0
  O  O33  1  0.80191667  0.27193207  0.25000000  1.0
  O  O34  1  0.19808333  0.72806793  0.75000000  1.0
  O  O35  1  0.19808333  0.77193207  0.25000000  1.0
  O  O36  1  0.30756933  0.75000000  -0.00000000  1.0
  O  O37  1  0.30756933  0.75000000  0.50000000  1.0
  O  O38  1  0.69243067  0.25000000  0.00000000  1.0
  O  O39  1  0.69243067  0.25000000  0.50000000  1.0
