# generated using pymatgen
data_NbPRh
_symmetry_space_group_name_H-M   'P 1'
_cell_length_a   6.33899166
_cell_length_b   3.77580541
_cell_length_c   7.18807658
_cell_angle_alpha   90.00000000
_cell_angle_beta   90.00000000
_cell_angle_gamma   90.00000000
_symmetry_Int_Tables_number   1
_chemical_formula_structural   NbPRh
_chemical_formula_sum   'Nb4 P4 Rh4'
_cell_volume   172.04516820
_cell_formula_units_Z   4
loop_
 _symmetry_equiv_pos_site_id
 _symmetry_equiv_pos_as_xyz
  1  'x, y, z'
loop_
 _atom_site_type_symbol
 _atom_site_label
 _atom_site_symmetry_multiplicity
 _atom_site_fract_x
 _atom_site_fract_y
 _atom_site_fract_z
 _atom_site_occupancy
  Nb  Nb0  1  0.96947293  0.75000000  0.66823846  1.0
  Nb  Nb1  1  0.46947293  0.75000000  0.83176154  1.0
  Nb  Nb2  1  0.03052707  0.25000000  0.33176154  1.0
  Nb  Nb3  1  0.53052707  0.25000000  0.16823846  1.0
  P  P4  1  0.73680911  0.75000000  0.37513341  1.0
  P  P5  1  0.23680911  0.75000000  0.12486659  1.0
  P  P6  1  0.26319089  0.25000000  0.62486659  1.0
  P  P7  1  0.76319089  0.25000000  0.87513341  1.0
  Rh  Rh8  1  0.85231306  0.75000000  0.06148744  1.0
  Rh  Rh9  1  0.35231306  0.75000000  0.43851256  1.0
  Rh  Rh10  1  0.14768694  0.25000000  0.93851256  1.0
  Rh  Rh11  1  0.64768694  0.25000000  0.56148744  1.0
