# generated using pymatgen
data_Y3In5
_symmetry_space_group_name_H-M   'P 1'
_cell_length_a   6.40172167
_cell_length_b   6.40172167
_cell_length_c   10.41084807
_cell_angle_alpha   90.00000000
_cell_angle_beta   90.00000000
_cell_angle_gamma   78.28915989
_symmetry_Int_Tables_number   1
_chemical_formula_structural   Y3In5
_chemical_formula_sum   'Y6 In10'
_cell_volume   417.77666835
_cell_formula_units_Z   2
loop_
 _symmetry_equiv_pos_site_id
 _symmetry_equiv_pos_as_xyz
  1  'x, y, z'
loop_
 _atom_site_type_symbol
 _atom_site_label
 _atom_site_symmetry_multiplicity
 _atom_site_fract_x
 _atom_site_fract_y
 _atom_site_fract_z
 _atom_site_occupancy
  Y  Y0  1  0.79536439  0.79536439  0.50000000  1.0
  Y  Y1  1  0.79536439  0.79536439  0.00000000  1.0
  Y  Y2  1  0.20463561  0.20463561  0.50000000  1.0
  Y  Y3  1  0.20463561  0.20463561  0.00000000  1.0
  Y  Y4  1  -0.38015915  1.38015915  0.25000000  1.0
  Y  Y5  1  0.38015915  0.61984085  0.75000000  1.0
  In  In6  1  0.07214530  0.49303867  0.25000000  1.0
  In  In7  1  -0.50696133  1.07214530  0.75000000  1.0
  In  In8  1  0.50696133  0.92785470  0.25000000  1.0
  In  In9  1  -0.07214530  1.50696133  0.75000000  1.0
  In  In10  1  0.30704426  0.69295574  0.45551136  1.0
  In  In11  1  0.30704426  0.69295574  0.04448864  1.0
  In  In12  1  -0.30704426  1.30704426  0.95551136  1.0
  In  In13  1  -0.30704426  1.30704426  0.54448864  1.0
  In  In14  1  0.00541193  0.99458807  0.25000000  1.0
  In  In15  1  -0.00541193  1.00541193  0.75000000  1.0
