# generated using pymatgen
data_LaRhC2
_symmetry_space_group_name_H-M   'P 1'
_cell_length_a   3.98902549
_cell_length_b   3.98902549
_cell_length_c   15.37462769
_cell_angle_alpha   90.00000000
_cell_angle_beta   90.00000000
_cell_angle_gamma   90.00000000
_symmetry_Int_Tables_number   1
_chemical_formula_structural   LaRhC2
_chemical_formula_sum   'La4 Rh4 C8'
_cell_volume   244.64606320
_cell_formula_units_Z   4
loop_
 _symmetry_equiv_pos_site_id
 _symmetry_equiv_pos_as_xyz
  1  'x, y, z'
loop_
 _atom_site_type_symbol
 _atom_site_label
 _atom_site_symmetry_multiplicity
 _atom_site_fract_x
 _atom_site_fract_y
 _atom_site_fract_z
 _atom_site_occupancy
  La  La0  1  0.64975762  0.64864362  0.09290079  1.0
  La  La1  1  0.64864362  0.35024238  0.84290079  1.0
  La  La2  1  0.35024238  0.35135638  0.59290079  1.0
  La  La3  1  0.35135638  0.64975762  0.34290079  1.0
  Rh  Rh4  1  0.85246621  0.84104200  0.49907183  1.0
  Rh  Rh5  1  0.84104200  0.14753379  0.24907183  1.0
  Rh  Rh6  1  0.14753379  0.15895800  -0.00092817  1.0
  Rh  Rh7  1  0.15895800  0.85246621  0.74907183  1.0
  C  C8  1  0.85077370  0.83388055  0.63373658  1.0
  C  C9  1  0.83388055  0.14922630  0.38373658  1.0
  C  C10  1  0.14922630  0.16611945  0.13373658  1.0
  C  C11  1  0.16611945  0.85077370  0.88373658  1.0
  C  C12  1  0.65382163  0.84595649  0.70539080  1.0
  C  C13  1  0.84595649  0.34617837  0.45539080  1.0
  C  C14  1  0.34617837  0.15404351  0.20539080  1.0
  C  C15  1  0.15404351  0.65382163  0.95539080  1.0
