# generated using pymatgen
data_PrScSb
_symmetry_space_group_name_H-M   'P 1'
_cell_length_a   8.93442099
_cell_length_b   8.93442099
_cell_length_c   8.93442099
_cell_angle_alpha   150.91809093
_cell_angle_beta   150.91809093
_cell_angle_gamma   41.59539270
_symmetry_Int_Tables_number   1
_chemical_formula_structural   PrScSb
_chemical_formula_sum   'Pr2 Sc2 Sb2'
_cell_volume   168.10976187
_cell_formula_units_Z   2
loop_
 _symmetry_equiv_pos_site_id
 _symmetry_equiv_pos_as_xyz
  1  'x, y, z'
loop_
 _atom_site_type_symbol
 _atom_site_label
 _atom_site_symmetry_multiplicity
 _atom_site_fract_x
 _atom_site_fract_y
 _atom_site_fract_z
 _atom_site_occupancy
  Pr  Pr0  1  0.67488139  0.67488139  1.00000000  1.0
  Pr  Pr1  1  0.32511861  0.32511861  -0.00000000  1.0
  Sc  Sc2  1  0.50000000  0.00000000  0.50000000  1.0
  Sc  Sc3  1  -0.00000000  0.50000000  0.50000000  1.0
  Sb  Sb4  1  0.87487964  0.87487964  1.00000000  1.0
  Sb  Sb5  1  0.12512036  0.12512036  -0.00000000  1.0
