# generated using pymatgen
data_K2ZrSi3O11
_symmetry_space_group_name_H-M   'P 1'
_cell_length_a   6.80970189
_cell_length_b   6.80970189
_cell_length_c   12.05336526
_cell_angle_alpha   90.00000000
_cell_angle_beta   90.00000000
_cell_angle_gamma   105.09154722
_symmetry_Int_Tables_number   1
_chemical_formula_structural   K2ZrSi3O11
_chemical_formula_sum   'K4 Zr2 Si6 O22'
_cell_volume   539.66191045
_cell_formula_units_Z   2
loop_
 _symmetry_equiv_pos_site_id
 _symmetry_equiv_pos_as_xyz
  1  'x, y, z'
loop_
 _atom_site_type_symbol
 _atom_site_label
 _atom_site_symmetry_multiplicity
 _atom_site_fract_x
 _atom_site_fract_y
 _atom_site_fract_z
 _atom_site_occupancy
  Si  Si0  1  -0.06995520  1.72161480  0.21063050  1.0
  Si  Si1  1  0.72161480  0.93004480  0.78936950  1.0
  Si  Si2  1  -0.72161480  1.06995520  0.28936950  1.0
  Si  Si3  1  0.06995520  0.27838520  0.71063050  1.0
  Si  Si4  1  0.67486592  0.67486592  0.00000000  1.0
  Si  Si5  1  0.32513408  0.32513408  0.50000000  1.0
  O  O6  1  0.34581708  0.51985220  0.41882406  1.0
  O  O7  1  -0.48014780  1.34581708  0.58117594  1.0
  O  O8  1  0.48014780  0.65418292  0.08117594  1.0
  O  O9  1  -0.34581708  1.48014780  0.91882406  1.0
  O  O10  1  0.08835775  0.58139531  0.23564873  1.0
  O  O11  1  -0.41860469  1.08835775  0.76435127  1.0
  O  O12  1  0.41860469  0.91164225  0.26435127  1.0
  O  O13  1  -0.08835775  1.41860469  0.73564873  1.0
  O  O14  1  -0.11355001  1.71359206  0.07521457  1.0
  O  O15  1  0.71359206  0.88644999  0.92478543  1.0
  O  O16  1  -0.71359206  1.11355001  0.42478543  1.0
  O  O17  1  0.11355001  0.28640794  0.57521457  1.0
  O  O18  1  -0.28409267  1.64292524  0.27619794  1.0
  O  O19  1  0.64292524  0.71590733  0.72380206  1.0
  O  O20  1  -0.64292524  1.28409267  0.22380206  1.0
  O  O21  1  0.28409267  0.35707476  0.77619794  1.0
  O  O22  1  -0.02624424  1.34552703  0.11009321  1.0
  O  O23  1  0.34552703  0.97375576  0.88990679  1.0
  O  O24  1  -0.34552703  1.02624424  0.38990679  1.0
  O  O25  1  0.02624424  0.65447297  0.61009321  1.0
  O  O26  1  0.04467863  0.95532137  0.25000000  1.0
  O  O27  1  -0.04467863  1.04467863  0.75000000  1.0
  Zr  Zr28  1  0.40660206  0.59339794  0.25000000  1.0
  Zr  Zr29  1  -0.40660206  1.40660206  0.75000000  1.0
  K  K30  1  -0.14722506  1.42072867  0.43270165  1.0
  K  K31  1  0.42072867  0.85277494  0.56729835  1.0
  K  K32  1  -0.42072867  1.14722506  0.06729835  1.0
  K  K33  1  0.14722506  0.57927133  0.93270165  1.0
