# generated using pymatgen
data_MoC4IO4
_symmetry_space_group_name_H-M   'P 1'
_cell_length_a   11.24934836
_cell_length_b   9.90952660
_cell_length_c   9.53597769
_cell_angle_alpha   63.60424019
_cell_angle_beta   84.51931073
_cell_angle_gamma   86.18308485
_symmetry_Int_Tables_number   1
_chemical_formula_structural   MoC4IO4
_chemical_formula_sum   'Mo4 C16 I4 O16'
_cell_volume   947.50384946
_cell_formula_units_Z   4
loop_
 _symmetry_equiv_pos_site_id
 _symmetry_equiv_pos_as_xyz
  1  'x, y, z'
loop_
 _atom_site_type_symbol
 _atom_site_label
 _atom_site_symmetry_multiplicity
 _atom_site_fract_x
 _atom_site_fract_y
 _atom_site_fract_z
 _atom_site_occupancy
  Mo  Mo0  1  -0.48051010  -0.37452612  -0.94108249  1.0
  Mo  Mo1  1  -0.51948990  -0.62547388  -0.05891751  1.0
  Mo  Mo2  1  -0.98555254  -0.87815177  -0.43488399  1.0
  Mo  Mo3  1  -0.01444746  -0.12184823  -0.56511601  1.0
  C  C4  1  -0.35164173  -0.71552183  -1.00306828  1.0
  C  C5  1  -0.64835827  -0.28447817  0.00306828  1.0
  C  C6  1  -0.58863734  -0.83004914  -0.97185834  1.0
  C  C7  1  -0.41136266  -0.16995086  -0.02814166  1.0
  C  C8  1  -0.31226540  -0.45994485  -0.87887234  1.0
  C  C9  1  -0.68773460  -0.54005515  -0.12112766  1.0
  C  C10  1  -0.97557002  -0.96566435  -0.79202499  1.0
  C  C11  1  -0.02442998  -0.03433565  -0.20797501  1.0
  C  C12  1  -0.51325611  -0.34462725  -0.74686475  1.0
  C  C13  1  -0.48674389  -0.65537275  -0.25313525  1.0
  C  C14  1  -0.94722687  -0.71657637  -0.65945757  1.0
  C  C15  1  -0.05277313  -0.28342363  -0.34054243  1.0
  C  C16  1  -0.91447851  -0.27857934  -0.60363954  1.0
  C  C17  1  -0.08552149  -0.72142066  -0.39636046  1.0
  C  C18  1  -0.85621115  -0.80567099  -0.35668713  1.0
  C  C19  1  -0.14378885  -0.19432901  -0.64331287  1.0
  I  I20  1  -0.56535252  -0.66568223  -0.74709135  1.0
  I  I21  1  -0.43464748  -0.33431777  -0.25290864  1.0
  I  I22  1  -0.20226664  -0.94139982  -0.51570469  1.0
  I  I23  1  -0.79773336  -0.05860018  -0.48429531  1.0
  O  O24  1  -0.25831593  -0.77240336  -0.97469953  1.0
  O  O25  1  -0.74168407  -0.22759664  -0.02530047  1.0
  O  O26  1  -0.95325321  -0.88402008  -0.92212186  1.0
  O  O27  1  -0.04674679  -0.11597992  -0.07787814  1.0
  O  O28  1  -0.62990126  -0.94731549  -0.92717661  1.0
  O  O29  1  -0.37009874  -0.05268451  -0.07282339  1.0
  O  O30  1  -0.21778406  -0.50325706  -0.83885379  1.0
  O  O31  1  -0.78221594  -0.49674294  -0.16114621  1.0
  O  O32  1  -0.92473954  -0.62106718  -0.78290084  1.0
  O  O33  1  -0.07526046  -0.37893282  -0.21709916  1.0
  O  O34  1  -0.86086404  -0.37258235  -0.62463463  1.0
  O  O35  1  -0.13913596  -0.62741765  -0.37536537  1.0
  O  O36  1  -0.46690789  -0.67990753  -0.36111990  1.0
  O  O37  1  -0.53309211  -0.32009247  -0.63888010  1.0
  O  O38  1  -0.78419250  -0.76168365  -0.30954588  1.0
  O  O39  1  -0.21580750  -0.23831635  -0.69045412  1.0
