# generated using pymatgen
data_Hf8MnTe6
_symmetry_space_group_name_H-M   'P 1'
_cell_length_a   3.76124192
_cell_length_b   26.09000231
_cell_length_c   7.69560549
_cell_angle_alpha   90.00000000
_cell_angle_beta   90.00000000
_cell_angle_gamma   90.00000000
_symmetry_Int_Tables_number   1
_chemical_formula_structural   Hf8MnTe6
_chemical_formula_sum   'Hf16 Mn2 Te12'
_cell_volume   755.17600338
_cell_formula_units_Z   2
loop_
 _symmetry_equiv_pos_site_id
 _symmetry_equiv_pos_as_xyz
  1  'x, y, z'
loop_
 _atom_site_type_symbol
 _atom_site_label
 _atom_site_symmetry_multiplicity
 _atom_site_fract_x
 _atom_site_fract_y
 _atom_site_fract_z
 _atom_site_occupancy
  Hf  Hf0  1  0.50000000  0.59882195  0.04980632  1.0
  Hf  Hf1  1  0.50000000  0.40117805  0.04980632  1.0
  Hf  Hf2  1  0.00000000  0.09882195  0.95019368  1.0
  Hf  Hf3  1  0.00000000  0.90117805  0.95019368  1.0
  Hf  Hf4  1  0.50000000  0.19784934  0.06214807  1.0
  Hf  Hf5  1  0.50000000  0.80215066  0.06214807  1.0
  Hf  Hf6  1  0.00000000  0.69784934  0.93785193  1.0
  Hf  Hf7  1  0.00000000  0.30215066  0.93785193  1.0
  Hf  Hf8  1  0.50000000  0.06707035  0.26559870  1.0
  Hf  Hf9  1  0.50000000  0.93292965  0.26559870  1.0
  Hf  Hf10  1  0.00000000  0.56707035  0.73440130  1.0
  Hf  Hf11  1  0.00000000  0.43292965  0.73440130  1.0
  Hf  Hf12  1  0.50000000  0.00000000  0.93353412  1.0
  Hf  Hf13  1  0.00000000  0.50000000  0.06646588  1.0
  Hf  Hf14  1  0.50000000  0.50000000  0.46020835  1.0
  Hf  Hf15  1  0.00000000  0.00000000  0.53979165  1.0
  Mn  Mn16  1  0.50000000  0.50000000  0.81115443  1.0
  Mn  Mn17  1  0.00000000  0.00000000  0.18884557  1.0
  Te  Te18  1  0.50000000  0.70174387  0.21779989  1.0
  Te  Te19  1  0.50000000  0.29825613  0.21779989  1.0
  Te  Te20  1  0.00000000  0.20174387  0.78220011  1.0
  Te  Te21  1  0.00000000  0.79825613  0.78220011  1.0
  Te  Te22  1  0.50000000  0.65639948  0.69453496  1.0
  Te  Te23  1  0.50000000  0.34360052  0.69453496  1.0
  Te  Te24  1  0.00000000  0.15639948  0.30546504  1.0
  Te  Te25  1  0.00000000  0.84360052  0.30546504  1.0
  Te  Te26  1  0.50000000  0.08138439  0.65481252  1.0
  Te  Te27  1  0.50000000  0.91861561  0.65481252  1.0
  Te  Te28  1  0.00000000  0.58138439  0.34518748  1.0
  Te  Te29  1  0.00000000  0.41861561  0.34518748  1.0
