# generated using pymatgen
data_ZrPbO3
_symmetry_space_group_name_H-M   'P 1'
_cell_length_a   5.96273753
_cell_length_b   11.88055099
_cell_length_c   8.28361542
_cell_angle_alpha   90.00000000
_cell_angle_beta   90.00000000
_cell_angle_gamma   90.00000000
_symmetry_Int_Tables_number   1
_chemical_formula_structural   ZrPbO3
_chemical_formula_sum   'Zr8 Pb8 O24'
_cell_volume   586.81634685
_cell_formula_units_Z   8
loop_
 _symmetry_equiv_pos_site_id
 _symmetry_equiv_pos_as_xyz
  1  'x, y, z'
loop_
 _atom_site_type_symbol
 _atom_site_label
 _atom_site_symmetry_multiplicity
 _atom_site_fract_x
 _atom_site_fract_y
 _atom_site_fract_z
 _atom_site_occupancy
  Zr  Zr0  1  0.26036670  0.62356861  0.75030593  1.0
  Zr  Zr1  1  0.26036670  0.62356861  0.24969407  1.0
  Zr  Zr2  1  0.76036670  0.87643139  0.75030593  1.0
  Zr  Zr3  1  0.76036670  0.87643139  0.24969407  1.0
  Zr  Zr4  1  0.73963330  0.37643139  0.75030593  1.0
  Zr  Zr5  1  0.73963330  0.37643139  0.24969407  1.0
  Zr  Zr6  1  0.23963330  0.12356861  0.75030593  1.0
  Zr  Zr7  1  0.23963330  0.12356861  0.24969407  1.0
  Pb  Pb8  1  0.29633937  0.86974692  0.50000000  1.0
  Pb  Pb9  1  0.79633937  0.63025308  0.50000000  1.0
  Pb  Pb10  1  0.70366063  0.13025308  0.50000000  1.0
  Pb  Pb11  1  0.20366063  0.36974692  0.50000000  1.0
  Pb  Pb12  1  0.30513355  0.87477506  0.00000000  1.0
  Pb  Pb13  1  0.80513355  0.62522494  0.00000000  1.0
  Pb  Pb14  1  0.69486645  0.12522494  0.00000000  1.0
  Pb  Pb15  1  0.19486645  0.37477506  0.00000000  1.0
  O  O16  1  0.47075882  0.75998605  0.72108769  1.0
  O  O17  1  0.47075882  0.75998605  0.27891231  1.0
  O  O18  1  0.97075882  0.74001395  0.72108769  1.0
  O  O19  1  0.97075882  0.74001395  0.27891231  1.0
  O  O20  1  0.52924118  0.24001395  0.72108769  1.0
  O  O21  1  0.52924118  0.24001395  0.27891231  1.0
  O  O22  1  0.02924118  0.25998605  0.72108769  1.0
  O  O23  1  0.02924118  0.25998605  0.27891231  1.0
  O  O24  1  0.20496378  0.59728125  0.50000000  1.0
  O  O25  1  0.70496378  0.90271875  0.50000000  1.0
  O  O26  1  0.79503622  0.40271875  0.50000000  1.0
  O  O27  1  0.29503622  0.09728125  0.50000000  1.0
  O  O28  1  0.22685378  0.65500985  0.00000000  1.0
  O  O29  1  0.72685378  0.84499015  0.00000000  1.0
  O  O30  1  0.77314622  0.34499015  0.00000000  1.0
  O  O31  1  0.27314622  0.15500985  0.00000000  1.0
  O  O32  1  0.50000000  0.00000000  0.79337616  1.0
  O  O33  1  0.50000000  0.00000000  0.20662384  1.0
  O  O34  1  0.00000000  0.50000000  0.79337616  1.0
  O  O35  1  0.00000000  0.50000000  0.20662384  1.0
  O  O36  1  0.50000000  0.50000000  0.76943434  1.0
  O  O37  1  0.50000000  0.50000000  0.23056566  1.0
  O  O38  1  0.00000000  0.00000000  0.76943434  1.0
  O  O39  1  0.00000000  0.00000000  0.23056566  1.0
