# generated using pymatgen
data_Sr3LiIrO6
_symmetry_space_group_name_H-M   'P 1'
_cell_length_a   6.73315167
_cell_length_b   6.73315167
_cell_length_c   6.73315167
_cell_angle_alpha   92.21342372
_cell_angle_beta   92.21342372
_cell_angle_gamma   92.21342372
_symmetry_Int_Tables_number   1
_chemical_formula_structural   Sr3LiIrO6
_chemical_formula_sum   'Sr6 Li2 Ir2 O12'
_cell_volume   304.54828053
_cell_formula_units_Z   2
loop_
 _symmetry_equiv_pos_site_id
 _symmetry_equiv_pos_as_xyz
  1  'x, y, z'
loop_
 _atom_site_type_symbol
 _atom_site_label
 _atom_site_symmetry_multiplicity
 _atom_site_fract_x
 _atom_site_fract_y
 _atom_site_fract_z
 _atom_site_occupancy
  Sr  Sr0  1  0.89185423  1.25000000  -0.39185423  1.0
  Sr  Sr1  1  1.39185423  0.10814577  -0.25000000  1.0
  Sr  Sr2  1  0.75000000  0.39185423  0.10814577  1.0
  Sr  Sr3  1  1.25000000  0.60814577  -0.10814577  1.0
  Sr  Sr4  1  1.10814577  -0.25000000  0.39185423  1.0
  Sr  Sr5  1  0.60814577  0.89185423  0.25000000  1.0
  Li  Li6  1  0.25000000  0.25000000  0.25000000  1.0
  Li  Li7  1  0.75000000  0.75000000  0.75000000  1.0
  Ir  Ir8  1  0.50000000  0.50000000  0.50000000  1.0
  Ir  Ir9  1  0.00000000  0.00000000  0.00000000  1.0
  O  O10  1  1.21880060  0.41536175  -0.45291236  1.0
  O  O11  1  0.71880060  1.04708764  -0.08463825  1.0
  O  O12  1  0.95291236  0.08463825  0.28119940  1.0
  O  O13  1  1.45291236  -0.21880060  0.58463825  1.0
  O  O14  1  1.58463825  0.45291236  -0.21880060  1.0
  O  O15  1  1.08463825  0.28119940  -0.04708764  1.0
  O  O16  1  0.78119940  0.58463825  0.45291236  1.0
  O  O17  1  1.28119940  -0.04708764  0.08463825  1.0
  O  O18  1  0.54708764  1.21880060  -0.58463825  1.0
  O  O19  1  1.04708764  0.91536175  -0.28119940  1.0
  O  O20  1  0.91536175  0.71880060  0.04708764  1.0
  O  O21  1  0.41536175  0.54708764  0.21880060  1.0
