# generated using pymatgen
data_Rb2Ti(Si2O5)3
_symmetry_space_group_name_H-M   'P 1'
_cell_length_a   7.47813157
_cell_length_b   7.47813157
_cell_length_c   15.48504629
_cell_angle_alpha   76.13231259
_cell_angle_beta   103.86768741
_cell_angle_gamma   119.57410024
_symmetry_Int_Tables_number   1
_chemical_formula_structural   Rb2Ti(Si2O5)3
_chemical_formula_sum   'Rb4 Ti2 Si12 O30'
_cell_volume   723.59467440
_cell_formula_units_Z   2
loop_
 _symmetry_equiv_pos_site_id
 _symmetry_equiv_pos_as_xyz
  1  'x, y, z'
loop_
 _atom_site_type_symbol
 _atom_site_label
 _atom_site_symmetry_multiplicity
 _atom_site_fract_x
 _atom_site_fract_y
 _atom_site_fract_z
 _atom_site_occupancy
  Rb  Rb0  1  0.68231579  0.13002244  0.55466504  1.0
  Rb  Rb1  1  0.86997756  0.31768421  0.05466504  1.0
  Rb  Rb2  1  0.46514584  -0.14918583  0.87697826  1.0
  Rb  Rb3  1  1.14918583  0.53485416  0.37697826  1.0
  Ti  Ti4  1  0.31607989  0.19370532  0.95529644  1.0
  Ti  Ti5  1  0.80629468  0.68392011  0.45529644  1.0
  Si  Si6  1  0.95153347  0.94327869  0.79440228  1.0
  Si  Si7  1  0.05672131  0.04846653  0.29440228  1.0
  Si  Si8  1  0.99825348  0.89597189  0.10667674  1.0
  Si  Si9  1  0.10402811  0.00174652  0.60667674  1.0
  Si  Si10  1  0.68420383  0.47587640  0.81462148  1.0
  Si  Si11  1  0.52412360  0.31579617  0.31462148  1.0
  Si  Si12  1  1.18584548  0.65077410  0.61333645  1.0
  Si  Si13  1  0.34922590  -0.18584548  0.11333645  1.0
  Si  Si14  1  1.02944154  0.36456087  0.80028997  1.0
  Si  Si15  1  0.63543913  -0.02944154  0.30028997  1.0
  Si  Si16  1  1.46202722  0.46484150  0.61114419  1.0
  Si  Si17  1  0.53515850  -0.46202722  0.11114419  1.0
  O  O18  1  0.93403752  0.92501604  0.51986168  1.0
  O  O19  1  0.07498396  0.06596248  0.01986168  1.0
  O  O20  1  0.98536598  0.94397838  0.69336264  1.0
  O  O21  1  0.05602162  0.01463402  0.19336264  1.0
  O  O22  1  0.74889133  0.71886770  0.82068536  1.0
  O  O23  1  0.28113230  0.25110867  0.32068536  1.0
  O  O24  1  0.61837907  0.51900651  0.54320807  1.0
  O  O25  1  0.48099349  0.38162093  0.04320807  1.0
  O  O26  1  0.55472188  0.41670122  0.71578938  1.0
  O  O27  1  0.58329878  0.44527812  0.21578938  1.0
  O  O28  1  0.56102001  0.31321887  0.89425584  1.0
  O  O29  1  0.68678113  0.43897999  0.39425584  1.0
  O  O30  1  1.10986603  0.74112243  0.13065135  1.0
  O  O31  1  0.25887757  -0.10986603  0.63065135  1.0
  O  O32  1  1.00953490  0.58583306  0.52749857  1.0
  O  O33  1  0.41416694  -0.00953490  0.02749857  1.0
  O  O34  1  0.90415511  0.46622188  0.82670620  1.0
  O  O35  1  0.53377812  0.09584489  0.32670620  1.0
  O  O36  1  1.11004538  0.48930547  0.70418154  1.0
  O  O37  1  0.51069453  -0.11004538  0.20418154  1.0
  O  O38  1  0.86946314  0.11895823  0.78553979  1.0
  O  O39  1  0.88104177  0.13053686  0.28553979  1.0
  O  O40  1  1.34519923  0.60042060  0.09851978  1.0
  O  O41  1  0.39957940  -0.34519923  0.59851978  1.0
  O  O42  1  1.22140370  0.38677736  0.87888733  1.0
  O  O43  1  0.61322264  -0.22140370  0.37888733  1.0
  O  O44  1  0.15730698  -0.00710741  0.86665996  1.0
  O  O45  1  1.00710741  0.84269303  0.36665996  1.0
  O  O46  1  1.24459577  0.25446685  0.58768164  1.0
  O  O47  1  0.74553315  -0.24459577  0.08768164  1.0
