# generated using pymatgen
data_Ba2Ca(PdO2)3
_symmetry_space_group_name_H-M   'P 1'
_cell_length_a   9.53427701
_cell_length_b   8.78603827
_cell_length_c   7.28774800
_cell_angle_alpha   72.07980663
_cell_angle_beta   61.26045705
_cell_angle_gamma   46.65973633
_symmetry_Int_Tables_number   1
_chemical_formula_structural   Ba2Ca(PdO2)3
_chemical_formula_sum   'Ba4 Ca2 Pd6 O12'
_cell_volume   389.06652789
_cell_formula_units_Z   2
loop_
 _symmetry_equiv_pos_site_id
 _symmetry_equiv_pos_as_xyz
  1  'x, y, z'
loop_
 _atom_site_type_symbol
 _atom_site_label
 _atom_site_symmetry_multiplicity
 _atom_site_fract_x
 _atom_site_fract_y
 _atom_site_fract_z
 _atom_site_occupancy
  Ba  Ba0  1  -0.26660712  0.26660712  0.73339288  1.0
  Ba  Ba1  1  0.26660712  -0.26660712  1.26660712  1.0
  Ba  Ba2  1  -0.25000000  0.75000000  0.75000000  1.0
  Ba  Ba3  1  0.25000000  0.25000000  1.25000000  1.0
  Ca  Ca4  1  -0.17110864  0.82889136  0.17110864  1.0
  Ca  Ca5  1  0.17110864  0.17110864  -0.17110864  1.0
  Pd  Pd6  1  0.19011607  0.50700251  -0.19011607  1.0
  Pd  Pd7  1  -0.50700251  0.80988393  0.50700251  1.0
  Pd  Pd8  1  -0.49299749  1.19011607  0.49299749  1.0
  Pd  Pd9  1  -0.19011607  0.49299749  0.19011607  1.0
  Pd  Pd10  1  -0.82660330  0.82660330  0.82660330  1.0
  Pd  Pd11  1  -0.17339670  0.17339670  0.17339670  1.0
  O  O12  1  -0.03152382  0.82820134  0.79786077  1.0
  O  O13  1  0.17179866  0.03152382  1.59453829  1.0
  O  O14  1  0.20213923  0.59453829  1.03152382  1.0
  O  O15  1  -0.59453829  0.79786077  0.82820134  1.0
  O  O16  1  0.59453829  0.20213923  1.17179866  1.0
  O  O17  1  -0.20213923  0.40546171  0.96847618  1.0
  O  O18  1  -0.17179866  0.96847618  0.40546171  1.0
  O  O19  1  0.03152382  0.17179866  1.20213923  1.0
  O  O20  1  0.57700662  -0.18825705  1.18825705  1.0
  O  O21  1  1.18825705  -0.57700662  0.57700662  1.0
  O  O22  1  -0.18825705  0.57700662  0.42299338  1.0
  O  O23  1  0.42299338  0.18825705  -0.18825705  1.0
