# generated using pymatgen
data_SrSnS3
_symmetry_space_group_name_H-M   'P 1'
_cell_length_a   8.31549179
_cell_length_b   3.92321303
_cell_length_c   14.31892373
_cell_angle_alpha   90.00000000
_cell_angle_beta   90.00000000
_cell_angle_gamma   90.00000000
_symmetry_Int_Tables_number   1
_chemical_formula_structural   SrSnS3
_chemical_formula_sum   'Sr4 Sn4 S12'
_cell_volume   467.13263088
_cell_formula_units_Z   4
loop_
 _symmetry_equiv_pos_site_id
 _symmetry_equiv_pos_as_xyz
  1  'x, y, z'
loop_
 _atom_site_type_symbol
 _atom_site_label
 _atom_site_symmetry_multiplicity
 _atom_site_fract_x
 _atom_site_fract_y
 _atom_site_fract_z
 _atom_site_occupancy
  Sr  Sr0  1  0.57712910  0.75000000  0.82234467  1.0
  Sr  Sr1  1  1.07712910  0.75000000  0.67765533  1.0
  Sr  Sr2  1  0.42287090  0.25000000  0.17765533  1.0
  Sr  Sr3  1  -0.07712910  0.25000000  0.32234467  1.0
  Sn  Sn4  1  0.17375558  0.25000000  0.94133299  1.0
  Sn  Sn5  1  0.67375558  0.25000000  0.55866701  1.0
  Sn  Sn6  1  0.82624442  0.75000000  0.05866701  1.0
  Sn  Sn7  1  0.32624442  0.75000000  0.44133299  1.0
  S  S8  1  0.97277995  0.75000000  0.89537443  1.0
  S  S9  1  0.47277995  0.75000000  0.60462557  1.0
  S  S10  1  0.02722005  0.25000000  0.10462557  1.0
  S  S11  1  0.52722005  0.25000000  0.39537443  1.0
  S  S12  1  0.35186990  0.75000000  0.00349663  1.0
  S  S13  1  0.85186990  0.75000000  0.49650337  1.0
  S  S14  1  0.64813010  0.25000000  0.99650337  1.0
  S  S15  1  0.14813010  0.25000000  0.50349663  1.0
  S  S16  1  0.29856672  0.25000000  0.78366473  1.0
  S  S17  1  0.79856672  0.25000000  0.71633527  1.0
  S  S18  1  0.70143328  0.75000000  0.21633527  1.0
  S  S19  1  0.20143328  0.75000000  0.28366473  1.0
