# generated using pymatgen
data_AlSiP3
_symmetry_space_group_name_H-M   'P 1'
_cell_length_a   5.90261788
_cell_length_b   9.91004624
_cell_length_c   6.14366784
_cell_angle_alpha   90.00000000
_cell_angle_beta   90.00000000
_cell_angle_gamma   90.00000000
_symmetry_Int_Tables_number   1
_chemical_formula_structural   AlSiP3
_chemical_formula_sum   'Al4 Si4 P12'
_cell_volume   359.37517794
_cell_formula_units_Z   4
loop_
 _symmetry_equiv_pos_site_id
 _symmetry_equiv_pos_as_xyz
  1  'x, y, z'
loop_
 _atom_site_type_symbol
 _atom_site_label
 _atom_site_symmetry_multiplicity
 _atom_site_fract_x
 _atom_site_fract_y
 _atom_site_fract_z
 _atom_site_occupancy
  Al  Al0  1  0.50000000  0.50000000  0.50000000  1.0
  Al  Al1  1  0.50000000  0.00000000  0.50000000  1.0
  Al  Al2  1  0.00000000  0.50000000  0.00000000  1.0
  Al  Al3  1  0.00000000  0.00000000  0.00000000  1.0
  Si  Si4  1  0.49972488  0.25000000  0.93702451  1.0
  Si  Si5  1  0.99972488  0.25000000  0.56297549  1.0
  Si  Si6  1  0.50027512  0.75000000  0.06297549  1.0
  Si  Si7  1  0.00027512  0.75000000  0.43702451  1.0
  P  P8  1  0.38937816  0.44157193  0.10784194  1.0
  P  P9  1  0.38937816  0.05842807  0.10784194  1.0
  P  P10  1  0.88937816  0.44157193  0.39215806  1.0
  P  P11  1  0.88937816  0.05842807  0.39215806  1.0
  P  P12  1  0.61062184  0.94157193  0.89215806  1.0
  P  P13  1  0.61062184  0.55842807  0.89215806  1.0
  P  P14  1  0.11062184  0.94157193  0.60784194  1.0
  P  P15  1  0.11062184  0.55842807  0.60784194  1.0
  P  P16  1  0.38753154  0.25000000  0.58602616  1.0
  P  P17  1  0.88753154  0.25000000  0.91397384  1.0
  P  P18  1  0.61246846  0.75000000  0.41397384  1.0
  P  P19  1  0.11246846  0.75000000  0.08602616  1.0
