# generated using pymatgen
data_Mn2BiAsO6
_symmetry_space_group_name_H-M   'P 1'
_cell_length_a   12.55821284
_cell_length_b   5.55820130
_cell_length_c   8.25332817
_cell_angle_alpha   90.00000000
_cell_angle_beta   90.00000000
_cell_angle_gamma   90.00000000
_symmetry_Int_Tables_number   1
_chemical_formula_structural   Mn2BiAsO6
_chemical_formula_sum   'Mn8 Bi4 As4 O24'
_cell_volume   576.09117806
_cell_formula_units_Z   4
loop_
 _symmetry_equiv_pos_site_id
 _symmetry_equiv_pos_as_xyz
  1  'x, y, z'
loop_
 _atom_site_type_symbol
 _atom_site_label
 _atom_site_symmetry_multiplicity
 _atom_site_fract_x
 _atom_site_fract_y
 _atom_site_fract_z
 _atom_site_occupancy
  Mn  Mn0  1  0.41043566  0.75000000  0.20831688  1.0
  Mn  Mn1  1  0.91043566  0.75000000  0.29168312  1.0
  Mn  Mn2  1  0.58956434  0.25000000  0.79168312  1.0
  Mn  Mn3  1  0.08956434  0.25000000  0.70831688  1.0
  Mn  Mn4  1  0.39818223  0.75000000  0.80736946  1.0
  Mn  Mn5  1  0.89818223  0.75000000  0.69263054  1.0
  Mn  Mn6  1  0.60181777  0.25000000  0.19263054  1.0
  Mn  Mn7  1  0.10181777  0.25000000  0.30736946  1.0
  Bi  Bi8  1  0.09041180  0.75000000  0.98064855  1.0
  Bi  Bi9  1  0.59041180  0.75000000  0.51935145  1.0
  Bi  Bi10  1  0.90958820  0.25000000  0.01935145  1.0
  Bi  Bi11  1  0.40958820  0.25000000  0.48064855  1.0
  As  As12  1  0.19903729  0.75000000  0.53498522  1.0
  As  As13  1  0.69903729  0.75000000  0.96501478  1.0
  As  As14  1  0.80096271  0.25000000  0.46501478  1.0
  As  As15  1  0.30096271  0.25000000  0.03498522  1.0
  O  O16  1  0.49142533  0.99593041  0.66910148  1.0
  O  O17  1  0.49142533  0.50406959  0.66910148  1.0
  O  O18  1  0.99142533  0.99593041  0.83089852  1.0
  O  O19  1  0.99142533  0.50406959  0.83089852  1.0
  O  O20  1  0.50857467  0.49593041  0.33089852  1.0
  O  O21  1  0.50857467  0.00406959  0.33089852  1.0
  O  O22  1  0.00857467  0.49593041  0.16910148  1.0
  O  O23  1  0.00857467  0.00406959  0.16910148  1.0
  O  O24  1  0.12182614  1.00899251  0.50906359  1.0
  O  O25  1  0.12182614  0.49100749  0.50906359  1.0
  O  O26  1  0.62182614  1.00899251  0.99093641  1.0
  O  O27  1  0.62182614  0.49100749  0.99093641  1.0
  O  O28  1  0.87817386  0.50899251  0.49093641  1.0
  O  O29  1  0.87817386  -0.00899251  0.49093641  1.0
  O  O30  1  0.37817386  0.50899251  0.00906359  1.0
  O  O31  1  0.37817386  -0.00899251  0.00906359  1.0
  O  O32  1  0.23963103  0.75000000  0.73694779  1.0
  O  O33  1  0.73963103  0.75000000  0.76305221  1.0
  O  O34  1  0.76036897  0.25000000  0.26305221  1.0
  O  O35  1  0.26036897  0.25000000  0.23694779  1.0
  O  O36  1  0.81020606  0.75000000  0.08886958  1.0
  O  O37  1  0.31020606  0.75000000  0.41113042  1.0
  O  O38  1  0.18979394  0.25000000  0.91113042  1.0
  O  O39  1  0.68979394  0.25000000  0.58886958  1.0
