# generated using pymatgen
data_KEuTiO4
_symmetry_space_group_name_H-M   'P 1'
_cell_length_a   13.26214798
_cell_length_b   5.50058801
_cell_length_c   5.42657507
_cell_angle_alpha   90.00000000
_cell_angle_beta   90.00000000
_cell_angle_gamma   90.00000000
_symmetry_Int_Tables_number   1
_chemical_formula_structural   KEuTiO4
_chemical_formula_sum   'K4 Eu4 Ti4 O16'
_cell_volume   395.86654653
_cell_formula_units_Z   4
loop_
 _symmetry_equiv_pos_site_id
 _symmetry_equiv_pos_as_xyz
  1  'x, y, z'
loop_
 _atom_site_type_symbol
 _atom_site_label
 _atom_site_symmetry_multiplicity
 _atom_site_fract_x
 _atom_site_fract_y
 _atom_site_fract_z
 _atom_site_occupancy
  O  O0  1  0.38216367  0.52354777  0.75000000  1.0
  O  O1  1  0.38216367  0.97645223  0.25000000  1.0
  O  O2  1  0.61783633  0.02354777  0.75000000  1.0
  O  O3  1  0.61783633  0.47645223  0.25000000  1.0
  O  O4  1  0.77055129  0.75000000  0.00000000  1.0
  O  O5  1  0.77055129  0.75000000  0.50000000  1.0
  O  O6  1  0.22944871  0.25000000  0.00000000  1.0
  O  O7  1  0.22944871  0.25000000  0.50000000  1.0
  O  O8  1  0.21016422  0.75000000  0.00000000  1.0
  O  O9  1  0.21016422  0.75000000  0.50000000  1.0
  O  O10  1  0.78983578  0.25000000  0.00000000  1.0
  O  O11  1  0.78983578  0.25000000  0.50000000  1.0
  O  O12  1  0.93526485  0.94223813  0.75000000  1.0
  O  O13  1  0.93526485  0.55776187  0.25000000  1.0
  O  O14  1  0.06473515  0.44223813  0.75000000  1.0
  O  O15  1  0.06473515  0.05776187  0.25000000  1.0
  Ti  Ti16  1  0.74991982  0.00656280  0.75000000  1.0
  Ti  Ti17  1  0.74991982  0.49343720  0.25000000  1.0
  Ti  Ti18  1  0.25008018  0.50656280  0.75000000  1.0
  Ti  Ti19  1  0.25008018  0.99343720  0.25000000  1.0
  Eu  Eu20  1  0.89722604  0.52317159  0.75000000  1.0
  Eu  Eu21  1  0.89722604  0.97682841  0.25000000  1.0
  Eu  Eu22  1  0.10277396  0.02317159  0.75000000  1.0
  Eu  Eu23  1  0.10277396  0.47682841  0.25000000  1.0
  K  K24  1  0.40483830  0.01475243  0.75000000  1.0
  K  K25  1  0.40483830  0.48524757  0.25000000  1.0
  K  K26  1  0.59516170  0.51475243  0.75000000  1.0
  K  K27  1  0.59516170  0.98524757  0.25000000  1.0
