# generated using pymatgen
data_Sr2GdS3
_symmetry_space_group_name_H-M   'P 1'
_cell_length_a   4.11845358
_cell_length_b   4.11845358
_cell_length_c   14.25286697
_cell_angle_alpha   90.00000000
_cell_angle_beta   90.00000000
_cell_angle_gamma   89.98871716
_symmetry_Int_Tables_number   1
_chemical_formula_structural   Sr2GdS3
_chemical_formula_sum   'Sr2 Gd1 S3'
_cell_volume   241.75227723
_cell_formula_units_Z   1
loop_
 _symmetry_equiv_pos_site_id
 _symmetry_equiv_pos_as_xyz
  1  'x, y, z'
loop_
 _atom_site_type_symbol
 _atom_site_label
 _atom_site_symmetry_multiplicity
 _atom_site_fract_x
 _atom_site_fract_y
 _atom_site_fract_z
 _atom_site_occupancy
  Sr  Sr0  1  0.49548901  0.50451099  0.20246579  1.0
  Sr  Sr1  1  0.49548901  0.50451099  0.79753421  1.0
  Gd  Gd2  1  -0.00450980  0.00450980  0.00000000  1.0
  S  S3  1  -0.00452034  1.00452034  0.20287770  1.0
  S  S4  1  -0.00452034  1.00452034  0.79712230  1.0
  S  S5  1  0.49557246  0.50442754  0.00000000  1.0
