# generated using pymatgen
data_LiEuAsS3
_symmetry_space_group_name_H-M   'P 1'
_cell_length_a   5.69216153
_cell_length_b   13.12086969
_cell_length_c   7.13899576
_cell_angle_alpha   90.00000000
_cell_angle_beta   104.51987252
_cell_angle_gamma   90.00000000
_symmetry_Int_Tables_number   1
_chemical_formula_structural   LiEuAsS3
_chemical_formula_sum   'Li4 Eu4 As4 S12'
_cell_volume   516.15432374
_cell_formula_units_Z   4
loop_
 _symmetry_equiv_pos_site_id
 _symmetry_equiv_pos_as_xyz
  1  'x, y, z'
loop_
 _atom_site_type_symbol
 _atom_site_label
 _atom_site_symmetry_multiplicity
 _atom_site_fract_x
 _atom_site_fract_y
 _atom_site_fract_z
 _atom_site_occupancy
  Li  Li0  1  0.79389683  0.20817159  0.07219489  1.0
  Li  Li1  1  0.79389683  0.29182841  0.57219489  1.0
  Li  Li2  1  0.20610317  0.70817159  0.42780511  1.0
  Li  Li3  1  0.20610317  0.79182841  0.92780511  1.0
  Eu  Eu4  1  0.82592109  0.92047968  0.23152244  1.0
  Eu  Eu5  1  0.82592109  0.57952032  0.73152244  1.0
  Eu  Eu6  1  0.17407891  0.42047968  0.26847756  1.0
  Eu  Eu7  1  0.17407891  0.07952032  0.76847756  1.0
  As  As8  1  0.37846469  0.09757829  0.33921161  1.0
  As  As9  1  0.37846469  0.40242171  0.83921161  1.0
  As  As10  1  0.62153531  0.59757829  0.16078839  1.0
  As  As11  1  0.62153531  0.90242171  0.66078839  1.0
  S  S12  1  0.79832017  0.12631891  0.38743262  1.0
  S  S13  1  0.79832017  0.37368109  0.88743262  1.0
  S  S14  1  0.20167983  0.62631891  0.11256738  1.0
  S  S15  1  0.20167983  0.87368109  0.61256738  1.0
  S  S16  1  0.75069368  0.71758547  0.39577177  1.0
  S  S17  1  0.75069368  0.78241453  0.89577177  1.0
  S  S18  1  0.24930632  0.21758547  0.10422823  1.0
  S  S19  1  0.24930632  0.28241453  0.60422823  1.0
  S  S20  1  0.70038533  0.45376621  0.35740183  1.0
  S  S21  1  0.70038533  0.04623379  0.85740183  1.0
  S  S22  1  0.29961467  0.95376621  0.14259817  1.0
  S  S23  1  0.29961467  0.54623379  0.64259817  1.0
