# generated using pymatgen
data_NaLuSiO4
_symmetry_space_group_name_H-M   'P 1'
_cell_length_a   11.11986788
_cell_length_b   6.39528213
_cell_length_c   5.16559897
_cell_angle_alpha   90.00000000
_cell_angle_beta   90.00000000
_cell_angle_gamma   90.00000000
_symmetry_Int_Tables_number   1
_chemical_formula_structural   NaLuSiO4
_chemical_formula_sum   'Na4 Lu4 Si4 O16'
_cell_volume   367.34998116
_cell_formula_units_Z   4
loop_
 _symmetry_equiv_pos_site_id
 _symmetry_equiv_pos_as_xyz
  1  'x, y, z'
loop_
 _atom_site_type_symbol
 _atom_site_label
 _atom_site_symmetry_multiplicity
 _atom_site_fract_x
 _atom_site_fract_y
 _atom_site_fract_z
 _atom_site_occupancy
  Na  Na0  1  0.00000000  0.50000000  0.00000000  1.0
  Na  Na1  1  0.00000000  0.00000000  0.00000000  1.0
  Na  Na2  1  0.50000000  0.50000000  0.50000000  1.0
  Na  Na3  1  0.50000000  0.00000000  0.50000000  1.0
  Lu  Lu4  1  0.77968224  0.25000000  0.49577114  1.0
  Lu  Lu5  1  0.27968224  0.25000000  1.00422886  1.0
  Lu  Lu6  1  0.22031776  0.75000000  0.50422886  1.0
  Lu  Lu7  1  0.72031776  0.75000000  -0.00422886  1.0
  Si  Si8  1  0.60155864  0.25000000  0.05682881  1.0
  Si  Si9  1  0.10155864  0.25000000  0.44317119  1.0
  Si  Si10  1  0.39844136  0.75000000  0.94317119  1.0
  Si  Si11  1  0.89844136  0.75000000  0.55682881  1.0
  O  O12  1  0.67411456  0.44957535  0.19890155  1.0
  O  O13  1  0.67411456  0.05042465  0.19890155  1.0
  O  O14  1  0.17411456  0.44957535  0.30109845  1.0
  O  O15  1  0.17411456  0.05042465  0.30109845  1.0
  O  O16  1  0.32588544  0.94957535  0.80109845  1.0
  O  O17  1  0.32588544  0.55042465  0.80109845  1.0
  O  O18  1  0.82588544  0.94957535  0.69890155  1.0
  O  O19  1  0.82588544  0.55042465  0.69890155  1.0
  O  O20  1  0.96219006  0.25000000  0.33977695  1.0
  O  O21  1  0.46219006  0.25000000  0.16022305  1.0
  O  O22  1  0.03780994  0.75000000  0.66022305  1.0
  O  O23  1  0.53780994  0.75000000  0.83977695  1.0
  O  O24  1  0.61536280  0.25000000  0.74349171  1.0
  O  O25  1  0.11536280  0.25000000  0.75650829  1.0
  O  O26  1  0.38463720  0.75000000  0.25650829  1.0
  O  O27  1  0.88463720  0.75000000  0.24349171  1.0
