# generated using pymatgen
data_ZrPbO3
_symmetry_space_group_name_H-M   'P 1'
_cell_length_a   5.11369835
_cell_length_b   5.11369835
_cell_length_c   5.11369835
_cell_angle_alpha   81.70468139
_cell_angle_beta   81.70468139
_cell_angle_gamma   81.70468139
_symmetry_Int_Tables_number   1
_chemical_formula_structural   ZrPbO3
_chemical_formula_sum   'Zr1 Pb1 O3'
_cell_volume   129.89430648
_cell_formula_units_Z   1
loop_
 _symmetry_equiv_pos_site_id
 _symmetry_equiv_pos_as_xyz
  1  'x, y, z'
loop_
 _atom_site_type_symbol
 _atom_site_label
 _atom_site_symmetry_multiplicity
 _atom_site_fract_x
 _atom_site_fract_y
 _atom_site_fract_z
 _atom_site_occupancy
  Zr  Zr0  1  -0.14619632  -0.14619632  -0.14619632  1.0
  Pb  Pb1  1  0.52539286  0.52539286  -0.47460714  1.0
  O  O2  1  0.06193773  0.62178286  -0.37821714  1.0
  O  O3  1  0.62178286  0.06193773  -0.37821714  1.0
  O  O4  1  0.62178286  0.62178286  -0.93806227  1.0
