# generated using pymatgen
data_MnH2SeO5
_symmetry_space_group_name_H-M   'P 1'
_cell_length_a   5.50421041
_cell_length_b   5.50421041
_cell_length_c   7.98211532
_cell_angle_alpha   74.25625326
_cell_angle_beta   105.74374674
_cell_angle_gamma   80.37039481
_symmetry_Int_Tables_number   1
_chemical_formula_structural   MnH2SeO5
_chemical_formula_sum   'Mn2 H4 Se2 O10'
_cell_volume   216.31735580
_cell_formula_units_Z   2
loop_
 _symmetry_equiv_pos_site_id
 _symmetry_equiv_pos_as_xyz
  1  'x, y, z'
loop_
 _atom_site_type_symbol
 _atom_site_label
 _atom_site_symmetry_multiplicity
 _atom_site_fract_x
 _atom_site_fract_y
 _atom_site_fract_z
 _atom_site_occupancy
  Mn  Mn0  1  1.50000000  -0.00000000  0.50000000  1.0
  Mn  Mn1  1  1.00000000  -0.50000000  -0.00000000  1.0
  H  H2  1  1.54258391  0.37039847  0.20887726  1.0
  H  H3  1  0.62960153  -0.54258391  0.70887726  1.0
  H  H4  1  1.37039847  0.54258391  0.29112274  1.0
  H  H5  1  0.45741609  -0.37039847  0.79112274  1.0
  Se  Se6  1  0.91969242  -0.08030758  0.25000000  1.0
  Se  Se7  1  1.08030758  0.08030758  0.75000000  1.0
  O  O8  1  0.78959354  -0.17443647  0.41484572  1.0
  O  O9  1  1.17443647  0.21040646  0.91484572  1.0
  O  O10  1  0.82556353  -0.21040646  0.08515428  1.0
  O  O11  1  1.21040646  0.17443647  0.58515428  1.0
  O  O12  1  0.24892787  -0.17663483  0.34104823  1.0
  O  O13  1  1.17663483  0.75107213  0.84104823  1.0
  O  O14  1  0.82336517  -0.75107213  0.15895177  1.0
  O  O15  1  1.75107213  0.17663483  0.65895177  1.0
  O  O16  1  1.38633490  0.38633490  0.25000000  1.0
  O  O17  1  0.61366510  -0.38633490  0.75000000  1.0
