# generated using pymatgen
data_Co5(W3C)4
_symmetry_space_group_name_H-M   'P 1'
_cell_length_a   10.19302458
_cell_length_b   10.19302458
_cell_length_c   10.19302458
_cell_angle_alpha   60.00000000
_cell_angle_beta   60.00000000
_cell_angle_gamma   60.00000000
_symmetry_Int_Tables_number   1
_chemical_formula_structural   Co5(W3C)4
_chemical_formula_sum   'Co10 W24 C8'
_cell_volume   748.84893422
_cell_formula_units_Z   2
loop_
 _symmetry_equiv_pos_site_id
 _symmetry_equiv_pos_as_xyz
  1  'x, y, z'
loop_
 _atom_site_type_symbol
 _atom_site_label
 _atom_site_symmetry_multiplicity
 _atom_site_fract_x
 _atom_site_fract_y
 _atom_site_fract_z
 _atom_site_occupancy
  Co  Co0  1  0.66588027  -0.33411973  1.00235918  1.0
  Co  Co1  1  0.66588027  0.00235918  0.66588027  1.0
  Co  Co2  1  0.58411973  -0.41588027  0.58411973  1.0
  Co  Co3  1  1.24764082  -0.41588027  0.58411973  1.0
  Co  Co4  1  1.00235918  -0.33411973  0.66588027  1.0
  Co  Co5  1  0.66588027  -0.33411973  0.66588027  1.0
  Co  Co6  1  0.58411973  0.24764082  0.58411973  1.0
  Co  Co7  1  0.58411973  -0.41588027  1.24764082  1.0
  Co  Co8  1  0.50000000  0.50000000  -0.50000000  1.0
  Co  Co9  1  0.75000000  -0.25000000  0.75000000  1.0
  W  W10  1  0.96988581  -0.59313694  0.65336532  1.0
  W  W11  1  -0.03011419  0.65336532  0.40686306  1.0
  W  W12  1  -0.15686306  0.28011419  0.28011419  1.0
  W  W13  1  0.59663468  0.28011419  0.28011419  1.0
  W  W14  1  -0.59313694  0.96988581  0.65336532  1.0
  W  W15  1  0.96988581  -0.03011419  0.65336532  1.0
  W  W16  1  0.96988581  -0.34663468  0.96988581  1.0
  W  W17  1  -0.59313694  0.65336532  0.96988581  1.0
  W  W18  1  0.28011419  -0.15686306  0.28011419  1.0
  W  W19  1  0.28011419  0.28011419  -0.15686306  1.0
  W  W20  1  0.59663468  0.28011419  -0.15686306  1.0
  W  W21  1  0.59663468  -0.15686306  0.28011419  1.0
  W  W22  1  0.65336532  -0.03011419  0.96988581  1.0
  W  W23  1  -0.59313694  0.96988581  0.96988581  1.0
  W  W24  1  0.28011419  0.59663468  -0.15686306  1.0
  W  W25  1  0.28011419  -0.15686306  0.59663468  1.0
  W  W26  1  -0.34663468  0.96988581  0.40686306  1.0
  W  W27  1  0.65336532  -0.59313694  0.96988581  1.0
  W  W28  1  0.96988581  -0.59313694  0.96988581  1.0
  W  W29  1  -0.03011419  0.96988581  0.40686306  1.0
  W  W30  1  0.28011419  0.59663468  0.28011419  1.0
  W  W31  1  -0.15686306  0.59663468  0.28011419  1.0
  W  W32  1  -0.15686306  0.28011419  0.59663468  1.0
  W  W33  1  0.28011419  0.28011419  0.59663468  1.0
  C  C34  1  -0.16765825  0.83234175  0.50297475  1.0
  C  C35  1  0.83234175  -0.49702525  0.83234175  1.0
  C  C36  1  0.41765825  0.41765825  0.41765825  1.0
  C  C37  1  -0.25297475  0.41765825  0.41765825  1.0
  C  C38  1  -0.49702525  0.83234175  0.83234175  1.0
  C  C39  1  0.83234175  -0.16765825  0.83234175  1.0
  C  C40  1  0.41765825  -0.25297475  0.41765825  1.0
  C  C41  1  0.41765825  0.41765825  -0.25297475  1.0
