# generated using pymatgen
data_K2MoS3O
_symmetry_space_group_name_H-M   'P 1'
_cell_length_a   9.21949372
_cell_length_b   7.30847845
_cell_length_c   11.38163965
_cell_angle_alpha   90.00000000
_cell_angle_beta   90.00000000
_cell_angle_gamma   90.00000000
_symmetry_Int_Tables_number   1
_chemical_formula_structural   K2MoS3O
_chemical_formula_sum   'K8 Mo4 S12 O4'
_cell_volume   766.90024254
_cell_formula_units_Z   4
loop_
 _symmetry_equiv_pos_site_id
 _symmetry_equiv_pos_as_xyz
  1  'x, y, z'
loop_
 _atom_site_type_symbol
 _atom_site_label
 _atom_site_symmetry_multiplicity
 _atom_site_fract_x
 _atom_site_fract_y
 _atom_site_fract_z
 _atom_site_occupancy
  K  K0  1  0.04812466  0.75000000  0.69264650  1.0
  K  K1  1  0.54812466  0.75000000  0.80735350  1.0
  K  K2  1  0.95187534  0.25000000  0.30735350  1.0
  K  K3  1  0.45187534  0.25000000  0.19264650  1.0
  K  K4  1  0.84635026  0.75000000  0.12079125  1.0
  K  K5  1  0.34635026  0.75000000  0.37920875  1.0
  K  K6  1  0.15364974  0.25000000  0.87920875  1.0
  K  K7  1  0.65364974  0.25000000  0.62079125  1.0
  Mo  Mo8  1  0.76372468  0.75000000  0.45331057  1.0
  Mo  Mo9  1  0.26372468  0.75000000  0.04668943  1.0
  Mo  Mo10  1  0.23627532  0.25000000  0.54668943  1.0
  Mo  Mo11  1  0.73627532  0.25000000  0.95331057  1.0
  S  S12  1  0.65714071  0.99532458  0.37821299  1.0
  S  S13  1  0.65714071  0.50467542  0.37821299  1.0
  S  S14  1  0.15714071  0.99532458  0.12178701  1.0
  S  S15  1  0.15714071  0.50467542  0.12178701  1.0
  S  S16  1  0.34285929  0.49532458  0.62178701  1.0
  S  S17  1  0.34285929  0.00467542  0.62178701  1.0
  S  S18  1  0.84285929  0.49532458  0.87821299  1.0
  S  S19  1  0.84285929  0.00467542  0.87821299  1.0
  S  S20  1  0.99423930  0.75000000  0.40092847  1.0
  S  S21  1  0.49423930  0.75000000  0.09907153  1.0
  S  S22  1  0.00576070  0.25000000  0.59907153  1.0
  S  S23  1  0.50576070  0.25000000  0.90092847  1.0
  O  O24  1  0.74838084  0.75000000  0.60620372  1.0
  O  O25  1  0.24838084  0.75000000  0.89379628  1.0
  O  O26  1  0.25161916  0.25000000  0.39379628  1.0
  O  O27  1  0.75161916  0.25000000  0.10620372  1.0
