# generated using pymatgen
data_Na3LiP2O7
_symmetry_space_group_name_H-M   'P 1'
_cell_length_a   5.42191481
_cell_length_b   5.42191481
_cell_length_c   12.46279471
_cell_angle_alpha   90.00000000
_cell_angle_beta   90.00000000
_cell_angle_gamma   118.24672806
_symmetry_Int_Tables_number   1
_chemical_formula_structural   Na3LiP2O7
_chemical_formula_sum   'Na6 Li2 P4 O14'
_cell_volume   322.74252220
_cell_formula_units_Z   2
loop_
 _symmetry_equiv_pos_site_id
 _symmetry_equiv_pos_as_xyz
  1  'x, y, z'
loop_
 _atom_site_type_symbol
 _atom_site_label
 _atom_site_symmetry_multiplicity
 _atom_site_fract_x
 _atom_site_fract_y
 _atom_site_fract_z
 _atom_site_occupancy
  Na  Na0  1  0.34618384  0.34618384  0.50000000  1.0
  Na  Na1  1  0.65381616  0.65381616  0.00000000  1.0
  Na  Na2  1  0.04796788  0.69821434  0.61876180  1.0
  Na  Na3  1  -0.30178566  1.04796788  0.38123820  1.0
  Na  Na4  1  -0.04796788  1.30178566  0.11876180  1.0
  Na  Na5  1  0.30178566  0.95203212  0.88123820  1.0
  Li  Li6  1  -0.45669534  1.45669534  0.75000000  1.0
  Li  Li7  1  0.45669534  0.54330466  0.25000000  1.0
  P  P8  1  -0.30685818  1.02310998  0.64913309  1.0
  P  P9  1  0.02310998  0.69314182  0.35086691  1.0
  P  P10  1  0.30685818  0.97689002  0.14913309  1.0
  P  P11  1  -0.02310998  1.30685818  0.85086691  1.0
  O  O12  1  0.58785269  0.70801300  0.62923782  1.0
  O  O13  1  -0.29198700  1.58785269  0.37076218  1.0
  O  O14  1  -0.58785269  1.29198700  0.12923782  1.0
  O  O15  1  0.29198700  0.41214731  0.87076218  1.0
  O  O16  1  -0.13015975  1.21367676  0.55726439  1.0
  O  O17  1  0.21367676  0.86984025  0.44273561  1.0
  O  O18  1  0.13015975  0.78632324  0.05726439  1.0
  O  O19  1  -0.21367676  1.13015975  0.94273561  1.0
  O  O20  1  -0.54081748  1.08791319  0.68719486  1.0
  O  O21  1  0.08791319  0.45918252  0.31280514  1.0
  O  O22  1  0.54081748  0.91208681  0.18719486  1.0
  O  O23  1  -0.08791319  1.54081748  0.81280514  1.0
  O  O24  1  -0.08845310  1.08845310  0.75000000  1.0
  O  O25  1  0.08845310  0.91154690  0.25000000  1.0
