# generated using pymatgen
data_CsAl(H2N)4
_symmetry_space_group_name_H-M   'P 1'
_cell_length_a   7.60818669
_cell_length_b   7.60818669
_cell_length_c   5.57981546
_cell_angle_alpha   90.00000000
_cell_angle_beta   90.00000000
_cell_angle_gamma   90.00000000
_symmetry_Int_Tables_number   1
_chemical_formula_structural   CsAl(H2N)4
_chemical_formula_sum   'Cs2 Al2 H16 N8'
_cell_volume   322.98485386
_cell_formula_units_Z   2
loop_
 _symmetry_equiv_pos_site_id
 _symmetry_equiv_pos_as_xyz
  1  'x, y, z'
loop_
 _atom_site_type_symbol
 _atom_site_label
 _atom_site_symmetry_multiplicity
 _atom_site_fract_x
 _atom_site_fract_y
 _atom_site_fract_z
 _atom_site_occupancy
  Cs  Cs0  1  0.00000000  0.50000000  0.75090859  1.0
  Cs  Cs1  1  0.50000000  0.00000000  0.24909141  1.0
  Al  Al2  1  0.00000000  0.00000000  0.00000000  1.0
  Al  Al3  1  0.50000000  0.50000000  0.00000000  1.0
  H  H4  1  0.52672839  0.32326957  0.62035444  1.0
  H  H5  1  0.47327161  0.67673043  0.62035444  1.0
  H  H6  1  0.82326957  0.97327161  0.62035444  1.0
  H  H7  1  0.17673043  0.02672839  0.62035444  1.0
  H  H8  1  0.97327161  0.17673043  0.37964556  1.0
  H  H9  1  0.02672839  0.82326957  0.37964556  1.0
  H  H10  1  0.67673043  0.52672839  0.37964556  1.0
  H  H11  1  0.32326957  0.47327161  0.37964556  1.0
  H  H12  1  0.65860109  0.22370402  0.81326368  1.0
  H  H13  1  0.34139891  0.77629598  0.81326368  1.0
  H  H14  1  0.72370402  0.84139891  0.81326368  1.0
  H  H15  1  0.27629598  0.15860109  0.81326368  1.0
  H  H16  1  0.84139891  0.27629598  0.18673632  1.0
  H  H17  1  0.15860109  0.72370402  0.18673632  1.0
  H  H18  1  0.77629598  0.65860109  0.18673632  1.0
  H  H19  1  0.22370402  0.34139891  0.18673632  1.0
  N  N20  1  0.58623834  0.33430747  0.78337326  1.0
  N  N21  1  0.41376166  0.66569253  0.78337326  1.0
  N  N22  1  0.83430747  0.91376166  0.78337326  1.0
  N  N23  1  0.16569253  0.08623834  0.78337326  1.0
  N  N24  1  0.91376166  0.16569253  0.21662674  1.0
  N  N25  1  0.08623834  0.83430747  0.21662674  1.0
  N  N26  1  0.66569253  0.58623834  0.21662674  1.0
  N  N27  1  0.33430747  0.41376166  0.21662674  1.0
