# generated using pymatgen
data_Fe2Mo4N
_symmetry_space_group_name_H-M   'P 1'
_cell_length_a   7.98001353
_cell_length_b   7.98001353
_cell_length_c   7.98001353
_cell_angle_alpha   60.00000000
_cell_angle_beta   60.00000000
_cell_angle_gamma   60.00000000
_symmetry_Int_Tables_number   1
_chemical_formula_structural   Fe2Mo4N
_chemical_formula_sum   'Fe8 Mo16 N4'
_cell_volume   359.33199226
_cell_formula_units_Z   4
loop_
 _symmetry_equiv_pos_site_id
 _symmetry_equiv_pos_as_xyz
  1  'x, y, z'
loop_
 _atom_site_type_symbol
 _atom_site_label
 _atom_site_symmetry_multiplicity
 _atom_site_fract_x
 _atom_site_fract_y
 _atom_site_fract_z
 _atom_site_occupancy
  Fe  Fe0  1  0.00167323  1.33277559  0.33277559  1.0
  Fe  Fe1  1  0.33277559  1.00167323  0.33277559  1.0
  Fe  Fe2  1  0.33277559  1.33277559  0.00167323  1.0
  Fe  Fe3  1  0.33277559  1.33277559  0.33277559  1.0
  Fe  Fe4  1  -0.75167323  0.91722441  0.91722441  1.0
  Fe  Fe5  1  0.91722441  -0.75167323  0.91722441  1.0
  Fe  Fe6  1  0.91722441  0.91722441  -0.75167323  1.0
  Fe  Fe7  1  0.91722441  0.91722441  0.91722441  1.0
  Mo  Mo8  1  0.62500000  1.12500000  0.12500000  1.0
  Mo  Mo9  1  0.12500000  1.62500000  0.12500000  1.0
  Mo  Mo10  1  0.12500000  0.12500000  1.62500000  1.0
  Mo  Mo11  1  0.12500000  0.12500000  0.12500000  1.0
  Mo  Mo12  1  0.69026561  0.69026561  -0.69026561  1.0
  Mo  Mo13  1  0.30973439  1.30973439  -0.30973439  1.0
  Mo  Mo14  1  0.69026561  -0.69026561  0.69026561  1.0
  Mo  Mo15  1  0.30973439  -0.30973439  0.30973439  1.0
  Mo  Mo16  1  -0.69026561  0.69026561  0.69026561  1.0
  Mo  Mo17  1  -0.30973439  0.30973439  0.30973439  1.0
  Mo  Mo18  1  -0.44026561  0.55973439  0.94026561  1.0
  Mo  Mo19  1  0.94026561  0.94026561  -0.44026561  1.0
  Mo  Mo20  1  0.55973439  0.94026561  0.55973439  1.0
  Mo  Mo21  1  0.94026561  0.55973439  0.94026561  1.0
  Mo  Mo22  1  0.94026561  0.55973439  -0.44026561  1.0
  Mo  Mo23  1  0.55973439  0.94026561  -0.05973439  1.0
  N  N24  1  1.12500000  0.62500000  0.62500000  1.0
  N  N25  1  0.62500000  1.12500000  -0.37500000  1.0
  N  N26  1  -0.37500000  0.62500000  1.12500000  1.0
  N  N27  1  -0.37500000  0.62500000  0.62500000  1.0
