# generated using pymatgen
data_NaCdAsS3
_symmetry_space_group_name_H-M   'P 1'
_cell_length_a   5.81448488
_cell_length_b   16.68985197
_cell_length_c   8.41349064
_cell_angle_alpha   90.00000000
_cell_angle_beta   135.60452981
_cell_angle_gamma   90.00000000
_symmetry_Int_Tables_number   1
_chemical_formula_structural   NaCdAsS3
_chemical_formula_sum   'Na4 Cd4 As4 S12'
_cell_volume   571.20763098
_cell_formula_units_Z   4
loop_
 _symmetry_equiv_pos_site_id
 _symmetry_equiv_pos_as_xyz
  1  'x, y, z'
loop_
 _atom_site_type_symbol
 _atom_site_label
 _atom_site_symmetry_multiplicity
 _atom_site_fract_x
 _atom_site_fract_y
 _atom_site_fract_z
 _atom_site_occupancy
  Na  Na0  1  0.74340755  0.07683651  0.26190021  1.0
  Na  Na1  1  0.74340755  0.42316349  0.76190021  1.0
  Na  Na2  1  0.25659245  0.57683651  0.23809979  1.0
  Na  Na3  1  0.25659245  0.92316349  0.73809979  1.0
  Cd  Cd4  1  0.25543860  0.25132354  0.22838241  1.0
  Cd  Cd5  1  0.25543860  0.24867646  0.72838241  1.0
  Cd  Cd6  1  0.74456140  0.75132354  0.27161759  1.0
  Cd  Cd7  1  0.74456140  0.74867646  0.77161759  1.0
  As  As8  1  0.74955094  0.39829711  0.22016843  1.0
  As  As9  1  0.74955094  0.10170289  0.72016843  1.0
  As  As10  1  0.25044906  0.89829711  0.27983157  1.0
  As  As11  1  0.25044906  0.60170289  0.77983157  1.0
  S  S12  1  0.80883714  0.90162688  0.23245615  1.0
  S  S13  1  0.80883714  0.59837312  0.73245615  1.0
  S  S14  1  0.19116286  0.40162688  0.26754385  1.0
  S  S15  1  0.19116286  0.09837312  0.76754385  1.0
  S  S16  1  0.76175835  0.26265054  0.28076236  1.0
  S  S17  1  0.76175835  0.23734946  0.78076236  1.0
  S  S18  1  0.23824165  0.76265054  0.21923764  1.0
  S  S19  1  0.23824165  0.73734946  0.71923764  1.0
  S  S20  1  0.31668728  0.10254255  0.33381591  1.0
  S  S21  1  0.31668728  0.39745745  0.83381591  1.0
  S  S22  1  0.68331272  0.60254255  0.16618409  1.0
  S  S23  1  0.68331272  0.89745745  0.66618409  1.0
