# generated using pymatgen
data_Y5Si3C
_symmetry_space_group_name_H-M   'P 1'
_cell_length_a   8.45503410
_cell_length_b   8.45503410
_cell_length_c   6.41912973
_cell_angle_alpha   90.00000000
_cell_angle_beta   90.00000000
_cell_angle_gamma   120.00000000
_symmetry_Int_Tables_number   1
_chemical_formula_structural   Y5Si3C
_chemical_formula_sum   'Y10 Si6 C2'
_cell_volume   397.40882915
_cell_formula_units_Z   2
loop_
 _symmetry_equiv_pos_site_id
 _symmetry_equiv_pos_as_xyz
  1  'x, y, z'
loop_
 _atom_site_type_symbol
 _atom_site_label
 _atom_site_symmetry_multiplicity
 _atom_site_fract_x
 _atom_site_fract_y
 _atom_site_fract_z
 _atom_site_occupancy
  Y  Y0  1  0.66666667  0.33333333  0.50000000  1.0
  Y  Y1  1  0.33333333  0.66666667  0.50000000  1.0
  Y  Y2  1  0.33333333  0.66666667  0.00000000  1.0
  Y  Y3  1  0.66666667  0.33333333  0.00000000  1.0
  Y  Y4  1  0.77683811  0.77683811  0.25000000  1.0
  Y  Y5  1  0.22316189  0.00000000  0.25000000  1.0
  Y  Y6  1  0.00000000  0.22316189  0.25000000  1.0
  Y  Y7  1  0.22316189  0.22316189  0.75000000  1.0
  Y  Y8  1  0.77683811  0.00000000  0.75000000  1.0
  Y  Y9  1  0.00000000  0.77683811  0.75000000  1.0
  Si  Si10  1  0.40986707  0.40986707  0.25000000  1.0
  Si  Si11  1  0.59013293  0.00000000  0.25000000  1.0
  Si  Si12  1  0.00000000  0.59013293  0.25000000  1.0
  Si  Si13  1  0.59013293  0.59013293  0.75000000  1.0
  Si  Si14  1  0.40986707  0.00000000  0.75000000  1.0
  Si  Si15  1  0.00000000  0.40986707  0.75000000  1.0
  C  C16  1  0.00000000  0.00000000  0.50000000  1.0
  C  C17  1  0.00000000  0.00000000  0.00000000  1.0
