# generated using pymatgen
data_BaVS3
_symmetry_space_group_name_H-M   'P 1'
_cell_length_a   6.72857118
_cell_length_b   6.72857118
_cell_length_c   5.70438480
_cell_angle_alpha   90.00000000
_cell_angle_beta   90.00000000
_cell_angle_gamma   120.00000000
_symmetry_Int_Tables_number   1
_chemical_formula_structural   BaVS3
_chemical_formula_sum   'Ba2 V2 S6'
_cell_volume   223.65836630
_cell_formula_units_Z   2
loop_
 _symmetry_equiv_pos_site_id
 _symmetry_equiv_pos_as_xyz
  1  'x, y, z'
loop_
 _atom_site_type_symbol
 _atom_site_label
 _atom_site_symmetry_multiplicity
 _atom_site_fract_x
 _atom_site_fract_y
 _atom_site_fract_z
 _atom_site_occupancy
  Ba  Ba0  1  0.33333333  0.66666667  0.75000000  1.0
  Ba  Ba1  1  0.66666667  0.33333333  0.25000000  1.0
  V  V2  1  0.00000000  0.00000000  0.50000000  1.0
  V  V3  1  0.00000000  0.00000000  0.00000000  1.0
  S  S4  1  0.16308553  0.83691447  0.25000000  1.0
  S  S5  1  0.16308553  0.32617106  0.25000000  1.0
  S  S6  1  0.83691447  0.16308553  0.75000000  1.0
  S  S7  1  0.83691447  0.67382894  0.75000000  1.0
  S  S8  1  0.67382894  0.83691447  0.25000000  1.0
  S  S9  1  0.32617106  0.16308553  0.75000000  1.0
