# generated using pymatgen
data_KYP3HO10
_symmetry_space_group_name_H-M   'P 1'
_cell_length_a   7.77230598
_cell_length_b   6.95176837
_cell_length_c   8.63777595
_cell_angle_alpha   73.55211643
_cell_angle_beta   74.23447849
_cell_angle_gamma   82.25221379
_symmetry_Int_Tables_number   1
_chemical_formula_structural   KYP3HO10
_chemical_formula_sum   'K2 Y2 P6 H2 O20'
_cell_volume   429.92488726
_cell_formula_units_Z   2
loop_
 _symmetry_equiv_pos_site_id
 _symmetry_equiv_pos_as_xyz
  1  'x, y, z'
loop_
 _atom_site_type_symbol
 _atom_site_label
 _atom_site_symmetry_multiplicity
 _atom_site_fract_x
 _atom_site_fract_y
 _atom_site_fract_z
 _atom_site_occupancy
  K  K0  1  -0.77977799  -0.29350862  -0.46046276  1.0
  K  K1  1  -0.22022201  -0.70649138  -0.53953724  1.0
  Y  Y2  1  -0.87134728  -0.27511585  -0.98846816  1.0
  Y  Y3  1  -0.12865272  -0.72488415  -0.01153184  1.0
  P  P4  1  -0.45980983  -0.35201866  -0.86719370  1.0
  P  P5  1  -0.54019017  -0.64798134  -0.13280630  1.0
  P  P6  1  -0.73676364  -0.82899090  -0.30789741  1.0
  P  P7  1  -0.26323636  -0.17100910  -0.69210259  1.0
  P  P8  1  -0.81199603  -0.83232957  -0.84156705  1.0
  P  P9  1  -0.18800397  -0.16767043  -0.15843295  1.0
  H  H10  1  -0.71527130  -0.81663416  -0.57264073  1.0
  H  H11  1  -0.28472870  -0.18336584  -0.42735927  1.0
  O  O12  1  -0.56516637  -0.77797879  -0.25270656  1.0
  O  O13  1  -0.43483363  -0.22202121  -0.74729344  1.0
  O  O14  1  -0.60496888  -0.78567888  -0.94532437  1.0
  O  O15  1  -0.39503112  -0.21432112  -0.05467563  1.0
  O  O16  1  -0.65919069  -0.75632454  -0.50237497  1.0
  O  O17  1  -0.34080931  -0.24367546  -0.49762503  1.0
  O  O18  1  -0.24495835  -0.94581425  -0.75180057  1.0
  O  O19  1  -0.75504165  -0.05418575  -0.24819943  1.0
  O  O20  1  -0.87399515  -0.97074146  -0.92425385  1.0
  O  O21  1  -0.12600485  -0.02925854  -0.07574615  1.0
  O  O22  1  -0.89916033  -0.69340229  -0.25161916  1.0
  O  O23  1  -0.10083967  -0.30659771  -0.74838084  1.0
  O  O24  1  -0.80612460  -0.91753956  -0.66118044  1.0
  O  O25  1  -0.19387540  -0.08246044  -0.33881956  1.0
  O  O26  1  -0.93064386  -0.63356619  -0.87543181  1.0
  O  O27  1  -0.06935614  -0.36643381  -0.12456819  1.0
  O  O28  1  -0.34473693  -0.54560574  -0.84307882  1.0
  O  O29  1  -0.65526307  -0.45439426  -0.15692118  1.0
  O  O30  1  -0.66048567  -0.35936359  -0.83429927  1.0
  O  O31  1  -0.33951433  -0.64063641  -0.16570073  1.0
