# generated using pymatgen
data_Nb3Ge
_symmetry_space_group_name_H-M   'P 1'
_cell_length_a   7.77063520
_cell_length_b   7.77063520
_cell_length_c   7.77063520
_cell_angle_alpha   96.64776239
_cell_angle_beta   96.64776239
_cell_angle_gamma   140.21665904
_symmetry_Int_Tables_number   1
_chemical_formula_structural   Nb3Ge
_chemical_formula_sum   'Nb12 Ge4'
_cell_volume   282.32944275
_cell_formula_units_Z   4
loop_
 _symmetry_equiv_pos_site_id
 _symmetry_equiv_pos_as_xyz
  1  'x, y, z'
loop_
 _atom_site_type_symbol
 _atom_site_label
 _atom_site_symmetry_multiplicity
 _atom_site_fract_x
 _atom_site_fract_y
 _atom_site_fract_z
 _atom_site_occupancy
  Nb  Nb0  1  0.08150197  0.22876124  0.31026321  1.0
  Nb  Nb1  1  0.91849803  0.77123876  1.68973679  1.0
  Nb  Nb2  1  0.58150197  1.27123876  0.85274073  1.0
  Nb  Nb3  1  1.41849803  0.72876124  1.14725927  1.0
  Nb  Nb4  1  0.77123876  1.08150197  0.85274073  1.0
  Nb  Nb5  1  1.22876124  0.91849803  1.14725927  1.0
  Nb  Nb6  1  0.72876124  0.58150197  1.31026321  1.0
  Nb  Nb7  1  0.27123876  0.41849803  0.68973679  1.0
  Nb  Nb8  1  0.75000000  1.25000000  0.50000000  1.0
  Nb  Nb9  1  0.25000000  0.75000000  0.50000000  1.0
  Nb  Nb10  1  0.75000000  0.75000000  -0.00000000  1.0
  Nb  Nb11  1  0.25000000  0.25000000  -0.00000000  1.0
  Ge  Ge12  1  0.16132171  0.66132171  0.82264343  1.0
  Ge  Ge13  1  0.83867829  0.33867829  1.17735657  1.0
  Ge  Ge14  1  0.66132171  0.83867829  0.50000000  1.0
  Ge  Ge15  1  1.33867829  1.16132171  1.50000000  1.0
