# generated using pymatgen
data_La3BeCrS7
_symmetry_space_group_name_H-M   'P 1'
_cell_length_a   10.14047326
_cell_length_b   10.14047326
_cell_length_c   6.05578433
_cell_angle_alpha   90.00000000
_cell_angle_beta   90.00000000
_cell_angle_gamma   120.00000000
_symmetry_Int_Tables_number   1
_chemical_formula_structural   La3BeCrS7
_chemical_formula_sum   'La6 Be2 Cr2 S14'
_cell_volume   539.28393154
_cell_formula_units_Z   2
loop_
 _symmetry_equiv_pos_site_id
 _symmetry_equiv_pos_as_xyz
  1  'x, y, z'
loop_
 _atom_site_type_symbol
 _atom_site_label
 _atom_site_symmetry_multiplicity
 _atom_site_fract_x
 _atom_site_fract_y
 _atom_site_fract_z
 _atom_site_occupancy
  La  La0  1  0.75247837  0.60921370  0.21670043  1.0
  La  La1  1  0.60921370  0.85673533  0.71670043  1.0
  La  La2  1  0.85673533  0.24752163  0.21670043  1.0
  La  La3  1  0.39078630  0.14326467  0.21670043  1.0
  La  La4  1  0.24752163  0.39078630  0.71670043  1.0
  La  La5  1  0.14326467  0.75247837  0.71670043  1.0
  Be  Be6  1  0.33333333  0.66666667  0.12956840  1.0
  Be  Be7  1  0.66666667  0.33333333  0.62956840  1.0
  Cr  Cr8  1  0.00000000  0.00000000  0.02627881  1.0
  Cr  Cr9  1  0.00000000  0.00000000  0.52627881  1.0
  S  S10  1  0.40910780  0.88877169  0.00229593  1.0
  S  S11  1  0.88877169  0.47966389  0.50229593  1.0
  S  S12  1  0.47966389  0.59089220  0.00229593  1.0
  S  S13  1  0.11122831  0.52033611  0.00229593  1.0
  S  S14  1  0.59089220  0.11122831  0.50229593  1.0
  S  S15  1  0.52033611  0.40910780  0.50229593  1.0
  S  S16  1  0.08004390  0.86537497  0.27983698  1.0
  S  S17  1  0.86537497  0.78533107  0.77983698  1.0
  S  S18  1  0.78533107  0.91995610  0.27983698  1.0
  S  S19  1  0.13462503  0.21466893  0.27983698  1.0
  S  S20  1  0.91995610  0.13462503  0.77983698  1.0
  S  S21  1  0.21466893  0.08004390  0.77983698  1.0
  S  S22  1  0.33333333  0.66666667  0.47865277  1.0
  S  S23  1  0.66666667  0.33333333  -0.02134723  1.0
