# generated using pymatgen
data_K2IrF6
_symmetry_space_group_name_H-M   'P 1'
_cell_length_a   5.89259066
_cell_length_b   5.89259066
_cell_length_c   4.75030494
_cell_angle_alpha   90.00000000
_cell_angle_beta   90.00000000
_cell_angle_gamma   120.00000000
_symmetry_Int_Tables_number   1
_chemical_formula_structural   K2IrF6
_chemical_formula_sum   'K2 Ir1 F6'
_cell_volume   142.84487615
_cell_formula_units_Z   1
loop_
 _symmetry_equiv_pos_site_id
 _symmetry_equiv_pos_as_xyz
  1  'x, y, z'
loop_
 _atom_site_type_symbol
 _atom_site_label
 _atom_site_symmetry_multiplicity
 _atom_site_fract_x
 _atom_site_fract_y
 _atom_site_fract_z
 _atom_site_occupancy
  K  K0  1  0.33333333  0.66666667  0.28929249  1.0
  K  K1  1  0.66666667  0.33333333  0.71070751  1.0
  Ir  Ir2  1  0.00000000  0.00000000  0.00000000  1.0
  F  F3  1  0.32362461  0.16181231  0.22524623  1.0
  F  F4  1  0.16181231  0.32362461  0.77475377  1.0
  F  F5  1  0.16181231  0.83818769  0.77475377  1.0
  F  F6  1  0.83818769  0.16181231  0.22524623  1.0
  F  F7  1  0.83818769  0.67637539  0.22524623  1.0
  F  F8  1  0.67637539  0.83818769  0.77475377  1.0
