# generated using pymatgen
data_La2PbAu2
_symmetry_space_group_name_H-M   'P 1'
_cell_length_a   8.30614640
_cell_length_b   8.30614640
_cell_length_c   8.01159362
_cell_angle_alpha   90.00000000
_cell_angle_beta   90.00000000
_cell_angle_gamma   90.00000000
_symmetry_Int_Tables_number   1
_chemical_formula_structural   La2PbAu2
_chemical_formula_sum   'La8 Pb4 Au8'
_cell_volume   552.73641199
_cell_formula_units_Z   4
loop_
 _symmetry_equiv_pos_site_id
 _symmetry_equiv_pos_as_xyz
  1  'x, y, z'
loop_
 _atom_site_type_symbol
 _atom_site_label
 _atom_site_symmetry_multiplicity
 _atom_site_fract_x
 _atom_site_fract_y
 _atom_site_fract_z
 _atom_site_occupancy
  La  La0  1  0.17405898  0.17405898  0.50000000  1.0
  La  La1  1  0.67405898  0.32594102  0.00000000  1.0
  La  La2  1  0.82594102  0.82594102  0.50000000  1.0
  La  La3  1  0.32594102  0.67405898  0.00000000  1.0
  La  La4  1  0.32622497  0.67377503  0.50000000  1.0
  La  La5  1  0.82622497  0.82622497  0.00000000  1.0
  La  La6  1  0.67377503  0.32622497  0.50000000  1.0
  La  La7  1  0.17377503  0.17377503  0.00000000  1.0
  Pb  Pb8  1  0.50000000  0.00000000  0.25000000  1.0
  Pb  Pb9  1  0.50000000  0.00000000  0.75000000  1.0
  Pb  Pb10  1  0.00000000  0.50000000  0.75000000  1.0
  Pb  Pb11  1  0.00000000  0.50000000  0.25000000  1.0
  Au  Au12  1  0.12325527  0.87674473  0.25030152  1.0
  Au  Au13  1  0.12325527  0.87674473  0.74969848  1.0
  Au  Au14  1  0.62325527  0.62325527  0.75030152  1.0
  Au  Au15  1  0.62325527  0.62325527  0.24969848  1.0
  Au  Au16  1  0.87674473  0.12325527  0.25030152  1.0
  Au  Au17  1  0.87674473  0.12325527  0.74969848  1.0
  Au  Au18  1  0.37674473  0.37674473  0.75030152  1.0
  Au  Au19  1  0.37674473  0.37674473  0.24969848  1.0
