# generated using pymatgen
data_Sr2CoO3
_symmetry_space_group_name_H-M   'P 1'
_cell_length_a   3.51534590
_cell_length_b   3.51534590
_cell_length_c   9.87912805
_cell_angle_alpha   79.63017423
_cell_angle_beta   100.36982577
_cell_angle_gamma   90.00922521
_symmetry_Int_Tables_number   1
_chemical_formula_structural   Sr2CoO3
_chemical_formula_sum   'Sr2 Co1 O3'
_cell_volume   118.06175115
_cell_formula_units_Z   1
loop_
 _symmetry_equiv_pos_site_id
 _symmetry_equiv_pos_as_xyz
  1  'x, y, z'
loop_
 _atom_site_type_symbol
 _atom_site_label
 _atom_site_symmetry_multiplicity
 _atom_site_fract_x
 _atom_site_fract_y
 _atom_site_fract_z
 _atom_site_occupancy
  Sr  Sr0  1  0.62020506  -0.62020506  0.73778529  1.0
  Sr  Sr1  1  0.37979494  -0.37979494  0.26221471  1.0
  Co  Co2  1  -0.00000000  0.00000000  0.50000000  1.0
  O  O3  1  0.50000000  -0.50000000  0.50000000  1.0
  O  O4  1  0.10308418  -0.10308418  0.70399314  1.0
  O  O5  1  -0.10308418  0.10308418  0.29600686  1.0
