# generated using pymatgen
data_Ba2Nb5O9
_symmetry_space_group_name_H-M   'P 1'
_cell_length_a   4.19999007
_cell_length_b   4.19999007
_cell_length_c   12.33453415
_cell_angle_alpha   90.00000000
_cell_angle_beta   90.00000000
_cell_angle_gamma   90.00000000
_symmetry_Int_Tables_number   1
_chemical_formula_structural   Ba2Nb5O9
_chemical_formula_sum   'Ba2 Nb5 O9'
_cell_volume   217.58015399
_cell_formula_units_Z   1
loop_
 _symmetry_equiv_pos_site_id
 _symmetry_equiv_pos_as_xyz
  1  'x, y, z'
loop_
 _atom_site_type_symbol
 _atom_site_label
 _atom_site_symmetry_multiplicity
 _atom_site_fract_x
 _atom_site_fract_y
 _atom_site_fract_z
 _atom_site_occupancy
  Ba  Ba0  1  0.50000000  0.50000000  0.83271130  1.0
  Ba  Ba1  1  0.50000000  0.50000000  0.16728870  1.0
  Nb  Nb2  1  0.00000000  0.00000000  0.66347237  1.0
  Nb  Nb3  1  0.00000000  0.00000000  0.33652763  1.0
  Nb  Nb4  1  0.00000000  0.50000000  0.50000000  1.0
  Nb  Nb5  1  0.50000000  0.00000000  0.50000000  1.0
  Nb  Nb6  1  0.00000000  0.00000000  0.00000000  1.0
  O  O7  1  0.00000000  0.50000000  0.67195279  1.0
  O  O8  1  0.00000000  0.50000000  0.32804721  1.0
  O  O9  1  0.50000000  0.00000000  0.67195279  1.0
  O  O10  1  0.50000000  0.00000000  0.32804721  1.0
  O  O11  1  0.00000000  0.00000000  0.83893107  1.0
  O  O12  1  0.00000000  0.00000000  0.16106893  1.0
  O  O13  1  0.00000000  0.50000000  0.00000000  1.0
  O  O14  1  0.50000000  0.00000000  0.00000000  1.0
  O  O15  1  0.50000000  0.50000000  0.50000000  1.0
