# generated using pymatgen
data_Co4B6O13
_symmetry_space_group_name_H-M   'P 1'
_cell_length_a   6.50200091
_cell_length_b   6.50200091
_cell_length_c   6.50200091
_cell_angle_alpha   109.47122063
_cell_angle_beta   109.47122063
_cell_angle_gamma   109.47122063
_symmetry_Int_Tables_number   1
_chemical_formula_structural   Co4B6O13
_chemical_formula_sum   'Co4 B6 O13'
_cell_volume   211.60171654
_cell_formula_units_Z   1
loop_
 _symmetry_equiv_pos_site_id
 _symmetry_equiv_pos_as_xyz
  1  'x, y, z'
loop_
 _atom_site_type_symbol
 _atom_site_label
 _atom_site_symmetry_multiplicity
 _atom_site_fract_x
 _atom_site_fract_y
 _atom_site_fract_z
 _atom_site_occupancy
  B  B0  1  0.25000000  0.75000000  0.50000000  1.0
  B  B1  1  0.75000000  0.25000000  0.50000000  1.0
  B  B2  1  0.25000000  0.50000000  0.75000000  1.0
  B  B3  1  0.50000000  0.25000000  0.75000000  1.0
  B  B4  1  0.75000000  0.50000000  0.25000000  1.0
  B  B5  1  0.50000000  0.75000000  0.25000000  1.0
  O  O6  1  0.71885576  0.44399516  0.44399516  1.0
  O  O7  1  0.44399516  0.71885576  0.44399516  1.0
  O  O8  1  1.00000000  1.27486060  0.55600484  1.0
  O  O9  1  1.27486060  1.00000000  0.55600484  1.0
  O  O10  1  0.44399516  0.44399516  0.71885576  1.0
  O  O11  1  0.72513940  0.72513940  0.28114424  1.0
  O  O12  1  1.00000000  0.55600484  1.27486060  1.0
  O  O13  1  0.72513940  0.28114424  0.72513940  1.0
  O  O14  1  0.28114424  0.72513940  0.72513940  1.0
  O  O15  1  0.55600484  1.00000000  1.27486060  1.0
  O  O16  1  1.27486060  0.55600484  1.00000000  1.0
  O  O17  1  0.55600484  1.27486060  1.00000000  1.0
  O  O18  1  0.00000000  0.00000000  0.00000000  1.0
  Co  Co19  1  0.69676784  0.69676784  0.69676784  1.0
  Co  Co20  1  1.00000000  1.00000000  0.30323216  1.0
  Co  Co21  1  1.00000000  0.30323216  1.00000000  1.0
  Co  Co22  1  0.30323216  1.00000000  1.00000000  1.0
