# generated using pymatgen
data_Y4Ga16Co3
_symmetry_space_group_name_H-M   'P 1'
_cell_length_a   6.02908115
_cell_length_b   6.02908115
_cell_length_c   11.11568455
_cell_angle_alpha   90.00000000
_cell_angle_beta   90.00000000
_cell_angle_gamma   90.00000000
_symmetry_Int_Tables_number   1
_chemical_formula_structural   Y4Ga16Co3
_chemical_formula_sum   'Y4 Ga16 Co3'
_cell_volume   404.05312644
_cell_formula_units_Z   1
loop_
 _symmetry_equiv_pos_site_id
 _symmetry_equiv_pos_as_xyz
  1  'x, y, z'
loop_
 _atom_site_type_symbol
 _atom_site_label
 _atom_site_symmetry_multiplicity
 _atom_site_fract_x
 _atom_site_fract_y
 _atom_site_fract_z
 _atom_site_occupancy
  Y  Y0  1  0.00000000  0.50000000  0.80472614  1.0
  Y  Y1  1  0.00000000  0.50000000  0.19527386  1.0
  Y  Y2  1  0.50000000  0.00000000  0.80472614  1.0
  Y  Y3  1  0.50000000  0.00000000  0.19527386  1.0
  Ga  Ga4  1  0.75081147  0.75081147  0.61526887  1.0
  Ga  Ga5  1  0.75081147  0.75081147  0.38473113  1.0
  Ga  Ga6  1  0.75081147  0.24918853  0.61526887  1.0
  Ga  Ga7  1  0.75081147  0.24918853  0.38473113  1.0
  Ga  Ga8  1  0.24918853  0.75081147  0.61526887  1.0
  Ga  Ga9  1  0.24918853  0.75081147  0.38473113  1.0
  Ga  Ga10  1  0.24918853  0.24918853  0.61526887  1.0
  Ga  Ga11  1  0.24918853  0.24918853  0.38473113  1.0
  Ga  Ga12  1  0.71959066  0.71959066  0.00000000  1.0
  Ga  Ga13  1  0.71959066  0.28040934  0.00000000  1.0
  Ga  Ga14  1  0.28040934  0.71959066  0.00000000  1.0
  Ga  Ga15  1  0.28040934  0.28040934  0.00000000  1.0
  Ga  Ga16  1  0.50000000  0.50000000  0.80573530  1.0
  Ga  Ga17  1  0.50000000  0.50000000  0.19426470  1.0
  Ga  Ga18  1  0.00000000  0.00000000  0.78180627  1.0
  Ga  Ga19  1  0.00000000  0.00000000  0.21819373  1.0
  Co  Co20  1  0.00000000  0.50000000  0.50000000  1.0
  Co  Co21  1  0.50000000  0.00000000  0.50000000  1.0
  Co  Co22  1  0.00000000  0.00000000  0.00000000  1.0
