# generated using pymatgen
data_GdGa6
_symmetry_space_group_name_H-M   'P 1'
_cell_length_a   5.98919539
_cell_length_b   5.98919539
_cell_length_c   7.65169117
_cell_angle_alpha   90.00000000
_cell_angle_beta   90.00000000
_cell_angle_gamma   90.00000000
_symmetry_Int_Tables_number   1
_chemical_formula_structural   GdGa6
_chemical_formula_sum   'Gd2 Ga12'
_cell_volume   274.46969310
_cell_formula_units_Z   2
loop_
 _symmetry_equiv_pos_site_id
 _symmetry_equiv_pos_as_xyz
  1  'x, y, z'
loop_
 _atom_site_type_symbol
 _atom_site_label
 _atom_site_symmetry_multiplicity
 _atom_site_fract_x
 _atom_site_fract_y
 _atom_site_fract_z
 _atom_site_occupancy
  Gd  Gd0  1  0.50000000  0.00000000  0.00000000  1.0
  Gd  Gd1  1  0.00000000  0.50000000  0.00000000  1.0
  Ga  Ga2  1  0.81883936  0.68116064  0.35145567  1.0
  Ga  Ga3  1  0.81883936  0.31883936  0.64854433  1.0
  Ga  Ga4  1  0.31883936  0.18116064  0.64854433  1.0
  Ga  Ga5  1  0.31883936  0.81883936  0.35145567  1.0
  Ga  Ga6  1  0.68116064  0.81883936  0.64854433  1.0
  Ga  Ga7  1  0.68116064  0.18116064  0.35145567  1.0
  Ga  Ga8  1  0.18116064  0.31883936  0.35145567  1.0
  Ga  Ga9  1  0.18116064  0.68116064  0.64854433  1.0
  Ga  Ga10  1  0.00000000  0.00000000  0.16122977  1.0
  Ga  Ga11  1  0.00000000  0.00000000  0.83877023  1.0
  Ga  Ga12  1  0.50000000  0.50000000  0.83877023  1.0
  Ga  Ga13  1  0.50000000  0.50000000  0.16122977  1.0
