# generated using pymatgen
data_Sc2SnB2Rh5
_symmetry_space_group_name_H-M   'P 1'
_cell_length_a   9.36594992
_cell_length_b   9.36594992
_cell_length_c   3.20045582
_cell_angle_alpha   90.00000000
_cell_angle_beta   90.00000000
_cell_angle_gamma   90.00000000
_symmetry_Int_Tables_number   1
_chemical_formula_structural   Sc2SnB2Rh5
_chemical_formula_sum   'Sc4 Sn2 B4 Rh10'
_cell_volume   280.74724227
_cell_formula_units_Z   2
loop_
 _symmetry_equiv_pos_site_id
 _symmetry_equiv_pos_as_xyz
  1  'x, y, z'
loop_
 _atom_site_type_symbol
 _atom_site_label
 _atom_site_symmetry_multiplicity
 _atom_site_fract_x
 _atom_site_fract_y
 _atom_site_fract_z
 _atom_site_occupancy
  Sc  Sc0  1  0.32547351  0.17452649  0.00000000  1.0
  Sc  Sc1  1  0.82547351  0.32547351  0.00000000  1.0
  Sc  Sc2  1  0.67452649  0.82547351  0.00000000  1.0
  Sc  Sc3  1  0.17452649  0.67452649  0.00000000  1.0
  Sn  Sn4  1  0.50000000  0.50000000  0.00000000  1.0
  Sn  Sn5  1  0.00000000  0.00000000  0.00000000  1.0
  B  B6  1  0.87797090  0.62202910  0.00000000  1.0
  B  B7  1  0.37797090  0.87797090  0.00000000  1.0
  B  B8  1  0.12202910  0.37797090  0.00000000  1.0
  B  B9  1  0.62202910  0.12202910  0.00000000  1.0
  Rh  Rh10  1  0.42796175  0.72296797  0.50000000  1.0
  Rh  Rh11  1  0.92796175  0.77703203  0.50000000  1.0
  Rh  Rh12  1  0.27703203  0.42796175  0.50000000  1.0
  Rh  Rh13  1  0.77703203  0.07203825  0.50000000  1.0
  Rh  Rh14  1  0.57203825  0.27703203  0.50000000  1.0
  Rh  Rh15  1  0.07203825  0.22296797  0.50000000  1.0
  Rh  Rh16  1  0.72296797  0.57203825  0.50000000  1.0
  Rh  Rh17  1  0.22296797  0.92796175  0.50000000  1.0
  Rh  Rh18  1  0.50000000  0.00000000  0.50000000  1.0
  Rh  Rh19  1  0.00000000  0.50000000  0.50000000  1.0
