# generated using pymatgen
data_La2CoSi3
_symmetry_space_group_name_H-M   'P 1'
_cell_length_a   8.15525619
_cell_length_b   8.15525619
_cell_length_c   4.35466890
_cell_angle_alpha   90.00000000
_cell_angle_beta   90.00000000
_cell_angle_gamma   120.00000000
_symmetry_Int_Tables_number   1
_chemical_formula_structural   La2CoSi3
_chemical_formula_sum   'La4 Co2 Si6'
_cell_volume   250.81932117
_cell_formula_units_Z   2
loop_
 _symmetry_equiv_pos_site_id
 _symmetry_equiv_pos_as_xyz
  1  'x, y, z'
loop_
 _atom_site_type_symbol
 _atom_site_label
 _atom_site_symmetry_multiplicity
 _atom_site_fract_x
 _atom_site_fract_y
 _atom_site_fract_z
 _atom_site_occupancy
  La  La0  1  0.50000000  0.50000000  0.00000000  1.0
  La  La1  1  0.50000000  0.00000000  0.00000000  1.0
  La  La2  1  -0.00000000  0.50000000  0.00000000  1.0
  La  La3  1  0.00000000  0.00000000  0.00000000  1.0
  Co  Co4  1  0.33333333  0.66666667  0.50000000  1.0
  Co  Co5  1  0.66666667  0.33333333  0.50000000  1.0
  Si  Si6  1  0.17090526  0.82909474  0.50000000  1.0
  Si  Si7  1  0.17090526  0.34181053  0.50000000  1.0
  Si  Si8  1  0.82909474  0.17090526  0.50000000  1.0
  Si  Si9  1  0.82909474  0.65818947  0.50000000  1.0
  Si  Si10  1  0.65818947  0.82909474  0.50000000  1.0
  Si  Si11  1  0.34181053  0.17090526  0.50000000  1.0
