# generated using pymatgen
data_Mo3C
_symmetry_space_group_name_H-M   'P 1'
_cell_length_a   5.56076353
_cell_length_b   8.04647752
_cell_length_c   4.79366851
_cell_angle_alpha   90.00000000
_cell_angle_beta   90.00000000
_cell_angle_gamma   90.00000000
_symmetry_Int_Tables_number   1
_chemical_formula_structural   Mo3C
_chemical_formula_sum   'Mo12 C4'
_cell_volume   214.49058213
_cell_formula_units_Z   4
loop_
 _symmetry_equiv_pos_site_id
 _symmetry_equiv_pos_as_xyz
  1  'x, y, z'
loop_
 _atom_site_type_symbol
 _atom_site_label
 _atom_site_symmetry_multiplicity
 _atom_site_fract_x
 _atom_site_fract_y
 _atom_site_fract_z
 _atom_site_occupancy
  Mo  Mo0  1  0.80341569  0.25000000  0.68433063  1.0
  Mo  Mo1  1  0.30341569  0.25000000  0.81566937  1.0
  Mo  Mo2  1  0.19658431  0.75000000  0.31566937  1.0
  Mo  Mo3  1  0.69658431  0.75000000  0.18433063  1.0
  Mo  Mo4  1  0.89856064  0.07309987  0.20884286  1.0
  Mo  Mo5  1  0.39856064  0.42690013  0.29115714  1.0
  Mo  Mo6  1  0.10143936  0.57309987  0.79115714  1.0
  Mo  Mo7  1  0.60143936  0.92690013  0.70884286  1.0
  Mo  Mo8  1  0.10143936  0.92690013  0.79115714  1.0
  Mo  Mo9  1  0.60143936  0.57309987  0.70884286  1.0
  Mo  Mo10  1  0.89856064  0.42690013  0.20884286  1.0
  Mo  Mo11  1  0.39856064  0.07309987  0.29115714  1.0
  C  C12  1  0.62427929  0.25000000  0.07803518  1.0
  C  C13  1  0.12427929  0.25000000  0.42196482  1.0
  C  C14  1  0.37572071  0.75000000  0.92196482  1.0
  C  C15  1  0.87572071  0.75000000  0.57803518  1.0
