# generated using pymatgen
data_B4CO4
_symmetry_space_group_name_H-M   'P 1'
_cell_length_a   4.46075795
_cell_length_b   4.46075795
_cell_length_c   4.46075795
_cell_angle_alpha   99.98231691
_cell_angle_beta   99.98231691
_cell_angle_gamma   130.79174563
_symmetry_Int_Tables_number   1
_chemical_formula_structural   B4CO4
_chemical_formula_sum   'B4 C1 O4'
_cell_volume   61.09917805
_cell_formula_units_Z   1
loop_
 _symmetry_equiv_pos_site_id
 _symmetry_equiv_pos_as_xyz
  1  'x, y, z'
loop_
 _atom_site_type_symbol
 _atom_site_label
 _atom_site_symmetry_multiplicity
 _atom_site_fract_x
 _atom_site_fract_y
 _atom_site_fract_z
 _atom_site_occupancy
  B  B0  1  1.10281971  0.69547585  0.79818062  1.0
  B  B1  1  0.89729523  1.30463909  1.20181938  1.0
  B  B2  1  0.30452415  0.10270477  0.40734386  1.0
  B  B3  1  0.69536091  0.89718029  1.59265614  1.0
  C  C4  1  1.25000000  0.75000000  0.50000000  1.0
  O  O5  1  0.42670705  1.09822866  1.10508059  1.0
  O  O6  1  0.99314808  0.32162647  0.89491941  1.0
  O  O7  1  0.90177134  1.00685192  1.32847839  1.0
  O  O8  1  0.67837353  0.57329295  0.67152161  1.0
