# generated using pymatgen
data_Eu(CoAs)2
_symmetry_space_group_name_H-M   'P 1'
_cell_length_a   5.96429668
_cell_length_b   5.96429668
_cell_length_c   5.96429668
_cell_angle_alpha   140.62596969
_cell_angle_beta   140.62596969
_cell_angle_gamma   56.90407496
_symmetry_Int_Tables_number   1
_chemical_formula_structural   Eu(CoAs)2
_chemical_formula_sum   'Eu1 Co2 As2'
_cell_volume   84.68153545
_cell_formula_units_Z   1
loop_
 _symmetry_equiv_pos_site_id
 _symmetry_equiv_pos_as_xyz
  1  'x, y, z'
loop_
 _atom_site_type_symbol
 _atom_site_label
 _atom_site_symmetry_multiplicity
 _atom_site_fract_x
 _atom_site_fract_y
 _atom_site_fract_z
 _atom_site_occupancy
  Eu  Eu0  1  0.00000000  0.00000000  0.00000000  1.0
  Co  Co1  1  0.25000000  0.75000000  0.50000000  1.0
  Co  Co2  1  0.75000000  0.25000000  0.50000000  1.0
  As  As3  1  0.63596440  0.63596440  1.00000000  1.0
  As  As4  1  0.36403560  0.36403560  -0.00000000  1.0
