# generated using pymatgen
data_Na2BeF4
_symmetry_space_group_name_H-M   'P 1'
_cell_length_a   6.90827746
_cell_length_b   5.68808127
_cell_length_c   8.97000846
_cell_angle_alpha   90.00000000
_cell_angle_beta   90.00000000
_cell_angle_gamma   90.00000000
_symmetry_Int_Tables_number   1
_chemical_formula_structural   Na2BeF4
_chemical_formula_sum   'Na8 Be4 F16'
_cell_volume   352.47508008
_cell_formula_units_Z   4
loop_
 _symmetry_equiv_pos_site_id
 _symmetry_equiv_pos_as_xyz
  1  'x, y, z'
loop_
 _atom_site_type_symbol
 _atom_site_label
 _atom_site_symmetry_multiplicity
 _atom_site_fract_x
 _atom_site_fract_y
 _atom_site_fract_z
 _atom_site_occupancy
  Na  Na0  1  0.24714366  0.25000000  0.93160571  1.0
  Na  Na1  1  0.74714366  0.25000000  0.56839429  1.0
  Na  Na2  1  0.75285634  0.75000000  0.06839429  1.0
  Na  Na3  1  0.25285634  0.75000000  0.43160571  1.0
  Na  Na4  1  0.50024545  0.25000000  0.24859274  1.0
  Na  Na5  1  1.00024545  0.25000000  0.25140726  1.0
  Na  Na6  1  0.49975455  0.75000000  0.75140726  1.0
  Na  Na7  1  -0.00024545  0.75000000  0.74859274  1.0
  Be  Be8  1  0.74869932  0.25000000  0.89918875  1.0
  Be  Be9  1  0.24869932  0.25000000  0.60081125  1.0
  Be  Be10  1  0.25130068  0.75000000  0.10081125  1.0
  Be  Be11  1  0.75130068  0.75000000  0.39918875  1.0
  F  F12  1  0.56376832  0.25000000  0.99749089  1.0
  F  F13  1  0.06376832  0.25000000  0.50250911  1.0
  F  F14  1  0.43623168  0.75000000  0.00250911  1.0
  F  F15  1  0.93623168  0.75000000  0.49749089  1.0
  F  F16  1  0.93113196  0.25000000  0.00060179  1.0
  F  F17  1  0.43113196  0.25000000  0.49939821  1.0
  F  F18  1  0.06886804  0.75000000  0.99939821  1.0
  F  F19  1  0.56886804  0.75000000  0.50060179  1.0
  F  F20  1  0.75023969  0.02546897  0.79410307  1.0
  F  F21  1  0.25023969  0.47453103  0.70589693  1.0
  F  F22  1  0.24976031  0.52546897  0.20589693  1.0
  F  F23  1  0.74976031  0.97453103  0.29410307  1.0
  F  F24  1  0.24976031  0.97453103  0.20589693  1.0
  F  F25  1  0.74976031  0.52546897  0.29410307  1.0
  F  F26  1  0.75023969  0.47453103  0.79410307  1.0
  F  F27  1  0.25023969  0.02546897  0.70589693  1.0
