# generated using pymatgen
data_SrIO
_symmetry_space_group_name_H-M   'P 1'
_cell_length_a   7.61656672
_cell_length_b   4.12230468
_cell_length_c   11.04336208
_cell_angle_alpha   90.00000000
_cell_angle_beta   90.00000000
_cell_angle_gamma   90.00000000
_symmetry_Int_Tables_number   1
_chemical_formula_structural   SrIO
_chemical_formula_sum   'Sr4 I4 O4'
_cell_volume   346.73736901
_cell_formula_units_Z   4
loop_
 _symmetry_equiv_pos_site_id
 _symmetry_equiv_pos_as_xyz
  1  'x, y, z'
loop_
 _atom_site_type_symbol
 _atom_site_label
 _atom_site_symmetry_multiplicity
 _atom_site_fract_x
 _atom_site_fract_y
 _atom_site_fract_z
 _atom_site_occupancy
  Sr  Sr0  1  0.68868897  0.75000000  0.40831599  1.0
  Sr  Sr1  1  0.18868897  0.75000000  0.09168401  1.0
  Sr  Sr2  1  0.31131103  0.25000000  0.59168401  1.0
  Sr  Sr3  1  0.81131103  0.25000000  0.90831599  1.0
  I  I4  1  0.94701095  0.75000000  0.66801039  1.0
  I  I5  1  0.44701095  0.75000000  0.83198961  1.0
  I  I6  1  0.05298905  0.25000000  0.33198961  1.0
  I  I7  1  0.55298905  0.25000000  0.16801039  1.0
  O  O8  1  0.89226011  0.75000000  0.01840227  1.0
  O  O9  1  0.39226011  0.75000000  0.48159773  1.0
  O  O10  1  0.10773989  0.25000000  0.98159773  1.0
  O  O11  1  0.60773989  0.25000000  0.51840227  1.0
