# generated using pymatgen
data_Eu(InP)2
_symmetry_space_group_name_H-M   'P 1'
_cell_length_a   4.13220134
_cell_length_b   4.13220134
_cell_length_c   17.48785942
_cell_angle_alpha   90.00000000
_cell_angle_beta   90.00000000
_cell_angle_gamma   120.00000000
_symmetry_Int_Tables_number   1
_chemical_formula_structural   Eu(InP)2
_chemical_formula_sum   'Eu2 In4 P4'
_cell_volume   258.60102031
_cell_formula_units_Z   2
loop_
 _symmetry_equiv_pos_site_id
 _symmetry_equiv_pos_as_xyz
  1  'x, y, z'
loop_
 _atom_site_type_symbol
 _atom_site_label
 _atom_site_symmetry_multiplicity
 _atom_site_fract_x
 _atom_site_fract_y
 _atom_site_fract_z
 _atom_site_occupancy
  Eu  Eu0  1  0.00000000  0.00000000  0.50000000  1.0
  Eu  Eu1  1  0.00000000  0.00000000  0.00000000  1.0
  In  In2  1  0.33333333  0.66666667  0.33067087  1.0
  In  In3  1  0.33333333  0.66666667  0.16932913  1.0
  In  In4  1  0.66666667  0.33333333  0.83067087  1.0
  In  In5  1  0.66666667  0.33333333  0.66932913  1.0
  P  P6  1  0.33333333  0.66666667  0.89738665  1.0
  P  P7  1  0.33333333  0.66666667  0.60261335  1.0
  P  P8  1  0.66666667  0.33333333  0.39738665  1.0
  P  P9  1  0.66666667  0.33333333  0.10261335  1.0
