# generated using pymatgen
data_CoPb(SeO3)2
_symmetry_space_group_name_H-M   'P 1'
_cell_length_a   12.99044285
_cell_length_b   5.55624305
_cell_length_c   8.08898426
_cell_angle_alpha   90.00000000
_cell_angle_beta   90.00000000
_cell_angle_gamma   90.00000000
_symmetry_Int_Tables_number   1
_chemical_formula_structural   CoPb(SeO3)2
_chemical_formula_sum   'Co4 Pb4 Se8 O24'
_cell_volume   583.84717396
_cell_formula_units_Z   4
loop_
 _symmetry_equiv_pos_site_id
 _symmetry_equiv_pos_as_xyz
  1  'x, y, z'
loop_
 _atom_site_type_symbol
 _atom_site_label
 _atom_site_symmetry_multiplicity
 _atom_site_fract_x
 _atom_site_fract_y
 _atom_site_fract_z
 _atom_site_occupancy
  Co  Co0  1  0.39980125  0.75000000  0.80574321  1.0
  Co  Co1  1  0.89980125  0.75000000  0.69425679  1.0
  Co  Co2  1  0.60019875  0.25000000  0.19425679  1.0
  Co  Co3  1  0.10019875  0.25000000  0.30574321  1.0
  Pb  Pb4  1  0.11928585  0.75000000  0.99243506  1.0
  Pb  Pb5  1  0.61928585  0.75000000  0.50756494  1.0
  Pb  Pb6  1  0.88071415  0.25000000  0.00756494  1.0
  Pb  Pb7  1  0.38071415  0.25000000  0.49243506  1.0
  Se  Se8  1  0.42819227  0.75000000  0.20229570  1.0
  Se  Se9  1  0.92819227  0.75000000  0.29770430  1.0
  Se  Se10  1  0.57180773  0.25000000  0.79770430  1.0
  Se  Se11  1  0.07180773  0.25000000  0.70229570  1.0
  Se  Se12  1  0.21062410  0.75000000  0.50867484  1.0
  Se  Se13  1  0.71062410  0.75000000  0.99132516  1.0
  Se  Se14  1  0.78937590  0.25000000  0.49132516  1.0
  Se  Se15  1  0.28937590  0.25000000  0.00867484  1.0
  O  O16  1  0.50854046  0.49088822  0.69903258  1.0
  O  O17  1  0.50854046  0.00911178  0.69903258  1.0
  O  O18  1  0.00854046  0.49088822  0.80096742  1.0
  O  O19  1  0.00854046  0.00911178  0.80096742  1.0
  O  O20  1  0.49145954  0.99088822  0.30096742  1.0
  O  O21  1  0.49145954  0.50911178  0.30096742  1.0
  O  O22  1  0.99145954  0.99088822  0.19903258  1.0
  O  O23  1  0.99145954  0.50911178  0.19903258  1.0
  O  O24  1  0.28486703  0.49566848  0.87700790  1.0
  O  O25  1  0.28486703  0.00433152  0.87700790  1.0
  O  O26  1  0.78486703  0.49566848  0.62299210  1.0
  O  O27  1  0.78486703  0.00433152  0.62299210  1.0
  O  O28  1  0.71513297  0.99566848  0.12299210  1.0
  O  O29  1  0.71513297  0.50433152  0.12299210  1.0
  O  O30  1  0.21513297  0.99566848  0.37700790  1.0
  O  O31  1  0.21513297  0.50433152  0.37700790  1.0
  O  O32  1  0.48356552  0.75000000  0.01218119  1.0
  O  O33  1  0.98356552  0.75000000  0.48781881  1.0
  O  O34  1  0.51643448  0.25000000  0.98781881  1.0
  O  O35  1  0.01643448  0.25000000  0.51218119  1.0
  O  O36  1  0.34066055  0.75000000  0.56847954  1.0
  O  O37  1  0.84066055  0.75000000  0.93152046  1.0
  O  O38  1  0.65933945  0.25000000  0.43152046  1.0
  O  O39  1  0.15933945  0.25000000  0.06847954  1.0
