# generated using pymatgen
data_K3Hg11
_symmetry_space_group_name_H-M   'P 1'
_cell_length_a   9.84638603
_cell_length_b   9.84638603
_cell_length_c   9.84638603
_cell_angle_alpha   149.72066790
_cell_angle_beta   110.08265713
_cell_angle_gamma   78.05615532
_symmetry_Int_Tables_number   1
_chemical_formula_structural   K3Hg11
_chemical_formula_sum   'K3 Hg11'
_cell_volume   443.90733584
_cell_formula_units_Z   1
loop_
 _symmetry_equiv_pos_site_id
 _symmetry_equiv_pos_as_xyz
  1  'x, y, z'
loop_
 _atom_site_type_symbol
 _atom_site_label
 _atom_site_symmetry_multiplicity
 _atom_site_fract_x
 _atom_site_fract_y
 _atom_site_fract_z
 _atom_site_occupancy
  K  K0  1  0.69139702  0.69139702  1.00000000  1.0
  K  K1  1  1.30860298  1.30860298  1.00000000  1.0
  K  K2  1  0.00000000  0.00000000  0.00000000  1.0
  Hg  Hg3  1  1.57678443  0.86326666  0.71351777  1.0
  Hg  Hg4  1  0.85025111  0.13673334  0.71351777  1.0
  Hg  Hg5  1  1.14974889  0.86326666  0.28648223  1.0
  Hg  Hg6  1  0.42321557  0.13673334  0.28648223  1.0
  Hg  Hg7  1  1.30151752  0.66601334  0.63550419  1.0
  Hg  Hg8  1  0.96949085  0.33398666  0.63550419  1.0
  Hg  Hg9  1  1.03050915  0.66601334  0.36449581  1.0
  Hg  Hg10  1  0.69848248  0.33398666  0.36449581  1.0
  Hg  Hg11  1  0.29818597  0.50000000  0.79818597  1.0
  Hg  Hg12  1  0.70181403  0.50000000  1.20181403  1.0
  Hg  Hg13  1  0.50000000  0.00000000  0.50000000  1.0
