# generated using pymatgen
data_La5S4NO2
_symmetry_space_group_name_H-M   'P 1'
_cell_length_a   8.15837502
_cell_length_b   8.15837502
_cell_length_c   16.82490207
_cell_angle_alpha   79.44114665
_cell_angle_beta   100.55885335
_cell_angle_gamma   150.87976687
_symmetry_Int_Tables_number   1
_chemical_formula_structural   La5S4NO2
_chemical_formula_sum   'La10 S8 N2 O4'
_cell_volume   535.11209764
_cell_formula_units_Z   2
loop_
 _symmetry_equiv_pos_site_id
 _symmetry_equiv_pos_as_xyz
  1  'x, y, z'
loop_
 _atom_site_type_symbol
 _atom_site_label
 _atom_site_symmetry_multiplicity
 _atom_site_fract_x
 _atom_site_fract_y
 _atom_site_fract_z
 _atom_site_occupancy
  La  La0  1  0.98352483  0.01647517  0.83212310  1.0
  La  La1  1  0.01647517  -0.01647517  0.16787690  1.0
  La  La2  1  0.92237022  0.07762978  0.40658331  1.0
  La  La3  1  0.07762978  -0.07762978  0.59341669  1.0
  La  La4  1  0.73334985  0.26665015  0.79335803  1.0
  La  La5  1  0.26665015  -0.26665015  0.20664197  1.0
  La  La6  1  0.64146772  0.35853228  0.41464457  1.0
  La  La7  1  0.35853228  -0.35853228  0.58535543  1.0
  La  La8  1  0.37537484  -0.37537484  0.97572304  1.0
  La  La9  1  0.62462516  0.37537484  0.02427696  1.0
  S  S10  1  0.71266052  0.28733948  0.59421491  1.0
  S  S11  1  0.28733948  -0.28733948  0.40578509  1.0
  S  S12  1  0.54708864  0.45291136  0.71630365  1.0
  S  S13  1  0.45291136  -0.45291136  0.28369635  1.0
  S  S14  1  0.34258285  -0.34258285  0.75604483  1.0
  S  S15  1  0.65741715  0.34258285  0.24395517  1.0
  S  S16  1  0.17851538  -0.17851538  0.90003263  1.0
  S  S17  1  0.82148462  0.17851538  0.09996737  1.0
  N  N18  1  0.92676354  0.07323646  0.54949392  1.0
  N  N19  1  0.07323646  -0.07323646  0.45050608  1.0
  O  O20  1  0.86171824  0.13828176  0.90354625  1.0
  O  O21  1  0.13828176  -0.13828176  0.09645375  1.0
  O  O22  1  0.50345956  0.49654044  0.91408814  1.0
  O  O23  1  0.49654044  -0.49654044  0.08591186  1.0
