# generated using pymatgen
data_LuCd4B3O10
_symmetry_space_group_name_H-M   'P 1'
_cell_length_a   8.90421202
_cell_length_b   8.90421202
_cell_length_c   3.49189640
_cell_angle_alpha   85.53694336
_cell_angle_beta   94.46305664
_cell_angle_gamma   53.43717564
_symmetry_Int_Tables_number   1
_chemical_formula_structural   LuCd4B3O10
_chemical_formula_sum   'Lu1 Cd4 B3 O10'
_cell_volume   219.01516790
_cell_formula_units_Z   1
loop_
 _symmetry_equiv_pos_site_id
 _symmetry_equiv_pos_as_xyz
  1  'x, y, z'
loop_
 _atom_site_type_symbol
 _atom_site_label
 _atom_site_symmetry_multiplicity
 _atom_site_fract_x
 _atom_site_fract_y
 _atom_site_fract_z
 _atom_site_occupancy
  Lu  Lu0  1  0.81306445  -0.81306445  0.41876345  1.0
  Cd  Cd1  1  0.88497518  -0.25142340  0.04620757  1.0
  Cd  Cd2  1  0.25142340  0.11502482  0.04620757  1.0
  Cd  Cd3  1  1.33964660  -0.56220008  0.75127328  1.0
  Cd  Cd4  1  0.56220008  -0.33964660  0.75127328  1.0
  B  B5  1  0.95278702  -0.56084180  0.50046202  1.0
  B  B6  1  0.56084180  0.04721298  0.50046202  1.0
  B  B7  1  0.17652747  -0.17652747  0.12246546  1.0
  O  O8  1  0.77343483  -0.41648431  0.30453889  1.0
  O  O9  1  0.41648431  0.22656517  0.30453889  1.0
  O  O10  1  1.18670305  -0.33842653  0.18054132  1.0
  O  O11  1  0.33842653  -0.18670305  0.18054132  1.0
  O  O12  1  1.05225920  -0.51784522  0.72524890  1.0
  O  O13  1  0.51784522  -0.05225920  0.72524890  1.0
  O  O14  1  1.02816998  -0.75001255  0.48479930  1.0
  O  O15  1  0.75001255  -0.02816998  0.48479930  1.0
  O  O16  1  0.00257754  -0.00257754  0.00607632  1.0
  O  O17  1  0.63952079  -0.63952079  0.84685224  1.0
