# generated using pymatgen
data_NaAlAsO4F
_symmetry_space_group_name_H-M   'P 1'
_cell_length_a   5.47749971
_cell_length_b   5.47749971
_cell_length_c   7.15657740
_cell_angle_alpha   74.53526473
_cell_angle_beta   105.46473527
_cell_angle_gamma   75.66823655
_symmetry_Int_Tables_number   1
_chemical_formula_structural   NaAlAsO4F
_chemical_formula_sum   'Na2 Al2 As2 O8 F2'
_cell_volume   187.35087119
_cell_formula_units_Z   2
loop_
 _symmetry_equiv_pos_site_id
 _symmetry_equiv_pos_as_xyz
  1  'x, y, z'
loop_
 _atom_site_type_symbol
 _atom_site_label
 _atom_site_symmetry_multiplicity
 _atom_site_fract_x
 _atom_site_fract_y
 _atom_site_fract_z
 _atom_site_occupancy
  Na  Na0  1  0.67121600  -0.32878400  0.25000000  1.0
  Na  Na1  1  1.32878400  0.32878400  0.75000000  1.0
  Al  Al2  1  -0.00000000  0.00000000  0.50000000  1.0
  Al  Al3  1  -0.00000000  -0.00000000  0.00000000  1.0
  As  As4  1  1.31326303  0.31326303  0.25000000  1.0
  As  As5  1  0.68673697  -0.31326303  0.75000000  1.0
  O  O6  1  1.63844265  0.23673821  0.41591369  1.0
  O  O7  1  0.76326179  -0.63844265  0.91591369  1.0
  O  O8  1  1.23673821  0.63844265  0.08408631  1.0
  O  O9  1  0.36155735  -0.23673821  0.58408631  1.0
  O  O10  1  1.30406447  0.09918982  0.10902072  1.0
  O  O11  1  0.90081018  -0.30406447  0.60902072  1.0
  O  O12  1  1.09918982  0.30406447  0.39097928  1.0
  O  O13  1  0.69593553  -0.09918982  0.89097928  1.0
  F  F14  1  0.93544053  -0.06455947  0.25000000  1.0
  F  F15  1  1.06455947  0.06455947  0.75000000  1.0
