# generated using pymatgen
data_Cs3ClO
_symmetry_space_group_name_H-M   'P 1'
_cell_length_a   9.85911012
_cell_length_b   4.49140377
_cell_length_c   16.50083594
_cell_angle_alpha   90.00000000
_cell_angle_beta   90.00000000
_cell_angle_gamma   90.00000000
_symmetry_Int_Tables_number   1
_chemical_formula_structural   Cs3ClO
_chemical_formula_sum   'Cs12 Cl4 O4'
_cell_volume   730.67754801
_cell_formula_units_Z   4
loop_
 _symmetry_equiv_pos_site_id
 _symmetry_equiv_pos_as_xyz
  1  'x, y, z'
loop_
 _atom_site_type_symbol
 _atom_site_label
 _atom_site_symmetry_multiplicity
 _atom_site_fract_x
 _atom_site_fract_y
 _atom_site_fract_z
 _atom_site_occupancy
  Cs  Cs0  1  0.97841624  0.75000000  0.59631558  1.0
  Cs  Cs1  1  0.47841624  0.75000000  0.90368442  1.0
  Cs  Cs2  1  0.02158376  0.25000000  0.40368442  1.0
  Cs  Cs3  1  0.52158376  0.25000000  0.09631558  1.0
  Cs  Cs4  1  0.82712608  0.75000000  0.00223115  1.0
  Cs  Cs5  1  0.32712608  0.75000000  0.49776885  1.0
  Cs  Cs6  1  0.17287392  0.25000000  0.99776885  1.0
  Cs  Cs7  1  0.67287392  0.25000000  0.50223115  1.0
  Cs  Cs8  1  0.72249819  0.75000000  0.29243246  1.0
  Cs  Cs9  1  0.22249819  0.75000000  0.20756754  1.0
  Cs  Cs10  1  0.27750181  0.25000000  0.70756754  1.0
  Cs  Cs11  1  0.77750181  0.25000000  0.79243246  1.0
  Cl  Cl12  1  0.56326913  0.75000000  0.67412344  1.0
  Cl  Cl13  1  0.06326913  0.75000000  0.82587656  1.0
  Cl  Cl14  1  0.43673087  0.25000000  0.32587656  1.0
  Cl  Cl15  1  0.93673087  0.25000000  0.17412344  1.0
  O  O16  1  0.83390952  0.75000000  0.44142641  1.0
  O  O17  1  0.33390952  0.75000000  0.05857359  1.0
  O  O18  1  0.16609048  0.25000000  0.55857359  1.0
  O  O19  1  0.66609048  0.25000000  0.94142641  1.0
