# generated using pymatgen
data_Sc3Re2Si3
_symmetry_space_group_name_H-M   'P 1'
_cell_length_a   10.06911326
_cell_length_b   10.06911326
_cell_length_c   13.75115952
_cell_angle_alpha   52.56571734
_cell_angle_beta   127.43428266
_cell_angle_gamma   149.63516728
_symmetry_Int_Tables_number   1
_chemical_formula_structural   Sc3Re2Si3
_chemical_formula_sum   'Sc12 Re8 Si12'
_cell_volume   547.41469202
_cell_formula_units_Z   4
loop_
 _symmetry_equiv_pos_site_id
 _symmetry_equiv_pos_as_xyz
  1  'x, y, z'
loop_
 _atom_site_type_symbol
 _atom_site_label
 _atom_site_symmetry_multiplicity
 _atom_site_fract_x
 _atom_site_fract_y
 _atom_site_fract_z
 _atom_site_occupancy
  Sc  Sc0  1  1.44920238  -0.41092941  0.60925693  1.0
  Sc  Sc1  1  0.58907059  0.44920238  0.39074307  1.0
  Sc  Sc2  1  1.19648567  0.46429237  0.77183553  1.0
  Sc  Sc3  1  1.46429237  0.19648567  0.22816447  1.0
  Sc  Sc4  1  0.82539535  -0.85159269  0.39675340  1.0
  Sc  Sc5  1  0.14840731  -0.17460465  0.60324660  1.0
  Sc  Sc6  1  0.60234545  0.33453704  0.72816913  1.0
  Sc  Sc7  1  1.33453704  -0.39765455  0.27183087  1.0
  Sc  Sc8  1  0.34964970  0.20978417  0.89074782  1.0
  Sc  Sc9  1  1.20978417  -0.65035030  0.10925218  1.0
  Sc  Sc10  1  0.65039150  -0.02659474  0.89675914  1.0
  Sc  Sc11  1  0.97340526  -0.34960850  0.10324086  1.0
  Re  Re12  1  0.97339096  -0.96090890  0.32642275  1.0
  Re  Re13  1  0.03909110  -0.02660904  0.67357725  1.0
  Re  Re14  1  0.97997243  0.48892165  0.49411016  1.0
  Re  Re15  1  1.48892165  -0.02002757  0.50588984  1.0
  Re  Re16  1  0.81887127  0.30992385  1.00589578  1.0
  Re  Re17  1  1.30992385  -0.18112873  -0.00589578  1.0
  Re  Re18  1  1.75976420  -0.17452003  0.82641487  1.0
  Re  Re19  1  0.82547997  0.75976420  0.17358513  1.0
  Si  Si20  1  0.05191879  0.05191879  0.00000000  1.0
  Si  Si21  1  0.91999346  -0.86397255  0.63483129  1.0
  Si  Si22  1  0.13602745  -0.08000654  0.36516871  1.0
  Si  Si23  1  1.09835132  0.54742931  0.86680622  1.0
  Si  Si24  1  1.54742931  0.09835132  0.13319378  1.0
  Si  Si25  1  0.70045101  0.25136391  0.63320010  1.0
  Si  Si26  1  1.25136391  -0.29954899  0.36679990  1.0
  Si  Si27  1  0.54058985  0.54058985  0.00000000  1.0
  Si  Si28  1  0.87885169  0.66282963  0.86515384  1.0
  Si  Si29  1  1.66282963  -0.12114831  0.13484616  1.0
  Si  Si30  1  0.25828260  0.25828260  0.50000000  1.0
  Si  Si31  1  0.74692875  0.74692875  0.50000000  1.0
