# generated using pymatgen
data_CaEuCuClO3
_symmetry_space_group_name_H-M   'P 1'
_cell_length_a   3.90386252
_cell_length_b   3.90386252
_cell_length_c   13.78776583
_cell_angle_alpha   90.00000000
_cell_angle_beta   90.00000000
_cell_angle_gamma   90.00000000
_symmetry_Int_Tables_number   1
_chemical_formula_structural   CaEuCuClO3
_chemical_formula_sum   'Ca2 Eu2 Cu2 Cl2 O6'
_cell_volume   210.12751760
_cell_formula_units_Z   2
loop_
 _symmetry_equiv_pos_site_id
 _symmetry_equiv_pos_as_xyz
  1  'x, y, z'
loop_
 _atom_site_type_symbol
 _atom_site_label
 _atom_site_symmetry_multiplicity
 _atom_site_fract_x
 _atom_site_fract_y
 _atom_site_fract_z
 _atom_site_occupancy
  Eu  Eu0  1  0.50000000  0.00000000  0.08958625  1.0
  Eu  Eu1  1  0.00000000  0.50000000  0.91041375  1.0
  O  O2  1  0.00000000  0.00000000  0.22356854  1.0
  O  O3  1  0.50000000  0.50000000  0.77643146  1.0
  O  O4  1  0.50000000  0.50000000  0.22356854  1.0
  O  O5  1  0.00000000  0.00000000  0.77643146  1.0
  O  O6  1  0.00000000  0.00000000  0.00000000  1.0
  O  O7  1  0.50000000  0.50000000  0.00000000  1.0
  Cu  Cu8  1  0.50000000  0.00000000  0.77920101  1.0
  Cu  Cu9  1  0.00000000  0.50000000  0.22079899  1.0
  Ca  Ca10  1  0.50000000  0.00000000  0.33463880  1.0
  Ca  Ca11  1  0.00000000  0.50000000  0.66536120  1.0
  Cl  Cl12  1  0.50000000  0.00000000  0.57801165  1.0
  Cl  Cl13  1  0.00000000  0.50000000  0.42198835  1.0
