# generated using pymatgen
data_TiMnSi2
_symmetry_space_group_name_H-M   'P 1'
_cell_length_a   8.65206286
_cell_length_b   9.47748765
_cell_length_c   7.72187449
_cell_angle_alpha   90.00000000
_cell_angle_beta   90.00000000
_cell_angle_gamma   90.00000000
_symmetry_Int_Tables_number   1
_chemical_formula_structural   TiMnSi2
_chemical_formula_sum   'Ti12 Mn12 Si24'
_cell_volume   633.19230988
_cell_formula_units_Z   12
loop_
 _symmetry_equiv_pos_site_id
 _symmetry_equiv_pos_as_xyz
  1  'x, y, z'
loop_
 _atom_site_type_symbol
 _atom_site_label
 _atom_site_symmetry_multiplicity
 _atom_site_fract_x
 _atom_site_fract_y
 _atom_site_fract_z
 _atom_site_occupancy
  Ti  Ti0  1  0.17186114  0.54714998  0.76010724  1.0
  Ti  Ti1  1  0.17186114  0.54714998  0.23989276  1.0
  Ti  Ti2  1  0.67186114  0.95285002  0.76010724  1.0
  Ti  Ti3  1  0.67186114  0.95285002  0.23989276  1.0
  Ti  Ti4  1  0.82813886  0.45285002  0.76010724  1.0
  Ti  Ti5  1  0.82813886  0.45285002  0.23989276  1.0
  Ti  Ti6  1  0.32813886  0.04714998  0.76010724  1.0
  Ti  Ti7  1  0.32813886  0.04714998  0.23989276  1.0
  Ti  Ti8  1  0.16817515  0.82080486  0.00000000  1.0
  Ti  Ti9  1  0.66817515  0.67919514  0.00000000  1.0
  Ti  Ti10  1  0.83182485  0.17919514  0.00000000  1.0
  Ti  Ti11  1  0.33182485  0.32080486  0.00000000  1.0
  Mn  Mn12  1  0.41564309  0.75309001  0.75240581  1.0
  Mn  Mn13  1  0.41564309  0.75309001  0.24759419  1.0
  Mn  Mn14  1  0.91564309  0.74690999  0.75240581  1.0
  Mn  Mn15  1  0.91564309  0.74690999  0.24759419  1.0
  Mn  Mn16  1  0.58435691  0.24690999  0.75240581  1.0
  Mn  Mn17  1  0.58435691  0.24690999  0.24759419  1.0
  Mn  Mn18  1  0.08435691  0.25309001  0.75240581  1.0
  Mn  Mn19  1  0.08435691  0.25309001  0.24759419  1.0
  Mn  Mn20  1  0.50000000  0.50000000  0.75626171  1.0
  Mn  Mn21  1  0.50000000  0.50000000  0.24373829  1.0
  Mn  Mn22  1  0.00000000  0.00000000  0.75626171  1.0
  Mn  Mn23  1  0.00000000  0.00000000  0.24373829  1.0
  Si  Si24  1  0.16815906  0.81753956  0.65398283  1.0
  Si  Si25  1  0.16815906  0.81753956  0.34601717  1.0
  Si  Si26  1  0.66815906  0.68246044  0.65398283  1.0
  Si  Si27  1  0.66815906  0.68246044  0.34601717  1.0
  Si  Si28  1  0.83184094  0.18246044  0.65398283  1.0
  Si  Si29  1  0.83184094  0.18246044  0.34601717  1.0
  Si  Si30  1  0.33184094  0.31753956  0.65398283  1.0
  Si  Si31  1  0.33184094  0.31753956  0.34601717  1.0
  Si  Si32  1  0.46272331  0.87585023  0.50000000  1.0
  Si  Si33  1  0.96272331  0.62414977  0.50000000  1.0
  Si  Si34  1  0.53727669  0.12414977  0.50000000  1.0
  Si  Si35  1  0.03727669  0.37585023  0.50000000  1.0
  Si  Si36  1  0.37579489  0.59795448  0.50000000  1.0
  Si  Si37  1  0.87579489  0.90204552  0.50000000  1.0
  Si  Si38  1  0.62420511  0.40204552  0.50000000  1.0
  Si  Si39  1  0.12420511  0.09795448  0.50000000  1.0
  Si  Si40  1  0.46189833  0.87941053  0.00000000  1.0
  Si  Si41  1  0.96189833  0.62058947  0.00000000  1.0
  Si  Si42  1  0.53810167  0.12058947  0.00000000  1.0
  Si  Si43  1  0.03810167  0.37941053  0.00000000  1.0
  Si  Si44  1  0.37046780  0.60375578  0.00000000  1.0
  Si  Si45  1  0.87046780  0.89624422  0.00000000  1.0
  Si  Si46  1  0.62953220  0.39624422  0.00000000  1.0
  Si  Si47  1  0.12953220  0.10375578  0.00000000  1.0
