# generated using pymatgen
data_La3SiI3
_symmetry_space_group_name_H-M   'P 1'
_cell_length_a   11.02817023
_cell_length_b   11.02817023
_cell_length_c   11.02817023
_cell_angle_alpha   109.47122063
_cell_angle_beta   109.47122063
_cell_angle_gamma   109.47122063
_symmetry_Int_Tables_number   1
_chemical_formula_structural   La3SiI3
_chemical_formula_sum   'La12 Si4 I12'
_cell_volume   1032.49627256
_cell_formula_units_Z   4
loop_
 _symmetry_equiv_pos_site_id
 _symmetry_equiv_pos_as_xyz
  1  'x, y, z'
loop_
 _atom_site_type_symbol
 _atom_site_label
 _atom_site_symmetry_multiplicity
 _atom_site_fract_x
 _atom_site_fract_y
 _atom_site_fract_z
 _atom_site_occupancy
  La  La0  1  1.75000000  1.23434494  1.26565506  1.0
  La  La1  1  0.75000000  1.01565506  0.48434494  1.0
  La  La2  1  1.03131011  0.26565506  1.01565506  1.0
  La  La3  1  0.46868989  0.48434494  0.23434494  1.0
  La  La4  1  1.26565506  1.01565506  1.03131011  1.0
  La  La5  1  1.23434494  1.26565506  0.75000000  1.0
  La  La6  1  1.01565506  1.03131011  0.26565506  1.0
  La  La7  1  1.48434494  0.75000000  1.01565506  1.0
  La  La8  1  1.01565506  1.48434494  0.75000000  1.0
  La  La9  1  1.48434494  1.23434494  1.46868989  1.0
  La  La10  1  0.23434494  0.46868989  0.48434494  1.0
  La  La11  1  1.26565506  0.75000000  1.23434494  1.0
  Si  Si12  1  1.50000000  1.00000000  1.25000000  1.0
  Si  Si13  1  1.00000000  1.25000000  0.50000000  1.0
  Si  Si14  1  0.25000000  0.25000000  0.25000000  1.0
  Si  Si15  1  1.25000000  0.50000000  1.00000000  1.0
  I  I16  1  0.51538069  0.50769035  0.75769035  1.0
  I  I17  1  0.98461931  0.74230965  0.99230965  1.0
  I  I18  1  1.25000000  0.75769035  0.74230965  1.0
  I  I19  1  1.25000000  0.99230965  0.50769035  1.0
  I  I20  1  0.99230965  1.50769035  1.25000000  1.0
  I  I21  1  1.50769035  1.75769035  1.51538069  1.0
  I  I22  1  0.74230965  0.25000000  0.75769035  1.0
  I  I23  1  0.75769035  0.51538069  0.50769035  1.0
  I  I24  1  0.99230965  0.98461931  0.74230965  1.0
  I  I25  1  1.50769035  1.25000000  0.99230965  1.0
  I  I26  1  0.75769035  0.74230965  0.25000000  1.0
  I  I27  1  1.74230965  0.99230965  0.98461931  1.0
