# generated using pymatgen
data_BaIrO3
_symmetry_space_group_name_H-M   'P 1'
_cell_length_a   5.79722883
_cell_length_b   5.79722883
_cell_length_c   9.90790401
_cell_angle_alpha   90.00000000
_cell_angle_beta   90.00000000
_cell_angle_gamma   120.00000000
_symmetry_Int_Tables_number   1
_chemical_formula_structural   BaIrO3
_chemical_formula_sum   'Ba4 Ir4 O12'
_cell_volume   288.37214550
_cell_formula_units_Z   4
loop_
 _symmetry_equiv_pos_site_id
 _symmetry_equiv_pos_as_xyz
  1  'x, y, z'
loop_
 _atom_site_type_symbol
 _atom_site_label
 _atom_site_symmetry_multiplicity
 _atom_site_fract_x
 _atom_site_fract_y
 _atom_site_fract_z
 _atom_site_occupancy
  Ir  Ir0  1  0.33333333  0.66666667  0.38554652  1.0
  Ir  Ir1  1  0.33333333  0.66666667  0.11445348  1.0
  Ir  Ir2  1  0.66666667  0.33333333  0.88554652  1.0
  Ir  Ir3  1  0.66666667  0.33333333  0.61445348  1.0
  Ba  Ba4  1  0.33333333  0.66666667  0.75000000  1.0
  Ba  Ba5  1  0.66666667  0.33333333  0.25000000  1.0
  Ba  Ba6  1  0.00000000  0.00000000  0.50000000  1.0
  Ba  Ba7  1  0.00000000  0.00000000  0.00000000  1.0
  O  O8  1  0.18186500  0.81813500  0.25000000  1.0
  O  O9  1  0.18186500  0.36373000  0.25000000  1.0
  O  O10  1  0.81813500  0.18186500  0.75000000  1.0
  O  O11  1  0.81813500  0.63627000  0.75000000  1.0
  O  O12  1  0.63627000  0.81813500  0.25000000  1.0
  O  O13  1  0.36373000  0.18186500  0.75000000  1.0
  O  O14  1  0.50000000  0.50000000  0.50000000  1.0
  O  O15  1  0.50000000  0.50000000  0.00000000  1.0
  O  O16  1  0.50000000  0.00000000  0.50000000  1.0
  O  O17  1  0.50000000  0.00000000  0.00000000  1.0
  O  O18  1  -0.00000000  0.50000000  0.50000000  1.0
  O  O19  1  -0.00000000  0.50000000  0.00000000  1.0
