# generated using pymatgen
data_Eu(FeAs3)4
_symmetry_space_group_name_H-M   'P 1'
_cell_length_a   7.24288024
_cell_length_b   7.24288024
_cell_length_c   7.24288024
_cell_angle_alpha   109.47122063
_cell_angle_beta   109.47122063
_cell_angle_gamma   109.47122063
_symmetry_Int_Tables_number   1
_chemical_formula_structural   Eu(FeAs3)4
_chemical_formula_sum   'Eu1 Fe4 As12'
_cell_volume   292.49067358
_cell_formula_units_Z   1
loop_
 _symmetry_equiv_pos_site_id
 _symmetry_equiv_pos_as_xyz
  1  'x, y, z'
loop_
 _atom_site_type_symbol
 _atom_site_label
 _atom_site_symmetry_multiplicity
 _atom_site_fract_x
 _atom_site_fract_y
 _atom_site_fract_z
 _atom_site_occupancy
  Eu  Eu0  1  0.00000000  0.00000000  0.00000000  1.0
  Fe  Fe1  1  0.50000000  1.00000000  1.00000000  1.0
  Fe  Fe2  1  0.50000000  0.50000000  0.50000000  1.0
  Fe  Fe3  1  1.00000000  1.00000000  0.50000000  1.0
  Fe  Fe4  1  1.00000000  0.50000000  1.00000000  1.0
  As  As5  1  0.84456240  1.34360060  1.18816299  1.0
  As  As6  1  0.84456240  0.65639940  0.50096180  1.0
  As  As7  1  0.15543760  0.34360060  0.49903820  1.0
  As  As8  1  0.15543760  0.65639940  0.81183701  1.0
  As  As9  1  0.50096180  0.84456240  0.65639940  1.0
  As  As10  1  1.18816299  0.84456240  1.34360060  1.0
  As  As11  1  0.65639940  0.81183701  0.15543760  1.0
  As  As12  1  0.65639940  0.50096180  0.84456240  1.0
  As  As13  1  0.81183701  0.15543760  0.65639940  1.0
  As  As14  1  0.49903820  0.15543760  0.34360060  1.0
  As  As15  1  0.34360060  0.49903820  0.15543760  1.0
  As  As16  1  1.34360060  1.18816299  0.84456240  1.0
