# generated using pymatgen
data_Al4CdO7
_symmetry_space_group_name_H-M   'P 1'
_cell_length_a   7.80510508
_cell_length_b   7.80510508
_cell_length_c   5.47385350
_cell_angle_alpha   77.37092504
_cell_angle_beta   102.62907496
_cell_angle_gamma   109.96741567
_symmetry_Int_Tables_number   1
_chemical_formula_structural   Al4CdO7
_chemical_formula_sum   'Al8 Cd2 O14'
_cell_volume   302.04484058
_cell_formula_units_Z   2
loop_
 _symmetry_equiv_pos_site_id
 _symmetry_equiv_pos_as_xyz
  1  'x, y, z'
loop_
 _atom_site_type_symbol
 _atom_site_label
 _atom_site_symmetry_multiplicity
 _atom_site_fract_x
 _atom_site_fract_y
 _atom_site_fract_z
 _atom_site_occupancy
  Al  Al0  1  1.57482587  0.25862084  0.81701738  1.0
  Al  Al1  1  0.74137916  -0.57482587  0.31701738  1.0
  Al  Al2  1  1.25862084  0.57482587  0.68298262  1.0
  Al  Al3  1  0.42517413  -0.25862084  0.18298262  1.0
  Al  Al4  1  0.18421875  -0.06051045  0.73707156  1.0
  Al  Al5  1  1.06051045  0.81578125  0.23707156  1.0
  Al  Al6  1  0.93948955  -0.81578125  0.76292844  1.0
  Al  Al7  1  1.81578125  0.06051045  0.26292844  1.0
  Cd  Cd8  1  0.70951144  -0.29048856  0.75000000  1.0
  Cd  Cd9  1  1.29048856  0.29048856  0.25000000  1.0
  O  O10  1  0.45039918  -0.31997537  0.90261848  1.0
  O  O11  1  1.31997537  0.54960082  0.40261848  1.0
  O  O12  1  0.68002463  -0.54960082  0.59738152  1.0
  O  O13  1  1.54960082  0.31997537  0.09738152  1.0
  O  O14  1  1.75086037  0.14298114  0.93012927  1.0
  O  O15  1  0.85701886  -0.75086037  0.43012927  1.0
  O  O16  1  1.14298114  0.75086037  0.56987073  1.0
  O  O17  1  0.24913963  -0.14298114  0.06987073  1.0
  O  O18  1  1.36629780  0.13375728  0.64895528  1.0
  O  O19  1  0.86624272  -0.36629780  0.14895528  1.0
  O  O20  1  1.13375728  0.36629780  0.85104472  1.0
  O  O21  1  0.63370220  -0.13375728  0.35104472  1.0
  O  O22  1  0.97130881  -0.02869119  0.75000000  1.0
  O  O23  1  1.02869119  0.02869119  0.25000000  1.0
