# generated using pymatgen
data_CaSiO3
_symmetry_space_group_name_H-M   'P 1'
_cell_length_a   6.90693140
_cell_length_b   6.90693140
_cell_length_c   10.60454948
_cell_angle_alpha   71.70396556
_cell_angle_beta   108.29603444
_cell_angle_gamma   119.73674001
_symmetry_Int_Tables_number   1
_chemical_formula_structural   CaSiO3
_chemical_formula_sum   'Ca6 Si6 O18'
_cell_volume   409.31864859
_cell_formula_units_Z   6
loop_
 _symmetry_equiv_pos_site_id
 _symmetry_equiv_pos_as_xyz
  1  'x, y, z'
loop_
 _atom_site_type_symbol
 _atom_site_label
 _atom_site_symmetry_multiplicity
 _atom_site_fract_x
 _atom_site_fract_y
 _atom_site_fract_z
 _atom_site_occupancy
  Ca  Ca0  1  0.65014721  -0.17399568  0.00103534  1.0
  Ca  Ca1  1  1.17399568  0.34985279  0.50103534  1.0
  Ca  Ca2  1  0.82600432  -0.34985279  0.49896466  1.0
  Ca  Ca3  1  1.34985279  0.17399568  0.99896466  1.0
  Ca  Ca4  1  1.50000000  0.00000000  0.50000000  1.0
  Ca  Ca5  1  1.00000000  -0.50000000  -0.00000000  1.0
  Si  Si6  1  1.82485492  0.08066204  0.25533802  1.0
  Si  Si7  1  0.91933796  -0.82485492  0.75533802  1.0
  Si  Si8  1  1.08066204  0.82485492  0.24466198  1.0
  Si  Si9  1  0.17514508  -0.08066204  0.74466198  1.0
  Si  Si10  1  1.33956656  0.33956656  0.25000000  1.0
  Si  Si11  1  0.66043344  -0.33956656  0.75000000  1.0
  O  O12  1  1.77498551  0.03193528  0.40348816  1.0
  O  O13  1  0.96806472  -0.77498551  0.90348816  1.0
  O  O14  1  1.03193528  0.77498551  0.09651184  1.0
  O  O15  1  0.22501449  -0.03193528  0.59651184  1.0
  O  O16  1  1.67063660  0.12811981  0.11172854  1.0
  O  O17  1  0.87188019  -0.67063660  0.61172854  1.0
  O  O18  1  1.12811981  0.67063660  0.38827146  1.0
  O  O19  1  0.32936340  -0.12811981  0.88827146  1.0
  O  O20  1  1.30526927  0.08203353  0.24732462  1.0
  O  O21  1  0.91796647  -0.30526927  0.74732462  1.0
  O  O22  1  1.08203353  0.30526927  0.25267538  1.0
  O  O23  1  0.69473073  -0.08203353  0.75267538  1.0
  O  O24  1  1.49338424  0.39342399  0.39488257  1.0
  O  O25  1  0.60657601  -0.49338424  0.89488257  1.0
  O  O26  1  1.39342399  0.49338424  0.10511743  1.0
  O  O27  1  0.50661576  -0.39342399  0.60511743  1.0
  O  O28  1  0.85746910  -0.14253090  0.25000000  1.0
  O  O29  1  1.14253090  0.14253090  0.75000000  1.0
