# generated using pymatgen
data_CrP4
_symmetry_space_group_name_H-M   'P 1'
_cell_length_a   5.97594717
_cell_length_b   5.97594717
_cell_length_c   5.72493288
_cell_angle_alpha   81.26504350
_cell_angle_beta   98.73495650
_cell_angle_gamma   51.59031217
_symmetry_Int_Tables_number   1
_chemical_formula_structural   CrP4
_chemical_formula_sum   'Cr2 P8'
_cell_volume   150.13102259
_cell_formula_units_Z   2
loop_
 _symmetry_equiv_pos_site_id
 _symmetry_equiv_pos_as_xyz
  1  'x, y, z'
loop_
 _atom_site_type_symbol
 _atom_site_label
 _atom_site_symmetry_multiplicity
 _atom_site_fract_x
 _atom_site_fract_y
 _atom_site_fract_z
 _atom_site_occupancy
  Cr  Cr0  1  0.93991003  0.93991003  0.25000000  1.0
  Cr  Cr1  1  1.06008997  0.06008997  0.75000000  1.0
  P  P2  1  1.50875290  0.05448600  0.30896388  1.0
  P  P3  1  0.94551400  0.49124710  0.80896388  1.0
  P  P4  1  1.05448600  0.50875290  0.19103612  1.0
  P  P5  1  1.49124710  -0.05448600  0.69103612  1.0
  P  P6  1  1.36105873  -0.18233737  0.17593062  1.0
  P  P7  1  1.18233737  0.63894127  0.67593062  1.0
  P  P8  1  0.81766263  0.36105873  0.32406938  1.0
  P  P9  1  1.63894127  0.18233737  0.82406938  1.0
