# generated using pymatgen
data_MgP4
_symmetry_space_group_name_H-M   'P 1'
_cell_length_a   5.18588218
_cell_length_b   5.12356366
_cell_length_c   7.59855323
_cell_angle_alpha   90.00000000
_cell_angle_beta   98.55752047
_cell_angle_gamma   90.00000000
_symmetry_Int_Tables_number   1
_chemical_formula_structural   MgP4
_chemical_formula_sum   'Mg2 P8'
_cell_volume   199.64735722
_cell_formula_units_Z   2
loop_
 _symmetry_equiv_pos_site_id
 _symmetry_equiv_pos_as_xyz
  1  'x, y, z'
loop_
 _atom_site_type_symbol
 _atom_site_label
 _atom_site_symmetry_multiplicity
 _atom_site_fract_x
 _atom_site_fract_y
 _atom_site_fract_z
 _atom_site_occupancy
  Mg  Mg0  1  -0.00000000  0.50000000  0.50000000  1.0
  Mg  Mg1  1  0.00000000  0.00000000  0.00000000  1.0
  P  P2  1  0.74811406  0.20783770  0.24633059  1.0
  P  P3  1  0.74811406  0.29216230  0.74633059  1.0
  P  P4  1  0.25188594  0.70783770  0.25366941  1.0
  P  P5  1  0.25188594  0.79216230  0.75366941  1.0
  P  P6  1  0.60356668  0.89090955  0.40063209  1.0
  P  P7  1  0.60356668  0.60909045  0.90063209  1.0
  P  P8  1  0.39643332  0.39090955  0.09936791  1.0
  P  P9  1  0.39643332  0.10909045  0.59936791  1.0
