# generated using pymatgen
data_Sr3MgNb2O9
_symmetry_space_group_name_H-M   'P 1'
_cell_length_a   5.70535752
_cell_length_b   5.70535752
_cell_length_c   7.00400572
_cell_angle_alpha   90.00000000
_cell_angle_beta   90.00000000
_cell_angle_gamma   120.00000000
_symmetry_Int_Tables_number   1
_chemical_formula_structural   Sr3MgNb2O9
_chemical_formula_sum   'Sr3 Mg1 Nb2 O9'
_cell_volume   197.44350499
_cell_formula_units_Z   1
loop_
 _symmetry_equiv_pos_site_id
 _symmetry_equiv_pos_as_xyz
  1  'x, y, z'
loop_
 _atom_site_type_symbol
 _atom_site_label
 _atom_site_symmetry_multiplicity
 _atom_site_fract_x
 _atom_site_fract_y
 _atom_site_fract_z
 _atom_site_occupancy
  Sr  Sr0  1  0.00000000  0.00000000  0.00000000  1.0
  Sr  Sr1  1  0.33333333  0.66666667  0.66904149  1.0
  Sr  Sr2  1  0.66666667  0.33333333  0.33095851  1.0
  Mg  Mg3  1  0.00000000  0.00000000  0.50000000  1.0
  Nb  Nb4  1  0.33333333  0.66666667  0.18107897  1.0
  Nb  Nb5  1  0.66666667  0.33333333  0.81892103  1.0
  O  O6  1  0.50000000  0.50000000  0.00000000  1.0
  O  O7  1  0.50000000  0.00000000  0.00000000  1.0
  O  O8  1  0.00000000  0.50000000  0.00000000  1.0
  O  O9  1  0.66168044  0.83084022  0.32793961  1.0
  O  O10  1  0.83084022  0.66168044  0.67206039  1.0
  O  O11  1  0.83084022  0.16915978  0.67206039  1.0
  O  O12  1  0.16915978  0.83084022  0.32793961  1.0
  O  O13  1  0.16915978  0.33831956  0.32793961  1.0
  O  O14  1  0.33831956  0.16915978  0.67206039  1.0
