# generated using pymatgen
data_Sr4CoMoO6
_symmetry_space_group_name_H-M   'P 1'
_cell_length_a   5.67022222
_cell_length_b   5.67022222
_cell_length_c   7.52988994
_cell_angle_alpha   90.00000000
_cell_angle_beta   90.00000000
_cell_angle_gamma   90.00000000
_symmetry_Int_Tables_number   1
_chemical_formula_structural   Sr4CoMoO6
_chemical_formula_sum   'Sr4 Co1 Mo1 O6'
_cell_volume   242.09665464
_cell_formula_units_Z   1
loop_
 _symmetry_equiv_pos_site_id
 _symmetry_equiv_pos_as_xyz
  1  'x, y, z'
loop_
 _atom_site_type_symbol
 _atom_site_label
 _atom_site_symmetry_multiplicity
 _atom_site_fract_x
 _atom_site_fract_y
 _atom_site_fract_z
 _atom_site_occupancy
  Co  Co0  1  0.00000000  0.00000000  0.00000000  1.0
  Mo  Mo1  1  0.00000000  0.00000000  0.50000000  1.0
  O  O2  1  0.00000000  0.00000000  0.74454231  1.0
  O  O3  1  0.00000000  0.00000000  0.25545769  1.0
  O  O4  1  0.76094465  0.76094465  0.00000000  1.0
  O  O5  1  0.76094465  0.23905535  0.00000000  1.0
  O  O6  1  0.23905535  0.76094465  0.00000000  1.0
  O  O7  1  0.23905535  0.23905535  0.00000000  1.0
  Sr  Sr8  1  0.00000000  0.50000000  0.80050410  1.0
  Sr  Sr9  1  0.00000000  0.50000000  0.19949590  1.0
  Sr  Sr10  1  0.50000000  0.00000000  0.80050410  1.0
  Sr  Sr11  1  0.50000000  0.00000000  0.19949590  1.0
