# generated using pymatgen
data_Cs8Ga11
_symmetry_space_group_name_H-M   'P 1'
_cell_length_a   18.30964347
_cell_length_b   18.30964347
_cell_length_c   18.30964347
_cell_angle_alpha   32.01199535
_cell_angle_beta   32.01199535
_cell_angle_gamma   32.01199535
_symmetry_Int_Tables_number   1
_chemical_formula_structural   Cs8Ga11
_chemical_formula_sum   'Cs16 Ga22'
_cell_volume   1532.54293331
_cell_formula_units_Z   2
loop_
 _symmetry_equiv_pos_site_id
 _symmetry_equiv_pos_as_xyz
  1  'x, y, z'
loop_
 _atom_site_type_symbol
 _atom_site_label
 _atom_site_symmetry_multiplicity
 _atom_site_fract_x
 _atom_site_fract_y
 _atom_site_fract_z
 _atom_site_occupancy
  Cs  Cs0  1  0.59254775  0.15746240  -0.17956886  1.0
  Cs  Cs1  1  1.09254775  0.32043114  -0.34253760  1.0
  Cs  Cs2  1  0.67956886  0.34253760  -0.09254775  1.0
  Cs  Cs3  1  1.17956886  0.40745225  -0.15746240  1.0
  Cs  Cs4  1  0.84253760  0.17956886  0.40745225  1.0
  Cs  Cs5  1  0.34253760  0.90745225  -0.32043114  1.0
  Cs  Cs6  1  1.40745225  -0.15746240  0.17956886  1.0
  Cs  Cs7  1  0.90745225  0.67956886  -0.65746240  1.0
  Cs  Cs8  1  0.82043114  -0.40745225  0.15746240  1.0
  Cs  Cs9  1  1.32043114  -0.34253760  0.09254775  1.0
  Cs  Cs10  1  0.65746240  0.09254775  0.32043114  1.0
  Cs  Cs11  1  1.15746240  -0.17956886  -0.40745225  1.0
  Cs  Cs12  1  0.92175226  -0.07824774  -0.07824774  1.0
  Cs  Cs13  1  0.42175226  0.42175226  0.42175226  1.0
  Cs  Cs14  1  0.57824774  0.57824774  -0.42175226  1.0
  Cs  Cs15  1  1.07824774  0.07824774  0.07824774  1.0
  Ga  Ga16  1  0.53306436  0.02520881  0.27184940  1.0
  Ga  Ga17  1  1.03306436  0.77184940  -0.47479119  1.0
  Ga  Ga18  1  0.22815060  0.47479119  -0.03306436  1.0
  Ga  Ga19  1  0.72815060  0.46693564  -0.02520881  1.0
  Ga  Ga20  1  0.97479119  0.72815060  -0.53306436  1.0
  Ga  Ga21  1  0.47479119  0.96693564  -0.77184940  1.0
  Ga  Ga22  1  0.46693564  0.97479119  -0.27184940  1.0
  Ga  Ga23  1  0.96693564  0.22815060  -0.52520881  1.0
  Ga  Ga24  1  1.27184940  -0.46693564  0.02520881  1.0
  Ga  Ga25  1  0.77184940  0.52520881  0.03306436  1.0
  Ga  Ga26  1  0.52520881  1.03306436  -0.22815060  1.0
  Ga  Ga27  1  1.02520881  0.27184940  -0.46693564  1.0
  Ga  Ga28  1  0.56241000  0.75000000  -0.06241000  1.0
  Ga  Ga29  1  1.06241000  -0.56241000  0.25000000  1.0
  Ga  Ga30  1  0.25000000  1.06241000  -0.56241000  1.0
  Ga  Ga31  1  0.75000000  0.93759000  -0.43759000  1.0
  Ga  Ga32  1  0.43759000  0.25000000  0.06241000  1.0
  Ga  Ga33  1  0.93759000  0.56241000  -0.25000000  1.0
  Ga  Ga34  1  0.79327399  0.79327399  -0.20672601  1.0
  Ga  Ga35  1  0.29327399  0.29327399  0.29327399  1.0
  Ga  Ga36  1  0.70672601  0.70672601  -0.29327399  1.0
  Ga  Ga37  1  0.20672601  0.20672601  0.20672601  1.0
