# generated using pymatgen
data_CuTeO5
_symmetry_space_group_name_H-M   'P 1'
_cell_length_a   5.09020674
_cell_length_b   5.48226418
_cell_length_c   11.91643244
_cell_angle_alpha   90.00000000
_cell_angle_beta   90.00000000
_cell_angle_gamma   90.00000000
_symmetry_Int_Tables_number   1
_chemical_formula_structural   CuTeO5
_chemical_formula_sum   'Cu4 Te4 O20'
_cell_volume   332.53827242
_cell_formula_units_Z   4
loop_
 _symmetry_equiv_pos_site_id
 _symmetry_equiv_pos_as_xyz
  1  'x, y, z'
loop_
 _atom_site_type_symbol
 _atom_site_label
 _atom_site_symmetry_multiplicity
 _atom_site_fract_x
 _atom_site_fract_y
 _atom_site_fract_z
 _atom_site_occupancy
  O  O0  1  0.38693428  1.14821153  0.53462167  1.0
  O  O1  1  -0.11306572  0.35178847  0.46537833  1.0
  O  O2  1  0.61306572  0.64821153  0.96537833  1.0
  O  O3  1  1.11306572  -0.14821153  0.03462167  1.0
  O  O4  1  0.55570594  0.65512488  0.54843046  1.0
  O  O5  1  0.05570594  0.84487512  0.45156954  1.0
  O  O6  1  0.44429406  0.15512488  0.95156954  1.0
  O  O7  1  0.94429406  0.34487512  0.04843046  1.0
  O  O8  1  0.06016846  0.55976721  0.66292001  1.0
  O  O9  1  0.56016846  0.94023279  0.33707999  1.0
  O  O10  1  0.93983154  0.05976721  0.83707999  1.0
  O  O11  1  0.43983154  0.44023279  0.16292001  1.0
  O  O12  1  0.11507382  0.55505751  0.84613175  1.0
  O  O13  1  0.61507382  0.94494249  0.15386825  1.0
  O  O14  1  0.88492618  0.05505751  0.65386825  1.0
  O  O15  1  0.38492618  0.44494249  0.34613175  1.0
  O  O16  1  0.41547764  0.91057754  0.75085571  1.0
  O  O17  1  0.91547764  0.58942246  0.24914429  1.0
  O  O18  1  0.58452236  0.41057754  0.74914429  1.0
  O  O19  1  0.08452236  0.08942246  0.25085571  1.0
  Cu  Cu20  1  0.25824358  0.86407847  0.89010520  1.0
  Cu  Cu21  1  0.75824358  0.63592153  0.10989480  1.0
  Cu  Cu22  1  0.74175642  0.36407847  0.60989480  1.0
  Cu  Cu23  1  0.24175642  0.13592153  0.39010520  1.0
  Te  Te24  1  0.21700391  0.86590291  0.61170695  1.0
  Te  Te25  1  0.71700391  0.63409709  0.38829305  1.0
  Te  Te26  1  0.78299609  0.36590291  0.88829305  1.0
  Te  Te27  1  0.28299609  0.13409709  0.11170695  1.0
