# generated using pymatgen
data_ZrTlCuS3
_symmetry_space_group_name_H-M   'P 1'
_cell_length_a   7.44431218
_cell_length_b   7.44431218
_cell_length_c   9.80596951
_cell_angle_alpha   90.00000000
_cell_angle_beta   90.00000000
_cell_angle_gamma   150.92113329
_symmetry_Int_Tables_number   1
_chemical_formula_structural   ZrTlCuS3
_chemical_formula_sum   'Zr2 Tl2 Cu2 S6'
_cell_volume   264.11169547
_cell_formula_units_Z   2
loop_
 _symmetry_equiv_pos_site_id
 _symmetry_equiv_pos_as_xyz
  1  'x, y, z'
loop_
 _atom_site_type_symbol
 _atom_site_label
 _atom_site_symmetry_multiplicity
 _atom_site_fract_x
 _atom_site_fract_y
 _atom_site_fract_z
 _atom_site_occupancy
  Zr  Zr0  1  0.00000000  0.00000000  0.00000000  1.0
  Zr  Zr1  1  0.00000000  0.00000000  0.50000000  1.0
  Tl  Tl2  1  -0.25413310  0.25413310  0.75000000  1.0
  Tl  Tl3  1  0.25413310  0.74586690  0.25000000  1.0
  Cu  Cu4  1  0.46439307  0.53560693  0.75000000  1.0
  Cu  Cu5  1  -0.46439307  0.46439307  0.25000000  1.0
  S  S6  1  0.37978929  0.62021071  0.94826882  1.0
  S  S7  1  0.37978929  0.62021071  0.55173118  1.0
  S  S8  1  -0.37978929  0.37978929  0.44826882  1.0
  S  S9  1  -0.37978929  0.37978929  0.05173118  1.0
  S  S10  1  0.06232394  0.93767606  0.75000000  1.0
  S  S11  1  -0.06232394  0.06232394  0.25000000  1.0
