# generated using pymatgen
data_BaTi2O5
_symmetry_space_group_name_H-M   'P 1'
_cell_length_a   8.73479623
_cell_length_b   8.73479623
_cell_length_c   9.67757300
_cell_angle_alpha   77.46903766
_cell_angle_beta   102.53096234
_cell_angle_gamma   154.17220703
_symmetry_Int_Tables_number   1
_chemical_formula_structural   BaTi2O5
_chemical_formula_sum   'Ba3 Ti6 O15'
_cell_volume   313.61164861
_cell_formula_units_Z   3
loop_
 _symmetry_equiv_pos_site_id
 _symmetry_equiv_pos_as_xyz
  1  'x, y, z'
loop_
 _atom_site_type_symbol
 _atom_site_label
 _atom_site_symmetry_multiplicity
 _atom_site_fract_x
 _atom_site_fract_y
 _atom_site_fract_z
 _atom_site_occupancy
  Ba  Ba0  1  0.63160113  0.36839887  0.98769101  1.0
  Ba  Ba1  1  0.36839887  -0.36839887  0.01230899  1.0
  Ba  Ba2  1  0.50000000  0.50000000  0.50000000  1.0
  O  O3  1  0.21027953  -0.21027953  0.87897922  1.0
  O  O4  1  0.78972047  0.21027953  0.12102078  1.0
  O  O5  1  0.94177670  0.05822330  0.28973489  1.0
  O  O6  1  0.05822330  -0.05822330  0.71026511  1.0
  O  O7  1  0.89334404  0.10665596  0.57757430  1.0
  O  O8  1  0.10665596  -0.10665596  0.42242570  1.0
  O  O9  1  0.73567046  0.26432954  0.39964877  1.0
  O  O10  1  0.26432954  -0.26432954  0.60035123  1.0
  O  O11  1  0.67571008  0.32428992  0.66293488  1.0
  O  O12  1  0.32428992  -0.32428992  0.33706512  1.0
  O  O13  1  0.46669706  -0.46669706  0.79343722  1.0
  O  O14  1  0.53330294  0.46669706  0.20656278  1.0
  O  O15  1  0.00000000  0.00000000  0.00000000  1.0
  O  O16  1  0.84793308  0.15206692  0.81204411  1.0
  O  O17  1  0.15206692  -0.15206692  0.18795589  1.0
  Ti  Ti18  1  0.96232354  0.03767646  0.79134044  1.0
  Ti  Ti19  1  0.03767646  -0.03767646  0.20865956  1.0
  Ti  Ti20  1  0.83267959  0.16732041  0.30061375  1.0
  Ti  Ti21  1  0.16732041  -0.16732041  0.69938625  1.0
  Ti  Ti22  1  0.79526554  0.20473446  0.62661089  1.0
  Ti  Ti23  1  0.20473446  -0.20473446  0.37338911  1.0
