# generated using pymatgen
data_MnTl2P4(HO2)8
_symmetry_space_group_name_H-M   'P 1'
_cell_length_a   7.12045518
_cell_length_b   7.65989264
_cell_length_c   7.82049893
_cell_angle_alpha   81.42715832
_cell_angle_beta   73.55230969
_cell_angle_gamma   86.89262235
_symmetry_Int_Tables_number   1
_chemical_formula_structural   MnTl2P4(HO2)8
_chemical_formula_sum   'Mn1 Tl2 P4 H8 O16'
_cell_volume   404.48714686
_cell_formula_units_Z   1
loop_
 _symmetry_equiv_pos_site_id
 _symmetry_equiv_pos_as_xyz
  1  'x, y, z'
loop_
 _atom_site_type_symbol
 _atom_site_label
 _atom_site_symmetry_multiplicity
 _atom_site_fract_x
 _atom_site_fract_y
 _atom_site_fract_z
 _atom_site_occupancy
  Mn  Mn0  1  0.00000000  0.00000000  0.00000000  1.0
  Tl  Tl1  1  0.62941192  0.22858169  0.79528131  1.0
  Tl  Tl2  1  0.37058808  0.77141831  0.20471869  1.0
  P  P3  1  0.82775008  0.76120500  0.74532404  1.0
  P  P4  1  0.17224992  0.23879500  0.25467596  1.0
  P  P5  1  0.23909024  0.69275924  0.74833651  1.0
  P  P6  1  0.76090976  0.30724076  0.25166349  1.0
  H  H7  1  0.88454564  0.67494508  0.21766446  1.0
  H  H8  1  0.11545436  0.32505492  0.78233554  1.0
  H  H9  1  0.87158438  0.80368732  0.36215250  1.0
  H  H10  1  0.12841562  0.19631268  0.63784750  1.0
  H  H11  1  0.75852047  0.54412446  0.97846627  1.0
  H  H12  1  0.24147953  0.45587554  0.02153373  1.0
  H  H13  1  0.54693339  0.76041184  0.58725865  1.0
  H  H14  1  0.45306661  0.23958816  0.41274135  1.0
  O  O15  1  0.94143239  0.78370253  0.23699747  1.0
  O  O16  1  0.05856761  0.21629747  0.76300253  1.0
  O  O17  1  0.93926108  0.27050587  0.34609841  1.0
  O  O18  1  0.06073892  0.72949413  0.65390159  1.0
  O  O19  1  0.80286351  0.89397780  0.87777861  1.0
  O  O20  1  0.19713649  0.10602220  0.12222139  1.0
  O  O21  1  0.74451861  0.81417994  0.58626293  1.0
  O  O22  1  0.25548139  0.18582006  0.41373707  1.0
  O  O23  1  0.74160312  0.57626889  0.84838233  1.0
  O  O24  1  0.25839688  0.42373111  0.15161767  1.0
  O  O25  1  0.41521682  0.72244194  0.57211284  1.0
  O  O26  1  0.58478318  0.27755806  0.42788716  1.0
  O  O27  1  0.22731542  0.49971646  0.83623827  1.0
  O  O28  1  0.77268458  0.50028354  0.16376173  1.0
  O  O29  1  0.23252131  0.82707299  0.87515589  1.0
  O  O30  1  0.76747869  0.17292701  0.12484411  1.0
