# generated using pymatgen
data_PtSO4
_symmetry_space_group_name_H-M   'P 1'
_cell_length_a   4.95654026
_cell_length_b   4.95654026
_cell_length_c   7.74666233
_cell_angle_alpha   80.26025342
_cell_angle_beta   99.73974658
_cell_angle_gamma   91.80956508
_symmetry_Int_Tables_number   1
_chemical_formula_structural   PtSO4
_chemical_formula_sum   'Pt2 S2 O8'
_cell_volume   184.86693815
_cell_formula_units_Z   2
loop_
 _symmetry_equiv_pos_site_id
 _symmetry_equiv_pos_as_xyz
  1  'x, y, z'
loop_
 _atom_site_type_symbol
 _atom_site_label
 _atom_site_symmetry_multiplicity
 _atom_site_fract_x
 _atom_site_fract_y
 _atom_site_fract_z
 _atom_site_occupancy
  Pt  Pt0  1  1.00000000  0.50000000  0.50000000  1.0
  Pt  Pt1  1  1.50000000  0.00000000  0.00000000  1.0
  S  S2  1  0.93484946  0.93484946  0.75000000  1.0
  S  S3  1  0.06515054  0.06515054  0.25000000  1.0
  O  O4  1  1.79786753  -0.17583850  0.90642891  1.0
  O  O5  1  0.82416150  0.79786753  0.59357109  1.0
  O  O6  1  0.20213247  0.17583850  0.09357109  1.0
  O  O7  1  1.17583850  -0.79786753  0.40642891  1.0
  O  O8  1  1.23573190  -0.12888832  0.79875092  1.0
  O  O9  1  0.87111168  0.23573190  0.70124908  1.0
  O  O10  1  0.76426810  0.12888832  0.20124908  1.0
  O  O11  1  1.12888832  -0.23573190  0.29875092  1.0
