# generated using pymatgen
data_NaNb(CuS2)2
_symmetry_space_group_name_H-M   'P 1'
_cell_length_a   9.81226249
_cell_length_b   9.81226249
_cell_length_c   7.63173372
_cell_angle_alpha   90.00000000
_cell_angle_beta   90.00000000
_cell_angle_gamma   33.11862173
_symmetry_Int_Tables_number   1
_chemical_formula_structural   NaNb(CuS2)2
_chemical_formula_sum   'Na2 Nb2 Cu4 S8'
_cell_volume   401.46871459
_cell_formula_units_Z   2
loop_
 _symmetry_equiv_pos_site_id
 _symmetry_equiv_pos_as_xyz
  1  'x, y, z'
loop_
 _atom_site_type_symbol
 _atom_site_label
 _atom_site_symmetry_multiplicity
 _atom_site_fract_x
 _atom_site_fract_y
 _atom_site_fract_z
 _atom_site_occupancy
  Na  Na0  1  0.74258659  0.91138038  0.25000000  1.0
  Na  Na1  1  0.08861962  1.25741341  0.75000000  1.0
  Nb  Nb2  1  0.05580750  1.16041536  0.25000000  1.0
  Nb  Nb3  1  0.83958464  0.94419250  0.75000000  1.0
  Cu  Cu4  1  0.55219336  0.65215184  0.25000000  1.0
  Cu  Cu5  1  0.34784816  1.44780664  0.75000000  1.0
  Cu  Cu6  1  -0.03819324  0.03819324  0.50000000  1.0
  Cu  Cu7  1  -0.03819324  0.03819324  0.00000000  1.0
  S  S8  1  0.09388044  1.70190459  0.50685512  1.0
  S  S9  1  0.29809541  0.90611956  0.00685512  1.0
  S  S10  1  0.29809541  0.90611956  0.49314488  1.0
  S  S11  1  0.09388044  1.70190459  0.99314488  1.0
  S  S12  1  -0.28027219  1.28897982  0.25000000  1.0
  S  S13  1  0.71102018  1.28027219  0.75000000  1.0
  S  S14  1  -0.10465387  1.51009922  0.25000000  1.0
  S  S15  1  0.48990078  1.10465387  0.75000000  1.0
