# generated using pymatgen
data_CeSn2Ge
_symmetry_space_group_name_H-M   'P 1'
_cell_length_a   10.49344443
_cell_length_b   10.49344443
_cell_length_c   10.49344443
_cell_angle_alpha   155.58853464
_cell_angle_beta   155.58853464
_cell_angle_gamma   34.79470442
_symmetry_Int_Tables_number   1
_chemical_formula_structural   CeSn2Ge
_chemical_formula_sum   'Ce2 Sn4 Ge2'
_cell_volume   197.14284780
_cell_formula_units_Z   2
loop_
 _symmetry_equiv_pos_site_id
 _symmetry_equiv_pos_as_xyz
  1  'x, y, z'
loop_
 _atom_site_type_symbol
 _atom_site_label
 _atom_site_symmetry_multiplicity
 _atom_site_fract_x
 _atom_site_fract_y
 _atom_site_fract_z
 _atom_site_occupancy
  Ce  Ce0  1  0.87996613  0.87996613  1.00000000  1.0
  Ce  Ce1  1  0.12003387  0.12003387  -0.00000000  1.0
  Sn  Sn2  1  0.25000000  0.75000000  0.50000000  1.0
  Sn  Sn3  1  0.75000000  0.25000000  0.50000000  1.0
  Sn  Sn4  1  0.50000000  0.00000000  0.50000000  1.0
  Sn  Sn5  1  -0.00000000  0.50000000  0.50000000  1.0
  Ge  Ge6  1  0.61954993  0.61954993  1.00000000  1.0
  Ge  Ge7  1  0.38045007  0.38045007  -0.00000000  1.0
