# generated using pymatgen
data_Na5Sm4Si4O16F
_symmetry_space_group_name_H-M   'P 1'
_cell_length_a   8.88955094
_cell_length_b   8.88955094
_cell_length_c   8.88955094
_cell_angle_alpha   95.53841618
_cell_angle_beta   95.53841618
_cell_angle_gamma   143.80130211
_symmetry_Int_Tables_number   1
_chemical_formula_structural   Na5Sm4Si4O16F
_chemical_formula_sum   'Na5 Sm4 Si4 O16 F1'
_cell_volume   394.35242401
_cell_formula_units_Z   1
loop_
 _symmetry_equiv_pos_site_id
 _symmetry_equiv_pos_as_xyz
  1  'x, y, z'
loop_
 _atom_site_type_symbol
 _atom_site_label
 _atom_site_symmetry_multiplicity
 _atom_site_fract_x
 _atom_site_fract_y
 _atom_site_fract_z
 _atom_site_occupancy
  Na  Na0  1  0.87931891  0.57527378  0.48312947  1.0
  Na  Na1  1  0.60381056  0.12068109  0.69595488  1.0
  Na  Na2  1  1.09214432  1.39618944  1.51687053  1.0
  Na  Na3  1  0.42472622  0.90785568  1.30404512  1.0
  Na  Na4  1  0.00000000  0.00000000  0.00000000  1.0
  Sm  Sm5  1  0.40879662  0.34061057  0.70114000  1.0
  Sm  Sm6  1  1.29234338  0.59120338  0.93181395  1.0
  Sm  Sm7  1  0.63947058  0.70765662  1.29886000  1.0
  Sm  Sm8  1  0.65938943  1.36052942  1.06818605  1.0
  Si  Si9  1  1.73982507  1.88476328  1.64837943  1.0
  Si  Si10  1  0.90855436  1.26017493  1.14493821  1.0
  Si  Si11  1  1.23638385  1.09144564  0.35162057  1.0
  Si  Si12  1  1.11523672  0.76361615  0.85506179  1.0
  O  O13  1  0.86902974  1.36131562  1.27784495  1.0
  O  O14  1  0.40881521  0.13097026  0.49228588  1.0
  O  O15  1  1.08347067  0.59118479  0.72215505  1.0
  O  O16  1  0.63868438  0.91652933  1.50771412  1.0
  O  O17  1  0.72981246  0.70173061  0.56222207  1.0
  O  O18  1  0.83240960  0.27018754  0.97191815  1.0
  O  O19  1  1.13950854  1.16759040  1.43777793  1.0
  O  O20  1  0.29826939  0.86049146  1.02808185  1.0
  O  O21  1  1.52711205  1.70436807  1.75180565  1.0
  O  O22  1  1.22469360  1.47288795  1.17725603  1.0
  O  O23  1  0.95256242  0.77530640  0.24819435  1.0
  O  O24  1  1.29563193  1.04743758  0.82274397  1.0
  O  O25  1  0.40990235  0.27350816  0.23423729  1.0
  O  O26  1  0.82433494  0.59009765  0.86360581  1.0
  O  O27  1  1.03927087  1.17566506  1.76576271  1.0
  O  O28  1  0.72649184  0.96072913  1.13639419  1.0
  F  F29  1  0.50000000  0.50000000  0.00000000  1.0
