# generated using pymatgen
data_MgSiO3
_symmetry_space_group_name_H-M   'P 1'
_cell_length_a   5.06135051
_cell_length_b   8.95098285
_cell_length_c   9.71397229
_cell_angle_alpha   90.00000000
_cell_angle_beta   107.37121733
_cell_angle_gamma   90.00000000
_symmetry_Int_Tables_number   1
_chemical_formula_structural   MgSiO3
_chemical_formula_sum   'Mg8 Si8 O24'
_cell_volume   420.01043105
_cell_formula_units_Z   8
loop_
 _symmetry_equiv_pos_site_id
 _symmetry_equiv_pos_as_xyz
  1  'x, y, z'
loop_
 _atom_site_type_symbol
 _atom_site_label
 _atom_site_symmetry_multiplicity
 _atom_site_fract_x
 _atom_site_fract_y
 _atom_site_fract_z
 _atom_site_occupancy
  Mg  Mg0  1  0.24994142  0.76943618  0.49998747  1.0
  Mg  Mg1  1  0.24994142  0.73056382  -0.00001253  1.0
  Mg  Mg2  1  0.75005858  0.23056382  0.50001253  1.0
  Mg  Mg3  1  0.75005858  0.26943618  0.00001253  1.0
  Mg  Mg4  1  0.25003306  0.40284713  0.50000767  1.0
  Mg  Mg5  1  0.25003306  0.09715287  0.00000767  1.0
  Mg  Mg6  1  0.74996694  0.59715287  0.49999233  1.0
  Mg  Mg7  1  0.74996694  0.90284713  -0.00000767  1.0
  Si  Si8  1  0.42036820  0.09018700  0.70249899  1.0
  Si  Si9  1  0.42036820  0.40981300  0.20249899  1.0
  Si  Si10  1  0.57963180  0.90981300  0.29750101  1.0
  Si  Si11  1  0.57963180  0.59018700  0.79750101  1.0
  Si  Si12  1  0.07965562  0.09022154  0.29750386  1.0
  Si  Si13  1  0.07965562  0.40977846  0.79750386  1.0
  Si  Si14  1  0.92034438  0.90977846  0.70249614  1.0
  Si  Si15  1  0.92034438  0.59022154  0.20249614  1.0
  O  O16  1  0.52059714  0.09181342  0.87908275  1.0
  O  O17  1  0.52059714  0.40818658  0.37908275  1.0
  O  O18  1  0.47940286  0.90818658  0.12091725  1.0
  O  O19  1  0.47940286  0.59181342  0.62091725  1.0
  O  O20  1  -0.02056218  0.09182568  0.12092115  1.0
  O  O21  1  -0.02056218  0.40817432  0.62092115  1.0
  O  O22  1  0.02056218  0.90817432  0.87907885  1.0
  O  O23  1  0.02056218  0.59182568  0.37907885  1.0
  O  O24  1  0.48925389  0.23385762  0.62058549  1.0
  O  O25  1  0.48925389  0.26614238  0.12058549  1.0
  O  O26  1  0.51074611  0.76614238  0.37941451  1.0
  O  O27  1  0.51074611  0.73385762  0.87941451  1.0
  O  O28  1  0.01078888  0.23390911  0.37939953  1.0
  O  O29  1  0.01078888  0.26609089  0.87939953  1.0
  O  O30  1  0.98921112  0.76609089  0.62060047  1.0
  O  O31  1  0.98921112  0.73390911  0.12060047  1.0
  O  O32  1  0.07557274  0.05665459  0.64833611  1.0
  O  O33  1  0.07557274  0.44334541  0.14833611  1.0
  O  O34  1  0.92442726  0.94334541  0.35166389  1.0
  O  O35  1  0.92442726  0.55665459  0.85166389  1.0
  O  O36  1  0.42444828  0.05670585  0.35165263  1.0
  O  O37  1  0.42444828  0.44329415  0.85165263  1.0
  O  O38  1  0.57555172  0.94329415  0.64834737  1.0
  O  O39  1  0.57555172  0.55670585  0.14834737  1.0
