# generated using pymatgen
data_RbMnP3HO10
_symmetry_space_group_name_H-M   'P 1'
_cell_length_a   7.61501131
_cell_length_b   7.61501131
_cell_length_c   8.99772016
_cell_angle_alpha   75.94784387
_cell_angle_beta   104.05215613
_cell_angle_gamma   110.88972504
_symmetry_Int_Tables_number   1
_chemical_formula_structural   RbMnP3HO10
_chemical_formula_sum   'Rb2 Mn2 P6 H2 O20'
_cell_volume   465.80105777
_cell_formula_units_Z   2
loop_
 _symmetry_equiv_pos_site_id
 _symmetry_equiv_pos_as_xyz
  1  'x, y, z'
loop_
 _atom_site_type_symbol
 _atom_site_label
 _atom_site_symmetry_multiplicity
 _atom_site_fract_x
 _atom_site_fract_y
 _atom_site_fract_z
 _atom_site_occupancy
  Rb  Rb0  1  0.38873853  -0.09078183  0.76702502  1.0
  Rb  Rb1  1  0.90921817  -0.61126147  0.23297498  1.0
  Mn  Mn2  1  1.48426901  0.48426901  0.50000000  1.0
  Mn  Mn3  1  -0.00866868  -0.00866868  -0.00000000  1.0
  P  P4  1  1.20585434  0.34445103  0.76671961  1.0
  P  P5  1  1.34445103  0.20585434  0.23328039  1.0
  P  P6  1  0.82359642  -0.65297456  0.78076344  1.0
  P  P7  1  0.34702544  -0.17640358  0.21923656  1.0
  P  P8  1  0.80672616  -0.26444639  0.72873255  1.0
  P  P9  1  0.73555361  -0.19327384  0.27126745  1.0
  H  H10  1  0.90533111  -0.09466889  0.50000000  1.0
  H  H11  1  1.41002248  0.41002248  0.00000000  1.0
  O  O12  1  1.27977400  0.36233042  0.61888801  1.0
  O  O13  1  1.36233042  0.27977400  0.38111199  1.0
  O  O14  1  1.33420423  0.48300675  0.87800343  1.0
  O  O15  1  1.48300675  0.33420423  0.12199657  1.0
  O  O16  1  1.30496493  0.65046063  0.34507225  1.0
  O  O17  1  1.65046063  0.30496493  0.65492775  1.0
  O  O18  1  0.82999641  -0.79837514  0.92773943  1.0
  O  O19  1  0.20162486  -0.17000359  0.07226057  1.0
  O  O20  1  1.00968400  0.39975972  0.70050578  1.0
  O  O21  1  1.39975972  0.00968400  0.29949422  1.0
  O  O22  1  0.85361043  -0.45406317  0.83571265  1.0
  O  O23  1  0.54593683  -0.14638957  0.16428735  1.0
  O  O24  1  0.96469860  -0.16609860  0.62903229  1.0
  O  O25  1  0.83390140  -0.03530140  0.37096771  1.0
  O  O26  1  1.15288497  0.13430836  0.84848341  1.0
  O  O27  1  1.13430836  0.15288497  0.15151659  1.0
  O  O28  1  0.80544915  -0.14976520  0.84638339  1.0
  O  O29  1  0.85023480  -0.19455085  0.15361661  1.0
  O  O30  1  0.60423007  -0.32417819  0.63171958  1.0
  O  O31  1  0.67582181  -0.39576993  0.36828042  1.0
