# generated using pymatgen
data_PH2NF2
_symmetry_space_group_name_H-M   'P 1'
_cell_length_a   5.16068068
_cell_length_b   14.82635755
_cell_length_c   5.13734445
_cell_angle_alpha   90.00000000
_cell_angle_beta   113.41272879
_cell_angle_gamma   90.00000000
_symmetry_Int_Tables_number   1
_chemical_formula_structural   PH2NF2
_chemical_formula_sum   'P4 H8 N4 F8'
_cell_volume   360.71562880
_cell_formula_units_Z   4
loop_
 _symmetry_equiv_pos_site_id
 _symmetry_equiv_pos_as_xyz
  1  'x, y, z'
loop_
 _atom_site_type_symbol
 _atom_site_label
 _atom_site_symmetry_multiplicity
 _atom_site_fract_x
 _atom_site_fract_y
 _atom_site_fract_z
 _atom_site_occupancy
  P  P0  1  0.76582974  0.89847466  0.65168941  1.0
  P  P1  1  0.76582974  0.60152534  0.15168941  1.0
  P  P2  1  0.23417026  0.39847466  0.84831059  1.0
  P  P3  1  0.23417026  0.10152534  0.34831059  1.0
  H  H4  1  0.98528858  0.27172431  0.58758941  1.0
  H  H5  1  0.98528858  0.22827569  0.08758941  1.0
  H  H6  1  0.01471142  0.77172431  0.91241059  1.0
  H  H7  1  0.01471142  0.72827569  0.41241059  1.0
  H  H8  1  0.77606333  0.34814825  0.65955243  1.0
  H  H9  1  0.77606333  0.15185175  0.15955243  1.0
  H  H10  1  0.22393667  0.84814825  0.84044757  1.0
  H  H11  1  0.22393667  0.65185175  0.34044757  1.0
  N  N12  1  0.97555332  0.32328221  0.71684789  1.0
  N  N13  1  0.97555332  0.17671779  0.21684789  1.0
  N  N14  1  0.02444668  0.82328221  0.78315211  1.0
  N  N15  1  0.02444668  0.67671779  0.28315211  1.0
  F  F16  1  0.64077472  0.90300020  0.90154323  1.0
  F  F17  1  0.64077472  0.59699980  0.40154323  1.0
  F  F18  1  0.35922528  0.40300020  0.59845677  1.0
  F  F19  1  0.35922528  0.09699980  0.09845677  1.0
  F  F20  1  0.51318775  0.66871582  0.95316860  1.0
  F  F21  1  0.51318775  0.83128418  0.45316860  1.0
  F  F22  1  0.48681225  0.16871582  0.54683140  1.0
  F  F23  1  0.48681225  0.33128418  0.04683140  1.0
