# generated using pymatgen
data_NbRh
_symmetry_space_group_name_H-M   'P 1'
_cell_length_a   4.57154545
_cell_length_b   2.83327050
_cell_length_c   4.91367484
_cell_angle_alpha   90.00000000
_cell_angle_beta   90.00000000
_cell_angle_gamma   90.00000000
_symmetry_Int_Tables_number   1
_chemical_formula_structural   NbRh
_chemical_formula_sum   'Nb2 Rh2'
_cell_volume   63.64400409
_cell_formula_units_Z   2
loop_
 _symmetry_equiv_pos_site_id
 _symmetry_equiv_pos_as_xyz
  1  'x, y, z'
loop_
 _atom_site_type_symbol
 _atom_site_label
 _atom_site_symmetry_multiplicity
 _atom_site_fract_x
 _atom_site_fract_y
 _atom_site_fract_z
 _atom_site_occupancy
  Nb  Nb0  1  0.75000000  0.00000000  0.19641077  1.0
  Nb  Nb1  1  0.25000000  0.00000000  0.80358923  1.0
  Rh  Rh2  1  0.75000000  0.50000000  0.68806828  1.0
  Rh  Rh3  1  0.25000000  0.50000000  0.31193172  1.0
