# generated using pymatgen
data_Sr3Mn2O7
_symmetry_space_group_name_H-M   'P 1'
_cell_length_a   10.43122837
_cell_length_b   10.43122837
_cell_length_c   10.43122837
_cell_angle_alpha   158.82184312
_cell_angle_beta   158.82184312
_cell_angle_gamma   30.12606379
_symmetry_Int_Tables_number   1
_chemical_formula_structural   Sr3Mn2O7
_chemical_formula_sum   'Sr3 Mn2 O7'
_cell_volume   148.04802548
_cell_formula_units_Z   1
loop_
 _symmetry_equiv_pos_site_id
 _symmetry_equiv_pos_as_xyz
  1  'x, y, z'
loop_
 _atom_site_type_symbol
 _atom_site_label
 _atom_site_symmetry_multiplicity
 _atom_site_fract_x
 _atom_site_fract_y
 _atom_site_fract_z
 _atom_site_occupancy
  Sr  Sr0  1  0.68281436  0.68281436  1.00000000  1.0
  Sr  Sr1  1  0.31718564  0.31718564  0.00000000  1.0
  Sr  Sr2  1  0.50000000  0.50000000  1.00000000  1.0
  Mn  Mn3  1  0.90279581  0.90279581  1.00000000  1.0
  Mn  Mn4  1  0.09720419  0.09720419  0.00000000  1.0
  O  O5  1  0.40429336  0.90429336  0.50000000  1.0
  O  O6  1  0.59570664  0.09570664  0.50000000  1.0
  O  O7  1  0.90429336  0.40429336  0.50000000  1.0
  O  O8  1  0.09570664  0.59570664  0.50000000  1.0
  O  O9  1  0.80824313  0.80824313  1.00000000  1.0
  O  O10  1  0.19175687  0.19175687  0.00000000  1.0
  O  O11  1  0.00000000  0.00000000  0.00000000  1.0
