# generated using pymatgen
data_Zr6Al16Rh7
_symmetry_space_group_name_H-M   'P 1'
_cell_length_a   8.72569581
_cell_length_b   8.72569581
_cell_length_c   8.72569581
_cell_angle_alpha   60.00000000
_cell_angle_beta   60.00000000
_cell_angle_gamma   60.00000000
_symmetry_Int_Tables_number   1
_chemical_formula_structural   Zr6Al16Rh7
_chemical_formula_sum   'Zr6 Al16 Rh7'
_cell_volume   469.76992429
_cell_formula_units_Z   1
loop_
 _symmetry_equiv_pos_site_id
 _symmetry_equiv_pos_as_xyz
  1  'x, y, z'
loop_
 _atom_site_type_symbol
 _atom_site_label
 _atom_site_symmetry_multiplicity
 _atom_site_fract_x
 _atom_site_fract_y
 _atom_site_fract_z
 _atom_site_occupancy
  Zr  Zr0  1  -0.68901194  0.68901194  0.68901194  1.0
  Zr  Zr1  1  -0.31098806  0.31098806  0.68901194  1.0
  Zr  Zr2  1  0.68901194  0.68901194  -0.68901194  1.0
  Zr  Zr3  1  0.31098806  1.31098806  -0.31098806  1.0
  Zr  Zr4  1  0.31098806  -0.31098806  1.31098806  1.0
  Zr  Zr5  1  -0.31098806  0.31098806  0.31098806  1.0
  Al  Al6  1  0.66270433  0.66270433  -0.33729567  1.0
  Al  Al7  1  1.33729567  0.33729567  -0.01188701  1.0
  Al  Al8  1  1.33729567  -0.01188701  0.33729567  1.0
  Al  Al9  1  1.01188701  0.66270433  -0.33729567  1.0
  Al  Al10  1  0.98811299  0.33729567  0.33729567  1.0
  Al  Al11  1  0.66270433  1.01188701  -0.33729567  1.0
  Al  Al12  1  0.66270433  0.66270433  0.01188701  1.0
  Al  Al13  1  1.33729567  0.33729567  0.33729567  1.0
  Al  Al14  1  0.88027112  0.88027112  -0.11972888  1.0
  Al  Al15  1  1.11972888  0.11972888  0.64081337  1.0
  Al  Al16  1  1.11972888  0.64081337  0.11972888  1.0
  Al  Al17  1  0.35918663  0.88027112  -0.11972888  1.0
  Al  Al18  1  1.64081337  0.11972888  0.11972888  1.0
  Al  Al19  1  0.88027112  0.35918663  -0.11972888  1.0
  Al  Al20  1  0.88027112  0.88027112  -0.64081337  1.0
  Al  Al21  1  1.11972888  0.11972888  0.11972888  1.0
  Rh  Rh22  1  1.50000000  -0.00000000  0.00000000  1.0
  Rh  Rh23  1  1.00000000  0.50000000  -0.50000000  1.0
  Rh  Rh24  1  -0.00000000  1.50000000  0.00000000  1.0
  Rh  Rh25  1  0.50000000  1.00000000  -0.50000000  1.0
  Rh  Rh26  1  -0.00000000  0.00000000  0.50000000  1.0
  Rh  Rh27  1  0.50000000  -0.50000000  1.00000000  1.0
  Rh  Rh28  1  0.00000000  0.00000000  0.00000000  1.0
