# generated using pymatgen
data_BaNaAlS3
_symmetry_space_group_name_H-M   'P 1'
_cell_length_a   19.92070303
_cell_length_b   8.88556054
_cell_length_c   6.97100749
_cell_angle_alpha   90.00000000
_cell_angle_beta   90.00000000
_cell_angle_gamma   90.00000000
_symmetry_Int_Tables_number   1
_chemical_formula_structural   BaNaAlS3
_chemical_formula_sum   'Ba8 Na8 Al8 S24'
_cell_volume   1233.91442332
_cell_formula_units_Z   8
loop_
 _symmetry_equiv_pos_site_id
 _symmetry_equiv_pos_as_xyz
  1  'x, y, z'
loop_
 _atom_site_type_symbol
 _atom_site_label
 _atom_site_symmetry_multiplicity
 _atom_site_fract_x
 _atom_site_fract_y
 _atom_site_fract_z
 _atom_site_occupancy
  Ba  Ba0  1  0.83034225  0.51010779  0.77226339  1.0
  Ba  Ba1  1  0.66965775  0.48989221  0.27226339  1.0
  Ba  Ba2  1  0.16965775  0.01010779  0.22773661  1.0
  Ba  Ba3  1  0.33034225  0.98989221  0.72773661  1.0
  Ba  Ba4  1  0.16965775  0.48989221  0.22773661  1.0
  Ba  Ba5  1  0.33034225  0.51010779  0.72773661  1.0
  Ba  Ba6  1  0.83034225  0.98989221  0.77226339  1.0
  Ba  Ba7  1  0.66965775  0.01010779  0.27226339  1.0
  Na  Na8  1  0.00000000  0.50000000  0.50000000  1.0
  Na  Na9  1  0.50000000  0.50000000  0.00000000  1.0
  Na  Na10  1  0.00000000  0.00000000  0.50000000  1.0
  Na  Na11  1  0.50000000  0.00000000  0.00000000  1.0
  Na  Na12  1  0.90114114  0.25000000  0.17264485  1.0
  Na  Na13  1  0.59885886  0.75000000  0.67264485  1.0
  Na  Na14  1  0.09885886  0.75000000  0.82735515  1.0
  Na  Na15  1  0.40114114  0.25000000  0.32735515  1.0
  Al  Al16  1  0.68582472  0.25000000  0.75503925  1.0
  Al  Al17  1  0.81417528  0.75000000  0.25503925  1.0
  Al  Al18  1  0.31417528  0.75000000  0.24496075  1.0
  Al  Al19  1  0.18582472  0.25000000  0.74496075  1.0
  Al  Al20  1  0.95698759  0.75000000  0.10707794  1.0
  Al  Al21  1  0.54301241  0.25000000  0.60707794  1.0
  Al  Al22  1  0.04301241  0.25000000  0.89292206  1.0
  Al  Al23  1  0.45698759  0.75000000  0.39292206  1.0
  S  S24  1  0.88987742  0.55726791  0.23031822  1.0
  S  S25  1  0.61012258  0.44273209  0.73031822  1.0
  S  S26  1  0.11012258  0.05726791  0.76968178  1.0
  S  S27  1  0.38987742  0.94273209  0.26968178  1.0
  S  S28  1  0.11012258  0.44273209  0.76968178  1.0
  S  S29  1  0.38987742  0.55726791  0.26968178  1.0
  S  S30  1  0.88987742  0.94273209  0.23031822  1.0
  S  S31  1  0.61012258  0.05726791  0.73031822  1.0
  S  S32  1  0.74931513  0.25000000  0.01728605  1.0
  S  S33  1  0.75068487  0.75000000  0.51728605  1.0
  S  S34  1  0.25068487  0.75000000  0.98271395  1.0
  S  S35  1  0.24931513  0.25000000  0.48271395  1.0
  S  S36  1  0.95277289  0.75000000  0.78447917  1.0
  S  S37  1  0.54722711  0.25000000  0.28447917  1.0
  S  S38  1  0.04722711  0.25000000  0.21552083  1.0
  S  S39  1  0.45277289  0.75000000  0.71552083  1.0
  S  S40  1  0.75765047  0.25000000  0.50990101  1.0
  S  S41  1  0.74234953  0.75000000  0.00990101  1.0
  S  S42  1  0.24234953  0.75000000  0.49009899  1.0
  S  S43  1  0.25765047  0.25000000  0.99009899  1.0
  S  S44  1  0.94237156  0.25000000  0.75151407  1.0
  S  S45  1  0.55762844  0.75000000  0.25151407  1.0
  S  S46  1  0.05762844  0.75000000  0.24848593  1.0
  S  S47  1  0.44237156  0.25000000  0.74848593  1.0
