# generated using pymatgen
data_GdCu2
_symmetry_space_group_name_H-M   'P 1'
_cell_length_a   5.50174285
_cell_length_b   5.50174285
_cell_length_c   5.50174285
_cell_angle_alpha   133.67888724
_cell_angle_beta   102.03657836
_cell_angle_gamma   95.78800012
_symmetry_Int_Tables_number   1
_chemical_formula_structural   GdCu2
_chemical_formula_sum   'Gd2 Cu4'
_cell_volume   110.50882010
_cell_formula_units_Z   2
loop_
 _symmetry_equiv_pos_site_id
 _symmetry_equiv_pos_as_xyz
  1  'x, y, z'
loop_
 _atom_site_type_symbol
 _atom_site_label
 _atom_site_symmetry_multiplicity
 _atom_site_fract_x
 _atom_site_fract_y
 _atom_site_fract_z
 _atom_site_occupancy
  Gd  Gd0  1  1.70836878  1.45836878  1.25000000  1.0
  Gd  Gd1  1  0.29163122  0.54163122  0.75000000  1.0
  Cu  Cu2  1  1.28415621  0.83495267  1.44920353  1.0
  Cu  Cu3  1  1.11425086  0.16504733  0.94920353  1.0
  Cu  Cu4  1  0.71584379  1.16504733  0.55079647  1.0
  Cu  Cu5  1  0.88574914  0.83495267  0.05079647  1.0
