# generated using pymatgen
data_Si3Pt2
_symmetry_space_group_name_H-M   'P 1'
_cell_length_a   3.93799087
_cell_length_b   3.93799087
_cell_length_c   12.09762833
_cell_angle_alpha   90.00000000
_cell_angle_beta   90.00000000
_cell_angle_gamma   120.00000000
_symmetry_Int_Tables_number   1
_chemical_formula_structural   Si3Pt2
_chemical_formula_sum   'Si6 Pt4'
_cell_volume   162.47265540
_cell_formula_units_Z   2
loop_
 _symmetry_equiv_pos_site_id
 _symmetry_equiv_pos_as_xyz
  1  'x, y, z'
loop_
 _atom_site_type_symbol
 _atom_site_label
 _atom_site_symmetry_multiplicity
 _atom_site_fract_x
 _atom_site_fract_y
 _atom_site_fract_z
 _atom_site_occupancy
  Si  Si0  1  0.33333333  0.66666667  0.93476708  1.0
  Si  Si1  1  0.33333333  0.66666667  0.56523292  1.0
  Si  Si2  1  0.66666667  0.33333333  0.43476708  1.0
  Si  Si3  1  0.66666667  0.33333333  0.06523292  1.0
  Si  Si4  1  -0.00000000  -0.00000000  0.25000000  1.0
  Si  Si5  1  -0.00000000  -0.00000000  0.75000000  1.0
  Pt  Pt6  1  0.33333333  0.66666667  0.36289705  1.0
  Pt  Pt7  1  0.33333333  0.66666667  0.13710295  1.0
  Pt  Pt8  1  0.66666667  0.33333333  0.86289705  1.0
  Pt  Pt9  1  0.66666667  0.33333333  0.63710295  1.0
