# generated using pymatgen
data_CsMn2(PO3)6
_symmetry_space_group_name_H-M   'P 1'
_cell_length_a   9.24444404
_cell_length_b   9.24444404
_cell_length_c   5.20519049
_cell_angle_alpha   74.55283528
_cell_angle_beta   105.44716472
_cell_angle_gamma   93.19292930
_symmetry_Int_Tables_number   1
_chemical_formula_structural   CsMn2(PO3)6
_chemical_formula_sum   'Cs1 Mn2 P6 O18'
_cell_volume   413.22112857
_cell_formula_units_Z   1
loop_
 _symmetry_equiv_pos_site_id
 _symmetry_equiv_pos_as_xyz
  1  'x, y, z'
loop_
 _atom_site_type_symbol
 _atom_site_label
 _atom_site_symmetry_multiplicity
 _atom_site_fract_x
 _atom_site_fract_y
 _atom_site_fract_z
 _atom_site_occupancy
  Cs  Cs0  1  0.00000000  0.00000000  0.00000000  1.0
  Mn  Mn1  1  1.50000000  -0.00000000  0.50000000  1.0
  Mn  Mn2  1  1.00000000  0.50000000  0.50000000  1.0
  P  P3  1  0.54302627  0.21833922  0.92028905  1.0
  P  P4  1  0.78166078  0.45697373  0.92028905  1.0
  P  P5  1  1.21833922  -0.45697373  0.07971095  1.0
  P  P6  1  1.45697373  -0.21833922  0.07971095  1.0
  P  P7  1  0.75434803  0.75434803  0.50000000  1.0
  P  P8  1  0.24565197  0.24565197  0.50000000  1.0
  O  O9  1  1.72569361  -0.09755423  0.54854005  1.0
  O  O10  1  1.09755423  -0.72569361  0.54854005  1.0
  O  O11  1  0.90244577  0.72569361  0.45145995  1.0
  O  O12  1  0.27430639  0.09755423  0.45145995  1.0
  O  O13  1  1.44285259  -0.17818886  0.77343820  1.0
  O  O14  1  1.17818886  -0.44285259  0.77343820  1.0
  O  O15  1  0.82181114  0.44285259  0.22656180  1.0
  O  O16  1  0.55714741  0.17818886  0.22656180  1.0
  O  O17  1  0.59535119  0.10265542  0.80457245  1.0
  O  O18  1  0.89734458  0.40464881  0.80457245  1.0
  O  O19  1  1.10265542  -0.40464881  0.19542755  1.0
  O  O20  1  1.40464881  -0.10265542  0.19542755  1.0
  O  O21  1  0.37396446  0.27550594  0.76052309  1.0
  O  O22  1  0.72449406  0.62603554  0.76052309  1.0
  O  O23  1  1.27550594  -0.62603554  0.23947691  1.0
  O  O24  1  1.62603554  -0.27550594  0.23947691  1.0
  O  O25  1  0.62574513  0.37425487  0.83342734  1.0
  O  O26  1  1.37425487  -0.37425487  0.16657266  1.0
