# generated using pymatgen
data_Al2Si2H4O9
_symmetry_space_group_name_H-M   'P 1'
_cell_length_a   5.21942455
_cell_length_b   5.21942455
_cell_length_c   7.34763417
_cell_angle_alpha   87.96932524
_cell_angle_beta   92.03067476
_cell_angle_gamma   59.94491944
_symmetry_Int_Tables_number   1
_chemical_formula_structural   Al2Si2H4O9
_chemical_formula_sum   'Al2 Si2 H4 O9'
_cell_volume   172.81717815
_cell_formula_units_Z   1
loop_
 _symmetry_equiv_pos_site_id
 _symmetry_equiv_pos_as_xyz
  1  'x, y, z'
loop_
 _atom_site_type_symbol
 _atom_site_label
 _atom_site_symmetry_multiplicity
 _atom_site_fract_x
 _atom_site_fract_y
 _atom_site_fract_z
 _atom_site_occupancy
  Al  Al0  1  1.00141107  -0.32942459  0.13955369  1.0
  Al  Al1  1  0.32942459  -0.00141107  0.13955369  1.0
  Si  Si2  1  0.33199462  0.32595223  0.51752311  1.0
  Si  Si3  1  0.67404777  -0.33199462  0.51752311  1.0
  H  H4  1  1.02242259  -0.63513743  0.87813499  1.0
  H  H5  1  0.86555328  0.13444672  0.28641599  1.0
  H  H6  1  1.45089505  -0.45089505  0.96470912  1.0
  H  H7  1  0.63513743  -0.02242259  0.87813499  1.0
  O  O8  1  1.03318048  -0.65098944  0.01104284  1.0
  O  O9  1  1.01252729  -0.51796266  0.61186302  1.0
  O  O10  1  1.05139126  -0.05139126  0.28219293  1.0
  O  O11  1  0.29107592  0.32665360  0.29707121  1.0
  O  O12  1  1.27937889  -0.27937889  0.00776844  1.0
  O  O13  1  0.51796266  -0.01252729  0.61186302  1.0
  O  O14  1  0.51266126  0.48733874  0.58473582  1.0
  O  O15  1  0.67334640  -0.29107592  0.29707121  1.0
  O  O16  1  0.65098944  -0.03318048  0.01104284  1.0
