# generated using pymatgen
data_Ba4Pb3O10
_symmetry_space_group_name_H-M   'P 1'
_cell_length_a   15.67143772
_cell_length_b   15.67143772
_cell_length_c   15.67143772
_cell_angle_alpha   163.93723863
_cell_angle_beta   163.93723863
_cell_angle_gamma   22.79183341
_symmetry_Int_Tables_number   1
_chemical_formula_structural   Ba4Pb3O10
_chemical_formula_sum   'Ba4 Pb3 O10'
_cell_volume   294.59666789
_cell_formula_units_Z   1
loop_
 _symmetry_equiv_pos_site_id
 _symmetry_equiv_pos_as_xyz
  1  'x, y, z'
loop_
 _atom_site_type_symbol
 _atom_site_label
 _atom_site_symmetry_multiplicity
 _atom_site_fract_x
 _atom_site_fract_y
 _atom_site_fract_z
 _atom_site_occupancy
  Ba  Ba0  1  0.70279295  0.70279295  1.00000000  1.0
  Ba  Ba1  1  0.29720705  0.29720705  0.00000000  1.0
  Ba  Ba2  1  0.56977879  0.56977879  1.00000000  1.0
  Ba  Ba3  1  0.43022121  0.43022121  0.00000000  1.0
  Pb  Pb4  1  0.85765267  0.85765267  1.00000000  1.0
  Pb  Pb5  1  0.14234733  0.14234733  0.00000000  1.0
  Pb  Pb6  1  0.00000000  0.00000000  0.00000000  1.0
  O  O7  1  0.35948181  0.85948181  0.50000000  1.0
  O  O8  1  0.64051819  0.14051819  0.50000000  1.0
  O  O9  1  0.85948181  0.35948181  0.50000000  1.0
  O  O10  1  0.14051819  0.64051819  0.50000000  1.0
  O  O11  1  0.92906855  0.92906855  1.00000000  1.0
  O  O12  1  0.07093145  0.07093145  0.00000000  1.0
  O  O13  1  0.78674598  0.78674598  1.00000000  1.0
  O  O14  1  0.21325402  0.21325402  0.00000000  1.0
  O  O15  1  0.50000000  0.00000000  0.50000000  1.0
  O  O16  1  0.00000000  0.50000000  0.50000000  1.0
