# generated using pymatgen
data_MoN2OF5
_symmetry_space_group_name_H-M   'P 1'
_cell_length_a   8.54367746
_cell_length_b   8.54367746
_cell_length_c   8.04752698
_cell_angle_alpha   90.00000000
_cell_angle_beta   90.00000000
_cell_angle_gamma   134.71378399
_symmetry_Int_Tables_number   1
_chemical_formula_structural   MoN2OF5
_chemical_formula_sum   'Mo2 N4 O2 F10'
_cell_volume   417.44168103
_cell_formula_units_Z   2
loop_
 _symmetry_equiv_pos_site_id
 _symmetry_equiv_pos_as_xyz
  1  'x, y, z'
loop_
 _atom_site_type_symbol
 _atom_site_label
 _atom_site_symmetry_multiplicity
 _atom_site_fract_x
 _atom_site_fract_y
 _atom_site_fract_z
 _atom_site_occupancy
  O  O0  1  -0.49992209  1.49992209  0.47102693  1.0
  O  O1  1  -0.50007791  0.50007791  0.97102693  1.0
  Mo  Mo2  1  -0.60546053  0.60546053  0.48400044  1.0
  Mo  Mo3  1  -0.39453947  1.39453947  0.98400044  1.0
  N  N4  1  -0.92687255  0.92687255  0.50671500  1.0
  N  N5  1  -0.07312745  1.07312745  0.00671500  1.0
  N  N6  1  -0.71897052  0.71897052  0.98754296  1.0
  N  N7  1  -0.28102948  1.28102948  0.48754296  1.0
  F  F8  1  -0.44816069  0.83401819  0.32993229  1.0
  F  F9  1  -0.16598181  1.55183931  0.82993229  1.0
  F  F10  1  0.16598181  1.44816069  0.32993229  1.0
  F  F11  1  -0.55183931  1.16598181  0.82993229  1.0
  F  F12  1  -0.56223078  1.17582925  0.14525847  1.0
  F  F13  1  0.17582925  1.43776922  0.64525847  1.0
  F  F14  1  -0.17582925  1.56223078  0.14525847  1.0
  F  F15  1  -0.43776922  0.82417075  0.64525847  1.0
  F  F16  1  -0.84472162  0.84472162  0.46743315  1.0
  F  F17  1  -0.15527838  1.15527838  0.96743315  1.0
