# generated using pymatgen
data_Zr2S
_symmetry_space_group_name_H-M   'P 1'
_cell_length_a   12.37094726
_cell_length_b   15.34003157
_cell_length_c   3.54107791
_cell_angle_alpha   90.00000000
_cell_angle_beta   90.00000000
_cell_angle_gamma   90.00000000
_symmetry_Int_Tables_number   1
_chemical_formula_structural   Zr2S
_chemical_formula_sum   'Zr24 S12'
_cell_volume   671.99290959
_cell_formula_units_Z   12
loop_
 _symmetry_equiv_pos_site_id
 _symmetry_equiv_pos_as_xyz
  1  'x, y, z'
loop_
 _atom_site_type_symbol
 _atom_site_label
 _atom_site_symmetry_multiplicity
 _atom_site_fract_x
 _atom_site_fract_y
 _atom_site_fract_z
 _atom_site_occupancy
  Zr  Zr0  1  0.07451137  0.75099371  0.50000000  1.0
  Zr  Zr1  1  0.57451137  0.74900629  0.00000000  1.0
  Zr  Zr2  1  0.92548863  0.24900629  0.50000000  1.0
  Zr  Zr3  1  0.42548863  0.25099371  0.00000000  1.0
  Zr  Zr4  1  0.87362901  0.58075280  0.50000000  1.0
  Zr  Zr5  1  0.37362901  0.91924720  0.00000000  1.0
  Zr  Zr6  1  0.12637099  0.41924720  0.50000000  1.0
  Zr  Zr7  1  0.62637099  0.08075280  0.00000000  1.0
  Zr  Zr8  1  0.79901150  0.79560777  0.50000000  1.0
  Zr  Zr9  1  0.29901150  0.70439223  0.00000000  1.0
  Zr  Zr10  1  0.20098850  0.20439223  0.50000000  1.0
  Zr  Zr11  1  0.70098850  0.29560777  0.00000000  1.0
  Zr  Zr12  1  0.46642690  0.60928952  0.50000000  1.0
  Zr  Zr13  1  0.96642690  0.89071048  0.00000000  1.0
  Zr  Zr14  1  0.53357310  0.39071048  0.50000000  1.0
  Zr  Zr15  1  0.03357310  0.10928952  0.00000000  1.0
  Zr  Zr16  1  0.41400501  0.08161445  0.50000000  1.0
  Zr  Zr17  1  0.91400501  0.41838555  0.00000000  1.0
  Zr  Zr18  1  0.58599499  0.91838555  0.50000000  1.0
  Zr  Zr19  1  0.08599499  0.58161445  0.00000000  1.0
  Zr  Zr20  1  0.15685822  0.97486338  0.50000000  1.0
  Zr  Zr21  1  0.65685822  0.52513662  0.00000000  1.0
  Zr  Zr22  1  0.84314178  0.02513662  0.50000000  1.0
  Zr  Zr23  1  0.34314178  0.47486338  0.00000000  1.0
  S  S24  1  0.68044581  0.65229256  0.50000000  1.0
  S  S25  1  0.18044581  0.84770744  0.00000000  1.0
  S  S26  1  0.31955419  0.34770744  0.50000000  1.0
  S  S27  1  0.81955419  0.15229256  0.00000000  1.0
  S  S28  1  0.42266144  0.79120675  0.50000000  1.0
  S  S29  1  0.92266144  0.70879325  0.00000000  1.0
  S  S30  1  0.57733856  0.20879325  0.50000000  1.0
  S  S31  1  0.07733856  0.29120675  0.00000000  1.0
  S  S32  1  0.24643512  0.57967476  0.50000000  1.0
  S  S33  1  0.74643512  0.92032524  0.00000000  1.0
  S  S34  1  0.75356488  0.42032524  0.50000000  1.0
  S  S35  1  0.25356488  0.07967476  0.00000000  1.0
