# generated using pymatgen
data_Ga5Re
_symmetry_space_group_name_H-M   'P 1'
_cell_length_a   6.87662704
_cell_length_b   6.87662704
_cell_length_c   9.39080482
_cell_angle_alpha   90.00000000
_cell_angle_beta   90.00000000
_cell_angle_gamma   94.93539274
_symmetry_Int_Tables_number   1
_chemical_formula_structural   Ga5Re
_chemical_formula_sum   'Ga20 Re4'
_cell_volume   442.42590536
_cell_formula_units_Z   4
loop_
 _symmetry_equiv_pos_site_id
 _symmetry_equiv_pos_as_xyz
  1  'x, y, z'
loop_
 _atom_site_type_symbol
 _atom_site_label
 _atom_site_symmetry_multiplicity
 _atom_site_fract_x
 _atom_site_fract_y
 _atom_site_fract_z
 _atom_site_occupancy
  Ga  Ga0  1  0.35780847  1.33213740  0.16165254  1.0
  Ga  Ga1  1  -0.14219153  0.83213740  0.33834746  1.0
  Ga  Ga2  1  0.33213740  1.35780847  0.83834746  1.0
  Ga  Ga3  1  -0.16786260  0.85780847  0.66165254  1.0
  Ga  Ga4  1  -0.33213740  0.64219153  0.16165254  1.0
  Ga  Ga5  1  0.16786260  1.14219153  0.33834746  1.0
  Ga  Ga6  1  -0.35780847  0.66786260  0.83834746  1.0
  Ga  Ga7  1  0.14219153  1.16786260  0.66165254  1.0
  Ga  Ga8  1  -0.40972963  1.40972963  0.41589055  1.0
  Ga  Ga9  1  0.09027037  0.90972963  0.08410945  1.0
  Ga  Ga10  1  0.40972963  0.59027037  0.58410945  1.0
  Ga  Ga11  1  -0.09027037  1.09027037  0.91589055  1.0
  Ga  Ga12  1  -0.21060743  1.21060743  0.21950271  1.0
  Ga  Ga13  1  0.28939257  0.71060743  0.28049729  1.0
  Ga  Ga14  1  0.21060743  0.78939257  0.78049729  1.0
  Ga  Ga15  1  -0.28939257  1.28939257  0.71950271  1.0
  Ga  Ga16  1  0.50000000  1.00000000  0.50000000  1.0
  Ga  Ga17  1  -0.00000000  1.50000000  0.00000000  1.0
  Ga  Ga18  1  -0.00000000  1.50000000  0.50000000  1.0
  Ga  Ga19  1  0.50000000  1.00000000  0.00000000  1.0
  Re  Re20  1  -0.15787329  1.15787329  0.48809898  1.0
  Re  Re21  1  0.34212671  0.65787329  0.01190102  1.0
  Re  Re22  1  0.15787329  0.84212671  0.51190102  1.0
  Re  Re23  1  -0.34212671  1.34212671  0.98809898  1.0
