# generated using pymatgen
data_Sr3Mo2O7
_symmetry_space_group_name_H-M   'P 1'
_cell_length_a   10.68055300
_cell_length_b   10.68055300
_cell_length_c   10.68055300
_cell_angle_alpha   158.44677723
_cell_angle_beta   158.44677723
_cell_angle_gamma   30.66618473
_symmetry_Int_Tables_number   1
_chemical_formula_structural   Sr3Mo2O7
_chemical_formula_sum   'Sr3 Mo2 O7'
_cell_volume   164.32074644
_cell_formula_units_Z   1
loop_
 _symmetry_equiv_pos_site_id
 _symmetry_equiv_pos_as_xyz
  1  'x, y, z'
loop_
 _atom_site_type_symbol
 _atom_site_label
 _atom_site_symmetry_multiplicity
 _atom_site_fract_x
 _atom_site_fract_y
 _atom_site_fract_z
 _atom_site_occupancy
  Sr  Sr0  1  0.68554649  0.68554649  1.00000000  1.0
  Sr  Sr1  1  0.31445351  0.31445351  -0.00000000  1.0
  Sr  Sr2  1  0.50000000  0.50000000  1.00000000  1.0
  Mo  Mo3  1  0.90364777  0.90364777  1.00000000  1.0
  Mo  Mo4  1  0.09635223  0.09635223  -0.00000000  1.0
  O  O5  1  0.40366227  0.90366227  0.50000000  1.0
  O  O6  1  0.59633773  0.09633773  0.50000000  1.0
  O  O7  1  0.90366227  0.40366227  0.50000000  1.0
  O  O8  1  0.09633773  0.59633773  0.50000000  1.0
  O  O9  1  0.80385840  0.80385840  1.00000000  1.0
  O  O10  1  0.19614160  0.19614160  -0.00000000  1.0
  O  O11  1  0.00000000  0.00000000  0.00000000  1.0
