# generated using pymatgen
data_Rb2P2Pt
_symmetry_space_group_name_H-M   'P 1'
_cell_length_a   7.95057747
_cell_length_b   7.95057747
_cell_length_c   6.25553771
_cell_angle_alpha   90.00000000
_cell_angle_beta   90.00000000
_cell_angle_gamma   130.70543670
_symmetry_Int_Tables_number   1
_chemical_formula_structural   Rb2P2Pt
_chemical_formula_sum   'Rb4 P4 Pt2'
_cell_volume   299.75933161
_cell_formula_units_Z   2
loop_
 _symmetry_equiv_pos_site_id
 _symmetry_equiv_pos_as_xyz
  1  'x, y, z'
loop_
 _atom_site_type_symbol
 _atom_site_label
 _atom_site_symmetry_multiplicity
 _atom_site_fract_x
 _atom_site_fract_y
 _atom_site_fract_z
 _atom_site_occupancy
  Rb  Rb0  1  -0.42223994  0.42223994  0.75000000  1.0
  Rb  Rb1  1  0.42223994  0.57776006  0.25000000  1.0
  Rb  Rb2  1  0.21226671  0.78773329  0.75000000  1.0
  Rb  Rb3  1  -0.21226671  0.21226671  0.25000000  1.0
  P  P4  1  0.06255927  0.26889613  0.75000000  1.0
  P  P5  1  0.26889613  1.06255927  0.25000000  1.0
  P  P6  1  0.73110387  0.93744073  0.75000000  1.0
  P  P7  1  -0.06255927  0.73110387  0.25000000  1.0
  Pt  Pt8  1  0.00000000  0.00000000  0.00000000  1.0
  Pt  Pt9  1  0.00000000  0.00000000  0.50000000  1.0
