# generated using pymatgen
data_CsGdSiS4
_symmetry_space_group_name_H-M   'P 1'
_cell_length_a   6.48181697
_cell_length_b   6.77335593
_cell_length_c   18.00354729
_cell_angle_alpha   90.00000000
_cell_angle_beta   90.00000000
_cell_angle_gamma   90.00000000
_symmetry_Int_Tables_number   1
_chemical_formula_structural   CsGdSiS4
_chemical_formula_sum   'Cs4 Gd4 Si4 S16'
_cell_volume   790.42150038
_cell_formula_units_Z   4
loop_
 _symmetry_equiv_pos_site_id
 _symmetry_equiv_pos_as_xyz
  1  'x, y, z'
loop_
 _atom_site_type_symbol
 _atom_site_label
 _atom_site_symmetry_multiplicity
 _atom_site_fract_x
 _atom_site_fract_y
 _atom_site_fract_z
 _atom_site_occupancy
  Cs  Cs0  1  0.48274511  0.49445179  0.53276873  1.0
  Cs  Cs1  1  -0.01725489  0.00554821  0.46723127  1.0
  Cs  Cs2  1  0.51725489  0.99445179  0.96723127  1.0
  Cs  Cs3  1  1.01725489  0.50554821  0.03276873  1.0
  Gd  Gd4  1  0.21019331  0.52415447  0.77200311  1.0
  Gd  Gd5  1  0.71019331  0.97584553  0.22799689  1.0
  Gd  Gd6  1  0.78980669  0.02415447  0.72799689  1.0
  Gd  Gd7  1  0.28980669  0.47584553  0.27200311  1.0
  Si  Si8  1  0.28965850  0.98402176  0.66887032  1.0
  Si  Si9  1  0.78965850  0.51597824  0.33112968  1.0
  Si  Si10  1  0.71034150  0.48402176  0.83112968  1.0
  Si  Si11  1  0.21034150  0.01597824  0.16887032  1.0
  S  S12  1  0.45023180  0.48903874  0.90234766  1.0
  S  S13  1  0.95023180  0.01096126  0.09765234  1.0
  S  S14  1  0.54976820  0.98903874  0.59765234  1.0
  S  S15  1  0.04976820  0.51096126  0.40234766  1.0
  S  S16  1  0.39279751  0.75258218  0.15755748  1.0
  S  S17  1  0.89279751  0.74741782  0.84244252  1.0
  S  S18  1  0.60720249  0.25258218  0.34244252  1.0
  S  S19  1  0.10720249  0.24741782  0.65755748  1.0
  S  S20  1  0.39201137  0.92526094  0.77941086  1.0
  S  S21  1  0.89201137  0.57473906  0.22058914  1.0
  S  S22  1  0.60798863  0.42526094  0.72058914  1.0
  S  S23  1  0.10798863  0.07473906  0.27941086  1.0
  S  S24  1  0.06906233  0.75552423  0.64716174  1.0
  S  S25  1  0.56906233  0.74447577  0.35283826  1.0
  S  S26  1  0.93093767  0.25552423  0.85283826  1.0
  S  S27  1  0.43093767  0.24447577  0.14716174  1.0
