# generated using pymatgen
data_Se3(NO6)2
_symmetry_space_group_name_H-M   'P 1'
_cell_length_a   8.23976823
_cell_length_b   8.23976823
_cell_length_c   12.54966474
_cell_angle_alpha   68.54188089
_cell_angle_beta   111.45811911
_cell_angle_gamma   131.96232928
_symmetry_Int_Tables_number   1
_chemical_formula_structural   Se3(NO6)2
_chemical_formula_sum   'Se6 N4 O24'
_cell_volume   580.53543667
_cell_formula_units_Z   2
loop_
 _symmetry_equiv_pos_site_id
 _symmetry_equiv_pos_as_xyz
  1  'x, y, z'
loop_
 _atom_site_type_symbol
 _atom_site_label
 _atom_site_symmetry_multiplicity
 _atom_site_fract_x
 _atom_site_fract_y
 _atom_site_fract_z
 _atom_site_occupancy
  Se  Se0  1  0.23806081  -0.01802559  0.46199957  1.0
  Se  Se1  1  1.01802559  0.76193919  0.96199957  1.0
  Se  Se2  1  0.98197441  -0.76193919  0.03800043  1.0
  Se  Se3  1  1.76193919  0.01802559  0.53800043  1.0
  Se  Se4  1  0.82957579  0.82957579  0.25000000  1.0
  Se  Se5  1  0.17042421  0.17042421  0.75000000  1.0
  N  N6  1  0.64109759  0.25219064  0.09455670  1.0
  N  N7  1  0.74780936  -0.64109759  0.59455670  1.0
  N  N8  1  1.25219064  0.64109759  0.40544330  1.0
  N  N9  1  1.35890241  -0.25219064  0.90544330  1.0
  O  O10  1  1.99180455  0.00857836  0.13686778  1.0
  O  O11  1  0.99142164  -0.99180455  0.63686778  1.0
  O  O12  1  1.00857836  0.99180455  0.36313222  1.0
  O  O13  1  0.00819545  -0.00857836  0.86313222  1.0
  O  O14  1  1.61284949  -0.18332752  0.21725394  1.0
  O  O15  1  1.18332752  -0.61284949  0.71725394  1.0
  O  O16  1  0.81667248  0.61284949  0.28274606  1.0
  O  O17  1  0.38715051  0.18332752  0.78274606  1.0
  O  O18  1  1.76984079  0.12390758  0.93565817  1.0
  O  O19  1  0.87609242  0.23015921  0.43565817  1.0
  O  O20  1  1.12390758  -0.23015921  0.56434183  1.0
  O  O21  1  0.23015921  -0.12390758  0.06434183  1.0
  O  O22  1  0.33490078  -0.03840133  0.37569150  1.0
  O  O23  1  1.03840133  0.66509922  0.87569150  1.0
  O  O24  1  0.96159867  -0.66509922  0.12430850  1.0
  O  O25  1  1.66509922  0.03840133  0.62430850  1.0
  O  O26  1  0.62004374  0.24560467  0.17829705  1.0
  O  O27  1  0.75439533  -0.62004374  0.67829705  1.0
  O  O28  1  1.24560467  0.62004374  0.32170295  1.0
  O  O29  1  1.37995626  -0.24560467  0.82170295  1.0
  O  O30  1  0.40002893  0.23099421  0.49419980  1.0
  O  O31  1  0.76900579  0.59997107  0.99419980  1.0
  O  O32  1  1.23099421  -0.59997107  0.00580020  1.0
  O  O33  1  1.59997107  -0.23099421  0.50580020  1.0
