# generated using pymatgen
data_Ba2Gd2Co4O11
_symmetry_space_group_name_H-M   'P 1'
_cell_length_a   3.63435638
_cell_length_b   7.89364169
_cell_length_c   8.12256373
_cell_angle_alpha   90.00000000
_cell_angle_beta   90.00000000
_cell_angle_gamma   90.00000000
_symmetry_Int_Tables_number   1
_chemical_formula_structural   Ba2Gd2Co4O11
_chemical_formula_sum   'Ba2 Gd2 Co4 O11'
_cell_volume   233.02260204
_cell_formula_units_Z   1
loop_
 _symmetry_equiv_pos_site_id
 _symmetry_equiv_pos_as_xyz
  1  'x, y, z'
loop_
 _atom_site_type_symbol
 _atom_site_label
 _atom_site_symmetry_multiplicity
 _atom_site_fract_x
 _atom_site_fract_y
 _atom_site_fract_z
 _atom_site_occupancy
  Ba  Ba0  1  0.50000000  0.50000000  0.75917307  1.0
  Ba  Ba1  1  0.50000000  0.50000000  0.24082693  1.0
  O  O2  1  0.00000000  0.78500416  0.74196734  1.0
  O  O3  1  0.00000000  0.78500416  0.25803266  1.0
  O  O4  1  0.00000000  0.21499584  0.74196734  1.0
  O  O5  1  0.00000000  0.21499584  0.25803266  1.0
  O  O6  1  0.50000000  0.71826601  0.50000000  1.0
  O  O7  1  0.50000000  0.28173399  0.50000000  1.0
  O  O8  1  0.50000000  0.77115972  -0.00000000  1.0
  O  O9  1  0.50000000  0.22884028  -0.00000000  1.0
  O  O10  1  0.00000000  0.00000000  0.50000000  1.0
  O  O11  1  0.00000000  0.50000000  0.00000000  1.0
  O  O12  1  0.00000000  0.00000000  0.00000000  1.0
  Co  Co13  1  0.00000000  0.75199289  0.00000000  1.0
  Co  Co14  1  0.00000000  0.24800711  0.00000000  1.0
  Co  Co15  1  0.00000000  0.76693005  0.50000000  1.0
  Co  Co16  1  0.00000000  0.23306995  0.50000000  1.0
  Gd  Gd17  1  0.50000000  0.00000000  0.77318970  1.0
  Gd  Gd18  1  0.50000000  0.00000000  0.22681030  1.0
