# generated using pymatgen
data_Zr6Ga16Ru7
_symmetry_space_group_name_H-M   'P 1'
_cell_length_a   8.77393115
_cell_length_b   8.77393115
_cell_length_c   8.77393115
_cell_angle_alpha   60.00000000
_cell_angle_beta   60.00000000
_cell_angle_gamma   60.00000000
_symmetry_Int_Tables_number   1
_chemical_formula_structural   Zr6Ga16Ru7
_chemical_formula_sum   'Zr6 Ga16 Ru7'
_cell_volume   477.60368387
_cell_formula_units_Z   1
loop_
 _symmetry_equiv_pos_site_id
 _symmetry_equiv_pos_as_xyz
  1  'x, y, z'
loop_
 _atom_site_type_symbol
 _atom_site_label
 _atom_site_symmetry_multiplicity
 _atom_site_fract_x
 _atom_site_fract_y
 _atom_site_fract_z
 _atom_site_occupancy
  Zr  Zr0  1  -0.71660329  0.71660329  0.71660329  1.0
  Zr  Zr1  1  -0.28339671  0.28339671  0.71660329  1.0
  Zr  Zr2  1  0.71660329  0.71660329  -0.71660329  1.0
  Zr  Zr3  1  0.28339671  1.28339671  -0.28339671  1.0
  Zr  Zr4  1  0.28339671  -0.28339671  1.28339671  1.0
  Zr  Zr5  1  -0.28339671  0.28339671  0.28339671  1.0
  Ga  Ga6  1  0.87654868  0.87654868  -0.12345132  1.0
  Ga  Ga7  1  1.12345132  0.12345132  0.62964605  1.0
  Ga  Ga8  1  1.12345132  0.62964605  0.12345132  1.0
  Ga  Ga9  1  0.37035395  0.87654868  -0.12345132  1.0
  Ga  Ga10  1  1.62964605  0.12345132  0.12345132  1.0
  Ga  Ga11  1  0.87654868  0.37035395  -0.12345132  1.0
  Ga  Ga12  1  0.87654868  0.87654868  -0.62964605  1.0
  Ga  Ga13  1  1.12345132  0.12345132  0.12345132  1.0
  Ga  Ga14  1  0.65492376  0.65492376  -0.34507624  1.0
  Ga  Ga15  1  1.34507624  0.34507624  -0.03522873  1.0
  Ga  Ga16  1  1.34507624  -0.03522873  0.34507624  1.0
  Ga  Ga17  1  1.03522873  0.65492376  -0.34507624  1.0
  Ga  Ga18  1  0.96477127  0.34507624  0.34507624  1.0
  Ga  Ga19  1  0.65492376  1.03522873  -0.34507624  1.0
  Ga  Ga20  1  0.65492376  0.65492376  0.03522873  1.0
  Ga  Ga21  1  1.34507624  0.34507624  0.34507624  1.0
  Ru  Ru22  1  0.00000000  0.00000000  0.00000000  1.0
  Ru  Ru23  1  1.50000000  -0.00000000  0.00000000  1.0
  Ru  Ru24  1  1.00000000  0.50000000  -0.50000000  1.0
  Ru  Ru25  1  -0.00000000  1.50000000  0.00000000  1.0
  Ru  Ru26  1  0.50000000  1.00000000  -0.50000000  1.0
  Ru  Ru27  1  0.00000000  -0.00000000  0.50000000  1.0
  Ru  Ru28  1  0.50000000  -0.50000000  1.00000000  1.0
