# generated using pymatgen
data_Cs2LiAl3F12
_symmetry_space_group_name_H-M   'P 1'
_cell_length_a   7.22730561
_cell_length_b   7.22730561
_cell_length_c   7.22730561
_cell_angle_alpha   58.83189914
_cell_angle_beta   58.83189914
_cell_angle_gamma   58.83189915
_symmetry_Int_Tables_number   1
_chemical_formula_structural   Cs2LiAl3F12
_chemical_formula_sum   'Cs2 Li1 Al3 F12'
_cell_volume   259.82082613
_cell_formula_units_Z   1
loop_
 _symmetry_equiv_pos_site_id
 _symmetry_equiv_pos_as_xyz
  1  'x, y, z'
loop_
 _atom_site_type_symbol
 _atom_site_label
 _atom_site_symmetry_multiplicity
 _atom_site_fract_x
 _atom_site_fract_y
 _atom_site_fract_z
 _atom_site_occupancy
  Cs  Cs0  1  0.87223878  0.87223878  0.87223878  1.0
  Cs  Cs1  1  1.12776122  1.12776122  0.12776122  1.0
  Li  Li2  1  1.50000000  0.50000000  0.50000000  1.0
  Al  Al3  1  0.50000000  0.00000000  -0.50000000  1.0
  Al  Al4  1  0.50000000  -0.50000000  -0.00000000  1.0
  Al  Al5  1  -0.00000000  0.50000000  -0.50000000  1.0
  F  F6  1  1.19342074  1.19342074  0.56950999  1.0
  F  F7  1  1.19342074  1.56950999  0.19342074  1.0
  F  F8  1  1.43049001  0.80657926  -0.19342074  1.0
  F  F9  1  0.80657926  1.43049001  -0.19342074  1.0
  F  F10  1  0.80657926  0.80657926  0.43049001  1.0
  F  F11  1  1.56950999  1.19342074  0.19342074  1.0
  F  F12  1  1.42868210  0.42868210  0.84888519  1.0
  F  F13  1  1.42868210  0.84888519  0.42868210  1.0
  F  F14  1  1.15111481  0.57131790  0.57131790  1.0
  F  F15  1  1.57131790  0.15111481  0.57131790  1.0
  F  F16  1  1.57131790  0.57131790  0.15111481  1.0
  F  F17  1  1.84888519  0.42868210  0.42868210  1.0
