# generated using pymatgen
data_KLi2As
_symmetry_space_group_name_H-M   'P 1'
_cell_length_a   4.46766478
_cell_length_b   6.68667827
_cell_length_c   6.36669915
_cell_angle_alpha   90.00000000
_cell_angle_beta   90.00000000
_cell_angle_gamma   90.00000000
_symmetry_Int_Tables_number   1
_chemical_formula_structural   KLi2As
_chemical_formula_sum   'K2 Li4 As2'
_cell_volume   190.19773270
_cell_formula_units_Z   2
loop_
 _symmetry_equiv_pos_site_id
 _symmetry_equiv_pos_as_xyz
  1  'x, y, z'
loop_
 _atom_site_type_symbol
 _atom_site_label
 _atom_site_symmetry_multiplicity
 _atom_site_fract_x
 _atom_site_fract_y
 _atom_site_fract_z
 _atom_site_occupancy
  K  K0  1  0.50000000  0.50000000  0.09639486  1.0
  K  K1  1  0.00000000  0.00000000  0.90360514  1.0
  Li  Li2  1  0.50000000  0.69551613  0.59443795  1.0
  Li  Li3  1  0.50000000  0.30448387  0.59443795  1.0
  Li  Li4  1  0.00000000  0.19551613  0.40556205  1.0
  Li  Li5  1  0.00000000  0.80448387  0.40556205  1.0
  As  As6  1  0.50000000  0.00000000  0.33760430  1.0
  As  As7  1  0.00000000  0.50000000  0.66239570  1.0
