# generated using pymatgen
data_Ti2(Co7B2)3
_symmetry_space_group_name_H-M   'P 1'
_cell_length_a   7.38779664
_cell_length_b   7.38779664
_cell_length_c   7.38779664
_cell_angle_alpha   60.00000000
_cell_angle_beta   60.00000000
_cell_angle_gamma   60.00000000
_symmetry_Int_Tables_number   1
_chemical_formula_structural   Ti2(Co7B2)3
_chemical_formula_sum   'Ti2 Co21 B6'
_cell_volume   285.12138979
_cell_formula_units_Z   1
loop_
 _symmetry_equiv_pos_site_id
 _symmetry_equiv_pos_as_xyz
  1  'x, y, z'
loop_
 _atom_site_type_symbol
 _atom_site_label
 _atom_site_symmetry_multiplicity
 _atom_site_fract_x
 _atom_site_fract_y
 _atom_site_fract_z
 _atom_site_occupancy
  Ti  Ti0  1  0.75000000  0.75000000  -0.25000000  1.0
  Ti  Ti1  1  1.25000000  0.25000000  0.25000000  1.0
  Co  Co2  1  1.66168404  0.00000000  -0.00000000  1.0
  Co  Co3  1  1.00000000  0.33831596  -0.33831596  1.0
  Co  Co4  1  1.00000000  0.66168404  -0.66168404  1.0
  Co  Co5  1  1.33831596  -0.00000000  0.00000000  1.0
  Co  Co6  1  0.00000000  1.66168404  -0.00000000  1.0
  Co  Co7  1  0.33831596  1.00000000  -0.33831596  1.0
  Co  Co8  1  -0.00000000  0.00000000  0.66168404  1.0
  Co  Co9  1  0.33831596  -0.33831596  1.00000000  1.0
  Co  Co10  1  0.66168404  1.00000000  -0.66168404  1.0
  Co  Co11  1  -0.00000000  1.33831596  0.00000000  1.0
  Co  Co12  1  0.66168404  -0.66168404  1.00000000  1.0
  Co  Co13  1  -0.00000000  -0.00000000  0.33831596  1.0
  Co  Co14  1  0.61755736  0.61755736  -0.38244264  1.0
  Co  Co15  1  0.38244264  1.38244264  -0.14732791  1.0
  Co  Co16  1  1.38244264  -0.14732791  0.38244264  1.0
  Co  Co17  1  1.14732791  0.61755736  0.61755736  1.0
  Co  Co18  1  -0.14732791  1.38244264  0.38244264  1.0
  Co  Co19  1  0.61755736  1.14732791  -0.38244264  1.0
  Co  Co20  1  0.61755736  0.61755736  1.14732791  1.0
  Co  Co21  1  1.38244264  0.38244264  0.38244264  1.0
  Co  Co22  1  -0.00000000  -0.00000000  0.00000000  1.0
  B  B23  1  -0.72509780  0.72509780  0.72509780  1.0
  B  B24  1  -0.27490220  0.27490220  0.72509780  1.0
  B  B25  1  0.72509780  0.72509780  -0.72509780  1.0
  B  B26  1  0.27490220  1.27490220  -0.27490220  1.0
  B  B27  1  0.27490220  -0.27490220  1.27490220  1.0
  B  B28  1  -0.27490220  0.27490220  0.27490220  1.0
