# generated using pymatgen
data_NiH4SeO5
_symmetry_space_group_name_H-M   'P 1'
_cell_length_a   6.48204087
_cell_length_b   8.80304514
_cell_length_c   9.18118721
_cell_angle_alpha   90.00000000
_cell_angle_beta   124.71749137
_cell_angle_gamma   90.00000000
_symmetry_Int_Tables_number   1
_chemical_formula_structural   NiH4SeO5
_chemical_formula_sum   'Ni4 H16 Se4 O20'
_cell_volume   430.62537360
_cell_formula_units_Z   4
loop_
 _symmetry_equiv_pos_site_id
 _symmetry_equiv_pos_as_xyz
  1  'x, y, z'
loop_
 _atom_site_type_symbol
 _atom_site_label
 _atom_site_symmetry_multiplicity
 _atom_site_fract_x
 _atom_site_fract_y
 _atom_site_fract_z
 _atom_site_occupancy
  O  O0  1  0.91146412  0.66959352  0.23588380  1.0
  O  O1  1  0.91146412  0.83040648  0.73588380  1.0
  O  O2  1  0.08853588  0.16959352  0.26411620  1.0
  O  O3  1  0.08853588  0.33040648  0.76411620  1.0
  O  O4  1  0.84815835  0.14157776  0.42689287  1.0
  O  O5  1  0.84815835  0.35842224  0.92689287  1.0
  O  O6  1  0.15184165  0.64157776  0.07310713  1.0
  O  O7  1  0.15184165  0.85842224  0.57310713  1.0
  O  O8  1  0.59371855  0.43753925  0.21149712  1.0
  O  O9  1  0.59371855  0.06246075  0.71149712  1.0
  O  O10  1  0.40628145  0.93753925  0.28850288  1.0
  O  O11  1  0.40628145  0.56246075  0.78850288  1.0
  O  O12  1  0.54193478  0.29461852  0.50031948  1.0
  O  O13  1  0.54193478  0.20538148  1.00031948  1.0
  O  O14  1  0.45806522  0.79461852  -0.00031948  1.0
  O  O15  1  0.45806522  0.70538148  0.49968052  1.0
  O  O16  1  0.86099646  0.90803315  0.03155398  1.0
  O  O17  1  0.86099646  0.59196685  0.53155398  1.0
  O  O18  1  0.13900354  0.40803315  0.46844602  1.0
  O  O19  1  0.13900354  0.09196685  0.96844602  1.0
  Ni  Ni20  1  0.83241390  0.36324865  0.48180943  1.0
  Ni  Ni21  1  0.83241390  0.13675135  0.98180943  1.0
  Ni  Ni22  1  0.16758610  0.86324865  0.01819057  1.0
  Ni  Ni23  1  0.16758610  0.63675135  0.51819057  1.0
  H  H24  1  0.92363283  0.13550550  0.35797064  1.0
  H  H25  1  0.92363283  0.36449450  0.85797064  1.0
  H  H26  1  0.07636717  0.63550550  0.14202936  1.0
  H  H27  1  0.07636717  0.86449450  0.64202936  1.0
  H  H28  1  0.69531289  0.07908774  0.36864641  1.0
  H  H29  1  0.69531289  0.42091226  0.86864641  1.0
  H  H30  1  0.30468711  0.57908774  0.13135359  1.0
  H  H31  1  0.30468711  0.92091226  0.63135359  1.0
  H  H32  1  0.69997443  0.51739237  0.20824045  1.0
  H  H33  1  0.69997443  -0.01739237  0.70824045  1.0
  H  H34  1  0.30002557  1.01739237  0.29175955  1.0
  H  H35  1  0.30002557  0.48260763  0.79175955  1.0
  H  H36  1  0.57240978  0.35381894  0.12926267  1.0
  H  H37  1  0.57240978  0.14618106  0.62926267  1.0
  H  H38  1  0.42759022  0.85381894  0.37073733  1.0
  H  H39  1  0.42759022  0.64618106  0.87073733  1.0
  Se  Se40  1  0.76239790  0.84528795  0.16330051  1.0
  Se  Se41  1  0.76239790  0.65471205  0.66330052  1.0
  Se  Se42  1  0.23760210  0.34528795  0.33669949  1.0
  Se  Se43  1  0.23760210  0.15471205  0.83669949  1.0
