# generated using pymatgen
data_Hf2Os
_symmetry_space_group_name_H-M   'P 1'
_cell_length_a   8.73054375
_cell_length_b   8.73054375
_cell_length_c   8.73054375
_cell_angle_alpha   60.00000000
_cell_angle_beta   60.00000000
_cell_angle_gamma   60.00000000
_symmetry_Int_Tables_number   1
_chemical_formula_structural   Hf2Os
_chemical_formula_sum   'Hf16 Os8'
_cell_volume   470.55336204
_cell_formula_units_Z   8
loop_
 _symmetry_equiv_pos_site_id
 _symmetry_equiv_pos_as_xyz
  1  'x, y, z'
loop_
 _atom_site_type_symbol
 _atom_site_label
 _atom_site_symmetry_multiplicity
 _atom_site_fract_x
 _atom_site_fract_y
 _atom_site_fract_z
 _atom_site_occupancy
  Hf  Hf0  1  1.12500000  0.62500000  0.62500000  1.0
  Hf  Hf1  1  0.62500000  1.12500000  -0.37500000  1.0
  Hf  Hf2  1  -0.37500000  0.62500000  1.12500000  1.0
  Hf  Hf3  1  -0.37500000  0.62500000  0.62500000  1.0
  Hf  Hf4  1  0.81070475  0.81070475  -0.81070475  1.0
  Hf  Hf5  1  0.18929525  1.18929525  -0.18929525  1.0
  Hf  Hf6  1  0.81070475  -0.81070475  0.81070475  1.0
  Hf  Hf7  1  0.18929525  -0.18929525  0.18929525  1.0
  Hf  Hf8  1  -0.81070475  0.81070475  0.81070475  1.0
  Hf  Hf9  1  -0.18929525  0.18929525  0.18929525  1.0
  Hf  Hf10  1  0.43929525  1.43929525  0.06070475  1.0
  Hf  Hf11  1  0.06070475  0.06070475  0.43929525  1.0
  Hf  Hf12  1  0.43929525  1.06070475  0.43929525  1.0
  Hf  Hf13  1  0.06070475  1.43929525  0.06070475  1.0
  Hf  Hf14  1  0.06070475  1.43929525  0.43929525  1.0
  Hf  Hf15  1  0.43929525  1.06070475  0.06070475  1.0
  Os  Os16  1  -0.23149303  0.41049768  0.41049768  1.0
  Os  Os17  1  0.41049768  -0.23149303  0.41049768  1.0
  Os  Os18  1  0.41049768  1.41049768  -0.23149303  1.0
  Os  Os19  1  0.41049768  1.41049768  0.41049768  1.0
  Os  Os20  1  0.48149303  0.83950232  -0.16049768  1.0
  Os  Os21  1  0.83950232  0.48149303  0.83950232  1.0
  Os  Os22  1  0.83950232  0.83950232  -0.51850697  1.0
  Os  Os23  1  0.83950232  0.83950232  0.83950232  1.0
