# generated using pymatgen
data_H8NF5
_symmetry_space_group_name_H-M   'P 1'
_cell_length_a   8.50830574
_cell_length_b   8.50830574
_cell_length_c   8.50830574
_cell_angle_alpha   136.03110433
_cell_angle_beta   136.03110433
_cell_angle_gamma   63.93225111
_symmetry_Int_Tables_number   1
_chemical_formula_structural   H8NF5
_chemical_formula_sum   'H16 N2 F10'
_cell_volume   292.91198267
_cell_formula_units_Z   2
loop_
 _symmetry_equiv_pos_site_id
 _symmetry_equiv_pos_as_xyz
  1  'x, y, z'
loop_
 _atom_site_type_symbol
 _atom_site_label
 _atom_site_symmetry_multiplicity
 _atom_site_fract_x
 _atom_site_fract_y
 _atom_site_fract_z
 _atom_site_occupancy
  H  H0  1  0.30960841  0.54196519  0.46902277  1.0
  H  H1  1  1.07294241  0.84058564  1.53097723  1.0
  H  H2  1  0.59058564  0.55960841  0.26764323  1.0
  H  H3  1  1.29196519  1.32294241  1.73235677  1.0
  H  H4  1  1.44039159  0.70803481  1.03097723  1.0
  H  H5  1  0.67705759  1.40941436  0.96902277  1.0
  H  H6  1  1.15941436  0.69039159  1.23235677  1.0
  H  H7  1  0.45803481  0.92705759  0.76764323  1.0
  H  H8  1  0.80908795  1.12121918  1.51225116  1.0
  H  H9  1  0.60896803  0.29683679  0.48774884  1.0
  H  H10  1  1.04683679  1.05908795  1.18786876  1.0
  H  H11  1  0.87121918  0.85896803  0.81213124  1.0
  H  H12  1  0.94091205  1.12878082  0.98774884  1.0
  H  H13  1  1.14103197  0.95316321  1.01225116  1.0
  H  H14  1  0.70316321  1.19091205  1.31213124  1.0
  H  H15  1  0.87878082  0.39103197  0.68786876  1.0
  N  N16  1  0.75000000  0.25000000  0.50000000  1.0
  N  N17  1  1.00000000  1.00000000  1.00000000  1.0
  F  F18  1  0.25000000  0.75000000  0.50000000  1.0
  F  F19  1  0.50000000  0.50000000  -0.00000000  1.0
  F  F20  1  0.35107697  0.40297130  0.44758983  1.0
  F  F21  1  0.95538147  0.90348714  1.55241017  1.0
  F  F22  1  0.65348714  0.60107697  0.44810567  1.0
  F  F23  1  1.15297130  1.20538147  1.55189433  1.0
  F  F24  1  1.39892303  0.84702870  1.05241017  1.0
  F  F25  1  0.79461853  1.34651286  0.94758983  1.0
  F  F26  1  1.09651286  0.64892303  1.05189433  1.0
  F  F27  1  0.59702870  1.04461853  0.94810567  1.0
