# generated using pymatgen
data_Na3Ru
_symmetry_space_group_name_H-M   'P 1'
_cell_length_a   9.35214754
_cell_length_b   9.35214754
_cell_length_c   4.89118278
_cell_angle_alpha   90.00000000
_cell_angle_beta   90.00000000
_cell_angle_gamma   90.00000000
_symmetry_Int_Tables_number   1
_chemical_formula_structural   Na3Ru
_chemical_formula_sum   'Na12 Ru4'
_cell_volume   427.79587412
_cell_formula_units_Z   4
loop_
 _symmetry_equiv_pos_site_id
 _symmetry_equiv_pos_as_xyz
  1  'x, y, z'
loop_
 _atom_site_type_symbol
 _atom_site_label
 _atom_site_symmetry_multiplicity
 _atom_site_fract_x
 _atom_site_fract_y
 _atom_site_fract_z
 _atom_site_occupancy
  Na  Na0  1  0.96417951  0.69581171  0.50000000  1.0
  Na  Na1  1  0.03582049  0.30418829  0.50000000  1.0
  Na  Na2  1  0.53582049  0.19581171  0.00000000  1.0
  Na  Na3  1  0.46417951  0.80418829  0.00000000  1.0
  Na  Na4  1  0.69581171  0.96417951  0.50000000  1.0
  Na  Na5  1  0.30418829  0.03582049  0.50000000  1.0
  Na  Na6  1  0.19581171  0.53582049  0.00000000  1.0
  Na  Na7  1  0.80418829  0.46417951  0.00000000  1.0
  Na  Na8  1  0.37925269  0.37925269  0.50000000  1.0
  Na  Na9  1  0.62074731  0.62074731  0.50000000  1.0
  Na  Na10  1  0.12074731  0.87925269  0.00000000  1.0
  Na  Na11  1  0.87925269  0.12074731  0.00000000  1.0
  Ru  Ru12  1  0.29036282  0.70963718  0.50000000  1.0
  Ru  Ru13  1  0.70963718  0.29036282  0.50000000  1.0
  Ru  Ru14  1  0.20963718  0.20963718  0.00000000  1.0
  Ru  Ru15  1  0.79036282  0.79036282  0.00000000  1.0
