# generated using pymatgen
data_Al2ZnTe4
_symmetry_space_group_name_H-M   'P 1'
_cell_length_a   5.97333193
_cell_length_b   5.97333193
_cell_length_c   6.14979886
_cell_angle_alpha   90.00000000
_cell_angle_beta   90.00000000
_cell_angle_gamma   90.00000000
_symmetry_Int_Tables_number   1
_chemical_formula_structural   Al2ZnTe4
_chemical_formula_sum   'Al2 Zn1 Te4'
_cell_volume   219.42909386
_cell_formula_units_Z   1
loop_
 _symmetry_equiv_pos_site_id
 _symmetry_equiv_pos_as_xyz
  1  'x, y, z'
loop_
 _atom_site_type_symbol
 _atom_site_label
 _atom_site_symmetry_multiplicity
 _atom_site_fract_x
 _atom_site_fract_y
 _atom_site_fract_z
 _atom_site_occupancy
  Al  Al0  1  0.00000000  0.50000000  0.50000000  1.0
  Al  Al1  1  0.50000000  0.00000000  0.50000000  1.0
  Zn  Zn2  1  0.00000000  0.00000000  0.00000000  1.0
  Te  Te3  1  0.26804210  0.73195790  0.23590508  1.0
  Te  Te4  1  0.73195790  0.73195790  0.76409492  1.0
  Te  Te5  1  0.26804210  0.26804210  0.76409492  1.0
  Te  Te6  1  0.73195790  0.26804210  0.23590508  1.0
