# generated using pymatgen
data_La3TiSb5
_symmetry_space_group_name_H-M   'P 1'
_cell_length_a   9.56439687
_cell_length_b   9.56439687
_cell_length_c   6.37012569
_cell_angle_alpha   90.00000000
_cell_angle_beta   90.00000000
_cell_angle_gamma   120.00000000
_symmetry_Int_Tables_number   1
_chemical_formula_structural   La3TiSb5
_chemical_formula_sum   'La6 Ti2 Sb10'
_cell_volume   504.65410546
_cell_formula_units_Z   2
loop_
 _symmetry_equiv_pos_site_id
 _symmetry_equiv_pos_as_xyz
  1  'x, y, z'
loop_
 _atom_site_type_symbol
 _atom_site_label
 _atom_site_symmetry_multiplicity
 _atom_site_fract_x
 _atom_site_fract_y
 _atom_site_fract_z
 _atom_site_occupancy
  La  La0  1  0.38281965  0.38281965  0.25000000  1.0
  La  La1  1  0.38281965  0.00000000  0.75000000  1.0
  La  La2  1  0.00000000  0.38281965  0.75000000  1.0
  La  La3  1  0.00000000  0.61718035  0.25000000  1.0
  La  La4  1  0.61718035  0.61718035  0.75000000  1.0
  La  La5  1  0.61718035  0.00000000  0.25000000  1.0
  Ti  Ti6  1  0.00000000  0.00000000  0.50000000  1.0
  Ti  Ti7  1  0.00000000  0.00000000  0.00000000  1.0
  Sb  Sb8  1  0.75080104  0.75080104  0.25000000  1.0
  Sb  Sb9  1  0.75080104  0.00000000  0.75000000  1.0
  Sb  Sb10  1  0.00000000  0.75080104  0.75000000  1.0
  Sb  Sb11  1  0.00000000  0.24919896  0.25000000  1.0
  Sb  Sb12  1  0.24919896  0.24919896  0.75000000  1.0
  Sb  Sb13  1  0.24919896  0.00000000  0.25000000  1.0
  Sb  Sb14  1  0.33333333  0.66666667  0.50000000  1.0
  Sb  Sb15  1  0.33333333  0.66666667  0.00000000  1.0
  Sb  Sb16  1  0.66666667  0.33333333  0.50000000  1.0
  Sb  Sb17  1  0.66666667  0.33333333  0.00000000  1.0
