# generated using pymatgen
data_Sr2Cu(SeO3)3
_symmetry_space_group_name_H-M   'P 1'
_cell_length_a   7.91985733
_cell_length_b   7.30783147
_cell_length_c   8.76970106
_cell_angle_alpha   105.30659246
_cell_angle_beta   102.16673361
_cell_angle_gamma   96.85865501
_symmetry_Int_Tables_number   1
_chemical_formula_structural   Sr2Cu(SeO3)3
_chemical_formula_sum   'Sr4 Cu2 Se6 O18'
_cell_volume   470.24201701
_cell_formula_units_Z   2
loop_
 _symmetry_equiv_pos_site_id
 _symmetry_equiv_pos_as_xyz
  1  'x, y, z'
loop_
 _atom_site_type_symbol
 _atom_site_label
 _atom_site_symmetry_multiplicity
 _atom_site_fract_x
 _atom_site_fract_y
 _atom_site_fract_z
 _atom_site_occupancy
  Sr  Sr0  1  -0.90830211  -0.75943836  -0.10984947  1.0
  Sr  Sr1  1  -0.09169789  -0.24056164  -0.89015053  1.0
  Sr  Sr2  1  -0.51483113  -0.37515109  -0.69347454  1.0
  Sr  Sr3  1  -0.48516887  -0.62484891  -0.30652546  1.0
  Cu  Cu4  1  -0.66103280  -0.91441484  -0.75229756  1.0
  Cu  Cu5  1  -0.33896720  -0.08558516  -0.24770244  1.0
  Se  Se6  1  -0.20291162  -0.89810108  -0.52849129  1.0
  Se  Se7  1  -0.79708838  -0.10189892  -0.47150871  1.0
  Se  Se8  1  -0.36960734  -0.77237098  -0.91301940  1.0
  Se  Se9  1  -0.63039266  -0.22762902  -0.08698060  1.0
  Se  Se10  1  -0.91824692  -0.63403634  -0.70655252  1.0
  Se  Se11  1  -0.08175308  -0.36596366  -0.29344748  1.0
  O  O12  1  -0.75298286  -0.87618989  -0.33597321  1.0
  O  O13  1  -0.24701714  -0.12381011  -0.66402679  1.0
  O  O14  1  -0.99856575  -0.84684572  -0.85940498  1.0
  O  O15  1  -0.00143425  -0.15315428  -0.14059502  1.0
  O  O16  1  -0.39753468  -0.81593629  -0.55507413  1.0
  O  O17  1  -0.60246532  -0.18406371  -0.44492587  1.0
  O  O18  1  -0.59166588  -0.77430389  -0.90706833  1.0
  O  O19  1  -0.40833412  -0.22569611  -0.09293167  1.0
  O  O20  1  -0.70377552  -0.66136941  -0.62029128  1.0
  O  O21  1  -0.29622448  -0.33863059  -0.37970872  1.0
  O  O22  1  -0.29722795  -0.52832801  -0.85217672  1.0
  O  O23  1  -0.70277205  -0.47167199  -0.14782328  1.0
  O  O24  1  -0.86951130  -0.48432501  -0.81979447  1.0
  O  O25  1  -0.13048870  -0.51567499  -0.18020553  1.0
  O  O26  1  -0.61281251  -0.16474860  -0.87793311  1.0
  O  O27  1  -0.38718749  -0.83525140  -0.12206689  1.0
  O  O28  1  -0.81966661  -0.05968903  -0.66042337  1.0
  O  O29  1  -0.18033339  -0.94031097  -0.33957663  1.0
