# generated using pymatgen
data_Nb2P4O15
_symmetry_space_group_name_H-M   'P 1'
_cell_length_a   8.51912161
_cell_length_b   6.76152692
_cell_length_c   11.21673970
_cell_angle_alpha   90.01555056
_cell_angle_beta   105.54588696
_cell_angle_gamma   89.99019416
_symmetry_Int_Tables_number   1
_chemical_formula_structural   Nb2P4O15
_chemical_formula_sum   'Nb4 P8 O30'
_cell_volume   622.47244396
_cell_formula_units_Z   2
loop_
 _symmetry_equiv_pos_site_id
 _symmetry_equiv_pos_as_xyz
  1  'x, y, z'
loop_
 _atom_site_type_symbol
 _atom_site_label
 _atom_site_symmetry_multiplicity
 _atom_site_fract_x
 _atom_site_fract_y
 _atom_site_fract_z
 _atom_site_occupancy
  Nb  Nb0  1  0.62451053  0.25318591  -0.22461290  1.0
  Nb  Nb1  1  0.63586356  0.27027389  -0.72657602  1.0
  Nb  Nb2  1  0.04556113  0.75339072  -0.42528216  1.0
  Nb  Nb3  1  0.03438779  0.77046313  -0.92304488  1.0
  P  P4  1  0.02197849  0.06753668  -0.67085736  1.0
  P  P5  1  0.25213769  0.12929524  -0.18710916  1.0
  P  P6  1  0.25007921  0.38948541  -0.70501126  1.0
  P  P7  1  0.01266692  0.45212482  -0.17808285  1.0
  P  P8  1  0.64823407  0.56754628  -0.97876493  1.0
  P  P9  1  0.41796553  0.62925716  -0.46260261  1.0
  P  P10  1  0.42012963  0.88956253  -0.94479499  1.0
  P  P11  1  0.65742095  0.95197901  -0.47185983  1.0
  O  O12  1  0.49491365  0.71622841  -0.00964078  1.0
  O  O13  1  -0.00670361  -0.02301327  -0.01305277  1.0
  O  O14  1  0.13816269  -0.00913722  -0.27136549  1.0
  O  O15  1  0.02949787  -0.01385683  -0.54231145  1.0
  O  O16  1  0.54639707  -0.00433005  -0.84821235  1.0
  O  O17  1  0.34784903  0.03108142  -0.05934915  1.0
  O  O18  1  0.61314239  0.07988147  -0.37297216  1.0
  O  O19  1  0.66875646  0.07083969  -0.11600173  1.0
  O  O20  1  0.65507138  0.06886594  -0.58855474  1.0
  O  O21  1  0.86622860  0.18362438  -0.72766995  1.0
  O  O22  1  0.37783549  0.23271467  -0.24123716  1.0
  O  O23  1  0.17528076  0.21617444  -0.64024860  1.0
  O  O24  1  0.16088457  0.29880243  -0.13159568  1.0
  O  O25  1  0.38911411  0.29431291  -0.74704644  1.0
  O  O26  1  0.85508553  0.33674533  -0.22932981  1.0
  O  O27  1  0.61452623  0.40835019  -0.89140413  1.0
  O  O28  1  0.67691946  0.47612844  -0.63588999  1.0
  O  O29  1  0.64067321  0.48539685  -0.10714678  1.0
  O  O30  1  0.53189373  0.49098838  -0.37821321  1.0
  O  O31  1  0.05675618  0.57922059  -0.27735908  1.0
  O  O32  1  0.12393463  0.49565399  -0.80163900  1.0
  O  O33  1  0.32233971  0.53087847  -0.59034900  1.0
  O  O34  1  1.00129217  0.57176001  -0.53441560  1.0
  O  O35  1  0.01512465  0.56987253  -0.06163937  1.0
  O  O36  1  0.80402118  0.68367721  -0.92218102  1.0
  O  O37  1  0.29221593  0.73283888  -0.40855394  1.0
  O  O38  1  0.50924682  0.79860090  -0.51812347  1.0
  O  O39  1  0.28112487  0.79446262  -0.90273309  1.0
  O  O40  1  0.81503562  0.83680370  -0.42027467  1.0
  O  O41  1  0.05574412  0.90773274  -0.75789043  1.0
