# generated using pymatgen
data_C11F7
_symmetry_space_group_name_H-M   'P 1'
_cell_length_a   6.27341900
_cell_length_b   6.27341900
_cell_length_c   14.30702600
_cell_angle_alpha   87.54570449
_cell_angle_beta   92.45429551
_cell_angle_gamma   97.44717565
_symmetry_Int_Tables_number   1
_chemical_formula_structural   C11F7
_chemical_formula_sum   'C22 F14'
_cell_volume   557.40760207
_cell_formula_units_Z   2
loop_
 _symmetry_equiv_pos_site_id
 _symmetry_equiv_pos_as_xyz
  1  'x, y, z'
loop_
 _atom_site_type_symbol
 _atom_site_label
 _atom_site_symmetry_multiplicity
 _atom_site_fract_x
 _atom_site_fract_y
 _atom_site_fract_z
 _atom_site_occupancy
  C  C0  1  1.79142905  -0.08401505  0.35912276  1.0
  C  C1  1  1.08401505  -0.79142905  0.35912276  1.0
  C  C2  1  0.91598495  0.79142905  0.64087724  1.0
  C  C3  1  0.20857095  0.08401505  0.64087724  1.0
  C  C4  1  0.40545797  0.30411319  0.96678933  1.0
  C  C5  1  0.69588681  0.59454203  0.96678933  1.0
  C  C6  1  1.30411319  -0.59454203  0.03321067  1.0
  C  C7  1  1.59454203  -0.30411319  0.03321067  1.0
  C  C8  1  0.90239037  0.09760963  0.73990137  1.0
  C  C9  1  1.09760963  -0.09760963  0.26009863  1.0
  C  C10  1  1.81230508  -0.10270972  0.70544144  1.0
  C  C11  1  1.10270972  -0.81230508  0.70544144  1.0
  C  C12  1  0.89729028  0.81230508  0.29455856  1.0
  C  C13  1  0.18769492  0.10270972  0.29455856  1.0
  C  C14  1  0.88487184  0.11512816  0.39129584  1.0
  C  C15  1  1.11512816  -0.11512816  0.60870416  1.0
  C  C16  1  0.79755426  0.20244574  0.80613417  1.0
  C  C17  1  1.20244574  -0.20244574  0.19386583  1.0
  C  C18  1  0.70773624  0.29226376  0.86411721  1.0
  C  C19  1  1.29226376  -0.29226376  0.13588279  1.0
  C  C20  1  0.60468105  0.39531895  0.93138356  1.0
  C  C21  1  1.39531895  -0.39531895  0.06861644  1.0
  F  F22  1  1.62050042  -0.19546205  0.73563614  1.0
  F  F23  1  1.19546205  -0.62050042  0.73563614  1.0
  F  F24  1  0.80453795  0.62050042  0.26436386  1.0
  F  F25  1  0.37949958  0.19546205  0.26436386  1.0
  F  F26  1  0.39980132  0.17350473  0.60908940  1.0
  F  F27  1  0.82649527  0.60019868  0.60908940  1.0
  F  F28  1  1.17350473  -0.60019868  0.39091060  1.0
  F  F29  1  1.60019868  -0.17350473  0.39091060  1.0
  F  F30  1  0.31140508  0.11379339  0.93523516  1.0
  F  F31  1  0.88620661  0.68859492  0.93523516  1.0
  F  F32  1  1.11379339  -0.68859492  0.06476484  1.0
  F  F33  1  1.68859492  -0.11379339  0.06476484  1.0
  F  F34  1  0.78339729  0.21660271  0.45350479  1.0
  F  F35  1  1.21660271  -0.21660271  0.54649521  1.0
