# generated using pymatgen
data_TaP4(S2Cl)5
_symmetry_space_group_name_H-M   'P 1'
_cell_length_a   12.60288302
_cell_length_b   12.07840899
_cell_length_c   10.43800663
_cell_angle_alpha   67.02176880
_cell_angle_beta   67.18230843
_cell_angle_gamma   70.02447413
_symmetry_Int_Tables_number   1
_chemical_formula_structural   TaP4(S2Cl)5
_chemical_formula_sum   'Ta2 P8 S20 Cl10'
_cell_volume   1314.03792647
_cell_formula_units_Z   2
loop_
 _symmetry_equiv_pos_site_id
 _symmetry_equiv_pos_as_xyz
  1  'x, y, z'
loop_
 _atom_site_type_symbol
 _atom_site_label
 _atom_site_symmetry_multiplicity
 _atom_site_fract_x
 _atom_site_fract_y
 _atom_site_fract_z
 _atom_site_occupancy
  Ta  Ta0  1  -0.34982827  -0.62913674  -0.52927150  1.0
  Ta  Ta1  1  -0.65017173  -0.37086326  -0.47072850  1.0
  P  P2  1  -0.57073480  -0.77804583  -0.86079446  1.0
  P  P3  1  -0.42926520  -0.22195417  -0.13920554  1.0
  P  P4  1  -0.83382418  -0.84456277  -0.80908157  1.0
  P  P5  1  -0.16617582  -0.15543723  -0.19091843  1.0
  P  P6  1  -0.83395852  -0.56010642  -0.80022210  1.0
  P  P7  1  -0.16604148  -0.43989358  -0.19977790  1.0
  P  P8  1  -0.77771137  -0.82389827  -0.51902240  1.0
  P  P9  1  -0.22228863  -0.17610173  -0.48097760  1.0
  S  S10  1  -0.59591317  -0.19781532  -1.03750236  1.0
  S  S11  1  -0.40408683  -0.80218468  0.03750236  1.0
  S  S12  1  -0.65059699  -0.87053639  -0.92236218  1.0
  S  S13  1  -0.34940301  -0.12946361  -0.07763782  1.0
  S  S14  1  -0.65063184  -0.58660161  -0.91356271  1.0
  S  S15  1  -0.34936816  -0.41339839  -0.08643729  1.0
  S  S16  1  -0.91348575  -0.65311492  -0.86150001  1.0
  S  S17  1  -0.08651425  -0.34688508  -0.13849999  1.0
  S  S18  1  -0.90721917  -0.92885232  -0.86345731  1.0
  S  S19  1  -0.09278083  -0.07114768  -0.13654269  1.0
  S  S20  1  -0.90685613  -0.38635740  -0.84823770  1.0
  S  S21  1  -0.09314387  -0.61364260  -0.15176230  1.0
  S  S22  1  -0.59460773  -0.85001511  -0.63299440  1.0
  S  S23  1  -0.40539227  -0.14998489  -0.36700560  1.0
  S  S24  1  -0.85732382  -0.91631469  -0.58128570  1.0
  S  S25  1  -0.14267618  -0.08368531  -0.41871430  1.0
  S  S26  1  -0.85720124  -0.63235763  -0.57267055  1.0
  S  S27  1  -0.14279876  -0.36764237  -0.42732945  1.0
  S  S28  1  -0.79884303  -0.88970363  -0.31233391  1.0
  S  S29  1  -0.20115697  -0.11029637  -0.68766609  1.0
  Cl  Cl30  1  -0.26785383  -0.73141838  -0.69959788  1.0
  Cl  Cl31  1  -0.73214617  -0.26858162  -0.30040212  1.0
  Cl  Cl32  1  -0.52327450  -0.50902791  -0.63680990  1.0
  Cl  Cl33  1  -0.47672550  -0.49097209  -0.36319010  1.0
  Cl  Cl34  1  -0.78267153  -0.28883585  -0.60047464  1.0
  Cl  Cl35  1  -0.21732847  -0.71116415  -0.39952536  1.0
  Cl  Cl36  1  -0.46903457  -0.76712834  -0.37161398  1.0
  Cl  Cl37  1  -0.53096543  -0.23287166  -0.62838602  1.0
  Cl  Cl38  1  -0.73638525  -0.53716636  -0.31952329  1.0
  Cl  Cl39  1  -0.26361475  -0.46283364  -0.68047671  1.0
