# generated using pymatgen
data_La(AuF4)3
_symmetry_space_group_name_H-M   'P 1'
_cell_length_a   8.36062008
_cell_length_b   8.36062008
_cell_length_c   8.36062008
_cell_angle_alpha   79.85246647
_cell_angle_beta   79.85246647
_cell_angle_gamma   79.85246647
_symmetry_Int_Tables_number   1
_chemical_formula_structural   La(AuF4)3
_chemical_formula_sum   'La2 Au6 F24'
_cell_volume   559.87780353
_cell_formula_units_Z   2
loop_
 _symmetry_equiv_pos_site_id
 _symmetry_equiv_pos_as_xyz
  1  'x, y, z'
loop_
 _atom_site_type_symbol
 _atom_site_label
 _atom_site_symmetry_multiplicity
 _atom_site_fract_x
 _atom_site_fract_y
 _atom_site_fract_z
 _atom_site_occupancy
  La  La0  1  1.25000000  1.25000000  0.25000000  1.0
  La  La1  1  0.75000000  0.75000000  -0.25000000  1.0
  Au  Au2  1  0.83904843  0.25000000  -0.33904843  1.0
  Au  Au3  1  0.33904843  0.16095157  -0.25000000  1.0
  Au  Au4  1  0.75000000  0.33904843  -0.83904843  1.0
  Au  Au5  1  0.25000000  0.66095157  -0.16095157  1.0
  Au  Au6  1  0.16095157  0.75000000  -0.66095157  1.0
  Au  Au7  1  0.66095157  -0.16095157  0.25000000  1.0
  F  F8  1  0.19387337  0.51034675  -0.62878527  1.0
  F  F9  1  0.69387337  -0.12878527  0.01034675  1.0
  F  F10  1  1.12878527  -0.01034675  -0.69387337  1.0
  F  F11  1  0.62878527  0.80612663  -0.51034675  1.0
  F  F12  1  0.48965325  0.62878527  -0.19387337  1.0
  F  F13  1  0.98965325  -0.69387337  0.12878527  1.0
  F  F14  1  0.80612663  0.48965325  -0.37121473  1.0
  F  F15  1  0.30612663  0.12878527  -0.01034675  1.0
  F  F16  1  0.37121473  0.19387337  -0.48965325  1.0
  F  F17  1  0.87121473  0.01034675  -0.30612663  1.0
  F  F18  1  1.01034675  -0.30612663  -0.12878527  1.0
  F  F19  1  0.51034675  0.37121473  -0.80612663  1.0
  F  F20  1  1.02291019  1.25000000  0.47708981  1.0
  F  F21  1  0.52291019  0.97708981  -0.25000000  1.0
  F  F22  1  0.75000000  0.52291019  -0.02291019  1.0
  F  F23  1  1.25000000  1.47708981  0.02291019  1.0
  F  F24  1  0.97708981  0.75000000  -0.47708981  1.0
  F  F25  1  1.47708981  1.02291019  0.25000000  1.0
  F  F26  1  0.66025928  0.25000000  -0.16025928  1.0
  F  F27  1  0.16025928  0.33974072  -0.25000000  1.0
  F  F28  1  0.75000000  0.16025928  -0.66025928  1.0
  F  F29  1  0.25000000  0.83974072  -0.33974072  1.0
  F  F30  1  0.33974072  0.75000000  -0.83974072  1.0
  F  F31  1  0.83974072  -0.33974072  0.25000000  1.0
