# generated using pymatgen
data_La4PdO7
_symmetry_space_group_name_H-M   'P 1'
_cell_length_a   7.01890180
_cell_length_b   7.01890180
_cell_length_c   9.44258731
_cell_angle_alpha   49.31023989
_cell_angle_beta   130.68976011
_cell_angle_gamma   146.13698513
_symmetry_Int_Tables_number   1
_chemical_formula_structural   La4PdO7
_chemical_formula_sum   'La4 Pd1 O7'
_cell_volume   189.69189231
_cell_formula_units_Z   1
loop_
 _symmetry_equiv_pos_site_id
 _symmetry_equiv_pos_as_xyz
  1  'x, y, z'
loop_
 _atom_site_type_symbol
 _atom_site_label
 _atom_site_symmetry_multiplicity
 _atom_site_fract_x
 _atom_site_fract_y
 _atom_site_fract_z
 _atom_site_occupancy
  La  La0  1  0.91559963  -0.91559963  0.61207967  1.0
  La  La1  1  0.08440037  -0.08440037  0.38792033  1.0
  La  La2  1  0.75067727  0.24932273  0.84011147  1.0
  La  La3  1  1.24932273  -0.24932273  0.15988853  1.0
  Pd  Pd4  1  0.50000000  0.50000000  0.00000000  1.0
  O  O5  1  0.86845890  -0.86845890  0.30731220  1.0
  O  O6  1  0.13154110  -0.13154110  0.69268780  1.0
  O  O7  1  0.70237256  0.29762744  0.55250485  1.0
  O  O8  1  1.29762744  -0.29762744  0.44749515  1.0
  O  O9  1  0.59030727  0.40969273  0.89201455  1.0
  O  O10  1  1.40969273  -0.40969273  0.10798545  1.0
  O  O11  1  0.00000000  0.00000000  0.00000000  1.0
