# generated using pymatgen
data_SiIr2
_symmetry_space_group_name_H-M   'P 1'
_cell_length_a   5.31590771
_cell_length_b   4.01544464
_cell_length_c   7.70653586
_cell_angle_alpha   90.00000000
_cell_angle_beta   90.00000000
_cell_angle_gamma   90.00000000
_symmetry_Int_Tables_number   1
_chemical_formula_structural   SiIr2
_chemical_formula_sum   'Si4 Ir8'
_cell_volume   164.50165801
_cell_formula_units_Z   4
loop_
 _symmetry_equiv_pos_site_id
 _symmetry_equiv_pos_as_xyz
  1  'x, y, z'
loop_
 _atom_site_type_symbol
 _atom_site_label
 _atom_site_symmetry_multiplicity
 _atom_site_fract_x
 _atom_site_fract_y
 _atom_site_fract_z
 _atom_site_occupancy
  Si  Si0  1  0.79428364  0.75000000  0.39900108  1.0
  Si  Si1  1  0.29428364  0.75000000  0.10099892  1.0
  Si  Si2  1  0.20571636  0.25000000  0.60099892  1.0
  Si  Si3  1  0.70571636  0.25000000  0.89900108  1.0
  Ir  Ir4  1  0.97663887  0.75000000  0.70028691  1.0
  Ir  Ir5  1  0.47663887  0.75000000  0.79971309  1.0
  Ir  Ir6  1  0.02336113  0.25000000  0.29971309  1.0
  Ir  Ir7  1  0.52336113  0.25000000  0.20028691  1.0
  Ir  Ir8  1  0.84038439  0.75000000  0.07437149  1.0
  Ir  Ir9  1  0.34038439  0.75000000  0.42562851  1.0
  Ir  Ir10  1  0.15961561  0.25000000  0.92562851  1.0
  Ir  Ir11  1  0.65961561  0.25000000  0.57437149  1.0
