# generated using pymatgen
data_Li2FeSiO4
_symmetry_space_group_name_H-M   'P 1'
_cell_length_a   10.66353114
_cell_length_b   6.30786047
_cell_length_c   5.15712943
_cell_angle_alpha   90.00000000
_cell_angle_beta   90.00000000
_cell_angle_gamma   90.00000000
_symmetry_Int_Tables_number   1
_chemical_formula_structural   Li2FeSiO4
_chemical_formula_sum   'Li8 Fe4 Si4 O16'
_cell_volume   346.88949774
_cell_formula_units_Z   4
loop_
 _symmetry_equiv_pos_site_id
 _symmetry_equiv_pos_as_xyz
  1  'x, y, z'
loop_
 _atom_site_type_symbol
 _atom_site_label
 _atom_site_symmetry_multiplicity
 _atom_site_fract_x
 _atom_site_fract_y
 _atom_site_fract_z
 _atom_site_occupancy
  Li  Li0  1  0.67042781  0.99153938  0.29011567  1.0
  Li  Li1  1  0.67042781  0.50846062  0.29011567  1.0
  Li  Li2  1  0.17042781  0.99153938  0.20988433  1.0
  Li  Li3  1  0.17042781  0.50846062  0.20988433  1.0
  Li  Li4  1  0.32957219  0.49153938  0.70988433  1.0
  Li  Li5  1  0.32957219  0.00846062  0.70988433  1.0
  Li  Li6  1  0.82957219  0.49153938  0.79011567  1.0
  Li  Li7  1  0.82957219  0.00846062  0.79011567  1.0
  Fe  Fe8  1  0.57908956  0.25000000  0.69228333  1.0
  Fe  Fe9  1  0.07908956  0.25000000  0.80771667  1.0
  Fe  Fe10  1  0.42091044  0.75000000  0.30771667  1.0
  Fe  Fe11  1  0.92091044  0.75000000  0.19228333  1.0
  Si  Si12  1  0.91950757  0.25000000  0.30036718  1.0
  Si  Si13  1  0.41950757  0.25000000  0.19963282  1.0
  Si  Si14  1  0.08049243  0.75000000  0.69963282  1.0
  Si  Si15  1  0.58049243  0.75000000  0.80036718  1.0
  O  O16  1  0.84561027  0.46267108  0.18957515  1.0
  O  O17  1  0.84561027  0.03732892  0.18957515  1.0
  O  O18  1  0.34561027  0.46267108  0.31042485  1.0
  O  O19  1  0.34561027  0.03732892  0.31042485  1.0
  O  O20  1  0.15438973  0.96267108  0.81042485  1.0
  O  O21  1  0.15438973  0.53732892  0.81042485  1.0
  O  O22  1  0.65438973  0.96267108  0.68957515  1.0
  O  O23  1  0.65438973  0.53732892  0.68957515  1.0
  O  O24  1  0.91290537  0.25000000  0.62177083  1.0
  O  O25  1  0.41290537  0.25000000  0.87822917  1.0
  O  O26  1  0.08709463  0.75000000  0.37822917  1.0
  O  O27  1  0.58709463  0.75000000  0.12177083  1.0
  O  O28  1  0.56789107  0.25000000  0.28891476  1.0
  O  O29  1  0.06789107  0.25000000  0.21108524  1.0
  O  O30  1  0.43210893  0.75000000  0.71108524  1.0
  O  O31  1  0.93210893  0.75000000  0.78891476  1.0
