# generated using pymatgen
data_Cs2V3O8
_symmetry_space_group_name_H-M   'P 1'
_cell_length_a   8.97552481
_cell_length_b   8.97552481
_cell_length_c   6.20984900
_cell_angle_alpha   90.00000000
_cell_angle_beta   90.00000000
_cell_angle_gamma   90.00000000
_symmetry_Int_Tables_number   1
_chemical_formula_structural   Cs2V3O8
_chemical_formula_sum   'Cs4 V6 O16'
_cell_volume   500.26571825
_cell_formula_units_Z   2
loop_
 _symmetry_equiv_pos_site_id
 _symmetry_equiv_pos_as_xyz
  1  'x, y, z'
loop_
 _atom_site_type_symbol
 _atom_site_label
 _atom_site_symmetry_multiplicity
 _atom_site_fract_x
 _atom_site_fract_y
 _atom_site_fract_z
 _atom_site_occupancy
  O  O0  1  0.30748438  0.58302316  0.38946139  1.0
  O  O1  1  0.80748438  0.91697684  0.38946139  1.0
  O  O2  1  0.41697684  0.30748438  0.38946139  1.0
  O  O3  1  0.91697684  0.19251562  0.38946139  1.0
  O  O4  1  0.69251562  0.41697684  0.38946139  1.0
  O  O5  1  0.19251562  0.08302316  0.38946139  1.0
  O  O6  1  0.58302316  0.69251562  0.38946139  1.0
  O  O7  1  0.08302316  0.80748438  0.38946139  1.0
  O  O8  1  0.36851043  0.13148957  1.02553024  1.0
  O  O9  1  0.86851043  0.36851043  1.02553024  1.0
  O  O10  1  0.63148957  0.86851043  1.02553024  1.0
  O  O11  1  0.13148957  0.63148957  1.02553024  1.0
  O  O12  1  0.00000000  0.50000000  0.39375388  1.0
  O  O13  1  0.50000000  0.00000000  0.39375388  1.0
  O  O14  1  0.50000000  0.50000000  0.04131946  1.0
  O  O15  1  0.00000000  0.00000000  0.04131946  1.0
  Cs  Cs16  1  0.82965352  0.67034648  0.76626149  1.0
  Cs  Cs17  1  0.32965352  0.82965352  0.76626149  1.0
  Cs  Cs18  1  0.17034648  0.32965352  0.76626149  1.0
  Cs  Cs19  1  0.67034648  0.17034648  0.76626149  1.0
  V  V20  1  0.36608979  0.13391021  0.29026196  1.0
  V  V21  1  0.86608979  0.36608979  0.29026196  1.0
  V  V22  1  0.63391021  0.86608979  0.29026196  1.0
  V  V23  1  0.13391021  0.63391021  0.29026196  1.0
  V  V24  1  0.50000000  0.50000000  0.30027369  1.0
  V  V25  1  0.00000000  0.00000000  0.30027369  1.0
