# generated using pymatgen
data_EuSn
_symmetry_space_group_name_H-M   'P 1'
_cell_length_a   6.38229128
_cell_length_b   6.38229128
_cell_length_c   4.43418372
_cell_angle_alpha   90.00000000
_cell_angle_beta   90.00000000
_cell_angle_gamma   135.32796636
_symmetry_Int_Tables_number   1
_chemical_formula_structural   EuSn
_chemical_formula_sum   'Eu2 Sn2'
_cell_volume   126.98478871
_cell_formula_units_Z   2
loop_
 _symmetry_equiv_pos_site_id
 _symmetry_equiv_pos_as_xyz
  1  'x, y, z'
loop_
 _atom_site_type_symbol
 _atom_site_label
 _atom_site_symmetry_multiplicity
 _atom_site_fract_x
 _atom_site_fract_y
 _atom_site_fract_z
 _atom_site_occupancy
  Eu  Eu0  1  0.36456186  0.63543814  0.75000000  1.0
  Eu  Eu1  1  -0.36456186  0.36456186  0.25000000  1.0
  Sn  Sn2  1  0.08343793  0.91656207  0.75000000  1.0
  Sn  Sn3  1  -0.08343793  0.08343793  0.25000000  1.0
