# generated using pymatgen
data_Na3WN3
_symmetry_space_group_name_H-M   'P 1'
_cell_length_a   8.87905994
_cell_length_b   8.87905994
_cell_length_c   6.43342066
_cell_angle_alpha   69.12157106
_cell_angle_beta   110.87842894
_cell_angle_gamma   102.47199653
_symmetry_Int_Tables_number   1
_chemical_formula_structural   Na3WN3
_chemical_formula_sum   'Na12 W4 N12'
_cell_volume   440.47207188
_cell_formula_units_Z   4
loop_
 _symmetry_equiv_pos_site_id
 _symmetry_equiv_pos_as_xyz
  1  'x, y, z'
loop_
 _atom_site_type_symbol
 _atom_site_label
 _atom_site_symmetry_multiplicity
 _atom_site_fract_x
 _atom_site_fract_y
 _atom_site_fract_z
 _atom_site_occupancy
  Na  Na0  1  0.71593888  0.71231338  0.48619745  1.0
  Na  Na1  1  0.28768662  0.28406112  -0.01380255  1.0
  Na  Na2  1  0.84227527  0.08603851  0.40834036  1.0
  Na  Na3  1  0.91396149  0.15772473  0.90834036  1.0
  Na  Na4  1  1.35280763  -0.38532044  0.20864858  1.0
  Na  Na5  1  1.38532044  -0.35280763  0.70864858  1.0
  Na  Na6  1  1.52216810  0.00525174  0.98286493  1.0
  Na  Na7  1  0.99474826  -0.52216810  0.48286493  1.0
  Na  Na8  1  1.10884649  -0.14764322  0.38265884  1.0
  Na  Na9  1  1.14764322  -0.10884649  0.88265884  1.0
  Na  Na10  1  0.59736461  0.37192406  0.44503835  1.0
  Na  Na11  1  0.62807594  0.40263539  0.94503835  1.0
  W  W12  1  1.75433863  -0.23200317  0.00750794  1.0
  W  W13  1  1.23200317  -0.75433863  0.50750794  1.0
  W  W14  1  0.48131199  -0.00071333  0.43918752  1.0
  W  W15  1  1.00071333  0.51868801  0.93918752  1.0
  N  N16  1  1.59624913  -0.38008896  0.10902720  1.0
  N  N17  1  1.38008896  -0.59624913  0.60902720  1.0
  N  N18  1  1.82374032  -0.08871386  0.17883347  1.0
  N  N19  1  1.08871386  -0.82374032  0.67883347  1.0
  N  N20  1  1.35605259  -0.13539572  0.26898647  1.0
  N  N21  1  1.13539572  -0.35605259  0.76898647  1.0
  N  N22  1  0.56649721  0.17510980  0.24391811  1.0
  N  N23  1  0.82489020  0.43350279  0.74391811  1.0
  N  N24  1  0.93877921  0.65679187  0.06348306  1.0
  N  N25  1  0.34320813  0.06122079  0.56348306  1.0
  N  N26  1  1.11471689  -0.66106369  0.18210771  1.0
  N  N27  1  1.66106369  -0.11471689  0.68210771  1.0
