# generated using pymatgen
data_Lu5(Ge5Ir2)2
_symmetry_space_group_name_H-M   'P 1'
_cell_length_a   12.95769971
_cell_length_b   12.95769971
_cell_length_c   4.27268629
_cell_angle_alpha   90.00000000
_cell_angle_beta   90.00000000
_cell_angle_gamma   90.00000000
_symmetry_Int_Tables_number   1
_chemical_formula_structural   Lu5(Ge5Ir2)2
_chemical_formula_sum   'Lu10 Ge20 Ir8'
_cell_volume   717.39249479
_cell_formula_units_Z   2
loop_
 _symmetry_equiv_pos_site_id
 _symmetry_equiv_pos_as_xyz
  1  'x, y, z'
loop_
 _atom_site_type_symbol
 _atom_site_label
 _atom_site_symmetry_multiplicity
 _atom_site_fract_x
 _atom_site_fract_y
 _atom_site_fract_z
 _atom_site_occupancy
  Lu  Lu0  1  0.32737696  0.17262304  0.50000000  1.0
  Lu  Lu1  1  0.82737696  0.32737696  0.50000000  1.0
  Lu  Lu2  1  0.67262304  0.82737696  0.50000000  1.0
  Lu  Lu3  1  0.17262304  0.67262304  0.50000000  1.0
  Lu  Lu4  1  0.88363805  0.61636195  0.50000000  1.0
  Lu  Lu5  1  0.38363805  0.88363805  0.50000000  1.0
  Lu  Lu6  1  0.11636195  0.38363805  0.50000000  1.0
  Lu  Lu7  1  0.61636195  0.11636195  0.50000000  1.0
  Lu  Lu8  1  0.50000000  0.50000000  -0.00000000  1.0
  Lu  Lu9  1  0.00000000  0.00000000  0.00000000  1.0
  Ge  Ge10  1  0.34564215  0.50622548  0.50000000  1.0
  Ge  Ge11  1  0.84564215  0.99377452  0.50000000  1.0
  Ge  Ge12  1  0.49377452  0.34564215  0.50000000  1.0
  Ge  Ge13  1  0.99377452  0.15435785  0.50000000  1.0
  Ge  Ge14  1  0.65435785  0.49377452  0.50000000  1.0
  Ge  Ge15  1  0.15435785  0.00622548  0.50000000  1.0
  Ge  Ge16  1  0.50622548  0.65435785  0.50000000  1.0
  Ge  Ge17  1  0.00622548  0.84564215  0.50000000  1.0
  Ge  Ge18  1  0.33485464  0.69910458  0.00000000  1.0
  Ge  Ge19  1  0.83485464  0.80089542  -0.00000000  1.0
  Ge  Ge20  1  0.30089542  0.33485464  0.00000000  1.0
  Ge  Ge21  1  0.80089542  0.16514536  0.00000000  1.0
  Ge  Ge22  1  0.66514536  0.30089542  0.00000000  1.0
  Ge  Ge23  1  0.16514536  0.19910458  -0.00000000  1.0
  Ge  Ge24  1  0.69910458  0.66514536  0.00000000  1.0
  Ge  Ge25  1  0.19910458  0.83485464  0.00000000  1.0
  Ge  Ge26  1  0.43332961  0.06667039  -0.00000000  1.0
  Ge  Ge27  1  0.93332961  0.43332961  0.00000000  1.0
  Ge  Ge28  1  0.56667039  0.93332961  -0.00000000  1.0
  Ge  Ge29  1  0.06667039  0.56667039  0.00000000  1.0
  Ir  Ir30  1  0.25300289  0.51858429  -0.00000000  1.0
  Ir  Ir31  1  0.75300289  0.98141571  -0.00000000  1.0
  Ir  Ir32  1  0.48141571  0.25300289  0.00000000  1.0
  Ir  Ir33  1  0.98141571  0.24699711  0.00000000  1.0
  Ir  Ir34  1  0.74699711  0.48141571  -0.00000000  1.0
  Ir  Ir35  1  0.24699711  0.01858429  0.00000000  1.0
  Ir  Ir36  1  0.51858429  0.74699711  0.00000000  1.0
  Ir  Ir37  1  0.01858429  0.75300289  0.00000000  1.0
