# generated using pymatgen
data_TiZnH12(OF)6
_symmetry_space_group_name_H-M   'P 1'
_cell_length_a   6.57084240
_cell_length_b   6.57084240
_cell_length_c   6.57084240
_cell_angle_alpha   96.63049748
_cell_angle_beta   96.63049748
_cell_angle_gamma   96.63049748
_symmetry_Int_Tables_number   1
_chemical_formula_structural   TiZnH12(OF)6
_chemical_formula_sum   'Ti1 Zn1 H12 O6 F6'
_cell_volume   277.52485273
_cell_formula_units_Z   1
loop_
 _symmetry_equiv_pos_site_id
 _symmetry_equiv_pos_as_xyz
  1  'x, y, z'
loop_
 _atom_site_type_symbol
 _atom_site_label
 _atom_site_symmetry_multiplicity
 _atom_site_fract_x
 _atom_site_fract_y
 _atom_site_fract_z
 _atom_site_occupancy
  Ti  Ti0  1  0.00000000  0.00000000  0.00000000  1.0
  Zn  Zn1  1  0.50000000  0.50000000  0.50000000  1.0
  H  H2  1  1.54906501  0.69817884  -0.10157262  1.0
  H  H3  1  0.30182116  1.10157262  -0.54906501  1.0
  H  H4  1  1.10157262  0.45093499  -0.69817884  1.0
  H  H5  1  0.45093499  0.30182116  0.10157262  1.0
  H  H6  1  1.69817884  -0.10157262  0.54906501  1.0
  H  H7  1  0.89842738  0.54906501  0.69817884  1.0
  H  H8  1  0.68107459  0.80794363  0.31180558  1.0
  H  H9  1  1.19205637  -0.31180558  0.31892541  1.0
  H  H10  1  0.68819442  0.31892541  0.19205637  1.0
  H  H11  1  1.31892541  0.19205637  -0.31180558  1.0
  H  H12  1  0.80794363  1.31180558  -0.31892541  1.0
  H  H13  1  1.31180558  0.68107459  -0.19205637  1.0
  O  O14  1  1.43913990  0.61792753  -0.20324353  1.0
  O  O15  1  1.38207247  0.20324353  -0.43913990  1.0
  O  O16  1  1.20324353  -0.43913990  0.38207247  1.0
  O  O17  1  0.56086010  0.38207247  0.20324353  1.0
  O  O18  1  0.61792753  0.79675647  0.43913990  1.0
  O  O19  1  0.79675647  1.43913990  -0.38207247  1.0
  F  F20  1  0.76100438  0.84479442  0.06557059  1.0
  F  F21  1  1.15520558  -0.06557059  0.23899562  1.0
  F  F22  1  0.93442941  0.23899562  0.15520558  1.0
  F  F23  1  1.23899562  0.15520558  -0.06557059  1.0
  F  F24  1  0.84479442  1.06557059  -0.23899562  1.0
  F  F25  1  1.06557059  0.76100438  -0.15520558  1.0
