# generated using pymatgen
data_Ga2TeS2
_symmetry_space_group_name_H-M   'P 1'
_cell_length_a   7.26326323
_cell_length_b   7.26326323
_cell_length_c   7.26326323
_cell_angle_alpha   120.41140905
_cell_angle_beta   120.41140905
_cell_angle_gamma   89.28888354
_symmetry_Int_Tables_number   1
_chemical_formula_structural   Ga2TeS2
_chemical_formula_sum   'Ga4 Te2 S4'
_cell_volume   269.23717443
_cell_formula_units_Z   2
loop_
 _symmetry_equiv_pos_site_id
 _symmetry_equiv_pos_as_xyz
  1  'x, y, z'
loop_
 _atom_site_type_symbol
 _atom_site_label
 _atom_site_symmetry_multiplicity
 _atom_site_fract_x
 _atom_site_fract_y
 _atom_site_fract_z
 _atom_site_occupancy
  Ga  Ga0  1  1.18846736  0.41079162  0.77767575  1.0
  Ga  Ga1  1  0.63311587  0.41079162  0.22232425  1.0
  Ga  Ga2  1  0.16079162  0.43846736  0.27767575  1.0
  Ga  Ga3  1  0.16079162  0.88311587  0.72232425  1.0
  Te  Te4  1  0.00208726  0.00208726  0.00000000  1.0
  Te  Te5  1  0.75208726  0.25208726  0.50000000  1.0
  S  S6  1  0.37319558  0.63396476  0.73923082  1.0
  S  S7  1  0.89473393  0.63396476  1.26076918  1.0
  S  S8  1  0.38396476  0.62319558  0.23923082  1.0
  S  S9  1  0.38396476  1.14473393  0.76076918  1.0
