# generated using pymatgen
data_EuGePd
_symmetry_space_group_name_H-M   'P 1'
_cell_length_a   6.08972263
_cell_length_b   5.90777213
_cell_length_c   8.05618473
_cell_angle_alpha   90.00000000
_cell_angle_beta   115.68588184
_cell_angle_gamma   90.00000000
_symmetry_Int_Tables_number   1
_chemical_formula_structural   EuGePd
_chemical_formula_sum   'Eu4 Ge4 Pd4'
_cell_volume   261.19452257
_cell_formula_units_Z   4
loop_
 _symmetry_equiv_pos_site_id
 _symmetry_equiv_pos_as_xyz
  1  'x, y, z'
loop_
 _atom_site_type_symbol
 _atom_site_label
 _atom_site_symmetry_multiplicity
 _atom_site_fract_x
 _atom_site_fract_y
 _atom_site_fract_z
 _atom_site_occupancy
  Eu  Eu0  1  0.70238474  0.86397902  0.37572467  1.0
  Eu  Eu1  1  0.70238474  0.63602098  0.87572467  1.0
  Eu  Eu2  1  0.29761526  0.36397902  0.12427533  1.0
  Eu  Eu3  1  0.29761526  0.13602098  0.62427533  1.0
  Ge  Ge4  1  0.71920580  0.14029878  0.04101504  1.0
  Ge  Ge5  1  0.71920580  0.35970122  0.54101504  1.0
  Ge  Ge6  1  0.28079420  0.64029878  0.45898496  1.0
  Ge  Ge7  1  0.28079420  0.85970122  0.95898496  1.0
  Pd  Pd8  1  0.89829467  0.39715870  0.31010955  1.0
  Pd  Pd9  1  0.89829467  0.10284130  0.81010955  1.0
  Pd  Pd10  1  0.10170533  0.89715870  0.18989045  1.0
  Pd  Pd11  1  0.10170533  0.60284130  0.68989045  1.0
