# generated using pymatgen
data_SiO2
_symmetry_space_group_name_H-M   'P 1'
_cell_length_a   5.03017160
_cell_length_b   5.51825324
_cell_length_c   5.02905095
_cell_angle_alpha   89.98146166
_cell_angle_beta   59.98996976
_cell_angle_gamma   89.99536215
_symmetry_Int_Tables_number   1
_chemical_formula_structural   SiO2
_chemical_formula_sum   'Si3 O6'
_cell_volume   120.88075556
_cell_formula_units_Z   3
loop_
 _symmetry_equiv_pos_site_id
 _symmetry_equiv_pos_as_xyz
  1  'x, y, z'
loop_
 _atom_site_type_symbol
 _atom_site_label
 _atom_site_symmetry_multiplicity
 _atom_site_fract_x
 _atom_site_fract_y
 _atom_site_fract_z
 _atom_site_occupancy
  Si  Si0  1  -0.20683212  -0.76101199  0.17604447  1.0
  Si  Si1  1  0.31624651  -0.09432035  0.12999452  1.0
  Si  Si2  1  -0.16109708  -0.42766970  0.65296605  1.0
  O  O3  1  0.06174606  0.03482591  0.06763757  1.0
  O  O4  1  -0.26948017  -0.63215375  0.49317925  1.0
  O  O5  1  -0.42906446  -0.22300296  0.81280411  1.0
  O  O6  1  0.15605378  -0.29904245  0.39801403  1.0
  O  O7  1  0.47630447  -0.89019303  0.23852382  1.0
  O  O8  1  0.90112301  -0.55643168  -0.09216382  1.0
