# generated using pymatgen
data_CsIn(SeO5)2
_symmetry_space_group_name_H-M   'P 1'
_cell_length_a   8.67177648
_cell_length_b   8.67177648
_cell_length_c   7.87315722
_cell_angle_alpha   79.01249830
_cell_angle_beta   100.98750170
_cell_angle_gamma   66.44911645
_symmetry_Int_Tables_number   1
_chemical_formula_structural   CsIn(SeO5)2
_chemical_formula_sum   'Cs2 In2 Se4 O20'
_cell_volume   508.84956173
_cell_formula_units_Z   2
loop_
 _symmetry_equiv_pos_site_id
 _symmetry_equiv_pos_as_xyz
  1  'x, y, z'
loop_
 _atom_site_type_symbol
 _atom_site_label
 _atom_site_symmetry_multiplicity
 _atom_site_fract_x
 _atom_site_fract_y
 _atom_site_fract_z
 _atom_site_occupancy
  O  O0  1  0.75030929  -0.10067881  0.45578259  1.0
  O  O1  1  1.10067881  0.24969071  0.95578259  1.0
  O  O2  1  0.89932119  -0.24969071  0.04421741  1.0
  O  O3  1  1.24969071  0.10067881  0.54421741  1.0
  O  O4  1  1.42728446  0.10209716  0.21235644  1.0
  O  O5  1  0.89790284  -0.42728446  0.71235644  1.0
  O  O6  1  1.10209716  0.42728446  0.28764356  1.0
  O  O7  1  0.57271554  -0.10209716  0.78764356  1.0
  O  O8  1  1.73218109  0.11721328  0.73194216  1.0
  O  O9  1  0.88278672  -0.73218109  0.23194216  1.0
  O  O10  1  1.11721328  0.73218109  0.76805784  1.0
  O  O11  1  0.26781891  -0.11721328  0.26805784  1.0
  O  O12  1  1.69371074  0.15727417  0.15415382  1.0
  O  O13  1  0.84272583  -0.69371074  0.65415382  1.0
  O  O14  1  1.15727417  0.69371074  0.34584618  1.0
  O  O15  1  0.30628926  -0.15727417  0.84584618  1.0
  O  O16  1  1.57176835  0.24615493  0.44401258  1.0
  O  O17  1  0.75384507  -0.57176835  0.94401258  1.0
  O  O18  1  1.24615493  0.57176835  0.05598742  1.0
  O  O19  1  0.42823165  -0.24615493  0.55598742  1.0
  Cs  Cs20  1  0.62504967  -0.37495033  0.25000000  1.0
  Cs  Cs21  1  1.37495033  0.37495033  0.75000000  1.0
  In  In22  1  1.16414617  0.16414617  0.25000000  1.0
  In  In23  1  0.83585383  -0.16414617  0.75000000  1.0
  Se  Se24  1  1.61285491  0.10554830  0.31989921  1.0
  Se  Se25  1  0.89445170  -0.61285491  0.81989921  1.0
  Se  Se26  1  1.10554830  0.61285491  0.18010079  1.0
  Se  Se27  1  0.38714509  -0.10554830  0.68010079  1.0
