# generated using pymatgen
data_Sr2SnO4
_symmetry_space_group_name_H-M   'P 1'
_cell_length_a   6.90518604
_cell_length_b   6.90518604
_cell_length_c   5.91802634
_cell_angle_alpha   90.00000000
_cell_angle_beta   90.00000000
_cell_angle_gamma   130.37693368
_symmetry_Int_Tables_number   1
_chemical_formula_structural   Sr2SnO4
_chemical_formula_sum   'Sr4 Sn2 O8'
_cell_volume   214.96519786
_cell_formula_units_Z   2
loop_
 _symmetry_equiv_pos_site_id
 _symmetry_equiv_pos_as_xyz
  1  'x, y, z'
loop_
 _atom_site_type_symbol
 _atom_site_label
 _atom_site_symmetry_multiplicity
 _atom_site_fract_x
 _atom_site_fract_y
 _atom_site_fract_z
 _atom_site_occupancy
  Sr  Sr0  1  -0.14732423  0.14732423  0.48517349  1.0
  Sr  Sr1  1  0.35267577  0.64732423  0.01482651  1.0
  Sr  Sr2  1  0.14732423  0.85267577  0.51482651  1.0
  Sr  Sr3  1  -0.35267577  0.35267577  0.98517349  1.0
  Sn  Sn4  1  -0.50000000  0.50000000  0.50000000  1.0
  Sn  Sn5  1  -0.00000000  1.00000000  0.00000000  1.0
  O  O6  1  -0.16347849  0.16347849  0.05937233  1.0
  O  O7  1  0.33652151  0.66347849  0.44062767  1.0
  O  O8  1  0.16347849  0.83652151  0.94062767  1.0
  O  O9  1  -0.33652151  0.33652151  0.55937233  1.0
  O  O10  1  0.27271485  1.22728515  0.25000000  1.0
  O  O11  1  -0.22728515  0.72728515  0.25000000  1.0
  O  O12  1  0.22728515  0.27271485  0.75000000  1.0
  O  O13  1  0.72728515  0.77271485  0.75000000  1.0
