# generated using pymatgen
data_La3SiAgSe7
_symmetry_space_group_name_H-M   'P 1'
_cell_length_a   10.91719807
_cell_length_b   10.91719807
_cell_length_c   6.12835471
_cell_angle_alpha   90.00000000
_cell_angle_beta   90.00000000
_cell_angle_gamma   120.00000000
_symmetry_Int_Tables_number   1
_chemical_formula_structural   La3SiAgSe7
_chemical_formula_sum   'La6 Si2 Ag2 Se14'
_cell_volume   632.55297929
_cell_formula_units_Z   2
loop_
 _symmetry_equiv_pos_site_id
 _symmetry_equiv_pos_as_xyz
  1  'x, y, z'
loop_
 _atom_site_type_symbol
 _atom_site_label
 _atom_site_symmetry_multiplicity
 _atom_site_fract_x
 _atom_site_fract_y
 _atom_site_fract_z
 _atom_site_occupancy
  La  La0  1  0.23314181  0.87597589  0.02718946  1.0
  La  La1  1  0.87597589  0.64283409  0.52718946  1.0
  La  La2  1  0.64283409  0.76685819  0.02718946  1.0
  La  La3  1  0.12402411  0.35716591  0.02718946  1.0
  La  La4  1  0.76685819  0.12402411  0.52718946  1.0
  La  La5  1  0.35716591  0.23314181  0.52718946  1.0
  Si  Si6  1  0.33333333  0.66666667  0.61671477  1.0
  Si  Si7  1  0.66666667  0.33333333  0.11671477  1.0
  Ag  Ag8  1  0.00000000  0.00000000  -0.01240788  1.0
  Ag  Ag9  1  0.00000000  0.00000000  0.48759212  1.0
  Se  Se10  1  0.90831371  0.73283311  0.01410138  1.0
  Se  Se11  1  0.73283311  0.82451940  0.51410138  1.0
  Se  Se12  1  0.82451940  0.09168629  0.01410138  1.0
  Se  Se13  1  0.26716689  0.17548060  0.01410138  1.0
  Se  Se14  1  0.09168629  0.26716689  0.51410138  1.0
  Se  Se15  1  0.17548060  0.90831371  0.51410138  1.0
  Se  Se16  1  0.58873501  0.47721762  0.26459139  1.0
  Se  Se17  1  0.47721762  0.88848261  0.76459139  1.0
  Se  Se18  1  0.88848261  0.41126499  0.26459139  1.0
  Se  Se19  1  0.52278238  0.11151739  0.26459139  1.0
  Se  Se20  1  0.41126499  0.52278238  0.76459139  1.0
  Se  Se21  1  0.11151739  0.58873501  0.76459139  1.0
  Se  Se22  1  0.33333333  0.66666667  0.24604641  1.0
  Se  Se23  1  0.66666667  0.33333333  0.74604641  1.0
