# generated using pymatgen
data_HfAsRu
_symmetry_space_group_name_H-M   'P 1'
_cell_length_a   7.66766780
_cell_length_b   7.66766780
_cell_length_c   7.66766780
_cell_angle_alpha   118.56581065
_cell_angle_beta   83.76365829
_cell_angle_gamma   129.08421931
_symmetry_Int_Tables_number   1
_chemical_formula_structural   HfAsRu
_chemical_formula_sum   'Hf6 As6 Ru6'
_cell_volume   294.77666271
_cell_formula_units_Z   6
loop_
 _symmetry_equiv_pos_site_id
 _symmetry_equiv_pos_as_xyz
  1  'x, y, z'
loop_
 _atom_site_type_symbol
 _atom_site_label
 _atom_site_symmetry_multiplicity
 _atom_site_fract_x
 _atom_site_fract_y
 _atom_site_fract_z
 _atom_site_occupancy
  Hf  Hf0  1  1.17198431  1.21264880  0.45933551  1.0
  Hf  Hf1  1  0.75331329  0.71264880  0.54066449  1.0
  Hf  Hf2  1  0.75331460  1.21264655  1.04066804  1.0
  Hf  Hf3  1  1.17197851  1.71264655  0.95933196  1.0
  Hf  Hf4  1  0.33459820  1.08459684  0.75000136  1.0
  Hf  Hf5  1  1.33459548  1.58459684  1.24999864  1.0
  As  As6  1  0.41999913  0.25333151  0.16666802  1.0
  As  As7  1  1.08666349  0.75333151  0.33333238  1.0
  As  As8  1  0.41999913  0.75333111  0.66666762  1.0
  As  As9  1  1.08666349  1.25333111  0.83333198  1.0
  As  As10  1  0.75325705  1.00325297  1.25000409  1.0
  As  As11  1  0.75324888  1.50325297  0.74999591  1.0
  Ru  Ru12  1  0.50799908  0.13066919  0.37732248  1.0
  Ru  Ru13  1  0.75334671  0.63066919  0.12267011  1.0
  Ru  Ru14  1  0.50799908  0.63067660  0.87732989  1.0
  Ru  Ru15  1  0.75334671  1.13067660  0.62267752  1.0
  Ru  Ru16  1  -0.00135357  -0.00135357  -0.00000000  1.0
  Ru  Ru17  1  -0.00135357  0.49864643  0.50000000  1.0
