# generated using pymatgen
data_ZrGeIr
_symmetry_space_group_name_H-M   'P 1'
_cell_length_a   6.61511343
_cell_length_b   4.06114286
_cell_length_c   7.58841904
_cell_angle_alpha   90.00000000
_cell_angle_beta   90.00000000
_cell_angle_gamma   90.00000000
_symmetry_Int_Tables_number   1
_chemical_formula_structural   ZrGeIr
_chemical_formula_sum   'Zr4 Ge4 Ir4'
_cell_volume   203.86227540
_cell_formula_units_Z   4
loop_
 _symmetry_equiv_pos_site_id
 _symmetry_equiv_pos_as_xyz
  1  'x, y, z'
loop_
 _atom_site_type_symbol
 _atom_site_label
 _atom_site_symmetry_multiplicity
 _atom_site_fract_x
 _atom_site_fract_y
 _atom_site_fract_z
 _atom_site_occupancy
  Zr  Zr0  1  0.97911338  0.75000000  0.68715522  1.0
  Zr  Zr1  1  0.47911338  0.75000000  0.81284478  1.0
  Zr  Zr2  1  0.02088662  0.25000000  0.31284478  1.0
  Zr  Zr3  1  0.52088662  0.25000000  0.18715522  1.0
  Ge  Ge4  1  0.73100222  0.75000000  0.38178604  1.0
  Ge  Ge5  1  0.23100222  0.75000000  0.11821396  1.0
  Ge  Ge6  1  0.26899778  0.25000000  0.61821396  1.0
  Ge  Ge7  1  0.76899778  0.25000000  0.88178604  1.0
  Ir  Ir8  1  0.84908190  0.75000000  0.06410452  1.0
  Ir  Ir9  1  0.34908190  0.75000000  0.43589548  1.0
  Ir  Ir10  1  0.15091810  0.25000000  0.93589548  1.0
  Ir  Ir11  1  0.65091810  0.25000000  0.56410452  1.0
