# generated using pymatgen
data_H6C2SO4
_symmetry_space_group_name_H-M   'P 1'
_cell_length_a   9.37281354
_cell_length_b   6.86506326
_cell_length_c   10.88630165
_cell_angle_alpha   58.63791482
_cell_angle_beta   38.71381049
_cell_angle_gamma   82.64827470
_symmetry_Int_Tables_number   1
_chemical_formula_structural   H6C2SO4
_chemical_formula_sum   'H12 C4 S2 O8'
_cell_volume   319.35554633
_cell_formula_units_Z   2
loop_
 _symmetry_equiv_pos_site_id
 _symmetry_equiv_pos_as_xyz
  1  'x, y, z'
loop_
 _atom_site_type_symbol
 _atom_site_label
 _atom_site_symmetry_multiplicity
 _atom_site_fract_x
 _atom_site_fract_y
 _atom_site_fract_z
 _atom_site_occupancy
  H  H0  1  0.28013952  1.38210105  -0.08151510  1.0
  H  H1  1  0.38210105  1.28013952  0.41927453  1.0
  H  H2  1  -0.16927453  0.33151510  0.86789895  1.0
  H  H3  1  -0.66848490  0.83072547  0.96986048  1.0
  H  H4  1  -0.61951365  0.71545861  0.69357190  1.0
  H  H5  1  -0.28454139  0.38048635  1.21048314  1.0
  H  H6  1  0.03951686  0.55642810  0.53454139  1.0
  H  H7  1  -0.44357190  1.03951686  0.86951365  1.0
  H  H8  1  0.19485457  0.43646501  0.80677479  1.0
  H  H9  1  -0.56353499  1.19485457  0.56190563  1.0
  H  H10  1  -0.31190563  0.44322521  0.81353499  1.0
  H  H11  1  -0.55677479  0.68809437  1.05514543  1.0
  C  C12  1  0.34392305  1.52072122  -0.24733634  1.0
  C  C13  1  0.52072122  1.34392305  0.38269207  1.0
  C  C14  1  -0.13269207  0.49733634  0.72927878  1.0
  C  C15  1  -0.50266366  0.86730793  0.90607695  1.0
  S  S16  1  0.74144036  -0.25855964  0.25855964  1.0
  S  S17  1  -0.00855964  0.99144036  0.50855964  1.0
  O  O18  1  0.74332777  0.98710397  0.19038066  1.0
  O  O19  1  -0.01289603  1.74332777  0.07918760  1.0
  O  O20  1  0.17081240  1.05961934  0.26289603  1.0
  O  O21  1  0.05961934  1.17081240  0.50667223  1.0
  O  O22  1  -0.40572398  0.54690251  0.53433513  1.0
  O  O23  1  -0.45309749  0.59427602  1.32448634  1.0
  O  O24  1  -0.07448634  0.71566487  0.70309749  1.0
  O  O25  1  -0.28433513  0.92551366  0.65572398  1.0
