# generated using pymatgen
data_SrLiAlF6
_symmetry_space_group_name_H-M   'P 1'
_cell_length_a   5.15940780
_cell_length_b   8.93757974
_cell_length_c   10.35612932
_cell_angle_alpha   90.00000000
_cell_angle_beta   89.99646476
_cell_angle_gamma   90.00000000
_symmetry_Int_Tables_number   1
_chemical_formula_structural   SrLiAlF6
_chemical_formula_sum   'Sr4 Li4 Al4 F24'
_cell_volume   477.54824108
_cell_formula_units_Z   4
loop_
 _symmetry_equiv_pos_site_id
 _symmetry_equiv_pos_as_xyz
  1  'x, y, z'
loop_
 _atom_site_type_symbol
 _atom_site_label
 _atom_site_symmetry_multiplicity
 _atom_site_fract_x
 _atom_site_fract_y
 _atom_site_fract_z
 _atom_site_occupancy
  Sr  Sr0  1  0.75002674  0.25008429  0.99998191  1.0
  Sr  Sr1  1  0.75002674  0.24991571  0.49998191  1.0
  Sr  Sr2  1  0.24997326  0.75008429  0.50001809  1.0
  Sr  Sr3  1  0.24997326  0.74991571  0.00001809  1.0
  Li  Li4  1  0.75010514  0.58347219  0.75005343  1.0
  Li  Li5  1  0.75010514  0.91652781  0.25005343  1.0
  Li  Li6  1  0.24989486  0.08347219  0.74994657  1.0
  Li  Li7  1  0.24989486  0.41652781  0.24994657  1.0
  Al  Al8  1  0.74977223  0.91679909  0.74993147  1.0
  Al  Al9  1  0.74977223  0.58320091  0.24993147  1.0
  Al  Al10  1  0.25022777  0.41679909  0.75006853  1.0
  Al  Al11  1  0.25022777  0.08320091  0.25006853  1.0
  F  F12  1  1.04115029  0.92741116  0.64840311  1.0
  F  F13  1  1.04115029  0.57258884  0.14840311  1.0
  F  F14  1  -0.04115029  0.42741116  0.85159689  1.0
  F  F15  1  -0.04115029  0.07258884  0.35159689  1.0
  F  F16  1  0.88010156  0.76591102  0.85134153  1.0
  F  F17  1  0.88010156  0.73408898  0.35134153  1.0
  F  F18  1  0.11989844  0.26591102  0.64865847  1.0
  F  F19  1  0.11989844  0.23408898  0.14865847  1.0
  F  F20  1  0.91123668  0.44257197  0.35118478  1.0
  F  F21  1  0.91123668  0.05742803  0.85118478  1.0
  F  F22  1  0.08876332  0.94257197  0.14881522  1.0
  F  F23  1  0.08876332  0.55742803  0.64881522  1.0
  F  F24  1  0.61992775  0.76566202  0.64861721  1.0
  F  F25  1  0.61992775  0.73433798  0.14861721  1.0
  F  F26  1  0.38007225  0.26566202  0.85138279  1.0
  F  F27  1  0.38007225  0.23433798  0.35138279  1.0
  F  F28  1  0.41215375  0.55713261  0.85149837  1.0
  F  F29  1  0.41215375  0.94286739  0.35149837  1.0
  F  F30  1  0.58784625  0.05713261  0.64850163  1.0
  F  F31  1  0.58784625  0.44286739  0.14850163  1.0
  F  F32  1  0.45828593  0.92726017  0.85142687  1.0
  F  F33  1  0.45828593  0.57273983  0.35142687  1.0
  F  F34  1  0.54171407  0.42726017  0.64857313  1.0
  F  F35  1  0.54171407  0.07273983  0.14857313  1.0
