# generated using pymatgen
data_YbSnRh
_symmetry_space_group_name_H-M   'P 1'
_cell_length_a   7.40982092
_cell_length_b   7.40982092
_cell_length_c   3.98815088
_cell_angle_alpha   90.00000000
_cell_angle_beta   90.00000000
_cell_angle_gamma   120.00000000
_symmetry_Int_Tables_number   1
_chemical_formula_structural   YbSnRh
_chemical_formula_sum   'Yb3 Sn3 Rh3'
_cell_volume   189.63462438
_cell_formula_units_Z   3
loop_
 _symmetry_equiv_pos_site_id
 _symmetry_equiv_pos_as_xyz
  1  'x, y, z'
loop_
 _atom_site_type_symbol
 _atom_site_label
 _atom_site_symmetry_multiplicity
 _atom_site_fract_x
 _atom_site_fract_y
 _atom_site_fract_z
 _atom_site_occupancy
  Yb  Yb0  1  0.40700895  0.40700895  0.00000000  1.0
  Yb  Yb1  1  0.00000000  0.59299105  -0.00000000  1.0
  Yb  Yb2  1  0.59299105  0.00000000  -0.00000000  1.0
  Sn  Sn3  1  0.73924150  0.73924150  0.50000000  1.0
  Sn  Sn4  1  -0.00000000  0.26075850  0.50000000  1.0
  Sn  Sn5  1  0.26075850  0.00000000  0.50000000  1.0
  Rh  Rh6  1  0.33333333  0.66666667  0.50000000  1.0
  Rh  Rh7  1  0.66666667  0.33333333  0.50000000  1.0
  Rh  Rh8  1  -0.00000000  0.00000000  0.00000000  1.0
