# generated using pymatgen
data_In9Cu11
_symmetry_space_group_name_H-M   'P 1'
_cell_length_a   7.45960511
_cell_length_b   4.40668936
_cell_length_c   10.53031708
_cell_angle_alpha   90.00000000
_cell_angle_beta   90.66664047
_cell_angle_gamma   90.00000000
_symmetry_Int_Tables_number   1
_chemical_formula_structural   In9Cu11
_chemical_formula_sum   'In9 Cu11'
_cell_volume   346.13086440
_cell_formula_units_Z   1
loop_
 _symmetry_equiv_pos_site_id
 _symmetry_equiv_pos_as_xyz
  1  'x, y, z'
loop_
 _atom_site_type_symbol
 _atom_site_label
 _atom_site_symmetry_multiplicity
 _atom_site_fract_x
 _atom_site_fract_y
 _atom_site_fract_z
 _atom_site_occupancy
  In  In0  1  0.30373036  0.00000000  0.85746526  1.0
  In  In1  1  0.69626964  0.00000000  0.14253474  1.0
  In  In2  1  0.80424430  0.50000000  0.34145162  1.0
  In  In3  1  0.19575570  0.50000000  0.65854838  1.0
  In  In4  1  0.61282845  0.00000000  0.62466492  1.0
  In  In5  1  0.38717155  0.00000000  0.37533508  1.0
  In  In6  1  0.14146227  0.50000000  0.11162227  1.0
  In  In7  1  0.85853773  0.50000000  0.88837773  1.0
  In  In8  1  -0.00000000  0.00000000  0.50000000  1.0
  Cu  Cu9  1  0.00000000  0.00000000  0.00000000  1.0
  Cu  Cu10  1  0.50000000  0.50000000  0.50000000  1.0
  Cu  Cu11  1  0.96662102  0.00000000  0.75041093  1.0
  Cu  Cu12  1  0.03337898  0.00000000  0.24958907  1.0
  Cu  Cu13  1  0.47452046  0.50000000  0.23675820  1.0
  Cu  Cu14  1  0.52547954  0.50000000  0.76324180  1.0
  Cu  Cu15  1  0.65524353  0.00000000  0.88759994  1.0
  Cu  Cu16  1  0.34475647  0.00000000  0.11240006  1.0
  Cu  Cu17  1  0.17333641  0.50000000  0.38075273  1.0
  Cu  Cu18  1  0.82666359  0.50000000  0.61924727  1.0
  Cu  Cu19  1  0.50000000  0.50000000  0.00000000  1.0
