# generated using pymatgen
data_Na6CdCl8
_symmetry_space_group_name_H-M   'P 1'
_cell_length_a   8.06714181
_cell_length_b   8.06714181
_cell_length_c   8.06714181
_cell_angle_alpha   60.00000000
_cell_angle_beta   60.00000000
_cell_angle_gamma   60.00000000
_symmetry_Int_Tables_number   1
_chemical_formula_structural   Na6CdCl8
_chemical_formula_sum   'Na6 Cd1 Cl8'
_cell_volume   371.23086439
_cell_formula_units_Z   1
loop_
 _symmetry_equiv_pos_site_id
 _symmetry_equiv_pos_as_xyz
  1  'x, y, z'
loop_
 _atom_site_type_symbol
 _atom_site_label
 _atom_site_symmetry_multiplicity
 _atom_site_fract_x
 _atom_site_fract_y
 _atom_site_fract_z
 _atom_site_occupancy
  Na  Na0  1  1.50000000  0.00000000  -0.00000000  1.0
  Na  Na1  1  1.00000000  0.50000000  -0.50000000  1.0
  Na  Na2  1  0.00000000  1.50000000  -0.00000000  1.0
  Na  Na3  1  0.50000000  1.00000000  -0.50000000  1.0
  Na  Na4  1  0.00000000  -0.00000000  0.50000000  1.0
  Na  Na5  1  0.50000000  -0.50000000  1.00000000  1.0
  Cd  Cd6  1  0.00000000  0.00000000  0.00000000  1.0
  Cl  Cl7  1  -0.76561940  0.76561940  0.76561940  1.0
  Cl  Cl8  1  -0.23438060  0.23438060  0.76561940  1.0
  Cl  Cl9  1  0.76561940  0.76561940  -0.76561940  1.0
  Cl  Cl10  1  0.23438060  1.23438060  -0.23438060  1.0
  Cl  Cl11  1  0.23438060  -0.23438060  1.23438060  1.0
  Cl  Cl12  1  -0.23438060  0.23438060  0.23438060  1.0
  Cl  Cl13  1  0.75000000  0.75000000  -0.25000000  1.0
  Cl  Cl14  1  1.25000000  0.25000000  0.25000000  1.0
