# generated using pymatgen
data_Na4As2O7
_symmetry_space_group_name_H-M   'P 1'
_cell_length_a   5.99237910
_cell_length_b   5.99237910
_cell_length_c   12.61143294
_cell_angle_alpha   88.63546643
_cell_angle_beta   91.36453357
_cell_angle_gamma   60.99428378
_symmetry_Int_Tables_number   1
_chemical_formula_structural   Na4As2O7
_chemical_formula_sum   'Na8 As4 O14'
_cell_volume   395.62123470
_cell_formula_units_Z   2
loop_
 _symmetry_equiv_pos_site_id
 _symmetry_equiv_pos_as_xyz
  1  'x, y, z'
loop_
 _atom_site_type_symbol
 _atom_site_label
 _atom_site_symmetry_multiplicity
 _atom_site_fract_x
 _atom_site_fract_y
 _atom_site_fract_z
 _atom_site_occupancy
  Na  Na0  1  0.32306993  -0.29783151  0.09503333  1.0
  Na  Na1  1  1.29783151  0.67693007  0.59503333  1.0
  Na  Na2  1  0.70216849  -0.67693007  0.40496667  1.0
  Na  Na3  1  1.67693007  0.29783151  0.90496667  1.0
  Na  Na4  1  1.33305433  0.02119623  0.37155076  1.0
  Na  Na5  1  0.97880377  -0.33305433  0.87155076  1.0
  Na  Na6  1  1.02119623  0.33305433  0.12844924  1.0
  Na  Na7  1  0.66694567  -0.02119623  0.62844924  1.0
  As  As8  1  0.70517071  -0.01053931  0.13861508  1.0
  As  As9  1  1.01053931  0.29482929  0.63861508  1.0
  As  As10  1  0.98946069  -0.29482929  0.36138492  1.0
  As  As11  1  1.29482929  0.01053931  0.86138492  1.0
  O  O12  1  0.75017082  -0.10753874  0.44317908  1.0
  O  O13  1  1.10753874  0.24982918  0.94317908  1.0
  O  O14  1  0.89246126  -0.24982918  0.05682092  1.0
  O  O15  1  1.24982918  0.10753874  0.55682092  1.0
  O  O16  1  0.44414960  -0.02305712  0.18480131  1.0
  O  O17  1  1.02305712  0.55585040  0.68480131  1.0
  O  O18  1  0.97694288  -0.55585040  0.31519869  1.0
  O  O19  1  1.55585040  0.02305712  0.81519869  1.0
  O  O20  1  1.64486614  0.28616158  0.09281136  1.0
  O  O21  1  0.71383842  -0.64486614  0.59281136  1.0
  O  O22  1  1.28616158  0.64486614  0.40718864  1.0
  O  O23  1  0.35513386  -0.28616158  0.90718864  1.0
  O  O24  1  0.93505335  -0.06494665  0.25000000  1.0
  O  O25  1  1.06494665  0.06494665  0.75000000  1.0
