# generated using pymatgen
data_BaY2F8
_symmetry_space_group_name_H-M   'P 1'
_cell_length_a   6.37005936
_cell_length_b   6.37005936
_cell_length_c   4.31747168
_cell_angle_alpha   84.79437420
_cell_angle_beta   95.20562580
_cell_angle_gamma   67.23442111
_symmetry_Int_Tables_number   1
_chemical_formula_structural   BaY2F8
_chemical_formula_sum   'Ba1 Y2 F8'
_cell_volume   159.36060222
_cell_formula_units_Z   1
loop_
 _symmetry_equiv_pos_site_id
 _symmetry_equiv_pos_as_xyz
  1  'x, y, z'
loop_
 _atom_site_type_symbol
 _atom_site_label
 _atom_site_symmetry_multiplicity
 _atom_site_fract_x
 _atom_site_fract_y
 _atom_site_fract_z
 _atom_site_occupancy
  Ba  Ba0  1  0.00000000  0.00000000  0.00000000  1.0
  Y  Y1  1  0.67599466  -0.32400534  0.50000000  1.0
  Y  Y2  1  1.32400534  0.32400534  0.50000000  1.0
  F  F3  1  0.74008886  -0.25991114  -0.00000000  1.0
  F  F4  1  1.25991114  0.25991114  -0.00000000  1.0
  F  F5  1  1.67211028  0.04631873  0.43776027  1.0
  F  F6  1  0.95368127  -0.67211028  0.43776027  1.0
  F  F7  1  1.04631873  0.67211028  0.56223973  1.0
  F  F8  1  0.32788972  -0.04631873  0.56223973  1.0
  F  F9  1  0.60843616  -0.60843616  0.77364361  1.0
  F  F10  1  0.39156384  -0.39156384  0.22635639  1.0
