# generated using pymatgen
data_LaIn4Pt
_symmetry_space_group_name_H-M   'P 1'
_cell_length_a   8.85225875
_cell_length_b   8.85225875
_cell_length_c   7.52106600
_cell_angle_alpha   90.00000000
_cell_angle_beta   90.00000000
_cell_angle_gamma   149.80573497
_symmetry_Int_Tables_number   1
_chemical_formula_structural   LaIn4Pt
_chemical_formula_sum   'La2 In8 Pt2'
_cell_volume   296.41358783
_cell_formula_units_Z   2
loop_
 _symmetry_equiv_pos_site_id
 _symmetry_equiv_pos_as_xyz
  1  'x, y, z'
loop_
 _atom_site_type_symbol
 _atom_site_label
 _atom_site_symmetry_multiplicity
 _atom_site_fract_x
 _atom_site_fract_y
 _atom_site_fract_z
 _atom_site_occupancy
  La  La0  1  -0.62330940  0.62330940  0.25000000  1.0
  La  La1  1  -0.37669060  1.37669060  0.75000000  1.0
  In  In2  1  -0.81688366  0.81688366  0.45049349  1.0
  In  In3  1  -0.81688366  0.81688366  0.04950651  1.0
  In  In4  1  -0.18311634  1.18311634  0.95049349  1.0
  In  In5  1  -0.18311634  1.18311634  0.54950651  1.0
  In  In6  1  -0.43304483  1.43304483  0.25000000  1.0
  In  In7  1  -0.56695517  0.56695517  0.75000000  1.0
  In  In8  1  0.00000000  0.00000000  0.50000000  1.0
  In  In9  1  0.00000000  0.00000000  0.00000000  1.0
  Pt  Pt10  1  -0.27460981  1.27460981  0.25000000  1.0
  Pt  Pt11  1  -0.72539019  0.72539019  0.75000000  1.0
