# generated using pymatgen
data_Rb3LaN6
_symmetry_space_group_name_H-M   'P 1'
_cell_length_a   8.36103019
_cell_length_b   8.36103019
_cell_length_c   8.36103019
_cell_angle_alpha   90.84183325
_cell_angle_beta   90.84183325
_cell_angle_gamma   90.84183325
_symmetry_Int_Tables_number   1
_chemical_formula_structural   Rb3LaN6
_chemical_formula_sum   'Rb6 La2 N12'
_cell_volume   584.30194211
_cell_formula_units_Z   2
loop_
 _symmetry_equiv_pos_site_id
 _symmetry_equiv_pos_as_xyz
  1  'x, y, z'
loop_
 _atom_site_type_symbol
 _atom_site_label
 _atom_site_symmetry_multiplicity
 _atom_site_fract_x
 _atom_site_fract_y
 _atom_site_fract_z
 _atom_site_occupancy
  Rb  Rb0  1  0.91579098  1.25000000  -0.41579098  1.0
  Rb  Rb1  1  1.41579098  0.08420902  -0.25000000  1.0
  Rb  Rb2  1  0.75000000  0.41579098  0.08420902  1.0
  Rb  Rb3  1  1.25000000  0.58420902  -0.08420902  1.0
  Rb  Rb4  1  1.08420902  -0.25000000  0.41579098  1.0
  Rb  Rb5  1  0.58420902  0.91579098  0.25000000  1.0
  La  La6  1  0.50000000  0.50000000  0.50000000  1.0
  La  La7  1  0.00000000  0.00000000  0.00000000  1.0
  N  N8  1  1.22670997  0.43909232  -0.42999656  1.0
  N  N9  1  0.72670997  1.07000344  -0.06090768  1.0
  N  N10  1  0.92999656  0.06090768  0.27329003  1.0
  N  N11  1  1.42999656  -0.22670997  0.56090768  1.0
  N  N12  1  1.56090768  0.42999656  -0.22670997  1.0
  N  N13  1  1.06090768  0.27329003  -0.07000344  1.0
  N  N14  1  0.77329003  0.56090768  0.42999656  1.0
  N  N15  1  1.27329003  -0.07000344  0.06090768  1.0
  N  N16  1  0.57000344  1.22670997  -0.56090768  1.0
  N  N17  1  1.07000344  0.93909232  -0.27329003  1.0
  N  N18  1  0.93909232  0.72670997  0.07000344  1.0
  N  N19  1  0.43909232  0.57000344  0.22670997  1.0
