# generated using pymatgen
data_ZrPbO3
_symmetry_space_group_name_H-M   'P 1'
_cell_length_a   5.96275183
_cell_length_b   11.88193599
_cell_length_c   8.28356854
_cell_angle_alpha   90.00000000
_cell_angle_beta   90.00000000
_cell_angle_gamma   90.00000000
_symmetry_Int_Tables_number   1
_chemical_formula_structural   ZrPbO3
_chemical_formula_sum   'Zr8 Pb8 O24'
_cell_volume   586.88284245
_cell_formula_units_Z   8
loop_
 _symmetry_equiv_pos_site_id
 _symmetry_equiv_pos_as_xyz
  1  'x, y, z'
loop_
 _atom_site_type_symbol
 _atom_site_label
 _atom_site_symmetry_multiplicity
 _atom_site_fract_x
 _atom_site_fract_y
 _atom_site_fract_z
 _atom_site_occupancy
  Zr  Zr0  1  0.23957270  0.62358313  0.74965279  1.0
  Zr  Zr1  1  0.23957270  0.62358313  0.25034721  1.0
  Zr  Zr2  1  0.73957270  0.87641687  0.74965279  1.0
  Zr  Zr3  1  0.73957270  0.87641687  0.25034721  1.0
  Zr  Zr4  1  0.76042730  0.37641687  0.74965279  1.0
  Zr  Zr5  1  0.76042730  0.37641687  0.25034721  1.0
  Zr  Zr6  1  0.26042730  0.12358313  0.74965279  1.0
  Zr  Zr7  1  0.26042730  0.12358313  0.25034721  1.0
  Pb  Pb8  1  0.19496399  0.87486411  0.50000000  1.0
  Pb  Pb9  1  0.69496399  0.62513589  0.50000000  1.0
  Pb  Pb10  1  0.80503601  0.12513589  0.50000000  1.0
  Pb  Pb11  1  0.30503601  0.37486411  0.50000000  1.0
  Pb  Pb12  1  0.20334013  0.86965469  0.00000000  1.0
  Pb  Pb13  1  0.70334013  0.63034531  0.00000000  1.0
  Pb  Pb14  1  0.79665987  0.13034531  0.00000000  1.0
  Pb  Pb15  1  0.29665987  0.36965469  0.00000000  1.0
  O  O16  1  0.02900800  0.75992709  0.77889389  1.0
  O  O17  1  0.02900800  0.75992709  0.22110611  1.0
  O  O18  1  0.52900800  0.74007291  0.77889389  1.0
  O  O19  1  0.52900800  0.74007291  0.22110611  1.0
  O  O20  1  0.97099200  0.24007291  0.77889389  1.0
  O  O21  1  0.97099200  0.24007291  0.22110611  1.0
  O  O22  1  0.47099200  0.25992709  0.77889389  1.0
  O  O23  1  0.47099200  0.25992709  0.22110611  1.0
  O  O24  1  0.27315307  0.65501512  0.50000000  1.0
  O  O25  1  0.77315307  0.84498488  0.50000000  1.0
  O  O26  1  0.72684693  0.34498488  0.50000000  1.0
  O  O27  1  0.22684693  0.15501512  0.50000000  1.0
  O  O28  1  0.29488586  0.59735583  0.00000000  1.0
  O  O29  1  0.79488586  0.90264417  0.00000000  1.0
  O  O30  1  0.70511414  0.40264417  0.00000000  1.0
  O  O31  1  0.20511414  0.09735583  0.00000000  1.0
  O  O32  1  0.50000000  0.00000000  0.73033442  1.0
  O  O33  1  0.50000000  0.00000000  0.26966558  1.0
  O  O34  1  0.00000000  0.50000000  0.73033442  1.0
  O  O35  1  0.00000000  0.50000000  0.26966558  1.0
  O  O36  1  0.50000000  0.50000000  0.70666196  1.0
  O  O37  1  0.50000000  0.50000000  0.29333804  1.0
  O  O38  1  0.00000000  0.00000000  0.70666196  1.0
  O  O39  1  0.00000000  0.00000000  0.29333804  1.0
