# generated using pymatgen
data_H4CS(NO)2
_symmetry_space_group_name_H-M   'P 1'
_cell_length_a   7.99020732
_cell_length_b   9.12667796
_cell_length_c   9.25426443
_cell_angle_alpha   50.44831378
_cell_angle_beta   66.98289806
_cell_angle_gamma   69.15519101
_symmetry_Int_Tables_number   1
_chemical_formula_structural   H4CS(NO)2
_chemical_formula_sum   'H16 C4 S4 N8 O8'
_cell_volume   473.46374281
_cell_formula_units_Z   4
loop_
 _symmetry_equiv_pos_site_id
 _symmetry_equiv_pos_as_xyz
  1  'x, y, z'
loop_
 _atom_site_type_symbol
 _atom_site_label
 _atom_site_symmetry_multiplicity
 _atom_site_fract_x
 _atom_site_fract_y
 _atom_site_fract_z
 _atom_site_occupancy
  H  H0  1  0.96077936  -0.19176182  0.96874362  1.0
  H  H1  1  0.03922064  -0.80823818  1.03125638  1.0
  H  H2  1  0.96032685  -0.67234108  1.44326295  1.0
  H  H3  1  0.03967315  -0.32765892  0.55673705  1.0
  H  H4  1  0.77544032  -0.96448489  1.22480085  1.0
  H  H5  1  0.22455968  -0.03551511  0.77519915  1.0
  H  H6  1  0.75606228  -0.06717295  0.87660302  1.0
  H  H7  1  0.24393772  -0.93282705  1.12339698  1.0
  H  H8  1  0.77460238  -0.52761843  1.26481031  1.0
  H  H9  1  0.22539762  -0.47238157  0.73518969  1.0
  H  H10  1  0.55034227  -0.58143038  1.35164305  1.0
  H  H11  1  0.44965773  -0.41856962  0.64835695  1.0
  H  H12  1  0.55705690  -0.33828813  0.93359006  1.0
  H  H13  1  0.44294310  -0.66171187  1.06640994  1.0
  H  H14  1  0.21542261  -0.80799807  1.55433133  1.0
  H  H15  1  0.78457739  -0.19200193  0.44566867  1.0
  C  C16  1  0.97618477  -0.92960457  1.70534756  1.0
  C  C17  1  0.02381523  -0.07039543  0.29465244  1.0
  C  C18  1  0.70706413  -0.75440310  1.55024675  1.0
  C  C19  1  0.29293587  -0.24559690  0.44975325  1.0
  S  S20  1  0.75423532  -0.52049617  0.85052049  1.0
  S  S21  1  0.24576468  -0.47950383  1.14947951  1.0
  S  S22  1  0.54325478  -0.88788342  1.73142024  1.0
  S  S23  1  0.45674522  -0.11211658  0.26857976  1.0
  N  N24  1  0.89301923  -0.07500501  0.86450386  1.0
  N  N25  1  0.10698077  -0.92499499  1.13549614  1.0
  N  N26  1  0.88478960  -0.77902059  1.56276906  1.0
  N  N27  1  0.11521040  -0.22097941  0.43723094  1.0
  N  N28  1  0.67567698  -0.60795304  1.37562154  1.0
  N  N29  1  0.32432302  -0.39204696  0.62437846  1.0
  N  N30  1  0.15137852  -0.92307528  1.67478383  1.0
  N  N31  1  0.84862148  -0.07692472  0.32521617  1.0
  O  O32  1  0.95674878  -0.55583795  0.81488099  1.0
  O  O33  1  0.04325122  -0.44416205  1.18511901  1.0
  O  O34  1  0.67199602  -0.69819362  1.01331771  1.0
  O  O35  1  0.32800398  -0.30180638  0.98668229  1.0
  O  O36  1  0.69507333  -0.38040653  0.91544774  1.0
  O  O37  1  0.30492667  -0.61959347  1.08455226  1.0
  O  O38  1  0.31314793  -0.58154094  1.32365787  1.0
  O  O39  1  0.68685207  -0.41845906  0.67634213  1.0
