# generated using pymatgen
data_HfNiAs
_symmetry_space_group_name_H-M   'P 1'
_cell_length_a   6.44834608
_cell_length_b   3.87563419
_cell_length_c   7.34599300
_cell_angle_alpha   90.00000000
_cell_angle_beta   90.00000000
_cell_angle_gamma   90.00000000
_symmetry_Int_Tables_number   1
_chemical_formula_structural   HfNiAs
_chemical_formula_sum   'Hf4 Ni4 As4'
_cell_volume   183.58687408
_cell_formula_units_Z   4
loop_
 _symmetry_equiv_pos_site_id
 _symmetry_equiv_pos_as_xyz
  1  'x, y, z'
loop_
 _atom_site_type_symbol
 _atom_site_label
 _atom_site_symmetry_multiplicity
 _atom_site_fract_x
 _atom_site_fract_y
 _atom_site_fract_z
 _atom_site_occupancy
  Hf  Hf0  1  1.01560728  0.75000000  0.68587615  1.0
  Hf  Hf1  1  0.51560728  0.75000000  0.81412385  1.0
  Hf  Hf2  1  -0.01560728  0.25000000  0.31412385  1.0
  Hf  Hf3  1  0.48439272  0.25000000  0.18587615  1.0
  Ni  Ni4  1  0.66395814  0.75000000  0.42638021  1.0
  Ni  Ni5  1  0.16395814  0.75000000  0.07361979  1.0
  Ni  Ni6  1  0.33604186  0.25000000  0.57361979  1.0
  Ni  Ni7  1  0.83604186  0.25000000  0.92638021  1.0
  As  As8  1  0.78024466  0.75000000  0.10872226  1.0
  As  As9  1  0.28024466  0.75000000  0.39127774  1.0
  As  As10  1  0.21975534  0.25000000  0.89127774  1.0
  As  As11  1  0.71975534  0.25000000  0.60872226  1.0
