# generated using pymatgen
data_KCr2GaO8
_symmetry_space_group_name_H-M   'P 1'
_cell_length_a   5.18500130
_cell_length_b   5.18500130
_cell_length_c   7.82695536
_cell_angle_alpha   86.97910746
_cell_angle_beta   93.02089254
_cell_angle_gamma   116.12631865
_symmetry_Int_Tables_number   1
_chemical_formula_structural   KCr2GaO8
_chemical_formula_sum   'K1 Cr2 Ga1 O8'
_cell_volume   188.55734419
_cell_formula_units_Z   1
loop_
 _symmetry_equiv_pos_site_id
 _symmetry_equiv_pos_as_xyz
  1  'x, y, z'
loop_
 _atom_site_type_symbol
 _atom_site_label
 _atom_site_symmetry_multiplicity
 _atom_site_fract_x
 _atom_site_fract_y
 _atom_site_fract_z
 _atom_site_occupancy
  K  K0  1  0.00000000  -0.00000000  0.50000000  1.0
  Cr  Cr1  1  0.63229675  -0.63229675  0.79545501  1.0
  Cr  Cr2  1  0.36770325  -0.36770325  0.20454499  1.0
  Ga  Ga3  1  0.00000000  0.00000000  0.00000000  1.0
  O  O4  1  1.27515460  0.22150326  0.82047039  1.0
  O  O5  1  0.77849674  -0.27515460  0.82047039  1.0
  O  O6  1  1.22150326  0.27515460  0.17952961  1.0
  O  O7  1  0.72484540  -0.22150326  0.17952961  1.0
  O  O8  1  0.77709999  -0.77709999  0.93846642  1.0
  O  O9  1  0.22290001  -0.22290001  0.06153358  1.0
  O  O10  1  0.68839220  -0.68839220  0.60364953  1.0
  O  O11  1  0.31160780  -0.31160780  0.39635047  1.0
