# generated using pymatgen
data_Sr3ZnCoO6
_symmetry_space_group_name_H-M   'P 1'
_cell_length_a   6.62124220
_cell_length_b   6.62124220
_cell_length_c   6.62124220
_cell_angle_alpha   92.44037186
_cell_angle_beta   92.44037186
_cell_angle_gamma   92.44037186
_symmetry_Int_Tables_number   1
_chemical_formula_structural   Sr3ZnCoO6
_chemical_formula_sum   'Sr6 Zn2 Co2 O12'
_cell_volume   289.46789621
_cell_formula_units_Z   2
loop_
 _symmetry_equiv_pos_site_id
 _symmetry_equiv_pos_as_xyz
  1  'x, y, z'
loop_
 _atom_site_type_symbol
 _atom_site_label
 _atom_site_symmetry_multiplicity
 _atom_site_fract_x
 _atom_site_fract_y
 _atom_site_fract_z
 _atom_site_occupancy
  Sr  Sr0  1  0.88580809  1.25000000  -0.38580809  1.0
  Sr  Sr1  1  1.38580809  0.11419191  -0.25000000  1.0
  Sr  Sr2  1  0.75000000  0.38580809  0.11419191  1.0
  Sr  Sr3  1  1.25000000  0.61419191  -0.11419191  1.0
  Sr  Sr4  1  1.11419191  -0.25000000  0.38580809  1.0
  Sr  Sr5  1  0.61419191  0.88580809  0.25000000  1.0
  Zn  Zn6  1  0.25000000  0.25000000  0.25000000  1.0
  Zn  Zn7  1  0.75000000  0.75000000  0.75000000  1.0
  Co  Co8  1  0.50000000  0.50000000  0.50000000  1.0
  Co  Co9  1  0.00000000  0.00000000  0.00000000  1.0
  O  O10  1  1.22487259  0.41257774  -0.45833374  1.0
  O  O11  1  0.72487259  1.04166626  -0.08742226  1.0
  O  O12  1  0.95833374  0.08742226  0.27512741  1.0
  O  O13  1  1.45833374  -0.22487259  0.58742226  1.0
  O  O14  1  1.58742226  0.45833374  -0.22487259  1.0
  O  O15  1  1.08742226  0.27512741  -0.04166626  1.0
  O  O16  1  0.77512741  0.58742226  0.45833374  1.0
  O  O17  1  1.27512741  -0.04166626  0.08742226  1.0
  O  O18  1  0.54166626  1.22487259  -0.58742226  1.0
  O  O19  1  1.04166626  0.91257774  -0.27512741  1.0
  O  O20  1  0.91257774  0.72487259  0.04166626  1.0
  O  O21  1  0.41257774  0.54166626  0.22487259  1.0
