# generated using pymatgen
data_La3Sb5O12
_symmetry_space_group_name_H-M   'P 1'
_cell_length_a   9.79721580
_cell_length_b   9.79721580
_cell_length_c   9.79721580
_cell_angle_alpha   109.47122063
_cell_angle_beta   109.47122063
_cell_angle_gamma   109.47122063
_symmetry_Int_Tables_number   1
_chemical_formula_structural   La3Sb5O12
_chemical_formula_sum   'La6 Sb10 O24'
_cell_volume   723.91259301
_cell_formula_units_Z   2
loop_
 _symmetry_equiv_pos_site_id
 _symmetry_equiv_pos_as_xyz
  1  'x, y, z'
loop_
 _atom_site_type_symbol
 _atom_site_label
 _atom_site_symmetry_multiplicity
 _atom_site_fract_x
 _atom_site_fract_y
 _atom_site_fract_z
 _atom_site_occupancy
  La  La0  1  0.25000000  0.75000000  0.50000000  1.0
  La  La1  1  0.75000000  0.25000000  0.50000000  1.0
  La  La2  1  0.25000000  0.50000000  0.75000000  1.0
  La  La3  1  0.50000000  0.25000000  0.75000000  1.0
  La  La4  1  0.75000000  0.50000000  0.25000000  1.0
  La  La5  1  0.50000000  0.75000000  0.25000000  1.0
  Sb  Sb6  1  0.71825995  0.71825995  0.00000000  1.0
  Sb  Sb7  1  0.71825995  -0.00000000  0.71825995  1.0
  Sb  Sb8  1  0.00000000  0.71825995  0.71825995  1.0
  Sb  Sb9  1  0.28174005  0.00000000  0.28174005  1.0
  Sb  Sb10  1  0.00000000  0.28174005  0.28174005  1.0
  Sb  Sb11  1  0.28174005  0.28174005  0.00000000  1.0
  Sb  Sb12  1  0.50024008  0.50024008  0.50024008  1.0
  Sb  Sb13  1  1.00000000  1.00000000  0.49975992  1.0
  Sb  Sb14  1  1.00000000  0.49975992  1.00000000  1.0
  Sb  Sb15  1  0.49975992  1.00000000  1.00000000  1.0
  O  O16  1  0.80414585  0.51182895  0.51182895  1.0
  O  O17  1  0.51182895  0.80414585  0.51182895  1.0
  O  O18  1  1.00000000  1.29231690  0.48817105  1.0
  O  O19  1  1.29231690  1.00000000  0.48817105  1.0
  O  O20  1  0.51182895  0.51182895  0.80414585  1.0
  O  O21  1  0.70768310  0.70768310  0.19585415  1.0
  O  O22  1  1.00000000  0.48817105  1.29231690  1.0
  O  O23  1  0.70768310  0.19585415  0.70768310  1.0
  O  O24  1  0.19585415  0.70768310  0.70768310  1.0
  O  O25  1  0.48817105  1.00000000  1.29231690  1.0
  O  O26  1  1.29231690  0.48817105  1.00000000  1.0
  O  O27  1  0.48817105  1.29231690  1.00000000  1.0
  O  O28  1  0.27381456  0.46937904  0.46937904  1.0
  O  O29  1  0.46937904  0.27381456  0.46937904  1.0
  O  O30  1  1.00000000  0.80443552  1.53062096  1.0
  O  O31  1  0.80443552  1.00000000  1.53062096  1.0
  O  O32  1  0.46937904  0.46937904  0.27381456  1.0
  O  O33  1  1.19556448  1.19556448  0.72618544  1.0
  O  O34  1  1.00000000  1.53062096  0.80443552  1.0
  O  O35  1  1.19556448  0.72618544  1.19556448  1.0
  O  O36  1  0.72618544  1.19556448  1.19556448  1.0
  O  O37  1  1.53062096  1.00000000  0.80443552  1.0
  O  O38  1  0.80443552  1.53062096  1.00000000  1.0
  O  O39  1  1.53062096  0.80443552  1.00000000  1.0
