# generated using pymatgen
data_N2
_symmetry_space_group_name_H-M   'P 1'
_cell_length_a   4.57542746
_cell_length_b   4.57542746
_cell_length_c   6.43684049
_cell_angle_alpha   90.00000000
_cell_angle_beta   90.00000000
_cell_angle_gamma   120.00000000
_symmetry_Int_Tables_number   1
_chemical_formula_structural   N2
_chemical_formula_sum   N4
_cell_volume   116.69889049
_cell_formula_units_Z   2
loop_
 _symmetry_equiv_pos_site_id
 _symmetry_equiv_pos_as_xyz
  1  'x, y, z'
loop_
 _atom_site_type_symbol
 _atom_site_label
 _atom_site_symmetry_multiplicity
 _atom_site_fract_x
 _atom_site_fract_y
 _atom_site_fract_z
 _atom_site_occupancy
  N  N0  1  0.33333333  0.66666667  0.16415924  1.0
  N  N1  1  0.66666667  0.33333333  0.83584076  1.0
  N  N2  1  0.66666667  0.33333333  0.66415924  1.0
  N  N3  1  0.33333333  0.66666667  0.33584076  1.0
