# generated using pymatgen
data_HfAu3
_symmetry_space_group_name_H-M   'P 1'
_cell_length_a   4.84544992
_cell_length_b   6.11660221
_cell_length_c   4.94015557
_cell_angle_alpha   90.00000000
_cell_angle_beta   90.00000000
_cell_angle_gamma   90.00000000
_symmetry_Int_Tables_number   1
_chemical_formula_structural   HfAu3
_chemical_formula_sum   'Hf2 Au6'
_cell_volume   146.41479754
_cell_formula_units_Z   2
loop_
 _symmetry_equiv_pos_site_id
 _symmetry_equiv_pos_as_xyz
  1  'x, y, z'
loop_
 _atom_site_type_symbol
 _atom_site_label
 _atom_site_symmetry_multiplicity
 _atom_site_fract_x
 _atom_site_fract_y
 _atom_site_fract_z
 _atom_site_occupancy
  Hf  Hf0  1  0.00000000  0.50000000  0.16196745  1.0
  Hf  Hf1  1  0.50000000  0.00000000  0.83803255  1.0
  Au  Au2  1  0.00000000  0.24804007  0.66540263  1.0
  Au  Au3  1  0.00000000  0.75195993  0.66540263  1.0
  Au  Au4  1  0.50000000  0.74804007  0.33459737  1.0
  Au  Au5  1  0.50000000  0.25195993  0.33459737  1.0
  Au  Au6  1  0.00000000  0.00000000  0.15728513  1.0
  Au  Au7  1  0.50000000  0.50000000  0.84271487  1.0
