# generated using pymatgen
data_RbV3(SeO6)2
_symmetry_space_group_name_H-M   'P 1'
_cell_length_a   7.19314555
_cell_length_b   7.19314555
_cell_length_c   12.02754327
_cell_angle_alpha   90.00000000
_cell_angle_beta   90.00000000
_cell_angle_gamma   120.00000000
_symmetry_Int_Tables_number   1
_chemical_formula_structural   RbV3(SeO6)2
_chemical_formula_sum   'Rb2 V6 Se4 O24'
_cell_volume   538.94600303
_cell_formula_units_Z   2
loop_
 _symmetry_equiv_pos_site_id
 _symmetry_equiv_pos_as_xyz
  1  'x, y, z'
loop_
 _atom_site_type_symbol
 _atom_site_label
 _atom_site_symmetry_multiplicity
 _atom_site_fract_x
 _atom_site_fract_y
 _atom_site_fract_z
 _atom_site_occupancy
  Rb  Rb0  1  0.33333333  0.66666667  0.11018565  1.0
  Rb  Rb1  1  0.66666667  0.33333333  0.61018565  1.0
  V  V2  1  0.78851856  0.66677324  0.27656774  1.0
  V  V3  1  0.66677324  0.87825467  0.77656774  1.0
  V  V4  1  0.87825467  0.21148144  0.27656774  1.0
  V  V5  1  0.33322676  0.12174533  0.27656774  1.0
  V  V6  1  0.21148144  0.33322676  0.77656774  1.0
  V  V7  1  0.12174533  0.78851856  0.77656774  1.0
  Se  Se8  1  -0.00000000  -0.00000000  -0.01023827  1.0
  Se  Se9  1  -0.00000000  -0.00000000  0.48976173  1.0
  Se  Se10  1  0.33333333  0.66666667  0.56010704  1.0
  Se  Se11  1  0.66666667  0.33333333  0.06010704  1.0
  O  O12  1  0.13054431  0.87860266  0.24618375  1.0
  O  O13  1  0.87860266  0.74805835  0.74618375  1.0
  O  O14  1  0.74805835  0.86945569  0.24618375  1.0
  O  O15  1  0.12139734  0.25194165  0.24618375  1.0
  O  O16  1  0.86945569  0.12139734  0.74618375  1.0
  O  O17  1  0.25194165  0.13054431  0.74618375  1.0
  O  O18  1  0.88122198  0.74734509  0.42880756  1.0
  O  O19  1  0.74734509  0.86612310  0.92880756  1.0
  O  O20  1  0.86612310  0.11877802  0.42880756  1.0
  O  O21  1  0.25265491  0.13387690  0.42880756  1.0
  O  O22  1  0.11877802  0.25265491  0.92880756  1.0
  O  O23  1  0.13387690  0.88122198  0.92880756  1.0
  O  O24  1  0.80244358  0.58578317  0.11966532  1.0
  O  O25  1  0.58578317  0.78333959  0.61966532  1.0
  O  O26  1  0.78333959  0.19755642  0.11966532  1.0
  O  O27  1  0.41421683  0.21666041  0.11966532  1.0
  O  O28  1  0.19755642  0.41421683  0.61966532  1.0
  O  O29  1  0.21666041  0.80244358  0.61966532  1.0
  O  O30  1  0.54429725  0.46252459  0.30099083  1.0
  O  O31  1  0.46252459  0.91822733  0.80099083  1.0
  O  O32  1  0.91822733  0.45570275  0.30099083  1.0
  O  O33  1  0.53747541  0.08177267  0.30099083  1.0
  O  O34  1  0.45570275  0.53747541  0.80099083  1.0
  O  O35  1  0.08177267  0.54429725  0.80099083  1.0
