# generated using pymatgen
data_Ta7(Te12I5)2
_symmetry_space_group_name_H-M   'P 1'
_cell_length_a   6.89569963
_cell_length_b   27.58407252
_cell_length_c   8.16788877
_cell_angle_alpha   96.75545277
_cell_angle_beta   101.92995716
_cell_angle_gamma   90.29477716
_symmetry_Int_Tables_number   1
_chemical_formula_structural   Ta7(Te12I5)2
_chemical_formula_sum   'Ta7 Te24 I10'
_cell_volume   1508.82194304
_cell_formula_units_Z   1
loop_
 _symmetry_equiv_pos_site_id
 _symmetry_equiv_pos_as_xyz
  1  'x, y, z'
loop_
 _atom_site_type_symbol
 _atom_site_label
 _atom_site_symmetry_multiplicity
 _atom_site_fract_x
 _atom_site_fract_y
 _atom_site_fract_z
 _atom_site_occupancy
  Ta  Ta0  1  -0.88993016  -0.78600762  -0.56440301  1.0
  Ta  Ta1  1  -0.11006984  -0.21399238  -0.43559699  1.0
  Ta  Ta2  1  -0.75015858  -0.50012303  -0.99929001  1.0
  Ta  Ta3  1  -0.24984142  -0.49987697  -0.00070999  1.0
  Ta  Ta4  1  -0.39010576  -0.78584180  -0.56295102  1.0
  Ta  Ta5  1  -0.60989424  -0.21415820  -0.43704898  1.0
  Ta  Ta6  1  -0.50000000  -0.00000000  0.00000000  1.0
  Te  Te7  1  -0.95143634  -0.55250319  -0.79468296  1.0
  Te  Te8  1  -0.04856366  -0.44749681  -0.20531704  1.0
  Te  Te9  1  -0.93836903  -0.44854389  -0.74997339  1.0
  Te  Te10  1  -0.06163097  -0.55145611  -0.25002661  1.0
  Te  Te11  1  -0.92829249  -0.19957141  -0.71507901  1.0
  Te  Te12  1  -0.07170751  -0.80042859  -0.28492099  1.0
  Te  Te13  1  -0.86667390  -0.29802951  -0.45600820  1.0
  Te  Te14  1  -0.13332610  -0.70197049  -0.54399180  1.0
  Te  Te15  1  -0.70220997  -0.83517915  -0.82013590  1.0
  Te  Te16  1  -0.29779003  -0.16482085  -0.17986410  1.0
  Te  Te17  1  -0.68808609  -0.73246491  -0.76497852  1.0
  Te  Te18  1  -0.31191391  -0.26753509  -0.23502148  1.0
  Te  Te19  1  -0.59125684  -0.83830854  -0.35797244  1.0
  Te  Te20  1  -0.40874316  -0.16169146  -0.64202756  1.0
  Te  Te21  1  -0.57888865  -0.73404134  -0.31569643  1.0
  Te  Te22  1  -0.42111135  -0.26595866  -0.68430357  1.0
  Te  Te23  1  -0.49422445  -0.41585767  -0.98168032  1.0
  Te  Te24  1  -0.50577555  -0.58414233  -0.01831968  1.0
  Te  Te25  1  -0.43151070  -0.51598650  -0.72231818  1.0
  Te  Te26  1  -0.56848930  -0.48401350  -0.27768182  1.0
  Te  Te27  1  -0.20868051  -0.77013446  -0.84135080  1.0
  Te  Te28  1  -0.79131949  -0.22986554  -0.15864920  1.0
  Te  Te29  1  -0.14459953  -0.87019407  -0.57175202  1.0
  Te  Te30  1  -0.85540047  -0.12980593  -0.42824798  1.0
  I  I31  1  -0.96147053  -0.33750260  -0.85068342  1.0
  I  I32  1  -0.03852947  -0.66249740  -0.14931658  1.0
  I  I33  1  -0.78682919  -0.96388707  -0.23513364  1.0
  I  I34  1  -0.21317081  -0.03611293  -0.76486636  1.0
  I  I35  1  -0.74080987  -0.08232249  -1.01218618  1.0
  I  I36  1  -0.25919013  -0.91767751  0.01218618  1.0
  I  I37  1  -0.66663856  -0.95392262  -0.74234984  1.0
  I  I38  1  -0.33336144  -0.04607738  -0.25765016  1.0
  I  I39  1  -0.60280699  -0.62560543  -0.42129443  1.0
  I  I40  1  -0.39719301  -0.37439457  -0.57870557  1.0
