# generated using pymatgen
data_Ba3P4
_symmetry_space_group_name_H-M   'P 1'
_cell_length_a   9.70101950
_cell_length_b   8.10830707
_cell_length_c   11.85357652
_cell_angle_alpha   54.31064223
_cell_angle_beta   42.75355563
_cell_angle_gamma   82.93580214
_symmetry_Int_Tables_number   1
_chemical_formula_structural   Ba3P4
_chemical_formula_sum   'Ba6 P8'
_cell_volume   428.01327180
_cell_formula_units_Z   2
loop_
 _symmetry_equiv_pos_site_id
 _symmetry_equiv_pos_as_xyz
  1  'x, y, z'
loop_
 _atom_site_type_symbol
 _atom_site_label
 _atom_site_symmetry_multiplicity
 _atom_site_fract_x
 _atom_site_fract_y
 _atom_site_fract_z
 _atom_site_occupancy
  Ba  Ba0  1  0.65908460  0.33068767  -0.32210053  1.0
  Ba  Ba1  1  0.57210053  0.91767174  -0.40908460  1.0
  Ba  Ba2  1  0.33068767  0.65908460  0.33232826  1.0
  Ba  Ba3  1  0.91767174  0.57210053  -0.08068767  1.0
  Ba  Ba4  1  0.99593389  -0.00406611  0.00406611  1.0
  Ba  Ba5  1  0.24593389  0.24593389  0.25406611  1.0
  P  P6  1  -0.41462940  0.42451169  0.41936968  1.0
  P  P7  1  0.83063032  0.67925197  -0.33537060  1.0
  P  P8  1  0.42451169  -0.41462940  0.57074803  1.0
  P  P9  1  0.67925197  0.83063032  -0.17451169  1.0
  P  P10  1  0.90105282  1.05595872  -0.24916739  1.0
  P  P11  1  0.49916739  -0.04215585  0.34894718  1.0
  P  P12  1  1.05595872  0.90105282  -0.70784415  1.0
  P  P13  1  -0.04215585  0.49916739  0.19404128  1.0
