# generated using pymatgen
data_Li(Mo3Se4)2
_symmetry_space_group_name_H-M   'P 1'
_cell_length_a   6.79200324
_cell_length_b   6.79200324
_cell_length_c   6.79200324
_cell_angle_alpha   91.70764435
_cell_angle_beta   91.70764435
_cell_angle_gamma   91.70764435
_symmetry_Int_Tables_number   1
_chemical_formula_structural   Li(Mo3Se4)2
_chemical_formula_sum   'Li1 Mo6 Se8'
_cell_volume   312.89805803
_cell_formula_units_Z   1
loop_
 _symmetry_equiv_pos_site_id
 _symmetry_equiv_pos_as_xyz
  1  'x, y, z'
loop_
 _atom_site_type_symbol
 _atom_site_label
 _atom_site_symmetry_multiplicity
 _atom_site_fract_x
 _atom_site_fract_y
 _atom_site_fract_z
 _atom_site_occupancy
  Li  Li0  1  0.00000000  0.00000000  0.00000000  1.0
  Mo  Mo1  1  1.58134359  -0.23337854  0.45009854  1.0
  Mo  Mo2  1  0.76662146  0.45009854  0.58134359  1.0
  Mo  Mo3  1  1.45009854  0.58134359  -0.23337854  1.0
  Mo  Mo4  1  0.41865641  1.23337854  -0.45009854  1.0
  Mo  Mo5  1  1.23337854  0.54990146  -0.58134359  1.0
  Mo  Mo6  1  0.54990146  0.41865641  0.23337854  1.0
  Se  Se7  1  0.77651271  0.77651271  0.77651271  1.0
  Se  Se8  1  0.22348729  0.22348729  0.22348729  1.0
  Se  Se9  1  0.62285063  1.25918043  -0.12702137  1.0
  Se  Se10  1  1.25918043  0.87297863  -0.37714937  1.0
  Se  Se11  1  0.87297863  0.62285063  0.25918043  1.0
  Se  Se12  1  1.37714937  -0.25918043  0.12702137  1.0
  Se  Se13  1  0.74081957  0.12702137  0.37714937  1.0
  Se  Se14  1  1.12702137  0.37714937  -0.25918043  1.0
