# generated using pymatgen
data_KVO3
_symmetry_space_group_name_H-M   'P 1'
_cell_length_a   5.33468785
_cell_length_b   10.88338132
_cell_length_c   5.73575661
_cell_angle_alpha   90.00000000
_cell_angle_beta   90.00000000
_cell_angle_gamma   90.00000000
_symmetry_Int_Tables_number   1
_chemical_formula_structural   KVO3
_chemical_formula_sum   'K4 V4 O12'
_cell_volume   333.01482842
_cell_formula_units_Z   4
loop_
 _symmetry_equiv_pos_site_id
 _symmetry_equiv_pos_as_xyz
  1  'x, y, z'
loop_
 _atom_site_type_symbol
 _atom_site_label
 _atom_site_symmetry_multiplicity
 _atom_site_fract_x
 _atom_site_fract_y
 _atom_site_fract_z
 _atom_site_occupancy
  K  K0  1  0.55724803  0.10500516  0.25000000  1.0
  K  K1  1  0.55724803  0.39499484  0.75000000  1.0
  K  K2  1  0.44275197  0.60500516  0.25000000  1.0
  K  K3  1  0.44275197  0.89499484  0.75000000  1.0
  V  V4  1  0.98312549  0.83803799  0.25000000  1.0
  V  V5  1  0.98312549  0.66196201  0.75000000  1.0
  V  V6  1  0.01687451  0.33803799  0.25000000  1.0
  V  V7  1  0.01687451  0.16196201  0.75000000  1.0
  O  O8  1  0.91047361  0.25000000  0.50000000  1.0
  O  O9  1  0.91047361  0.25000000  0.00000000  1.0
  O  O10  1  0.08952639  0.75000000  0.50000000  1.0
  O  O11  1  0.08952639  0.75000000  0.00000000  1.0
  O  O12  1  0.88126168  0.47367136  0.25000000  1.0
  O  O13  1  0.88126168  0.02632864  0.75000000  1.0
  O  O14  1  0.11873832  0.97367136  0.25000000  1.0
  O  O15  1  0.11873832  0.52632864  0.75000000  1.0
  O  O16  1  0.32657913  0.35283489  0.25000000  1.0
  O  O17  1  0.32657913  0.14716511  0.75000000  1.0
  O  O18  1  0.67342087  0.85283489  0.25000000  1.0
  O  O19  1  0.67342087  0.64716511  0.75000000  1.0
