# generated using pymatgen
data_Ag3Te(AsO7)2
_symmetry_space_group_name_H-M   'P 1'
_cell_length_a   7.51321260
_cell_length_b   7.51321260
_cell_length_c   11.26565478
_cell_angle_alpha   90.00000000
_cell_angle_beta   90.00000000
_cell_angle_gamma   120.00000000
_symmetry_Int_Tables_number   1
_chemical_formula_structural   Ag3Te(AsO7)2
_chemical_formula_sum   'Ag6 Te2 As4 O28'
_cell_volume   550.72961041
_cell_formula_units_Z   2
loop_
 _symmetry_equiv_pos_site_id
 _symmetry_equiv_pos_as_xyz
  1  'x, y, z'
loop_
 _atom_site_type_symbol
 _atom_site_label
 _atom_site_symmetry_multiplicity
 _atom_site_fract_x
 _atom_site_fract_y
 _atom_site_fract_z
 _atom_site_occupancy
  Ag  Ag0  1  0.51386483  0.48613517  0.25000000  1.0
  Ag  Ag1  1  0.51386483  0.02772967  0.25000000  1.0
  Ag  Ag2  1  0.48613517  0.51386483  0.75000000  1.0
  Ag  Ag3  1  0.48613517  0.97227033  0.75000000  1.0
  Ag  Ag4  1  0.97227033  0.48613517  0.25000000  1.0
  Ag  Ag5  1  0.02772967  0.51386483  0.75000000  1.0
  Te  Te6  1  -0.00000000  0.00000000  0.25000000  1.0
  Te  Te7  1  -0.00000000  -0.00000000  0.75000000  1.0
  As  As8  1  0.33333333  0.66666667  0.03096955  1.0
  As  As9  1  0.33333333  0.66666667  0.46903045  1.0
  As  As10  1  0.66666667  0.33333333  0.96903045  1.0
  As  As11  1  0.66666667  0.33333333  0.53096955  1.0
  O  O12  1  0.32943656  0.88133622  0.08963976  1.0
  O  O13  1  0.32943656  0.44810033  0.41036024  1.0
  O  O14  1  0.88133622  0.32943656  0.91036024  1.0
  O  O15  1  0.88133622  0.55189967  0.58963976  1.0
  O  O16  1  0.55189967  0.88133622  0.41036024  1.0
  O  O17  1  0.55189967  0.67056344  0.08963976  1.0
  O  O18  1  0.11866378  0.67056344  0.41036024  1.0
  O  O19  1  0.11866378  0.44810033  0.08963976  1.0
  O  O20  1  0.67056344  0.55189967  0.91036024  1.0
  O  O21  1  0.67056344  0.11866378  0.58963976  1.0
  O  O22  1  0.44810033  0.32943656  0.58963976  1.0
  O  O23  1  0.44810033  0.11866378  0.91036024  1.0
  O  O24  1  0.98120514  0.75970359  0.15758113  1.0
  O  O25  1  0.98120514  0.22150155  0.34241887  1.0
  O  O26  1  0.75970359  0.98120514  0.84241887  1.0
  O  O27  1  0.75970359  0.77849845  0.65758113  1.0
  O  O28  1  0.77849845  0.75970359  0.34241887  1.0
  O  O29  1  0.77849845  0.01879486  0.15758113  1.0
  O  O30  1  0.24029641  0.01879486  0.34241887  1.0
  O  O31  1  0.24029641  0.22150155  0.15758113  1.0
  O  O32  1  0.01879486  0.77849845  0.84241887  1.0
  O  O33  1  0.01879486  0.24029641  0.65758113  1.0
  O  O34  1  0.22150155  0.98120514  0.65758113  1.0
  O  O35  1  0.22150155  0.24029641  0.84241887  1.0
  O  O36  1  0.33333333  0.66666667  0.62403253  1.0
  O  O37  1  0.33333333  0.66666667  0.87596747  1.0
  O  O38  1  0.66666667  0.33333333  0.37596747  1.0
  O  O39  1  0.66666667  0.33333333  0.12403253  1.0
