# generated using pymatgen
data_Sr2Cu2O5
_symmetry_space_group_name_H-M   'P 1'
_cell_length_a   5.55367972
_cell_length_b   11.08319878
_cell_length_c   3.72114882
_cell_angle_alpha   90.00000000
_cell_angle_beta   90.00000000
_cell_angle_gamma   90.00000000
_symmetry_Int_Tables_number   1
_chemical_formula_structural   Sr2Cu2O5
_chemical_formula_sum   'Sr4 Cu4 O10'
_cell_volume   229.04614742
_cell_formula_units_Z   2
loop_
 _symmetry_equiv_pos_site_id
 _symmetry_equiv_pos_as_xyz
  1  'x, y, z'
loop_
 _atom_site_type_symbol
 _atom_site_label
 _atom_site_symmetry_multiplicity
 _atom_site_fract_x
 _atom_site_fract_y
 _atom_site_fract_z
 _atom_site_occupancy
  Sr  Sr0  1  0.21548528  0.86517108  0.50000000  1.0
  Sr  Sr1  1  0.71548528  0.63482892  0.50000000  1.0
  Sr  Sr2  1  0.78451472  0.13482892  0.50000000  1.0
  Sr  Sr3  1  0.28451472  0.36517108  0.50000000  1.0
  Cu  Cu4  1  0.24186741  0.62174265  0.00000000  1.0
  Cu  Cu5  1  0.74186741  0.87825735  0.00000000  1.0
  Cu  Cu6  1  0.75813259  0.37825735  0.00000000  1.0
  Cu  Cu7  1  0.25813259  0.12174265  0.00000000  1.0
  O  O8  1  0.20093309  0.59433551  0.50000000  1.0
  O  O9  1  0.70093309  0.90566449  0.50000000  1.0
  O  O10  1  0.79906691  0.40566449  0.50000000  1.0
  O  O11  1  0.29906691  0.09433551  0.50000000  1.0
  O  O12  1  0.48712651  0.76818505  0.00000000  1.0
  O  O13  1  0.98712651  0.73181495  0.00000000  1.0
  O  O14  1  0.51287349  0.23181495  0.00000000  1.0
  O  O15  1  0.01287349  0.26818505  0.00000000  1.0
  O  O16  1  0.50000000  0.50000000  0.00000000  1.0
  O  O17  1  0.00000000  0.00000000  0.00000000  1.0
