# generated using pymatgen
data_NaNb2AsO8
_symmetry_space_group_name_H-M   'P 1'
_cell_length_a   4.95934364
_cell_length_b   8.84111710
_cell_length_c   15.29936482
_cell_angle_alpha   90.00000000
_cell_angle_beta   100.91001212
_cell_angle_gamma   90.00000000
_symmetry_Int_Tables_number   1
_chemical_formula_structural   NaNb2AsO8
_chemical_formula_sum   'Na4 Nb8 As4 O32'
_cell_volume   658.69346213
_cell_formula_units_Z   4
loop_
 _symmetry_equiv_pos_site_id
 _symmetry_equiv_pos_as_xyz
  1  'x, y, z'
loop_
 _atom_site_type_symbol
 _atom_site_label
 _atom_site_symmetry_multiplicity
 _atom_site_fract_x
 _atom_site_fract_y
 _atom_site_fract_z
 _atom_site_occupancy
  Na  Na0  1  0.95736581  0.47771639  0.38163425  1.0
  Na  Na1  1  0.95736581  0.02228361  0.88163425  1.0
  Na  Na2  1  0.04263419  0.97771639  0.11836575  1.0
  Na  Na3  1  0.04263419  0.52228361  0.61836575  1.0
  Nb  Nb4  1  0.96209728  0.07601361  0.35940915  1.0
  Nb  Nb5  1  0.96209728  0.42398639  0.85940915  1.0
  Nb  Nb6  1  0.03790272  0.57601361  0.14059085  1.0
  Nb  Nb7  1  0.03790272  0.92398639  0.64059085  1.0
  Nb  Nb8  1  0.56356718  0.29155341  0.01824957  1.0
  Nb  Nb9  1  0.56356718  0.20844659  0.51824957  1.0
  Nb  Nb10  1  0.43643282  0.79155341  0.48175043  1.0
  Nb  Nb11  1  0.43643282  0.70844659  0.98175043  1.0
  As  As12  1  0.38943481  0.26615547  0.23234511  1.0
  As  As13  1  0.38943481  0.23384453  0.73234511  1.0
  As  As14  1  0.61056519  0.76615547  0.26765489  1.0
  As  As15  1  0.61056519  0.73384453  0.76765489  1.0
  O  O16  1  0.83790326  0.40006105  0.10921047  1.0
  O  O17  1  0.83790326  0.09993895  0.60921047  1.0
  O  O18  1  0.16209674  0.90006105  0.39078953  1.0
  O  O19  1  0.16209674  0.59993895  0.89078953  1.0
  O  O20  1  0.83043130  0.62564496  0.24529634  1.0
  O  O21  1  0.83043130  0.87435504  0.74529634  1.0
  O  O22  1  0.16956870  0.12564496  0.25470366  1.0
  O  O23  1  0.16956870  0.37435504  0.75470366  1.0
  O  O24  1  0.72814842  0.94780015  0.25443718  1.0
  O  O25  1  0.72814842  0.55219985  0.75443718  1.0
  O  O26  1  0.27185158  0.44780015  0.24556282  1.0
  O  O27  1  0.27185158  0.05219985  0.74556282  1.0
  O  O28  1  0.73794931  0.37445727  0.50016582  1.0
  O  O29  1  0.73794931  0.12554273  1.00016582  1.0
  O  O30  1  0.26205069  0.87445727  -0.00016582  1.0
  O  O31  1  0.26205069  0.62554273  0.49983418  1.0
  O  O32  1  0.71083203  0.25907196  0.29874295  1.0
  O  O33  1  0.71083203  0.24092804  0.79874295  1.0
  O  O34  1  0.28916797  0.75907196  0.20125705  1.0
  O  O35  1  0.28916797  0.74092804  0.70125705  1.0
  O  O36  1  0.70316040  0.05769601  0.43726719  1.0
  O  O37  1  0.70316040  0.44230399  0.93726719  1.0
  O  O38  1  0.29683960  0.55769601  0.06273281  1.0
  O  O39  1  0.29683960  0.94230399  0.56273281  1.0
  O  O40  1  0.39358108  0.22259671  0.12093123  1.0
  O  O41  1  0.39358108  0.27740329  0.62093123  1.0
  O  O42  1  0.60641892  0.72259671  0.37906877  1.0
  O  O43  1  0.60641892  0.77740329  0.87906877  1.0
  O  O44  1  0.21114835  0.21463480  0.43133204  1.0
  O  O45  1  0.21114835  0.28536520  0.93133204  1.0
  O  O46  1  0.78885165  0.71463480  0.06866796  1.0
  O  O47  1  0.78885165  0.78536520  0.56866796  1.0
