# generated using pymatgen
data_Ta5Ga3
_symmetry_space_group_name_H-M   'P 1'
_cell_length_a   7.62067524
_cell_length_b   7.62067524
_cell_length_c   7.62067524
_cell_angle_alpha   127.43957157
_cell_angle_beta   127.43957157
_cell_angle_gamma   77.53467534
_symmetry_Int_Tables_number   1
_chemical_formula_structural   Ta5Ga3
_chemical_formula_sum   'Ta10 Ga6'
_cell_volume   270.58579309
_cell_formula_units_Z   2
loop_
 _symmetry_equiv_pos_site_id
 _symmetry_equiv_pos_as_xyz
  1  'x, y, z'
loop_
 _atom_site_type_symbol
 _atom_site_label
 _atom_site_symmetry_multiplicity
 _atom_site_fract_x
 _atom_site_fract_y
 _atom_site_fract_z
 _atom_site_occupancy
  Ta  Ta0  1  1.18245892  0.68245892  1.17652864  1.0
  Ta  Ta1  1  0.49406972  0.99406972  1.17652864  1.0
  Ta  Ta2  1  1.00593028  1.18245892  1.50000000  1.0
  Ta  Ta3  1  0.31754108  0.49406972  0.50000000  1.0
  Ta  Ta4  1  0.68245892  0.50593028  0.50000000  1.0
  Ta  Ta5  1  0.99406972  0.81754108  1.50000000  1.0
  Ta  Ta6  1  0.50593028  1.00593028  0.82347136  1.0
  Ta  Ta7  1  0.81754108  0.31754108  0.82347136  1.0
  Ta  Ta8  1  0.00000000  0.00000000  0.00000000  1.0
  Ta  Ta9  1  0.50000000  0.50000000  1.00000000  1.0
  Ga  Ga10  1  0.86569842  0.36569842  1.23139684  1.0
  Ga  Ga11  1  0.63430158  0.86569842  1.50000000  1.0
  Ga  Ga12  1  0.36569842  0.13430158  0.50000000  1.0
  Ga  Ga13  1  0.13430158  0.63430158  0.76860316  1.0
  Ga  Ga14  1  0.75000000  0.75000000  1.00000000  1.0
  Ga  Ga15  1  0.25000000  0.25000000  0.00000000  1.0
