# generated using pymatgen
data_Na2Si2O5
_symmetry_space_group_name_H-M   'P 1'
_cell_length_a   18.70716675
_cell_length_b   4.87997459
_cell_length_c   6.45154108
_cell_angle_alpha   90.00000000
_cell_angle_beta   90.00000000
_cell_angle_gamma   90.00000000
_symmetry_Int_Tables_number   1
_chemical_formula_structural   Na2Si2O5
_chemical_formula_sum   'Na8 Si8 O20'
_cell_volume   588.96440045
_cell_formula_units_Z   4
loop_
 _symmetry_equiv_pos_site_id
 _symmetry_equiv_pos_as_xyz
  1  'x, y, z'
loop_
 _atom_site_type_symbol
 _atom_site_label
 _atom_site_symmetry_multiplicity
 _atom_site_fract_x
 _atom_site_fract_y
 _atom_site_fract_z
 _atom_site_occupancy
  Na  Na0  1  0.39022803  0.76910596  0.24597425  1.0
  Na  Na1  1  0.89022803  0.73089404  0.24597425  1.0
  Na  Na2  1  0.60977197  0.23089404  0.74597425  1.0
  Na  Na3  1  0.10977197  0.26910596  0.74597425  1.0
  Na  Na4  1  0.17121058  0.76875128  0.00204300  1.0
  Na  Na5  1  0.67121058  0.73124872  0.00204300  1.0
  Na  Na6  1  0.82878942  0.23124872  0.50204300  1.0
  Na  Na7  1  0.32878942  0.26875128  0.50204300  1.0
  Si  Si8  1  0.41305612  0.79920013  0.69840924  1.0
  Si  Si9  1  0.91305612  0.70079987  0.69840924  1.0
  Si  Si10  1  0.58694388  0.20079987  0.19840924  1.0
  Si  Si11  1  0.08694388  0.29920013  0.19840924  1.0
  Si  Si12  1  0.06625751  0.79704364  0.48891178  1.0
  Si  Si13  1  0.56625751  0.70295636  0.48891178  1.0
  Si  Si14  1  0.93374249  0.20295636  -0.01108822  1.0
  Si  Si15  1  0.43374249  0.29704364  -0.01108822  1.0
  O  O16  1  0.48032327  0.75792492  0.53331920  1.0
  O  O17  1  -0.01967673  0.74207508  0.53331920  1.0
  O  O18  1  0.51967673  0.24207508  0.03331920  1.0
  O  O19  1  0.01967673  0.25792492  0.03331920  1.0
  O  O20  1  0.42699472  0.62333679  0.91434151  1.0
  O  O21  1  0.92699472  0.87666321  0.91434151  1.0
  O  O22  1  0.57300528  0.37666321  0.41434151  1.0
  O  O23  1  0.07300528  0.12333679  0.41434151  1.0
  O  O24  1  0.41381473  0.12437857  0.77520324  1.0
  O  O25  1  0.91381473  0.37562143  0.77520324  1.0
  O  O26  1  0.58618527  0.87562143  0.27520324  1.0
  O  O27  1  0.08618527  0.62437857  0.27520324  1.0
  O  O28  1  0.34086673  0.73974380  0.57452329  1.0
  O  O29  1  0.84086673  0.76025620  0.57452329  1.0
  O  O30  1  0.65913327  0.26025620  0.07452329  1.0
  O  O31  1  0.15913327  0.23974380  0.07452329  1.0
  O  O32  1  0.11570648  0.74377961  0.68527450  1.0
  O  O33  1  0.61570648  0.75622039  0.68527450  1.0
  O  O34  1  0.88429352  0.25622039  0.18527450  1.0
  O  O35  1  0.38429352  0.24377961  0.18527450  1.0
