# generated using pymatgen
data_Li5SbO5
_symmetry_space_group_name_H-M   'P 1'
_cell_length_a   5.30399780
_cell_length_b   5.30399780
_cell_length_c   5.86285176
_cell_angle_alpha   72.43094971
_cell_angle_beta   107.56905029
_cell_angle_gamma   134.87051851
_symmetry_Int_Tables_number   1
_chemical_formula_structural   Li5SbO5
_chemical_formula_sum   'Li5 Sb1 O5'
_cell_volume   110.46942923
_cell_formula_units_Z   1
loop_
 _symmetry_equiv_pos_site_id
 _symmetry_equiv_pos_as_xyz
  1  'x, y, z'
loop_
 _atom_site_type_symbol
 _atom_site_label
 _atom_site_symmetry_multiplicity
 _atom_site_fract_x
 _atom_site_fract_y
 _atom_site_fract_z
 _atom_site_occupancy
  Li  Li0  1  0.71292102  0.28707898  0.34313450  1.0
  Li  Li1  1  0.28707898  -0.28707898  0.65686550  1.0
  Li  Li2  1  0.68909157  0.31090843  0.86116732  1.0
  Li  Li3  1  0.31090843  -0.31090843  0.13883268  1.0
  Li  Li4  1  0.00000000  -0.00000000  0.50000000  1.0
  Sb  Sb5  1  0.00000000  0.00000000  0.00000000  1.0
  O  O6  1  0.85576882  0.14423118  0.17504381  1.0
  O  O7  1  0.14423118  -0.14423118  0.82495619  1.0
  O  O8  1  0.84153181  0.15846819  0.68192124  1.0
  O  O9  1  0.15846819  -0.15846819  0.31807876  1.0
  O  O10  1  0.50000000  0.50000000  -0.00000000  1.0
