# generated using pymatgen
data_LiCaAlN2
_symmetry_space_group_name_H-M   'P 1'
_cell_length_a   5.18711730
_cell_length_b   8.72940872
_cell_length_c   5.37249248
_cell_angle_alpha   90.00000000
_cell_angle_beta   100.97993505
_cell_angle_gamma   90.00000000
_symmetry_Int_Tables_number   1
_chemical_formula_structural   LiCaAlN2
_chemical_formula_sum   'Li4 Ca4 Al4 N8'
_cell_volume   238.81567287
_cell_formula_units_Z   4
loop_
 _symmetry_equiv_pos_site_id
 _symmetry_equiv_pos_as_xyz
  1  'x, y, z'
loop_
 _atom_site_type_symbol
 _atom_site_label
 _atom_site_symmetry_multiplicity
 _atom_site_fract_x
 _atom_site_fract_y
 _atom_site_fract_z
 _atom_site_occupancy
  Li  Li0  1  0.25031424  0.22023993  0.99925337  1.0
  Li  Li1  1  0.74968576  0.77976007  0.00074663  1.0
  Li  Li2  1  0.74968576  0.72023993  0.50074663  1.0
  Li  Li3  1  0.25031424  0.27976007  0.49925337  1.0
  Ca  Ca4  1  0.24955114  0.63766718  0.49973578  1.0
  Ca  Ca5  1  0.75044886  0.36233282  0.50026422  1.0
  Ca  Ca6  1  0.75044886  0.13766718  0.00026422  1.0
  Ca  Ca7  1  0.24955114  0.86233282  0.99973578  1.0
  Al  Al8  1  0.25003631  0.00390174  0.49999506  1.0
  Al  Al9  1  0.74996369  0.99609826  0.50000494  1.0
  Al  Al10  1  0.74996369  0.50390174  0.00000494  1.0
  Al  Al11  1  0.25003631  0.49609826  0.99999506  1.0
  N  N12  1  0.03058183  0.11373455  0.69299186  1.0
  N  N13  1  0.96941817  0.88626545  0.30700814  1.0
  N  N14  1  0.96941817  0.61373455  0.80700814  1.0
  N  N15  1  0.03058183  0.38626545  0.19299186  1.0
  N  N16  1  0.46926205  0.11351347  0.30649963  1.0
  N  N17  1  0.53073795  0.88648653  0.69350037  1.0
  N  N18  1  0.53073795  0.61351347  0.19350037  1.0
  N  N19  1  0.46926205  0.38648653  0.80649963  1.0
