# generated using pymatgen
data_TiBi2
_symmetry_space_group_name_H-M   'P 1'
_cell_length_a   11.13378287
_cell_length_b   10.29431475
_cell_length_c   5.90803109
_cell_angle_alpha   82.00577816
_cell_angle_beta   66.29343454
_cell_angle_gamma   31.70078730
_symmetry_Int_Tables_number   1
_chemical_formula_structural   TiBi2
_chemical_formula_sum   'Ti4 Bi8'
_cell_volume   295.38671500
_cell_formula_units_Z   4
loop_
 _symmetry_equiv_pos_site_id
 _symmetry_equiv_pos_as_xyz
  1  'x, y, z'
loop_
 _atom_site_type_symbol
 _atom_site_label
 _atom_site_symmetry_multiplicity
 _atom_site_fract_x
 _atom_site_fract_y
 _atom_site_fract_z
 _atom_site_occupancy
  Ti  Ti0  1  0.12632253  1.12632253  -0.12632253  1.0
  Ti  Ti1  1  0.87367747  0.87367747  -0.87367747  1.0
  Ti  Ti2  1  0.12367747  0.12367747  1.37632253  1.0
  Ti  Ti3  1  1.37632253  0.37632253  0.12367747  1.0
  Bi  Bi4  1  -0.42140203  0.57859797  0.42140203  1.0
  Bi  Bi5  1  0.42140203  1.42140203  -0.42140203  1.0
  Bi  Bi6  1  0.67140203  0.67140203  0.82859797  1.0
  Bi  Bi7  1  0.82859797  0.82859797  0.67140203  1.0
  Bi  Bi8  1  0.83248268  -0.83248268  0.83248268  1.0
  Bi  Bi9  1  0.16751732  -0.16751732  1.16751732  1.0
  Bi  Bi10  1  1.41751732  0.08248268  0.41751732  1.0
  Bi  Bi11  1  0.08248268  1.41751732  0.08248268  1.0
