# generated using pymatgen
data_Li4La3Ge4
_symmetry_space_group_name_H-M   'P 1'
_cell_length_a   8.59652905
_cell_length_b   8.59652905
_cell_length_c   8.59652905
_cell_angle_alpha   149.45793278
_cell_angle_beta   132.11618130
_cell_angle_gamma   57.86659215
_symmetry_Int_Tables_number   1
_chemical_formula_structural   Li4La3Ge4
_chemical_formula_sum   'Li4 La3 Ge4'
_cell_volume   237.70765383
_cell_formula_units_Z   1
loop_
 _symmetry_equiv_pos_site_id
 _symmetry_equiv_pos_as_xyz
  1  'x, y, z'
loop_
 _atom_site_type_symbol
 _atom_site_label
 _atom_site_symmetry_multiplicity
 _atom_site_fract_x
 _atom_site_fract_y
 _atom_site_fract_z
 _atom_site_occupancy
  Li  Li0  1  0.35948050  0.67036936  0.68911114  1.0
  Li  Li1  1  1.01874179  0.32963064  0.68911114  1.0
  Li  Li2  1  0.98125821  0.67036936  1.31088886  1.0
  Li  Li3  1  0.64051950  0.32963064  0.31088886  1.0
  La  La4  1  0.63235757  0.13235757  0.50000000  1.0
  La  La5  1  0.36764243  0.86764243  0.50000000  1.0
  La  La6  1  0.00000000  0.00000000  0.00000000  1.0
  Ge  Ge7  1  0.78632959  0.78632959  1.00000000  1.0
  Ge  Ge8  1  0.21367041  0.21367041  0.00000000  1.0
  Ge  Ge9  1  0.31724416  0.50000000  0.81724416  1.0
  Ge  Ge10  1  0.68275584  0.50000000  1.18275584  1.0
