# generated using pymatgen
data_Na2Al2(SiO4)3
_symmetry_space_group_name_H-M   'P 1'
_cell_length_a   9.94129311
_cell_length_b   9.81220467
_cell_length_c   13.12720377
_cell_angle_alpha   48.77452836
_cell_angle_beta   47.93246880
_cell_angle_gamma   83.29300284
_symmetry_Int_Tables_number   1
_chemical_formula_structural   Na2Al2(SiO4)3
_chemical_formula_sum   'Na4 Al4 Si6 O24'
_cell_volume   581.57835460
_cell_formula_units_Z   2
loop_
 _symmetry_equiv_pos_site_id
 _symmetry_equiv_pos_as_xyz
  1  'x, y, z'
loop_
 _atom_site_type_symbol
 _atom_site_label
 _atom_site_symmetry_multiplicity
 _atom_site_fract_x
 _atom_site_fract_y
 _atom_site_fract_z
 _atom_site_occupancy
  Si  Si0  1  0.57546965  0.69418862  -0.00078160  1.0
  Si  Si1  1  1.25078160  0.51887667  -0.32546965  1.0
  Si  Si2  1  0.69418862  0.57546965  -0.26887667  1.0
  Si  Si3  1  0.51887667  1.25078160  -0.44418862  1.0
  Si  Si4  1  1.02132883  0.02132883  -0.02132883  1.0
  Si  Si5  1  0.27132883  0.27132883  0.22867117  1.0
  Al  Al6  1  0.56923002  0.68411635  0.24245711  1.0
  Al  Al7  1  1.00754289  0.74580348  -0.31923002  1.0
  Al  Al8  1  0.68411635  0.56923002  -0.49580348  1.0
  Al  Al9  1  0.74580348  1.00754289  -0.43411635  1.0
  O  O10  1  0.59621723  0.46192508  0.33814190  1.0
  O  O11  1  0.91185810  0.64628421  -0.34621723  1.0
  O  O12  1  0.46192508  0.59621723  -0.39628421  1.0
  O  O13  1  0.64628421  0.91185810  -0.21192508  1.0
  O  O14  1  0.35229673  0.46559764  0.17676260  1.0
  O  O15  1  1.07323740  0.24465697  -0.10229673  1.0
  O  O16  1  0.46559764  0.35229673  0.00534303  1.0
  O  O17  1  0.24465697  1.07323740  -0.21559764  1.0
  O  O18  1  0.78263364  0.67174771  -0.08791825  1.0
  O  O19  1  1.33791825  0.61646310  -0.53263364  1.0
  O  O20  1  0.67174771  0.78263364  -0.36646310  1.0
  O  O21  1  0.61646310  1.33791825  -0.42174771  1.0
  O  O22  1  0.50182754  0.72646692  0.13322994  1.0
  O  O23  1  1.11677006  0.61152439  -0.25182754  1.0
  O  O24  1  0.72646692  0.50182754  -0.36152439  1.0
  O  O25  1  0.61152439  1.11677006  -0.47646692  1.0
  O  O26  1  0.45479564  0.10108141  0.38628172  1.0
  O  O27  1  -0.13628172  0.19215878  0.79520436  1.0
  O  O28  1  0.19215878  -0.13628172  0.14891859  1.0
  O  O29  1  0.10108141  0.45479564  0.05784122  1.0
  O  O30  1  0.03974960  0.20848191  0.32355122  1.0
  O  O31  1  0.20848191  0.03974960  0.42821728  1.0
  O  O32  1  0.82178272  0.92644878  0.04151809  1.0
  O  O33  1  0.92644878  0.82178272  -0.78974960  1.0
  Na  Na34  1  0.79613760  0.41170789  0.13486186  1.0
  Na  Na35  1  1.11513814  0.59270736  -0.54613760  1.0
  Na  Na36  1  0.41170789  0.79613760  -0.34270736  1.0
  Na  Na37  1  0.59270736  1.11513814  -0.16170789  1.0
