# generated using pymatgen
data_K2EuNb5O15
_symmetry_space_group_name_H-M   'P 1'
_cell_length_a   12.69207521
_cell_length_b   12.69207521
_cell_length_c   3.93835158
_cell_angle_alpha   90.00000000
_cell_angle_beta   90.00000000
_cell_angle_gamma   90.00000000
_symmetry_Int_Tables_number   1
_chemical_formula_structural   K2EuNb5O15
_chemical_formula_sum   'K4 Eu2 Nb10 O30'
_cell_volume   634.42422464
_cell_formula_units_Z   2
loop_
 _symmetry_equiv_pos_site_id
 _symmetry_equiv_pos_as_xyz
  1  'x, y, z'
loop_
 _atom_site_type_symbol
 _atom_site_label
 _atom_site_symmetry_multiplicity
 _atom_site_fract_x
 _atom_site_fract_y
 _atom_site_fract_z
 _atom_site_occupancy
  K  K0  1  0.32897135  0.17102865  0.50000000  1.0
  K  K1  1  0.82897135  0.32897135  0.50000000  1.0
  K  K2  1  0.67102865  0.82897135  0.50000000  1.0
  K  K3  1  0.17102865  0.67102865  0.50000000  1.0
  Eu  Eu4  1  0.50000000  0.50000000  0.50000000  1.0
  Eu  Eu5  1  0.00000000  0.00000000  0.50000000  1.0
  O  O6  1  0.42155399  0.69138843  0.50000000  1.0
  O  O7  1  0.92155399  0.80861157  0.50000000  1.0
  O  O8  1  0.30861157  0.42155399  0.50000000  1.0
  O  O9  1  0.80861157  0.07844601  0.50000000  1.0
  O  O10  1  0.57844601  0.30861157  0.50000000  1.0
  O  O11  1  0.07844601  0.19138843  0.50000000  1.0
  O  O12  1  0.69138843  0.57844601  0.50000000  1.0
  O  O13  1  0.19138843  0.92155399  0.50000000  1.0
  O  O14  1  0.50077526  0.84265253  0.00000000  1.0
  O  O15  1  0.00077526  0.65734747  0.00000000  1.0
  O  O16  1  0.15734747  0.50077526  0.00000000  1.0
  O  O17  1  0.65734747  0.99922474  0.00000000  1.0
  O  O18  1  0.49922474  0.15734747  0.00000000  1.0
  O  O19  1  0.99922474  0.34265253  0.00000000  1.0
  O  O20  1  0.84265253  0.49922474  0.00000000  1.0
  O  O21  1  0.34265253  0.00077526  0.00000000  1.0
  O  O22  1  0.36672388  0.56047624  0.00000000  1.0
  O  O23  1  0.86672388  0.93952376  0.00000000  1.0
  O  O24  1  0.43952376  0.36672388  0.00000000  1.0
  O  O25  1  0.93952376  0.13327612  0.00000000  1.0
  O  O26  1  0.63327612  0.43952376  0.00000000  1.0
  O  O27  1  0.13327612  0.06047624  0.00000000  1.0
  O  O28  1  0.56047624  0.63327612  0.00000000  1.0
  O  O29  1  0.06047624  0.86672388  0.00000000  1.0
  O  O30  1  0.78449533  0.71550467  0.00000000  1.0
  O  O31  1  0.28449533  0.78449533  0.00000000  1.0
  O  O32  1  0.21550467  0.28449533  0.00000000  1.0
  O  O33  1  0.71550467  0.21550467  0.00000000  1.0
  O  O34  1  0.50000000  0.00000000  0.50000000  1.0
  O  O35  1  0.00000000  0.50000000  0.50000000  1.0
  Nb  Nb36  1  0.42394260  0.71326467  0.00000000  1.0
  Nb  Nb37  1  0.92394260  0.78673533  0.00000000  1.0
  Nb  Nb38  1  0.28673533  0.42394260  0.00000000  1.0
  Nb  Nb39  1  0.78673533  0.07605740  0.00000000  1.0
  Nb  Nb40  1  0.57605740  0.28673533  0.00000000  1.0
  Nb  Nb41  1  0.07605740  0.21326467  0.00000000  1.0
  Nb  Nb42  1  0.71326467  0.57605740  0.00000000  1.0
  Nb  Nb43  1  0.21326467  0.92394260  0.00000000  1.0
  Nb  Nb44  1  0.50000000  0.00000000  0.00000000  1.0
  Nb  Nb45  1  0.00000000  0.50000000  0.00000000  1.0
