# generated using pymatgen
data_ZnAgPO4
_symmetry_space_group_name_H-M   'P 1'
_cell_length_a   5.22039881
_cell_length_b   10.61694499
_cell_length_c   9.00637721
_cell_angle_alpha   90.00000000
_cell_angle_beta   124.55360843
_cell_angle_gamma   90.00000000
_symmetry_Int_Tables_number   1
_chemical_formula_structural   ZnAgPO4
_chemical_formula_sum   'Zn4 Ag4 P4 O16'
_cell_volume   411.11899568
_cell_formula_units_Z   4
loop_
 _symmetry_equiv_pos_site_id
 _symmetry_equiv_pos_as_xyz
  1  'x, y, z'
loop_
 _atom_site_type_symbol
 _atom_site_label
 _atom_site_symmetry_multiplicity
 _atom_site_fract_x
 _atom_site_fract_y
 _atom_site_fract_z
 _atom_site_occupancy
  Zn  Zn0  1  0.66293497  0.65737798  0.47360933  1.0
  Zn  Zn1  1  0.66293497  0.84262202  0.97360933  1.0
  Zn  Zn2  1  0.33706503  0.15737798  0.02639067  1.0
  Zn  Zn3  1  0.33706503  0.34262202  0.52639067  1.0
  Ag  Ag4  1  0.82559884  0.39443150  0.01940252  1.0
  Ag  Ag5  1  0.82559884  0.10556850  0.51940252  1.0
  Ag  Ag6  1  0.17440116  0.89443150  0.48059748  1.0
  Ag  Ag7  1  0.17440116  0.60556850  0.98059748  1.0
  P  P8  1  0.60511901  0.39338643  0.29273686  1.0
  P  P9  1  0.60511901  0.10661357  0.79273686  1.0
  P  P10  1  0.39488099  0.89338643  0.20726314  1.0
  P  P11  1  0.39488099  0.60661357  0.70726314  1.0
  O  O12  1  0.91884206  0.37697427  0.31015981  1.0
  O  O13  1  0.91884206  0.12302573  0.81015981  1.0
  O  O14  1  0.08115794  0.87697427  0.18984019  1.0
  O  O15  1  0.08115794  0.62302573  0.68984019  1.0
  O  O16  1  0.65845578  0.82872717  0.38641089  1.0
  O  O17  1  0.65845578  0.67127283  0.88641089  1.0
  O  O18  1  0.34154422  0.32872717  0.11358911  1.0
  O  O19  1  0.34154422  0.17127283  0.61358911  1.0
  O  O20  1  0.63899774  0.33540813  0.46124157  1.0
  O  O21  1  0.63899774  0.16459187  0.96124157  1.0
  O  O22  1  0.36100226  0.83540813  0.03875843  1.0
  O  O23  1  0.36100226  0.66459187  0.53875843  1.0
  O  O24  1  0.48581886  0.03618573  0.22576523  1.0
  O  O25  1  0.48581886  0.46381427  0.72576523  1.0
  O  O26  1  0.51418114  0.53618573  0.27423477  1.0
  O  O27  1  0.51418114  0.96381427  0.77423477  1.0
