# generated using pymatgen
data_TlCr3O8
_symmetry_space_group_name_H-M   'P 1'
_cell_length_a   5.21060632
_cell_length_b   5.21060632
_cell_length_c   7.99335327
_cell_angle_alpha   93.43517699
_cell_angle_beta   86.56482301
_cell_angle_gamma   116.70278783
_symmetry_Int_Tables_number   1
_chemical_formula_structural   TlCr3O8
_chemical_formula_sum   'Tl1 Cr3 O8'
_cell_volume   193.39642743
_cell_formula_units_Z   1
loop_
 _symmetry_equiv_pos_site_id
 _symmetry_equiv_pos_as_xyz
  1  'x, y, z'
loop_
 _atom_site_type_symbol
 _atom_site_label
 _atom_site_symmetry_multiplicity
 _atom_site_fract_x
 _atom_site_fract_y
 _atom_site_fract_z
 _atom_site_occupancy
  Tl  Tl0  1  0.00000000  0.00000000  0.00000000  1.0
  Cr  Cr1  1  0.63544184  -0.63544184  0.69962995  1.0
  Cr  Cr2  1  0.36455816  -0.36455816  0.30037005  1.0
  Cr  Cr3  1  -0.00000000  0.00000000  0.50000000  1.0
  O  O4  1  0.21185240  -0.21185240  0.43173361  1.0
  O  O5  1  0.78814760  -0.78814760  0.56826639  1.0
  O  O6  1  0.32043874  -0.32043874  0.10762925  1.0
  O  O7  1  0.67956126  -0.67956126  0.89237075  1.0
  O  O8  1  0.78464296  -0.27883523  0.66963229  1.0
  O  O9  1  1.27883523  0.21535704  0.66963229  1.0
  O  O10  1  1.21535704  0.27883523  0.33036771  1.0
  O  O11  1  0.72116477  -0.21535704  0.33036771  1.0
