# generated using pymatgen
data_Lu2ReB6
_symmetry_space_group_name_H-M   'P 1'
_cell_length_a   9.06330677
_cell_length_b   11.40940688
_cell_length_c   3.60317234
_cell_angle_alpha   90.00000000
_cell_angle_beta   90.00000000
_cell_angle_gamma   90.00000000
_symmetry_Int_Tables_number   1
_chemical_formula_structural   Lu2ReB6
_chemical_formula_sum   'Lu8 Re4 B24'
_cell_volume   372.59307796
_cell_formula_units_Z   4
loop_
 _symmetry_equiv_pos_site_id
 _symmetry_equiv_pos_as_xyz
  1  'x, y, z'
loop_
 _atom_site_type_symbol
 _atom_site_label
 _atom_site_symmetry_multiplicity
 _atom_site_fract_x
 _atom_site_fract_y
 _atom_site_fract_z
 _atom_site_occupancy
  Lu  Lu0  1  0.17802247  0.91368559  0.50000000  1.0
  Lu  Lu1  1  0.67802247  0.58631441  0.50000000  1.0
  Lu  Lu2  1  0.82197753  0.08631441  0.50000000  1.0
  Lu  Lu3  1  0.32197753  0.41368559  0.50000000  1.0
  Lu  Lu4  1  0.05679089  0.62918315  0.50000000  1.0
  Lu  Lu5  1  0.55679089  0.87081685  0.50000000  1.0
  Lu  Lu6  1  0.94320911  0.37081685  0.50000000  1.0
  Lu  Lu7  1  0.44320911  0.12918315  0.50000000  1.0
  Re  Re8  1  0.36144548  0.67934073  0.50000000  1.0
  Re  Re9  1  0.86144548  0.82065927  0.50000000  1.0
  Re  Re10  1  0.63855452  0.32065927  0.50000000  1.0
  Re  Re11  1  0.13855452  0.17934073  0.50000000  1.0
  B  B12  1  0.44718650  0.56636280  0.00000000  1.0
  B  B13  1  0.94718650  0.93363720  0.00000000  1.0
  B  B14  1  0.55281350  0.43363720  0.00000000  1.0
  B  B15  1  0.05281350  0.06636280  0.00000000  1.0
  B  B16  1  0.40071899  0.97227378  0.00000000  1.0
  B  B17  1  0.90071899  0.52772622  0.00000000  1.0
  B  B18  1  0.59928101  0.02772622  0.00000000  1.0
  B  B19  1  0.09928101  0.47227378  0.00000000  1.0
  B  B20  1  0.36975291  0.81563084  0.00000000  1.0
  B  B21  1  0.86975291  0.68436916  0.00000000  1.0
  B  B22  1  0.63024709  0.18436916  0.00000000  1.0
  B  B23  1  0.13024709  0.31563084  0.00000000  1.0
  B  B24  1  0.24944470  0.58023233  0.00000000  1.0
  B  B25  1  0.74944470  0.91976767  0.00000000  1.0
  B  B26  1  0.75055530  0.41976767  0.00000000  1.0
  B  B27  1  0.25055530  0.08023233  0.00000000  1.0
  B  B28  1  0.20696718  0.73520350  0.00000000  1.0
  B  B29  1  0.70696718  0.76479650  0.00000000  1.0
  B  B30  1  0.79303282  0.26479650  0.00000000  1.0
  B  B31  1  0.29303282  0.23520350  0.00000000  1.0
  B  B32  1  0.01957333  0.78792810  0.00000000  1.0
  B  B33  1  0.51957333  0.71207190  0.00000000  1.0
  B  B34  1  0.98042667  0.21207190  0.00000000  1.0
  B  B35  1  0.48042667  0.28792810  0.00000000  1.0
