# generated using pymatgen
data_Tl2O3
_symmetry_space_group_name_H-M   'P 1'
_cell_length_a   9.32235131
_cell_length_b   9.32235131
_cell_length_c   9.32235131
_cell_angle_alpha   109.47122063
_cell_angle_beta   109.47122063
_cell_angle_gamma   109.47122063
_symmetry_Int_Tables_number   1
_chemical_formula_structural   Tl2O3
_chemical_formula_sum   'Tl16 O24'
_cell_volume   623.66949772
_cell_formula_units_Z   8
loop_
 _symmetry_equiv_pos_site_id
 _symmetry_equiv_pos_as_xyz
  1  'x, y, z'
loop_
 _atom_site_type_symbol
 _atom_site_label
 _atom_site_symmetry_multiplicity
 _atom_site_fract_x
 _atom_site_fract_y
 _atom_site_fract_z
 _atom_site_occupancy
  Tl  Tl0  1  1.71681117  1.46681117  1.25000000  1.0
  Tl  Tl1  1  1.21681117  0.96681117  1.25000000  1.0
  Tl  Tl2  1  0.75000000  0.78318883  0.03318883  1.0
  Tl  Tl3  1  0.25000000  1.21681117  0.96681117  1.0
  Tl  Tl4  1  0.25000000  0.71681117  0.46681117  1.0
  Tl  Tl5  1  0.75000000  1.28318883  0.53318883  1.0
  Tl  Tl6  1  1.46681117  1.25000000  1.71681117  1.0
  Tl  Tl7  1  0.96681117  0.25000000  1.21681117  1.0
  Tl  Tl8  1  0.03318883  0.75000000  0.78318883  1.0
  Tl  Tl9  1  0.53318883  0.75000000  0.28318883  1.0
  Tl  Tl10  1  0.28318883  0.53318883  0.75000000  1.0
  Tl  Tl11  1  0.78318883  1.03318883  0.75000000  1.0
  Tl  Tl12  1  1.00000000  0.50000000  1.00000000  1.0
  Tl  Tl13  1  0.50000000  0.50000000  0.50000000  1.0
  Tl  Tl14  1  1.00000000  1.00000000  1.50000000  1.0
  Tl  Tl15  1  1.50000000  1.00000000  1.00000000  1.0
  O  O16  1  0.54199706  0.53823228  0.77143472  1.0
  O  O17  1  1.04199706  1.27056233  1.00376478  1.0
  O  O18  1  0.26679755  0.77056233  0.72856528  1.0
  O  O19  1  0.76679755  1.03823228  0.49623522  1.0
  O  O20  1  0.50376478  1.23320245  0.96176772  1.0
  O  O21  1  1.00376478  1.04199706  1.27056233  1.0
  O  O22  1  0.77143472  0.54199706  0.53823228  1.0
  O  O23  1  1.27143472  0.73320245  1.22943767  1.0
  O  O24  1  0.77056233  0.72856528  0.26679755  1.0
  O  O25  1  1.27056233  1.00376478  1.04199706  1.0
  O  O26  1  0.96176772  1.50376478  1.23320245  1.0
  O  O27  1  1.46176772  1.22856528  1.45800294  1.0
  O  O28  1  1.73320245  1.22943767  1.27143472  1.0
  O  O29  1  1.23320245  0.96176772  1.50376478  1.0
  O  O30  1  1.45800294  1.46176772  1.22856528  1.0
  O  O31  1  0.95800294  0.72943767  0.99623522  1.0
  O  O32  1  1.22856528  1.45800294  1.46176772  1.0
  O  O33  1  0.72856528  1.26679755  0.77056233  1.0
  O  O34  1  1.49623522  0.76679755  1.03823228  1.0
  O  O35  1  0.99623522  0.95800294  0.72943767  1.0
  O  O36  1  1.03823228  0.49623522  0.76679755  1.0
  O  O37  1  0.53823228  0.77143472  0.54199706  1.0
  O  O38  1  1.22943767  1.27143472  1.73320245  1.0
  O  O39  1  0.72943767  0.99623522  0.95800294  1.0
