# generated using pymatgen
data_K2Zr(IO3)6
_symmetry_space_group_name_H-M   'P 1'
_cell_length_a   7.78186369
_cell_length_b   7.78186369
_cell_length_c   7.78186369
_cell_angle_alpha   97.08133633
_cell_angle_beta   97.08133633
_cell_angle_gamma   97.08133633
_symmetry_Int_Tables_number   1
_chemical_formula_structural   K2Zr(IO3)6
_chemical_formula_sum   'K2 Zr1 I6 O18'
_cell_volume   459.47676876
_cell_formula_units_Z   1
loop_
 _symmetry_equiv_pos_site_id
 _symmetry_equiv_pos_as_xyz
  1  'x, y, z'
loop_
 _atom_site_type_symbol
 _atom_site_label
 _atom_site_symmetry_multiplicity
 _atom_site_fract_x
 _atom_site_fract_y
 _atom_site_fract_z
 _atom_site_occupancy
  K  K0  1  0.67720246  0.67720246  0.67720246  1.0
  K  K1  1  0.32279754  0.32279754  0.32279754  1.0
  Zr  Zr2  1  -0.00000000  -0.00000000  0.00000000  1.0
  I  I3  1  0.82864332  0.61682109  0.20893722  1.0
  I  I4  1  1.38317891  -0.20893722  0.17135668  1.0
  I  I5  1  0.79106278  0.17135668  0.38317891  1.0
  I  I6  1  1.17135668  0.38317891  -0.20893722  1.0
  I  I7  1  0.61682109  1.20893722  -0.17135668  1.0
  I  I8  1  1.20893722  0.82864332  -0.38317891  1.0
  O  O9  1  0.82745908  0.78996126  0.05016897  1.0
  O  O10  1  1.21003874  -0.05016897  0.17254092  1.0
  O  O11  1  0.94983103  0.17254092  0.21003874  1.0
  O  O12  1  1.17254092  0.21003874  -0.05016897  1.0
  O  O13  1  0.78996126  1.05016897  -0.17254092  1.0
  O  O14  1  1.05016897  0.82745908  -0.21003874  1.0
  O  O15  1  0.58252294  0.57495416  0.19388579  1.0
  O  O16  1  1.42504584  -0.19388579  0.41747706  1.0
  O  O17  1  0.80611421  0.41747706  0.42504584  1.0
  O  O18  1  1.41747706  0.42504584  -0.19388579  1.0
  O  O19  1  0.57495416  1.19388579  -0.41747706  1.0
  O  O20  1  1.19388579  0.58252294  -0.42504584  1.0
  O  O21  1  1.41147951  0.89197658  -0.21740544  1.0
  O  O22  1  1.10802342  0.21740544  -0.41147951  1.0
  O  O23  1  1.21740544  -0.41147951  0.10802342  1.0
  O  O24  1  0.58852049  0.10802342  0.21740544  1.0
  O  O25  1  0.89197658  0.78259456  0.41147951  1.0
  O  O26  1  0.78259456  1.41147951  -0.10802342  1.0
