# generated using pymatgen
data_Be3N2
_symmetry_space_group_name_H-M   'P 1'
_cell_length_a   5.15369780
_cell_length_b   5.15369780
_cell_length_c   5.15369780
_cell_angle_alpha   32.09350521
_cell_angle_beta   32.09350521
_cell_angle_gamma   32.09350521
_symmetry_Int_Tables_number   1
_chemical_formula_structural   Be3N2
_chemical_formula_sum   'Be3 N2'
_cell_volume   34.33674186
_cell_formula_units_Z   1
loop_
 _symmetry_equiv_pos_site_id
 _symmetry_equiv_pos_as_xyz
  1  'x, y, z'
loop_
 _atom_site_type_symbol
 _atom_site_label
 _atom_site_symmetry_multiplicity
 _atom_site_fract_x
 _atom_site_fract_y
 _atom_site_fract_z
 _atom_site_occupancy
  Be  Be0  1  0.14070231  0.14070231  0.14070231  1.0
  Be  Be1  1  0.68244589  -0.31755411  -0.31755411  1.0
  Be  Be2  1  0.91115311  -0.08884689  -0.08884689  1.0
  N  N3  1  0.79584898  -0.20415102  -0.20415102  1.0
  N  N4  1  0.29174971  0.29174971  0.29174971  1.0
