# generated using pymatgen
data_Lu(Al3Ni)3
_symmetry_space_group_name_H-M   'P 1'
_cell_length_a   10.03521065
_cell_length_b   10.03521065
_cell_length_c   10.03521065
_cell_angle_alpha   42.43363117
_cell_angle_beta   42.43363117
_cell_angle_gamma   42.43363117
_symmetry_Int_Tables_number   1
_chemical_formula_structural   Lu(Al3Ni)3
_chemical_formula_sum   'Lu2 Al18 Ni6'
_cell_volume   416.55084003
_cell_formula_units_Z   2
loop_
 _symmetry_equiv_pos_site_id
 _symmetry_equiv_pos_as_xyz
  1  'x, y, z'
loop_
 _atom_site_type_symbol
 _atom_site_label
 _atom_site_symmetry_multiplicity
 _atom_site_fract_x
 _atom_site_fract_y
 _atom_site_fract_z
 _atom_site_occupancy
  Lu  Lu0  1  0.83308835  0.83308835  0.83308835  1.0
  Lu  Lu1  1  1.16691165  1.16691165  0.16691165  1.0
  Al  Al2  1  1.56636426  0.23553742  0.89702844  1.0
  Al  Al3  1  1.10297156  0.76446258  0.43363574  1.0
  Al  Al4  1  1.76446258  0.43363574  0.10297156  1.0
  Al  Al5  1  1.43363574  0.10297156  0.76446258  1.0
  Al  Al6  1  1.89702844  0.56636426  0.23553742  1.0
  Al  Al7  1  1.23553742  0.89702844  0.56636426  1.0
  Al  Al8  1  1.28944209  0.50000000  0.71055791  1.0
  Al  Al9  1  1.50000000  0.71055791  0.28944209  1.0
  Al  Al10  1  1.71055791  0.28944209  0.50000000  1.0
  Al  Al11  1  0.66597182  0.00000000  -0.66597182  1.0
  Al  Al12  1  -0.00000000  0.33402818  -0.33402818  1.0
  Al  Al13  1  0.33402818  -0.33402818  -0.00000000  1.0
  Al  Al14  1  0.94785914  0.94785914  0.94785914  1.0
  Al  Al15  1  1.05214086  1.05214086  0.05214086  1.0
  Al  Al16  1  0.71830707  0.71830707  0.71830707  1.0
  Al  Al17  1  1.28169293  1.28169293  0.28169293  1.0
  Al  Al18  1  1.61277839  0.61277839  0.61277839  1.0
  Al  Al19  1  1.38722161  0.38722161  0.38722161  1.0
  Ni  Ni20  1  1.58138000  0.92166973  0.24109107  1.0
  Ni  Ni21  1  0.75890893  1.07833027  0.41862000  1.0
  Ni  Ni22  1  1.07833027  1.41862000  -0.24109107  1.0
  Ni  Ni23  1  1.41862000  0.75890893  0.07833027  1.0
  Ni  Ni24  1  1.24109107  1.58138000  -0.07833027  1.0
  Ni  Ni25  1  0.92166973  1.24109107  0.58138000  1.0
