# generated using pymatgen
data_Zr6Ni16Ge7
_symmetry_space_group_name_H-M   'P 1'
_cell_length_a   8.24999021
_cell_length_b   8.24999021
_cell_length_c   8.24999021
_cell_angle_alpha   60.00000000
_cell_angle_beta   60.00000000
_cell_angle_gamma   60.00000000
_symmetry_Int_Tables_number   1
_chemical_formula_structural   Zr6Ni16Ge7
_chemical_formula_sum   'Zr6 Ni16 Ge7'
_cell_volume   397.05009259
_cell_formula_units_Z   1
loop_
 _symmetry_equiv_pos_site_id
 _symmetry_equiv_pos_as_xyz
  1  'x, y, z'
loop_
 _atom_site_type_symbol
 _atom_site_label
 _atom_site_symmetry_multiplicity
 _atom_site_fract_x
 _atom_site_fract_y
 _atom_site_fract_z
 _atom_site_occupancy
  Zr  Zr0  1  -0.70692322  0.70692322  0.70692322  1.0
  Zr  Zr1  1  -0.29307678  0.29307678  0.70692322  1.0
  Zr  Zr2  1  0.70692322  0.70692322  -0.70692322  1.0
  Zr  Zr3  1  0.29307678  1.29307678  -0.29307678  1.0
  Zr  Zr4  1  0.29307678  -0.29307678  1.29307678  1.0
  Zr  Zr5  1  -0.29307678  0.29307678  0.29307678  1.0
  Ni  Ni6  1  0.88147738  0.88147738  -0.11852262  1.0
  Ni  Ni7  1  1.11852262  0.11852262  0.64443215  1.0
  Ni  Ni8  1  1.11852262  0.64443215  0.11852262  1.0
  Ni  Ni9  1  0.35556785  0.88147738  -0.11852262  1.0
  Ni  Ni10  1  1.64443215  0.11852262  0.11852262  1.0
  Ni  Ni11  1  0.88147738  0.35556785  -0.11852262  1.0
  Ni  Ni12  1  0.88147738  0.88147738  -0.64443215  1.0
  Ni  Ni13  1  1.11852262  0.11852262  0.11852262  1.0
  Ni  Ni14  1  0.66859487  0.66859487  -0.33140513  1.0
  Ni  Ni15  1  1.33140513  0.33140513  0.00578460  1.0
  Ni  Ni16  1  1.33140513  0.00578460  0.33140513  1.0
  Ni  Ni17  1  0.99421540  0.66859487  -0.33140513  1.0
  Ni  Ni18  1  1.00578460  0.33140513  0.33140513  1.0
  Ni  Ni19  1  0.66859487  0.99421540  -0.33140513  1.0
  Ni  Ni20  1  0.66859487  0.66859487  -0.00578460  1.0
  Ni  Ni21  1  1.33140513  0.33140513  0.33140513  1.0
  Ge  Ge22  1  1.50000000  0.00000000  -0.00000000  1.0
  Ge  Ge23  1  1.00000000  0.50000000  -0.50000000  1.0
  Ge  Ge24  1  0.00000000  1.50000000  -0.00000000  1.0
  Ge  Ge25  1  0.50000000  1.00000000  -0.50000000  1.0
  Ge  Ge26  1  0.00000000  0.00000000  0.50000000  1.0
  Ge  Ge27  1  0.50000000  -0.50000000  1.00000000  1.0
  Ge  Ge28  1  0.00000000  0.00000000  0.00000000  1.0
