# generated using pymatgen
data_La3AlCrS7
_symmetry_space_group_name_H-M   'P 1'
_cell_length_a   10.06746016
_cell_length_b   10.06746016
_cell_length_c   6.20295374
_cell_angle_alpha   90.00000000
_cell_angle_beta   90.00000000
_cell_angle_gamma   120.00000000
_symmetry_Int_Tables_number   1
_chemical_formula_structural   La3AlCrS7
_chemical_formula_sum   'La6 Al2 Cr2 S14'
_cell_volume   544.46380398
_cell_formula_units_Z   2
loop_
 _symmetry_equiv_pos_site_id
 _symmetry_equiv_pos_as_xyz
  1  'x, y, z'
loop_
 _atom_site_type_symbol
 _atom_site_label
 _atom_site_symmetry_multiplicity
 _atom_site_fract_x
 _atom_site_fract_y
 _atom_site_fract_z
 _atom_site_occupancy
  La  La0  1  0.77598110  0.62636044  0.20479601  1.0
  La  La1  1  0.62636044  0.85037934  0.70479601  1.0
  La  La2  1  0.85037934  0.22401890  0.20479601  1.0
  La  La3  1  0.37363956  0.14962066  0.20479601  1.0
  La  La4  1  0.22401890  0.37363956  0.70479601  1.0
  La  La5  1  0.14962066  0.77598110  0.70479601  1.0
  Al  Al6  1  0.33333333  0.66666667  0.12967003  1.0
  Al  Al7  1  0.66666667  0.33333333  0.62967003  1.0
  Cr  Cr8  1  0.00000000  0.00000000  0.04417982  1.0
  Cr  Cr9  1  0.00000000  0.00000000  0.54417982  1.0
  S  S10  1  0.42453745  0.90340118  -0.01179693  1.0
  S  S11  1  0.90340118  0.47886374  0.48820307  1.0
  S  S12  1  0.47886374  0.57546255  -0.01179693  1.0
  S  S13  1  0.09659882  0.52113626  -0.01179693  1.0
  S  S14  1  0.57546255  0.09659882  0.48820307  1.0
  S  S15  1  0.52113626  0.42453745  0.48820307  1.0
  S  S16  1  0.08649816  0.87548331  0.29611398  1.0
  S  S17  1  0.87548331  0.78898515  0.79611398  1.0
  S  S18  1  0.78898515  0.91350184  0.29611398  1.0
  S  S19  1  0.12451669  0.21101485  0.29611398  1.0
  S  S20  1  0.91350184  0.12451669  0.79611398  1.0
  S  S21  1  0.21101485  0.08649816  0.79611398  1.0
  S  S22  1  0.33333333  0.66666667  0.48981099  1.0
  S  S23  1  0.66666667  0.33333333  -0.01018901  1.0
