# generated using pymatgen
data_HfZnF6
_symmetry_space_group_name_H-M   'P 1'
_cell_length_a   5.74064147
_cell_length_b   5.74064147
_cell_length_c   5.74064147
_cell_angle_alpha   59.91704495
_cell_angle_beta   59.91704495
_cell_angle_gamma   59.91704495
_symmetry_Int_Tables_number   1
_chemical_formula_structural   HfZnF6
_chemical_formula_sum   'Hf1 Zn1 F6'
_cell_volume   133.52059480
_cell_formula_units_Z   1
loop_
 _symmetry_equiv_pos_site_id
 _symmetry_equiv_pos_as_xyz
  1  'x, y, z'
loop_
 _atom_site_type_symbol
 _atom_site_label
 _atom_site_symmetry_multiplicity
 _atom_site_fract_x
 _atom_site_fract_y
 _atom_site_fract_z
 _atom_site_occupancy
  Hf  Hf0  1  0.50000000  0.50000000  -0.50000000  1.0
  Zn  Zn1  1  0.00000000  0.00000000  0.00000000  1.0
  F  F2  1  0.23844532  0.74747423  -0.73334473  1.0
  F  F3  1  0.73334473  -0.23844532  0.25252577  1.0
  F  F4  1  1.25252577  -0.26665527  -0.23844532  1.0
  F  F5  1  0.76155468  0.25252577  -0.26665527  1.0
  F  F6  1  0.26665527  0.23844532  -0.25252577  1.0
  F  F7  1  0.74747423  0.26665527  -0.76155468  1.0
