# generated using pymatgen
data_AsHPd5
_symmetry_space_group_name_H-M   'P 1'
_cell_length_a   12.31515353
_cell_length_b   12.31515353
_cell_length_c   4.07508814
_cell_angle_alpha   90.00000000
_cell_angle_beta   90.00000000
_cell_angle_gamma   161.19453778
_symmetry_Int_Tables_number   1
_chemical_formula_structural   AsHPd5
_chemical_formula_sum   'As2 H2 Pd10'
_cell_volume   199.22890416
_cell_formula_units_Z   2
loop_
 _symmetry_equiv_pos_site_id
 _symmetry_equiv_pos_as_xyz
  1  'x, y, z'
loop_
 _atom_site_type_symbol
 _atom_site_label
 _atom_site_symmetry_multiplicity
 _atom_site_fract_x
 _atom_site_fract_y
 _atom_site_fract_z
 _atom_site_occupancy
  As  As0  1  -0.39733997  1.39733997  0.26517213  1.0
  As  As1  1  -0.60266003  0.60266003  0.76517213  1.0
  H  H2  1  -0.74849152  0.74849152  0.28639693  1.0
  H  H3  1  -0.25150848  1.25150848  0.78639693  1.0
  Pd  Pd4  1  -0.66361297  0.66361297  0.26503105  1.0
  Pd  Pd5  1  -0.33638703  1.33638703  0.76503105  1.0
  Pd  Pd6  1  -0.83596631  0.83596631  0.26482775  1.0
  Pd  Pd7  1  -0.16403369  1.16403369  0.76482775  1.0
  Pd  Pd8  1  -0.95791685  0.95791685  0.26472275  1.0
  Pd  Pd9  1  -0.04208315  1.04208315  0.76472275  1.0
  Pd  Pd10  1  -0.45781319  1.45781319  0.76497347  1.0
  Pd  Pd11  1  -0.54218681  0.54218681  0.26497347  1.0
  Pd  Pd12  1  -0.25065600  1.25065600  0.26447592  1.0
  Pd  Pd13  1  -0.74934400  0.74934400  0.76447592  1.0
