# generated using pymatgen
data_Ni23C6
_symmetry_space_group_name_H-M   'P 1'
_cell_length_a   7.31641731
_cell_length_b   7.31641731
_cell_length_c   7.31641731
_cell_angle_alpha   60.00000000
_cell_angle_beta   60.00000000
_cell_angle_gamma   60.00000000
_symmetry_Int_Tables_number   1
_chemical_formula_structural   Ni23C6
_chemical_formula_sum   'Ni23 C6'
_cell_volume   276.93663322
_cell_formula_units_Z   1
loop_
 _symmetry_equiv_pos_site_id
 _symmetry_equiv_pos_as_xyz
  1  'x, y, z'
loop_
 _atom_site_type_symbol
 _atom_site_label
 _atom_site_symmetry_multiplicity
 _atom_site_fract_x
 _atom_site_fract_y
 _atom_site_fract_z
 _atom_site_occupancy
  C  C0  1  0.72932459  0.72932459  -0.72932459  1.0
  C  C1  1  0.27067541  -0.27067541  1.27067541  1.0
  C  C2  1  -0.27067541  0.27067541  0.27067541  1.0
  C  C3  1  0.27067541  1.27067541  -0.27067541  1.0
  C  C4  1  -0.27067541  0.27067541  0.72932459  1.0
  C  C5  1  -0.72932459  0.72932459  0.72932459  1.0
  Ni  Ni6  1  0.00000000  0.00000000  0.00000000  1.0
  Ni  Ni7  1  0.61596685  0.61596685  1.15209944  1.0
  Ni  Ni8  1  0.61596685  1.15209944  -0.38403315  1.0
  Ni  Ni9  1  1.15209944  0.61596685  0.61596685  1.0
  Ni  Ni10  1  0.61596685  0.61596685  -0.38403315  1.0
  Ni  Ni11  1  0.38403315  1.38403315  -0.15209944  1.0
  Ni  Ni12  1  1.38403315  -0.15209944  0.38403315  1.0
  Ni  Ni13  1  -0.15209944  1.38403315  0.38403315  1.0
  Ni  Ni14  1  1.38403315  0.38403315  0.38403315  1.0
  Ni  Ni15  1  0.00000000  -0.00000000  0.33747235  1.0
  Ni  Ni16  1  0.66252765  1.00000000  -0.66252765  1.0
  Ni  Ni17  1  1.00000000  0.66252765  -0.66252765  1.0
  Ni  Ni18  1  0.66252765  -0.66252765  1.00000000  1.0
  Ni  Ni19  1  0.00000000  1.33747235  -0.00000000  1.0
  Ni  Ni20  1  1.00000000  0.33747235  -0.33747235  1.0
  Ni  Ni21  1  0.33747235  -0.33747235  1.00000000  1.0
  Ni  Ni22  1  0.33747235  1.00000000  -0.33747235  1.0
  Ni  Ni23  1  1.33747235  0.00000000  -0.00000000  1.0
  Ni  Ni24  1  0.00000000  -0.00000000  0.66252765  1.0
  Ni  Ni25  1  0.00000000  1.66252765  -0.00000000  1.0
  Ni  Ni26  1  1.66252765  0.00000000  -0.00000000  1.0
  Ni  Ni27  1  0.75000000  0.75000000  -0.25000000  1.0
  Ni  Ni28  1  1.25000000  0.25000000  0.25000000  1.0
