# generated using pymatgen
data_K4GeO4
_symmetry_space_group_name_H-M   'P 1'
_cell_length_a   9.07780518
_cell_length_b   6.87083556
_cell_length_c   6.70429631
_cell_angle_alpha   60.81154901
_cell_angle_beta   73.02937917
_cell_angle_gamma   81.80749098
_symmetry_Int_Tables_number   1
_chemical_formula_structural   K4GeO4
_chemical_formula_sum   'K8 Ge2 O8'
_cell_volume   349.16630949
_cell_formula_units_Z   2
loop_
 _symmetry_equiv_pos_site_id
 _symmetry_equiv_pos_as_xyz
  1  'x, y, z'
loop_
 _atom_site_type_symbol
 _atom_site_label
 _atom_site_symmetry_multiplicity
 _atom_site_fract_x
 _atom_site_fract_y
 _atom_site_fract_z
 _atom_site_occupancy
  K  K0  1  0.86261647  0.22089077  0.36404346  1.0
  K  K1  1  0.13738353  0.77910923  0.63595654  1.0
  K  K2  1  0.94843822  0.72908648  0.25439301  1.0
  K  K3  1  0.05156178  0.27091352  0.74560699  1.0
  K  K4  1  0.55162163  0.72891227  0.51657721  1.0
  K  K5  1  0.44837837  0.27108773  0.48342279  1.0
  K  K6  1  0.63728867  0.22070935  0.91551198  1.0
  K  K7  1  0.36271133  0.77929065  0.08448802  1.0
  Ge  Ge8  1  0.75001072  0.75417379  0.87282145  1.0
  Ge  Ge9  1  0.24998928  0.24582621  0.12717855  1.0
  O  O10  1  0.89008702  0.93929092  0.83488435  1.0
  O  O11  1  0.10991298  0.06070908  0.16511565  1.0
  O  O12  1  0.61001484  0.93950162  0.72556420  1.0
  O  O13  1  0.38998516  0.06049838  0.27443580  1.0
  O  O14  1  0.83480011  0.58476017  0.73146032  1.0
  O  O15  1  0.16519989  0.41523983  0.26853968  1.0
  O  O16  1  0.33488964  0.41508704  0.81650601  1.0
  O  O17  1  0.66511036  0.58491296  0.18349399  1.0
