# generated using pymatgen
data_K3LuSi2O7
_symmetry_space_group_name_H-M   'P 1'
_cell_length_a   5.78290131
_cell_length_b   5.78290131
_cell_length_c   14.11722693
_cell_angle_alpha   90.00000000
_cell_angle_beta   90.00000000
_cell_angle_gamma   120.00000000
_symmetry_Int_Tables_number   1
_chemical_formula_structural   K3LuSi2O7
_chemical_formula_sum   'K6 Lu2 Si4 O14'
_cell_volume   408.85714249
_cell_formula_units_Z   2
loop_
 _symmetry_equiv_pos_site_id
 _symmetry_equiv_pos_as_xyz
  1  'x, y, z'
loop_
 _atom_site_type_symbol
 _atom_site_label
 _atom_site_symmetry_multiplicity
 _atom_site_fract_x
 _atom_site_fract_y
 _atom_site_fract_z
 _atom_site_occupancy
  K  K0  1  0.33333333  0.66666667  0.91014476  1.0
  K  K1  1  0.33333333  0.66666667  0.58985524  1.0
  K  K2  1  0.66666667  0.33333333  0.41014476  1.0
  K  K3  1  0.66666667  0.33333333  0.08985524  1.0
  K  K4  1  0.00000000  0.00000000  0.25000000  1.0
  K  K5  1  0.00000000  0.00000000  0.75000000  1.0
  Lu  Lu6  1  0.00000000  0.00000000  0.50000000  1.0
  Lu  Lu7  1  0.00000000  0.00000000  0.00000000  1.0
  Si  Si8  1  0.33333333  0.66666667  0.36824764  1.0
  Si  Si9  1  0.33333333  0.66666667  0.13175236  1.0
  Si  Si10  1  0.66666667  0.33333333  0.86824764  1.0
  Si  Si11  1  0.66666667  0.33333333  0.63175236  1.0
  O  O12  1  0.17799820  0.82200180  0.40465667  1.0
  O  O13  1  0.17799820  0.82200180  0.09534333  1.0
  O  O14  1  0.17799820  0.35599639  0.40465667  1.0
  O  O15  1  0.17799820  0.35599639  0.09534333  1.0
  O  O16  1  0.82200180  0.17799820  0.90465667  1.0
  O  O17  1  0.82200180  0.17799820  0.59534333  1.0
  O  O18  1  0.82200180  0.64400361  0.90465667  1.0
  O  O19  1  0.82200180  0.64400361  0.59534333  1.0
  O  O20  1  0.64400361  0.82200180  0.40465667  1.0
  O  O21  1  0.64400361  0.82200180  0.09534333  1.0
  O  O22  1  0.35599639  0.17799820  0.90465667  1.0
  O  O23  1  0.35599639  0.17799820  0.59534333  1.0
  O  O24  1  0.33333333  0.66666667  0.25000000  1.0
  O  O25  1  0.66666667  0.33333333  0.75000000  1.0
