# generated using pymatgen
data_BaTeMo2O9
_symmetry_space_group_name_H-M   'P 1'
_cell_length_a   5.72985243
_cell_length_b   7.56593890
_cell_length_c   8.99540464
_cell_angle_alpha   90.00000000
_cell_angle_beta   89.76034773
_cell_angle_gamma   90.00000000
_symmetry_Int_Tables_number   1
_chemical_formula_structural   BaTeMo2O9
_chemical_formula_sum   'Ba2 Te2 Mo4 O18'
_cell_volume   389.96279232
_cell_formula_units_Z   2
loop_
 _symmetry_equiv_pos_site_id
 _symmetry_equiv_pos_as_xyz
  1  'x, y, z'
loop_
 _atom_site_type_symbol
 _atom_site_label
 _atom_site_symmetry_multiplicity
 _atom_site_fract_x
 _atom_site_fract_y
 _atom_site_fract_z
 _atom_site_occupancy
  Ba  Ba0  1  0.71187137  0.54812430  0.93322476  1.0
  Ba  Ba1  1  0.28812863  0.04812430  0.06677524  1.0
  Te  Te2  1  0.39966418  0.77391823  0.57957043  1.0
  Te  Te3  1  0.60033582  0.27391823  0.42042957  1.0
  Mo  Mo4  1  0.79653085  0.84235497  0.32448872  1.0
  Mo  Mo5  1  0.20346915  0.34235497  0.67551127  1.0
  Mo  Mo6  1  0.77246591  0.02313248  0.77113574  1.0
  Mo  Mo7  1  0.22753409  0.52313248  0.22886426  1.0
  O  O8  1  0.48057228  0.68938377  0.37162858  1.0
  O  O9  1  0.51942772  0.18938377  0.62837142  1.0
  O  O10  1  0.98370554  0.88095146  0.84344899  1.0
  O  O11  1  0.01629446  0.38095146  0.15655101  1.0
  O  O12  1  1.00107635  0.51377522  0.67760802  1.0
  O  O13  1  -0.00107635  0.01377522  0.32239198  1.0
  O  O14  1  0.99855307  0.65319179  0.35805639  1.0
  O  O15  1  0.00144693  0.15319179  0.64194361  1.0
  O  O16  1  0.74141896  0.18054522  0.91270587  1.0
  O  O17  1  0.25858104  0.68054522  0.08729413  1.0
  O  O18  1  0.73044994  0.81400630  0.13566611  1.0
  O  O19  1  0.26955006  0.31400630  0.86433389  1.0
  O  O20  1  0.72600009  0.86437473  0.55869660  1.0
  O  O21  1  0.27399991  0.36437473  0.44130340  1.0
  O  O22  1  0.50728433  0.88782075  0.80590427  1.0
  O  O23  1  0.49271567  0.38782075  0.19409573  1.0
  O  O24  1  0.47193501  0.54652078  0.67123588  1.0
  O  O25  1  0.52806499  0.04652078  0.32876412  1.0
