# generated using pymatgen
data_ZnCO3
_symmetry_space_group_name_H-M   'P 1'
_cell_length_a   5.76338744
_cell_length_b   5.76338744
_cell_length_c   5.76338744
_cell_angle_alpha   48.25743488
_cell_angle_beta   48.25743488
_cell_angle_gamma   48.25743488
_symmetry_Int_Tables_number   1
_chemical_formula_structural   ZnCO3
_chemical_formula_sum   'Zn2 C2 O6'
_cell_volume   97.69757423
_cell_formula_units_Z   2
loop_
 _symmetry_equiv_pos_site_id
 _symmetry_equiv_pos_as_xyz
  1  'x, y, z'
loop_
 _atom_site_type_symbol
 _atom_site_label
 _atom_site_symmetry_multiplicity
 _atom_site_fract_x
 _atom_site_fract_y
 _atom_site_fract_z
 _atom_site_occupancy
  Zn  Zn0  1  1.00000000  -0.00000000  -0.00000000  1.0
  Zn  Zn1  1  0.50000000  0.50000000  0.50000000  1.0
  C  C2  1  0.75000000  0.75000000  -0.25000000  1.0
  C  C3  1  0.25000000  0.25000000  0.25000000  1.0
  O  O4  1  0.47502558  0.75000000  0.02497442  1.0
  O  O5  1  0.97502558  -0.47502558  0.25000000  1.0
  O  O6  1  0.25000000  0.97502558  -0.47502558  1.0
  O  O7  1  0.75000000  1.02497442  -0.52497442  1.0
  O  O8  1  0.52497442  0.25000000  -0.02497442  1.0
  O  O9  1  1.02497442  0.47502558  -0.25000000  1.0
