# generated using pymatgen
data_V3Ga2
_symmetry_space_group_name_H-M   'P 1'
_cell_length_a   6.53998531
_cell_length_b   6.53998531
_cell_length_c   6.53998531
_cell_angle_alpha   90.00000000
_cell_angle_beta   90.00000000
_cell_angle_gamma   90.00000000
_symmetry_Int_Tables_number   1
_chemical_formula_structural   V3Ga2
_chemical_formula_sum   'V12 Ga8'
_cell_volume   279.72437897
_cell_formula_units_Z   4
loop_
 _symmetry_equiv_pos_site_id
 _symmetry_equiv_pos_as_xyz
  1  'x, y, z'
loop_
 _atom_site_type_symbol
 _atom_site_label
 _atom_site_symmetry_multiplicity
 _atom_site_fract_x
 _atom_site_fract_y
 _atom_site_fract_z
 _atom_site_occupancy
  V  V0  1  0.79067241  0.95932759  0.37500000  1.0
  V  V1  1  0.70932759  0.04067241  0.87500000  1.0
  V  V2  1  0.20932759  0.45932759  0.12500000  1.0
  V  V3  1  0.29067241  0.54067241  0.62500000  1.0
  V  V4  1  0.95932759  0.37500000  0.79067241  1.0
  V  V5  1  0.04067241  0.87500000  0.70932759  1.0
  V  V6  1  0.45932759  0.12500000  0.20932759  1.0
  V  V7  1  0.54067241  0.62500000  0.29067241  1.0
  V  V8  1  0.37500000  0.79067241  0.95932759  1.0
  V  V9  1  0.87500000  0.70932759  0.04067241  1.0
  V  V10  1  0.12500000  0.20932759  0.45932759  1.0
  V  V11  1  0.62500000  0.29067241  0.54067241  1.0
  Ga  Ga12  1  0.18574974  0.81425026  0.31425026  1.0
  Ga  Ga13  1  0.31425026  0.18574974  0.81425026  1.0
  Ga  Ga14  1  0.81425026  0.31425026  0.18574974  1.0
  Ga  Ga15  1  0.68574974  0.68574974  0.68574974  1.0
  Ga  Ga16  1  0.56425026  0.43574974  0.93574974  1.0
  Ga  Ga17  1  0.43574974  0.93574974  0.56425026  1.0
  Ga  Ga18  1  0.93574974  0.56425026  0.43574974  1.0
  Ga  Ga19  1  0.06425026  0.06425026  0.06425026  1.0
