# generated using pymatgen
data_La3AlNiS7
_symmetry_space_group_name_H-M   'P 1'
_cell_length_a   10.23189768
_cell_length_b   10.23189768
_cell_length_c   5.93706324
_cell_angle_alpha   90.00000000
_cell_angle_beta   90.00000000
_cell_angle_gamma   120.00000000
_symmetry_Int_Tables_number   1
_chemical_formula_structural   La3AlNiS7
_chemical_formula_sum   'La6 Al2 Ni2 S14'
_cell_volume   538.28798204
_cell_formula_units_Z   2
loop_
 _symmetry_equiv_pos_site_id
 _symmetry_equiv_pos_as_xyz
  1  'x, y, z'
loop_
 _atom_site_type_symbol
 _atom_site_label
 _atom_site_symmetry_multiplicity
 _atom_site_fract_x
 _atom_site_fract_y
 _atom_site_fract_z
 _atom_site_occupancy
  La  La0  1  0.76574697  0.63032029  0.22728594  1.0
  La  La1  1  0.63032029  0.86457332  0.72728594  1.0
  La  La2  1  0.86457332  0.23425303  0.22728594  1.0
  La  La3  1  0.36967971  0.13542668  0.22728594  1.0
  La  La4  1  0.23425303  0.36967971  0.72728594  1.0
  La  La5  1  0.13542668  0.76574697  0.72728594  1.0
  Al  Al6  1  0.33333333  0.66666667  0.14704536  1.0
  Al  Al7  1  0.66666667  0.33333333  0.64704536  1.0
  Ni  Ni8  1  -0.00000000  -0.00000000  0.00566490  1.0
  Ni  Ni9  1  0.00000000  0.00000000  0.50566490  1.0
  S  S10  1  0.41493551  0.89885240  0.00248465  1.0
  S  S11  1  0.89885240  0.48391688  0.50248465  1.0
  S  S12  1  0.48391688  0.58506449  0.00248465  1.0
  S  S13  1  0.10114760  0.51608312  0.00248465  1.0
  S  S14  1  0.58506449  0.10114760  0.50248465  1.0
  S  S15  1  0.51608312  0.41493551  0.50248465  1.0
  S  S16  1  0.08105237  0.86078715  0.25636861  1.0
  S  S17  1  0.86078715  0.77973478  0.75636861  1.0
  S  S18  1  0.77973478  0.91894763  0.25636861  1.0
  S  S19  1  0.13921285  0.22026522  0.25636861  1.0
  S  S20  1  0.91894763  0.13921285  0.75636861  1.0
  S  S21  1  0.22026522  0.08105237  0.75636861  1.0
  S  S22  1  0.33333333  0.66666667  0.51987211  1.0
  S  S23  1  0.66666667  0.33333333  0.01987211  1.0
