# generated using pymatgen
data_NbH10C4(SCl2)2
_symmetry_space_group_name_H-M   'P 1'
_cell_length_a   7.64333310
_cell_length_b   12.30204911
_cell_length_c   8.37331470
_cell_angle_alpha   90.00000000
_cell_angle_beta   116.01620408
_cell_angle_gamma   90.00000000
_symmetry_Int_Tables_number   1
_chemical_formula_structural   NbH10C4(SCl2)2
_chemical_formula_sum   'Nb2 H20 C8 S4 Cl8'
_cell_volume   707.55127332
_cell_formula_units_Z   2
loop_
 _symmetry_equiv_pos_site_id
 _symmetry_equiv_pos_as_xyz
  1  'x, y, z'
loop_
 _atom_site_type_symbol
 _atom_site_label
 _atom_site_symmetry_multiplicity
 _atom_site_fract_x
 _atom_site_fract_y
 _atom_site_fract_z
 _atom_site_occupancy
  Nb  Nb0  1  0.30310637  0.22286640  0.75244759  1.0
  Nb  Nb1  1  0.69689363  0.72286640  0.24755241  1.0
  H  H2  1  0.75409489  0.02977356  0.71621867  1.0
  H  H3  1  0.24590511  0.52977356  0.28378133  1.0
  H  H4  1  0.81767393  0.05279023  0.53712138  1.0
  H  H5  1  0.18232607  0.55279023  0.46287862  1.0
  H  H6  1  0.78244706  0.16640120  0.65392995  1.0
  H  H7  1  0.21755294  0.66640120  0.34607005  1.0
  H  H8  1  0.98469946  0.07161522  0.04458238  1.0
  H  H9  1  0.01530054  0.57161522  0.95541762  1.0
  H  H10  1  0.24027270  0.08650090  0.12818860  1.0
  H  H11  1  0.75972730  0.58650090  0.87181140  1.0
  H  H12  1  0.08159004  0.25718934  0.17270888  1.0
  H  H13  1  0.91840996  0.75718934  0.82729112  1.0
  H  H14  1  0.93676999  0.26760557  0.93982835  1.0
  H  H15  1  0.06323001  0.76760557  0.06017165  1.0
  H  H16  1  0.43385350  0.33365406  0.33707302  1.0
  H  H17  1  0.56614650  0.83365406  0.66292698  1.0
  H  H18  1  0.58598612  0.35512081  0.22713761  1.0
  H  H19  1  0.41401388  0.85512081  0.77286239  1.0
  H  H20  1  0.51796662  0.21965889  0.25412970  1.0
  H  H21  1  0.48203338  0.71965889  0.74587030  1.0
  C  C22  1  0.83483300  0.08255724  0.66657999  1.0
  C  C23  1  0.16516700  0.58255724  0.33342001  1.0
  C  C24  1  0.09986296  0.11614068  0.02706332  1.0
  C  C25  1  0.90013704  0.61614068  0.97293668  1.0
  C  C26  1  0.07635846  0.23785520  0.04246389  1.0
  C  C27  1  0.92364154  0.73785520  0.95753611  1.0
  C  C28  1  0.47017850  0.30449056  0.23152734  1.0
  C  C29  1  0.52982150  0.80449056  0.76847266  1.0
  S  S30  1  0.09158611  0.07203409  0.81541215  1.0
  S  S31  1  0.90841389  0.57203409  0.18458785  1.0
  S  S32  1  0.26126143  0.32205056  0.01868205  1.0
  S  S33  1  0.73873857  0.82205056  0.98131795  1.0
  Cl  Cl34  1  0.30256493  0.11537916  0.51749388  1.0
  Cl  Cl35  1  0.69743507  0.61537916  0.48250612  1.0
  Cl  Cl36  1  0.50428305  0.36191585  0.72580075  1.0
  Cl  Cl37  1  0.49571695  0.86191585  0.27419925  1.0
  Cl  Cl38  1  0.01003449  0.31808562  0.59589006  1.0
  Cl  Cl39  1  0.98996551  0.81808562  0.40410994  1.0
  Cl  Cl40  1  0.55022688  0.12120485  0.97902438  1.0
  Cl  Cl41  1  0.44977312  0.62120485  0.02097562  1.0
