# generated using pymatgen
data_Sr4CuO2
_symmetry_space_group_name_H-M   'P 1'
_cell_length_a   10.34849977
_cell_length_b   10.34849977
_cell_length_c   10.34849977
_cell_angle_alpha   139.59781724
_cell_angle_beta   139.59781724
_cell_angle_gamma   58.46446782
_symmetry_Int_Tables_number   1
_chemical_formula_structural   Sr4CuO2
_chemical_formula_sum   'Sr8 Cu2 O4'
_cell_volume   461.27997813
_cell_formula_units_Z   2
loop_
 _symmetry_equiv_pos_site_id
 _symmetry_equiv_pos_as_xyz
  1  'x, y, z'
loop_
 _atom_site_type_symbol
 _atom_site_label
 _atom_site_symmetry_multiplicity
 _atom_site_fract_x
 _atom_site_fract_y
 _atom_site_fract_z
 _atom_site_occupancy
  Sr  Sr0  1  1.12149162  0.39965167  0.72183995  1.0
  Sr  Sr1  1  1.07218828  0.85034833  1.22183995  1.0
  Sr  Sr2  1  0.67781172  0.39965167  0.27816005  1.0
  Sr  Sr3  1  0.62850838  0.85034833  0.77816005  1.0
  Sr  Sr4  1  0.60034833  0.32218828  0.72183995  1.0
  Sr  Sr5  1  0.14965167  0.37149162  0.22183995  1.0
  Sr  Sr6  1  0.60034833  0.87850838  1.27816005  1.0
  Sr  Sr7  1  0.14965167  0.92781172  0.77816005  1.0
  Cu  Cu8  1  0.00000000  0.00000000  0.00000000  1.0
  Cu  Cu9  1  0.75000000  0.25000000  0.50000000  1.0
  O  O10  1  0.87500000  0.12500000  0.75000000  1.0
  O  O11  1  0.37500000  0.12500000  0.25000000  1.0
  O  O12  1  0.87500000  0.62500000  0.75000000  1.0
  O  O13  1  0.87500000  1.12500000  1.25000000  1.0
