# generated using pymatgen
data_Cs2Te5
_symmetry_space_group_name_H-M   'P 1'
_cell_length_a   7.80758964
_cell_length_b   7.80758964
_cell_length_c   10.34143211
_cell_angle_alpha   90.00000000
_cell_angle_beta   90.00000000
_cell_angle_gamma   103.30171272
_symmetry_Int_Tables_number   1
_chemical_formula_structural   Cs2Te5
_chemical_formula_sum   'Cs4 Te10'
_cell_volume   613.48542134
_cell_formula_units_Z   2
loop_
 _symmetry_equiv_pos_site_id
 _symmetry_equiv_pos_as_xyz
  1  'x, y, z'
loop_
 _atom_site_type_symbol
 _atom_site_label
 _atom_site_symmetry_multiplicity
 _atom_site_fract_x
 _atom_site_fract_y
 _atom_site_fract_z
 _atom_site_occupancy
  Cs  Cs0  1  0.43414188  0.56585812  0.25000000  1.0
  Cs  Cs1  1  -0.43414188  1.43414188  0.75000000  1.0
  Cs  Cs2  1  -0.20604135  1.20604135  0.25000000  1.0
  Cs  Cs3  1  0.20604135  0.79395865  0.75000000  1.0
  Te  Te4  1  -0.11682455  1.66271325  0.45897945  1.0
  Te  Te5  1  -0.11682455  1.66271325  0.04102055  1.0
  Te  Te6  1  0.66271325  0.88317545  0.95897945  1.0
  Te  Te7  1  0.66271325  0.88317545  0.54102055  1.0
  Te  Te8  1  -0.66271325  1.11682455  0.45897945  1.0
  Te  Te9  1  -0.66271325  1.11682455  0.04102055  1.0
  Te  Te10  1  0.11682455  0.33728675  0.95897945  1.0
  Te  Te11  1  0.11682455  0.33728675  0.54102055  1.0
  Te  Te12  1  0.11394477  0.88605523  0.25000000  1.0
  Te  Te13  1  -0.11394477  1.11394477  0.75000000  1.0
