# generated using pymatgen
data_RbSb2F7
_symmetry_space_group_name_H-M   'P 1'
_cell_length_a   13.24510053
_cell_length_b   6.61106714
_cell_length_c   9.18826449
_cell_angle_alpha   90.00000000
_cell_angle_beta   99.83261745
_cell_angle_gamma   90.00000000
_symmetry_Int_Tables_number   1
_chemical_formula_structural   RbSb2F7
_chemical_formula_sum   'Rb4 Sb8 F28'
_cell_volume   792.74511758
_cell_formula_units_Z   4
loop_
 _symmetry_equiv_pos_site_id
 _symmetry_equiv_pos_as_xyz
  1  'x, y, z'
loop_
 _atom_site_type_symbol
 _atom_site_label
 _atom_site_symmetry_multiplicity
 _atom_site_fract_x
 _atom_site_fract_y
 _atom_site_fract_z
 _atom_site_occupancy
  Rb  Rb0  1  0.60777983  0.73999693  0.91341987  1.0
  Rb  Rb1  1  0.60777983  0.76000307  0.41341987  1.0
  Rb  Rb2  1  0.39222017  0.23999693  0.58658013  1.0
  Rb  Rb3  1  0.39222017  0.26000307  0.08658013  1.0
  Sb  Sb4  1  0.91014791  0.78918073  0.81812792  1.0
  Sb  Sb5  1  0.91014791  0.71081927  0.31812792  1.0
  Sb  Sb6  1  0.08985209  0.28918073  0.68187208  1.0
  Sb  Sb7  1  0.08985209  0.21081927  0.18187208  1.0
  Sb  Sb8  1  0.28986684  0.75609147  0.79414401  1.0
  Sb  Sb9  1  0.28986684  0.74390853  0.29414401  1.0
  Sb  Sb10  1  0.71013316  0.25609147  0.70585599  1.0
  Sb  Sb11  1  0.71013316  0.24390853  0.20585599  1.0
  F  F12  1  1.00572559  0.43044670  0.30843428  1.0
  F  F13  1  1.00572559  0.06955330  0.80843428  1.0
  F  F14  1  -0.00572559  0.93044670  0.19156572  1.0
  F  F15  1  -0.00572559  0.56955330  0.69156572  1.0
  F  F16  1  0.85683346  0.87596377  0.61401006  1.0
  F  F17  1  0.85683346  0.62403623  0.11401006  1.0
  F  F18  1  0.14316654  0.37596377  0.88598994  1.0
  F  F19  1  0.14316654  0.12403623  0.38598994  1.0
  F  F20  1  0.79592440  0.98670176  0.86711988  1.0
  F  F21  1  0.79592440  0.51329824  0.36711988  1.0
  F  F22  1  0.20407560  0.48670176  0.63288012  1.0
  F  F23  1  0.20407560  0.01329824  0.13288012  1.0
  F  F24  1  0.78761975  0.58251629  0.77886398  1.0
  F  F25  1  0.78761975  0.91748371  0.27886398  1.0
  F  F26  1  0.21238025  0.08251629  0.72113602  1.0
  F  F27  1  0.21238025  0.41748371  0.22113602  1.0
  F  F28  1  0.66785084  0.30042169  0.90175090  1.0
  F  F29  1  0.66785084  0.19957831  0.40175090  1.0
  F  F30  1  0.33214916  0.80042169  0.59824910  1.0
  F  F31  1  0.33214916  0.69957831  0.09824910  1.0
  F  F32  1  0.40484264  0.94952328  0.86689240  1.0
  F  F33  1  0.40484264  0.55047672  0.36689240  1.0
  F  F34  1  0.59515736  0.44952328  0.63310760  1.0
  F  F35  1  0.59515736  0.05047672  0.13310760  1.0
  F  F36  1  0.39835634  0.53807183  0.82993817  1.0
  F  F37  1  0.39835634  0.96192817  0.32993817  1.0
  F  F38  1  0.60164366  0.03807183  0.67006183  1.0
  F  F39  1  0.60164366  0.46192817  0.17006183  1.0
