# generated using pymatgen
data_LuWBrO4
_symmetry_space_group_name_H-M   'P 1'
_cell_length_a   7.01591436
_cell_length_b   10.87025564
_cell_length_c   9.59433246
_cell_angle_alpha   66.71734997
_cell_angle_beta   48.94331763
_cell_angle_gamma   71.50404289
_symmetry_Int_Tables_number   1
_chemical_formula_structural   LuWBrO4
_chemical_formula_sum   'Lu4 W4 Br4 O16'
_cell_volume   505.06480550
_cell_formula_units_Z   4
loop_
 _symmetry_equiv_pos_site_id
 _symmetry_equiv_pos_as_xyz
  1  'x, y, z'
loop_
 _atom_site_type_symbol
 _atom_site_label
 _atom_site_symmetry_multiplicity
 _atom_site_fract_x
 _atom_site_fract_y
 _atom_site_fract_z
 _atom_site_occupancy
  Lu  Lu0  1  -0.41800146  -0.72875350  -0.90985563  1.0
  Lu  Lu1  1  -0.58199854  -0.27124650  -0.09014437  1.0
  Lu  Lu2  1  -0.28995966  -0.76625402  -0.33457672  1.0
  Lu  Lu3  1  -0.71004034  -0.23374598  -0.66542328  1.0
  W  W4  1  -0.09553193  -0.13522201  -0.18173204  1.0
  W  W5  1  -0.90446807  -0.86477799  -0.81826796  1.0
  W  W6  1  -0.80842423  -0.62759228  -0.42194930  1.0
  W  W7  1  -0.19157577  -0.37240772  -0.57805070  1.0
  Br  Br8  1  -0.75403711  -0.52072994  -0.97774674  1.0
  Br  Br9  1  -0.24596289  -0.47927006  -0.02225326  1.0
  Br  Br10  1  -0.53018442  -0.99132061  -0.27418236  1.0
  Br  Br11  1  -0.46981558  -0.00867939  -0.72581764  1.0
  O  O12  1  -0.09556739  -0.95701064  -0.25849518  1.0
  O  O13  1  -0.90443261  -0.04298936  -0.74150482  1.0
  O  O14  1  -0.90283892  -0.20292955  -0.10457964  1.0
  O  O15  1  -0.09716108  -0.79707045  -0.89542036  1.0
  O  O16  1  -0.96194014  -0.19811942  -0.37829859  1.0
  O  O17  1  -0.03805986  -0.80188058  -0.62170141  1.0
  O  O18  1  -0.58324509  -0.80718089  -0.01181755  1.0
  O  O19  1  -0.41675491  -0.19281911  -0.98818245  1.0
  O  O20  1  -0.61118353  -0.67401508  -0.35091370  1.0
  O  O21  1  -0.38881647  -0.32598492  -0.64908630  1.0
  O  O22  1  -0.65399215  -0.69507390  -0.61869607  1.0
  O  O23  1  -0.34600785  -0.30492610  -0.38130393  1.0
  O  O24  1  -0.82848154  -0.44738702  -0.50353914  1.0
  O  O25  1  -0.17151846  -0.55261298  -0.49646086  1.0
  O  O26  1  -0.11322257  -0.70529741  -0.22850366  1.0
  O  O27  1  -0.88677743  -0.29470259  -0.77149634  1.0
