# generated using pymatgen
data_Ca2P2H4O9
_symmetry_space_group_name_H-M   'P 1'
_cell_length_a   8.28674405
_cell_length_b   7.42915663
_cell_length_c   6.74627774
_cell_angle_alpha   72.79528402
_cell_angle_beta   77.28277887
_cell_angle_gamma   85.11931051
_symmetry_Int_Tables_number   1
_chemical_formula_structural   Ca2P2H4O9
_chemical_formula_sum   'Ca4 P4 H8 O18'
_cell_volume   386.91896709
_cell_formula_units_Z   2
loop_
 _symmetry_equiv_pos_site_id
 _symmetry_equiv_pos_as_xyz
  1  'x, y, z'
loop_
 _atom_site_type_symbol
 _atom_site_label
 _atom_site_symmetry_multiplicity
 _atom_site_fract_x
 _atom_site_fract_y
 _atom_site_fract_z
 _atom_site_occupancy
  Ca  Ca0  1  -0.49255015  -0.24938236  -0.81108592  1.0
  Ca  Ca1  1  -0.50744985  -0.75061764  -0.18891408  1.0
  Ca  Ca2  1  -0.24135717  -0.86032806  -0.76046971  1.0
  Ca  Ca3  1  -0.75864283  -0.13967194  -0.23953029  1.0
  P  P4  1  -0.81064446  -0.99090393  -0.76089077  1.0
  P  P5  1  -0.18935554  -0.00909607  -0.23910923  1.0
  P  P6  1  -0.64493211  -0.71164752  -0.66563928  1.0
  P  P7  1  -0.35506789  -0.28835248  -0.33436072  1.0
  H  H8  1  -0.97384239  -0.22529726  -0.83095816  1.0
  H  H9  1  -0.02615761  -0.77470274  -0.16904184  1.0
  H  H10  1  -0.86100897  -0.40886656  -0.80624581  1.0
  H  H11  1  -0.13899103  -0.59113344  -0.19375419  1.0
  H  H12  1  -0.74407655  -0.48736664  -0.40305477  1.0
  H  H13  1  -0.25592345  -0.51263336  -0.59694523  1.0
  H  H14  1  -0.86018572  -0.55422591  -0.18036111  1.0
  H  H15  1  -0.13981428  -0.44577409  -0.81963889  1.0
  O  O16  1  -0.69802303  -0.98771080  -0.97949322  1.0
  O  O17  1  -0.30197697  -0.01228920  -0.02050678  1.0
  O  O18  1  -0.93704299  -0.33138836  -0.89454305  1.0
  O  O19  1  -0.06295701  -0.66861164  -0.10545695  1.0
  O  O20  1  -0.49760306  -0.73827781  -0.83965678  1.0
  O  O21  1  -0.50239694  -0.26172219  -0.16034322  1.0
  O  O22  1  -0.25032518  -0.50076710  -0.74902482  1.0
  O  O23  1  -0.74967482  -0.49923290  -0.25097518  1.0
  O  O24  1  -0.99160569  -0.02054711  -0.75325625  1.0
  O  O25  1  -0.00839431  -0.97945289  -0.24674375  1.0
  O  O26  1  -0.80634385  -0.78253684  -0.72504325  1.0
  O  O27  1  -0.19365615  -0.21746316  -0.27495675  1.0
  O  O28  1  -0.68406639  -0.50241534  -0.67703612  1.0
  O  O29  1  -0.31593361  -0.49758466  -0.32296388  1.0
  O  O30  1  -0.62990846  -0.82903497  -0.44115891  1.0
  O  O31  1  -0.37009154  -0.17096503  -0.55884109  1.0
  O  O32  1  -0.26679279  -0.86462317  -0.40919677  1.0
  O  O33  1  -0.73320721  -0.13537683  -0.59080323  1.0
