# generated using pymatgen
data_BaNaSc(BO3)2
_symmetry_space_group_name_H-M   'P 1'
_cell_length_a   12.18327521
_cell_length_b   12.18327521
_cell_length_c   12.18327521
_cell_angle_alpha   25.01173987
_cell_angle_beta   25.01173987
_cell_angle_gamma   25.01173987
_symmetry_Int_Tables_number   1
_chemical_formula_structural   BaNaSc(BO3)2
_chemical_formula_sum   'Ba2 Na2 Sc2 B4 O12'
_cell_volume   284.40601055
_cell_formula_units_Z   2
loop_
 _symmetry_equiv_pos_site_id
 _symmetry_equiv_pos_as_xyz
  1  'x, y, z'
loop_
 _atom_site_type_symbol
 _atom_site_label
 _atom_site_symmetry_multiplicity
 _atom_site_fract_x
 _atom_site_fract_y
 _atom_site_fract_z
 _atom_site_occupancy
  Ba  Ba0  1  0.10284706  0.10284706  0.10284706  1.0
  Ba  Ba1  1  0.89715294  -0.10284706  -0.10284706  1.0
  Na  Na2  1  0.37534927  0.37534927  -0.62465073  1.0
  Na  Na3  1  0.62465073  0.62465073  -0.37534927  1.0
  Sc  Sc4  1  0.50000000  0.50000000  -0.50000000  1.0
  Sc  Sc5  1  0.00000000  0.00000000  0.00000000  1.0
  B  B6  1  0.20236381  0.20236381  0.20236381  1.0
  B  B7  1  0.79763619  -0.20236381  -0.20236381  1.0
  B  B8  1  0.29632890  0.29632890  0.29632890  1.0
  B  B9  1  0.70367110  -0.29632890  -0.29632890  1.0
  O  O10  1  0.35379368  0.90083135  -0.64550644  1.0
  O  O11  1  0.64550644  -0.35379368  0.09916865  1.0
  O  O12  1  1.09916865  -0.35449356  -0.35379368  1.0
  O  O13  1  0.64620632  0.09916865  -0.35449356  1.0
  O  O14  1  0.35449356  0.35379368  -0.09916865  1.0
  O  O15  1  0.90083135  0.35449356  -0.64620632  1.0
  O  O16  1  0.40332689  -0.10175996  -0.19180033  1.0
  O  O17  1  1.19180033  -0.40332689  0.10175996  1.0
  O  O18  1  1.10175996  0.19180033  -0.40332689  1.0
  O  O19  1  0.59667311  0.10175996  0.19180033  1.0
  O  O20  1  0.80819967  -0.59667311  -0.10175996  1.0
  O  O21  1  0.89824004  -0.19180033  -0.59667311  1.0
