# generated using pymatgen
data_Hg2TeMoO6
_symmetry_space_group_name_H-M   'P 1'
_cell_length_a   6.50448215
_cell_length_b   14.33498281
_cell_length_c   7.33772763
_cell_angle_alpha   90.00000000
_cell_angle_beta   90.00000000
_cell_angle_gamma   90.00000000
_symmetry_Int_Tables_number   1
_chemical_formula_structural   Hg2TeMoO6
_chemical_formula_sum   'Hg8 Te4 Mo4 O24'
_cell_volume   684.18175602
_cell_formula_units_Z   4
loop_
 _symmetry_equiv_pos_site_id
 _symmetry_equiv_pos_as_xyz
  1  'x, y, z'
loop_
 _atom_site_type_symbol
 _atom_site_label
 _atom_site_symmetry_multiplicity
 _atom_site_fract_x
 _atom_site_fract_y
 _atom_site_fract_z
 _atom_site_occupancy
  Hg  Hg0  1  0.05717663  0.48286207  0.25000000  1.0
  Hg  Hg1  1  0.94282337  0.51713793  0.75000000  1.0
  Hg  Hg2  1  0.05717663  0.01713793  0.75000000  1.0
  Hg  Hg3  1  0.94282337  0.98286207  0.25000000  1.0
  Hg  Hg4  1  0.56138841  0.56882384  0.75000000  1.0
  Hg  Hg5  1  0.43861159  0.43117616  0.25000000  1.0
  Hg  Hg6  1  0.56138841  0.93117616  0.25000000  1.0
  Hg  Hg7  1  0.43861159  0.06882384  0.75000000  1.0
  Te  Te8  1  0.66725550  0.65885371  0.25000000  1.0
  Te  Te9  1  0.33274450  0.34114629  0.75000000  1.0
  Te  Te10  1  0.66725550  0.84114629  0.75000000  1.0
  Te  Te11  1  0.33274450  0.15885371  0.25000000  1.0
  Mo  Mo12  1  0.21522344  0.75000000  0.00000000  1.0
  Mo  Mo13  1  0.78477656  0.25000000  0.50000000  1.0
  Mo  Mo14  1  0.78477656  0.25000000  0.00000000  1.0
  Mo  Mo15  1  0.21522344  0.75000000  0.50000000  1.0
  O  O16  1  0.73423385  0.52443683  0.25000000  1.0
  O  O17  1  0.26576615  0.47556317  0.75000000  1.0
  O  O18  1  0.73423385  0.97556317  0.75000000  1.0
  O  O19  1  0.26576615  0.02443683  0.25000000  1.0
  O  O20  1  0.47732008  0.65110621  0.04445907  1.0
  O  O21  1  0.52267992  0.34889379  0.54445907  1.0
  O  O22  1  0.47732008  0.84889379  0.95554093  1.0
  O  O23  1  0.52267992  0.15110621  0.45554093  1.0
  O  O24  1  0.52267992  0.34889379  0.95554093  1.0
  O  O25  1  0.47732008  0.65110621  0.45554093  1.0
  O  O26  1  0.52267992  0.15110621  0.04445907  1.0
  O  O27  1  0.47732008  0.84889379  0.54445907  1.0
  O  O28  1  0.04435471  0.84054421  0.95104732  1.0
  O  O29  1  0.95564529  0.15945579  0.45104732  1.0
  O  O30  1  0.04435471  0.65945579  0.04895268  1.0
  O  O31  1  0.95564529  0.34054421  0.54895268  1.0
  O  O32  1  0.95564529  0.15945579  0.04895268  1.0
  O  O33  1  0.04435471  0.84054421  0.54895268  1.0
  O  O34  1  0.95564529  0.34054421  0.95104732  1.0
  O  O35  1  0.04435471  0.65945579  0.45104732  1.0
  O  O36  1  0.28011954  0.71388215  0.75000000  1.0
  O  O37  1  0.71988046  0.28611785  0.25000000  1.0
  O  O38  1  0.28011954  0.78611785  0.25000000  1.0
  O  O39  1  0.71988046  0.21388215  0.75000000  1.0
