# generated using pymatgen
data_GaTeCl
_symmetry_space_group_name_H-M   'P 1'
_cell_length_a   5.95019019
_cell_length_b   15.73222122
_cell_length_c   4.15834783
_cell_angle_alpha   90.00000000
_cell_angle_beta   90.00000000
_cell_angle_gamma   90.00000000
_symmetry_Int_Tables_number   1
_chemical_formula_structural   GaTeCl
_chemical_formula_sum   'Ga4 Te4 Cl4'
_cell_volume   389.26172807
_cell_formula_units_Z   4
loop_
 _symmetry_equiv_pos_site_id
 _symmetry_equiv_pos_as_xyz
  1  'x, y, z'
loop_
 _atom_site_type_symbol
 _atom_site_label
 _atom_site_symmetry_multiplicity
 _atom_site_fract_x
 _atom_site_fract_y
 _atom_site_fract_z
 _atom_site_occupancy
  Ga  Ga0  1  0.46750208  0.69095733  0.50000000  1.0
  Ga  Ga1  1  0.96750208  0.80904267  -0.00000000  1.0
  Ga  Ga2  1  0.53249792  0.30904267  0.50000000  1.0
  Ga  Ga3  1  0.03249792  0.19095733  -0.00000000  1.0
  Te  Te4  1  0.24305472  0.83754073  0.50000000  1.0
  Te  Te5  1  0.74305472  0.66245927  -0.00000000  1.0
  Te  Te6  1  0.75694528  0.16245927  0.50000000  1.0
  Te  Te7  1  0.25694528  0.33754073  -0.00000000  1.0
  Cl  Cl8  1  0.23166499  0.58272579  0.50000000  1.0
  Cl  Cl9  1  0.73166499  0.91727421  -0.00000000  1.0
  Cl  Cl10  1  0.76833501  0.41727421  0.50000000  1.0
  Cl  Cl11  1  0.26833501  0.08272579  -0.00000000  1.0
