# generated using pymatgen
data_As3Pb2IO6
_symmetry_space_group_name_H-M   'P 1'
_cell_length_a   14.86799315
_cell_length_b   5.49056416
_cell_length_c   11.93796238
_cell_angle_alpha   90.00000000
_cell_angle_beta   90.00000000
_cell_angle_gamma   90.00000000
_symmetry_Int_Tables_number   1
_chemical_formula_structural   As3Pb2IO6
_chemical_formula_sum   'As12 Pb8 I4 O24'
_cell_volume   974.53968533
_cell_formula_units_Z   4
loop_
 _symmetry_equiv_pos_site_id
 _symmetry_equiv_pos_as_xyz
  1  'x, y, z'
loop_
 _atom_site_type_symbol
 _atom_site_label
 _atom_site_symmetry_multiplicity
 _atom_site_fract_x
 _atom_site_fract_y
 _atom_site_fract_z
 _atom_site_occupancy
  As  As0  1  0.62381661  0.25000000  0.41380367  1.0
  As  As1  1  0.12381661  0.25000000  0.08619633  1.0
  As  As2  1  0.37618339  0.75000000  0.58619633  1.0
  As  As3  1  0.87618339  0.75000000  0.91380367  1.0
  As  As4  1  0.96900748  0.25000000  0.83532475  1.0
  As  As5  1  0.46900748  0.25000000  0.66467525  1.0
  As  As6  1  0.03099252  0.75000000  0.16467525  1.0
  As  As7  1  0.53099252  0.75000000  0.33532475  1.0
  As  As8  1  0.32063576  0.25000000  0.96129316  1.0
  As  As9  1  0.82063576  0.25000000  0.53870684  1.0
  As  As10  1  0.67936424  0.75000000  0.03870684  1.0
  As  As11  1  0.17936424  0.75000000  0.46129316  1.0
  Pb  Pb12  1  0.52154636  0.25000000  0.12124498  1.0
  Pb  Pb13  1  0.02154636  0.25000000  0.37875502  1.0
  Pb  Pb14  1  0.47845364  0.75000000  0.87875502  1.0
  Pb  Pb15  1  0.97845364  0.75000000  0.62124498  1.0
  Pb  Pb16  1  0.66723214  0.25000000  0.84059234  1.0
  Pb  Pb17  1  0.16723214  0.25000000  0.65940766  1.0
  Pb  Pb18  1  0.33276786  0.75000000  0.15940766  1.0
  Pb  Pb19  1  0.83276786  0.75000000  0.34059234  1.0
  I  I20  1  0.86467359  0.25000000  0.13250741  1.0
  I  I21  1  0.36467359  0.25000000  0.36749259  1.0
  I  I22  1  0.13532641  0.75000000  0.86749259  1.0
  I  I23  1  0.63532641  0.75000000  0.63250741  1.0
  O  O24  1  0.61420920  0.00397538  0.30749333  1.0
  O  O25  1  0.11420920  0.49602462  0.19250667  1.0
  O  O26  1  0.38579080  0.50397538  0.69250667  1.0
  O  O27  1  0.88579080  0.99602462  0.80749333  1.0
  O  O28  1  0.38579080  0.99602462  0.69250667  1.0
  O  O29  1  0.88579080  0.50397538  0.80749333  1.0
  O  O30  1  0.61420920  0.49602462  0.30749333  1.0
  O  O31  1  0.11420920  0.00397538  0.19250667  1.0
  O  O32  1  0.89214281  0.00695484  0.48617799  1.0
  O  O33  1  0.39214281  0.49304516  0.01382201  1.0
  O  O34  1  0.10785719  0.50695484  0.51382201  1.0
  O  O35  1  0.60785719  0.99304516  0.98617799  1.0
  O  O36  1  0.10785719  0.99304516  0.51382201  1.0
  O  O37  1  0.60785719  0.50695484  0.98617799  1.0
  O  O38  1  0.89214281  0.49304516  0.48617799  1.0
  O  O39  1  0.39214281  0.00695484  0.01382201  1.0
  O  O40  1  0.51184579  0.25000000  0.80454023  1.0
  O  O41  1  0.01184579  0.25000000  0.69545977  1.0
  O  O42  1  0.48815421  0.75000000  0.19545977  1.0
  O  O43  1  0.98815421  0.75000000  0.30454023  1.0
  O  O44  1  0.74770996  0.25000000  0.40962572  1.0
  O  O45  1  0.24770996  0.25000000  0.09037428  1.0
  O  O46  1  0.25229004  0.75000000  0.59037428  1.0
  O  O47  1  0.75229004  0.75000000  0.90962572  1.0
