# generated using pymatgen
data_SrGeO3
_symmetry_space_group_name_H-M   'P 1'
_cell_length_a   7.34625913
_cell_length_b   7.34625913
_cell_length_c   11.36164911
_cell_angle_alpha   71.58659612
_cell_angle_beta   108.41340388
_cell_angle_gamma   119.85853841
_symmetry_Int_Tables_number   1
_chemical_formula_structural   SrGeO3
_chemical_formula_sum   'Sr6 Ge6 O18'
_cell_volume   495.08020495
_cell_formula_units_Z   6
loop_
 _symmetry_equiv_pos_site_id
 _symmetry_equiv_pos_as_xyz
  1  'x, y, z'
loop_
 _atom_site_type_symbol
 _atom_site_label
 _atom_site_symmetry_multiplicity
 _atom_site_fract_x
 _atom_site_fract_y
 _atom_site_fract_z
 _atom_site_occupancy
  Sr  Sr0  1  0.65557333  -0.17159228  0.00067715  1.0
  Sr  Sr1  1  1.17159228  0.34442667  0.50067715  1.0
  Sr  Sr2  1  0.82840772  -0.34442667  0.49932285  1.0
  Sr  Sr3  1  1.34442667  0.17159228  0.99932285  1.0
  Sr  Sr4  1  1.50000000  0.00000000  0.50000000  1.0
  Sr  Sr5  1  1.00000000  -0.50000000  -0.00000000  1.0
  Ge  Ge6  1  1.82291502  0.08172700  0.25369148  1.0
  Ge  Ge7  1  0.91827300  -0.82291502  0.75369148  1.0
  Ge  Ge8  1  1.08172700  0.82291502  0.24630852  1.0
  Ge  Ge9  1  0.17708498  -0.08172700  0.74630852  1.0
  Ge  Ge10  1  1.34269611  0.34269611  0.25000000  1.0
  Ge  Ge11  1  0.65730389  -0.34269611  0.75000000  1.0
  O  O12  1  1.78101490  0.03155402  0.40520848  1.0
  O  O13  1  0.96844598  -0.78101490  0.90520848  1.0
  O  O14  1  1.03155402  0.78101490  0.09479152  1.0
  O  O15  1  0.21898510  -0.03155402  0.59479152  1.0
  O  O16  1  1.67671560  0.13135373  0.10467847  1.0
  O  O17  1  0.86864627  -0.67671560  0.60467847  1.0
  O  O18  1  1.13135373  0.67671560  0.39532153  1.0
  O  O19  1  0.32328440  -0.13135373  0.89532153  1.0
  O  O20  1  1.31639325  0.08267083  0.24845731  1.0
  O  O21  1  0.91732917  -0.31639325  0.74845731  1.0
  O  O22  1  1.08267083  0.31639325  0.25154269  1.0
  O  O23  1  0.68360675  -0.08267083  0.75154269  1.0
  O  O24  1  1.48882505  0.38723394  0.39960370  1.0
  O  O25  1  0.61276606  -0.48882505  0.89960370  1.0
  O  O26  1  1.38723394  0.48882505  0.10039630  1.0
  O  O27  1  0.51117495  -0.38723394  0.60039630  1.0
  O  O28  1  0.84839102  -0.15160898  0.25000000  1.0
  O  O29  1  1.15160898  0.15160898  0.75000000  1.0
