# generated using pymatgen
data_Hg3Bi2(SCl4)2
_symmetry_space_group_name_H-M   'P 1'
_cell_length_a   7.62027083
_cell_length_b   7.62027083
_cell_length_c   9.54005175
_cell_angle_alpha   66.62338936
_cell_angle_beta   113.37661064
_cell_angle_gamma   120.36355881
_symmetry_Int_Tables_number   1
_chemical_formula_structural   Hg3Bi2(SCl4)2
_chemical_formula_sum   'Hg3 Bi2 S2 Cl8'
_cell_volume   425.07848728
_cell_formula_units_Z   1
loop_
 _symmetry_equiv_pos_site_id
 _symmetry_equiv_pos_as_xyz
  1  'x, y, z'
loop_
 _atom_site_type_symbol
 _atom_site_label
 _atom_site_symmetry_multiplicity
 _atom_site_fract_x
 _atom_site_fract_y
 _atom_site_fract_z
 _atom_site_occupancy
  Hg  Hg0  1  0.50000000  -0.00000000  0.50000000  1.0
  Hg  Hg1  1  1.00000000  0.50000000  0.50000000  1.0
  Hg  Hg2  1  0.00000000  -0.00000000  0.50000000  1.0
  Bi  Bi3  1  0.62952999  0.37047001  0.93009943  1.0
  Bi  Bi4  1  0.37047001  -0.37047001  0.06990057  1.0
  S  S5  1  0.87486374  0.12513626  0.62128213  1.0
  S  S6  1  0.12513626  -0.12513626  0.37871787  1.0
  Cl  Cl7  1  0.42817186  0.03834716  0.79225578  1.0
  Cl  Cl8  1  0.96165284  0.57182814  0.79225578  1.0
  Cl  Cl9  1  1.03834716  0.42817186  0.20774422  1.0
  Cl  Cl10  1  0.57182814  -0.03834716  0.20774422  1.0
  Cl  Cl11  1  0.45158666  -0.45158666  0.64960490  1.0
  Cl  Cl12  1  0.54841334  0.45158666  0.35039510  1.0
  Cl  Cl13  1  0.73570721  0.73570721  -0.00000000  1.0
  Cl  Cl14  1  0.26429279  0.26429279  0.00000000  1.0
