# generated using pymatgen
data_CdO
_symmetry_space_group_name_H-M   'P 1'
_cell_length_a   3.67177580
_cell_length_b   3.67177580
_cell_length_c   5.80545791
_cell_angle_alpha   90.00000000
_cell_angle_beta   90.00000000
_cell_angle_gamma   120.00000000
_symmetry_Int_Tables_number   1
_chemical_formula_structural   CdO
_chemical_formula_sum   'Cd2 O2'
_cell_volume   67.78278731
_cell_formula_units_Z   2
loop_
 _symmetry_equiv_pos_site_id
 _symmetry_equiv_pos_as_xyz
  1  'x, y, z'
loop_
 _atom_site_type_symbol
 _atom_site_label
 _atom_site_symmetry_multiplicity
 _atom_site_fract_x
 _atom_site_fract_y
 _atom_site_fract_z
 _atom_site_occupancy
  Cd  Cd0  1  0.66666667  0.33333333  0.49953189  1.0
  Cd  Cd1  1  0.33333333  0.66666667  -0.00046811  1.0
  O  O2  1  0.66666667  0.33333333  0.88536811  1.0
  O  O3  1  0.33333333  0.66666667  0.38536811  1.0
