# generated using pymatgen
data_B2CN
_symmetry_space_group_name_H-M   'P 1'
_cell_length_a   2.50731697
_cell_length_b   2.54871922
_cell_length_c   7.89656057
_cell_angle_alpha   90.00000000
_cell_angle_beta   90.00000000
_cell_angle_gamma   90.00000000
_symmetry_Int_Tables_number   1
_chemical_formula_structural   B2CN
_chemical_formula_sum   'B4 C2 N2'
_cell_volume   50.46255151
_cell_formula_units_Z   2
loop_
 _symmetry_equiv_pos_site_id
 _symmetry_equiv_pos_as_xyz
  1  'x, y, z'
loop_
 _atom_site_type_symbol
 _atom_site_label
 _atom_site_symmetry_multiplicity
 _atom_site_fract_x
 _atom_site_fract_y
 _atom_site_fract_z
 _atom_site_occupancy
  B  B0  1  0.25000000  0.00000000  0.68859264  1.0
  B  B1  1  0.75000000  0.00000000  0.31140736  1.0
  B  B2  1  0.25000000  0.50000000  0.08480184  1.0
  B  B3  1  0.75000000  0.50000000  0.91519816  1.0
  C  C4  1  0.25000000  0.50000000  0.55174108  1.0
  C  C5  1  0.75000000  0.50000000  0.44825892  1.0
  N  N6  1  0.25000000  0.00000000  0.19496322  1.0
  N  N7  1  0.75000000  0.00000000  0.80503678  1.0
