# generated using pymatgen
data_Ba3SrNb2O9
_symmetry_space_group_name_H-M   'P 1'
_cell_length_a   5.99645787
_cell_length_b   5.99645787
_cell_length_c   7.76581948
_cell_angle_alpha   90.00000000
_cell_angle_beta   90.00000000
_cell_angle_gamma   120.00000000
_symmetry_Int_Tables_number   1
_chemical_formula_structural   Ba3SrNb2O9
_chemical_formula_sum   'Ba3 Sr1 Nb2 O9'
_cell_volume   241.82850792
_cell_formula_units_Z   1
loop_
 _symmetry_equiv_pos_site_id
 _symmetry_equiv_pos_as_xyz
  1  'x, y, z'
loop_
 _atom_site_type_symbol
 _atom_site_label
 _atom_site_symmetry_multiplicity
 _atom_site_fract_x
 _atom_site_fract_y
 _atom_site_fract_z
 _atom_site_occupancy
  Ba  Ba0  1  0.33333333  0.66666667  0.71328315  1.0
  Ba  Ba1  1  0.66666667  0.33333333  0.28671685  1.0
  Ba  Ba2  1  -0.00000000  -0.00000000  -0.00000000  1.0
  Sr  Sr3  1  -0.00000000  -0.00000000  0.50000000  1.0
  Nb  Nb4  1  0.33333333  0.66666667  0.16956646  1.0
  Nb  Nb5  1  0.66666667  0.33333333  0.83043354  1.0
  O  O6  1  0.64723712  0.82361856  0.29606113  1.0
  O  O7  1  0.82361856  0.64723712  0.70393887  1.0
  O  O8  1  0.82361856  0.17638144  0.70393887  1.0
  O  O9  1  0.17638144  0.82361856  0.29606113  1.0
  O  O10  1  0.17638144  0.35276288  0.29606113  1.0
  O  O11  1  0.35276288  0.17638144  0.70393887  1.0
  O  O12  1  0.50000000  0.50000000  -0.00000000  1.0
  O  O13  1  0.50000000  -0.00000000  0.00000000  1.0
  O  O14  1  -0.00000000  0.50000000  -0.00000000  1.0
