# generated using pymatgen
data_BaReH9
_symmetry_space_group_name_H-M   'P 1'
_cell_length_a   5.24663476
_cell_length_b   5.24663476
_cell_length_c   9.66288378
_cell_angle_alpha   90.00000000
_cell_angle_beta   90.00000000
_cell_angle_gamma   120.00000000
_symmetry_Int_Tables_number   1
_chemical_formula_structural   BaReH9
_chemical_formula_sum   'Ba2 Re2 H18'
_cell_volume   230.35574721
_cell_formula_units_Z   2
loop_
 _symmetry_equiv_pos_site_id
 _symmetry_equiv_pos_as_xyz
  1  'x, y, z'
loop_
 _atom_site_type_symbol
 _atom_site_label
 _atom_site_symmetry_multiplicity
 _atom_site_fract_x
 _atom_site_fract_y
 _atom_site_fract_z
 _atom_site_occupancy
  Ba  Ba0  1  0.00000000  0.00000000  0.50000000  1.0
  Ba  Ba1  1  0.00000000  0.00000000  0.00000000  1.0
  Re  Re2  1  0.33333333  0.66666667  0.25000000  1.0
  Re  Re3  1  0.66666667  0.33333333  0.75000000  1.0
  H  H4  1  0.14919017  0.85080983  0.25000000  1.0
  H  H5  1  0.14919017  0.29838034  0.25000000  1.0
  H  H6  1  0.85080983  0.14919017  0.75000000  1.0
  H  H7  1  0.85080983  0.70161966  0.75000000  1.0
  H  H8  1  0.70161966  0.85080983  0.25000000  1.0
  H  H9  1  0.29838034  0.14919017  0.75000000  1.0
  H  H10  1  0.53329999  0.46670001  0.87490209  1.0
  H  H11  1  0.53329999  0.46670001  0.62509791  1.0
  H  H12  1  0.53329999  0.06659999  0.87490209  1.0
  H  H13  1  0.53329999  0.06659999  0.62509791  1.0
  H  H14  1  0.46670001  0.53329999  0.37490209  1.0
  H  H15  1  0.46670001  0.53329999  0.12509791  1.0
  H  H16  1  0.46670001  0.93340001  0.37490209  1.0
  H  H17  1  0.46670001  0.93340001  0.12509791  1.0
  H  H18  1  0.93340001  0.46670001  0.87490209  1.0
  H  H19  1  0.93340001  0.46670001  0.62509791  1.0
  H  H20  1  0.06659999  0.53329999  0.37490209  1.0
  H  H21  1  0.06659999  0.53329999  0.12509791  1.0
