# generated using pymatgen
data_La(ZnP)3
_symmetry_space_group_name_H-M   'P 1'
_cell_length_a   4.07768411
_cell_length_b   4.07768411
_cell_length_c   20.23448388
_cell_angle_alpha   90.00000000
_cell_angle_beta   90.00000000
_cell_angle_gamma   120.00000000
_symmetry_Int_Tables_number   1
_chemical_formula_structural   La(ZnP)3
_chemical_formula_sum   'La2 Zn6 P6'
_cell_volume   291.37341274
_cell_formula_units_Z   2
loop_
 _symmetry_equiv_pos_site_id
 _symmetry_equiv_pos_as_xyz
  1  'x, y, z'
loop_
 _atom_site_type_symbol
 _atom_site_label
 _atom_site_symmetry_multiplicity
 _atom_site_fract_x
 _atom_site_fract_y
 _atom_site_fract_z
 _atom_site_occupancy
  La  La0  1  0.00000000  0.00000000  0.50000000  1.0
  La  La1  1  0.00000000  0.00000000  0.00000000  1.0
  Zn  Zn2  1  0.33333333  0.66666667  0.36955046  1.0
  Zn  Zn3  1  0.33333333  0.66666667  0.13044954  1.0
  Zn  Zn4  1  0.66666667  0.33333333  0.86955046  1.0
  Zn  Zn5  1  0.66666667  0.33333333  0.63044954  1.0
  Zn  Zn6  1  0.33333333  0.66666667  0.75000000  1.0
  Zn  Zn7  1  0.66666667  0.33333333  0.25000000  1.0
  P  P8  1  0.33333333  0.66666667  0.91108689  1.0
  P  P9  1  0.33333333  0.66666667  0.58891311  1.0
  P  P10  1  0.66666667  0.33333333  0.41108689  1.0
  P  P11  1  0.66666667  0.33333333  0.08891311  1.0
  P  P12  1  0.33333333  0.66666667  0.25000000  1.0
  P  P13  1  0.66666667  0.33333333  0.75000000  1.0
