# generated using pymatgen
data_Li2Ti3O7
_symmetry_space_group_name_H-M   'P 1'
_cell_length_a   7.63731868
_cell_length_b   3.74446882
_cell_length_c   9.45174869
_cell_angle_alpha   90.00000000
_cell_angle_beta   97.23355842
_cell_angle_gamma   90.00000000
_symmetry_Int_Tables_number   1
_chemical_formula_structural   Li2Ti3O7
_chemical_formula_sum   'Li4 Ti6 O14'
_cell_volume   268.14701831
_cell_formula_units_Z   2
loop_
 _symmetry_equiv_pos_site_id
 _symmetry_equiv_pos_as_xyz
  1  'x, y, z'
loop_
 _atom_site_type_symbol
 _atom_site_label
 _atom_site_symmetry_multiplicity
 _atom_site_fract_x
 _atom_site_fract_y
 _atom_site_fract_z
 _atom_site_occupancy
  Li  Li0  1  0.92598767  0.25000000  0.40715433  1.0
  Li  Li1  1  0.07401233  0.75000000  0.59284567  1.0
  Li  Li2  1  0.09560098  0.25000000  0.82514316  1.0
  Li  Li3  1  0.90439902  0.75000000  0.17485684  1.0
  Ti  Ti4  1  0.76334598  0.25000000  0.65829602  1.0
  Ti  Ti5  1  0.23665402  0.75000000  0.34170398  1.0
  Ti  Ti6  1  0.66400123  0.25000000  0.96783428  1.0
  Ti  Ti7  1  0.33599877  0.75000000  0.03216572  1.0
  Ti  Ti8  1  0.55453185  0.25000000  0.27900492  1.0
  Ti  Ti9  1  0.44546815  0.75000000  0.72099508  1.0
  O  O10  1  0.98720650  0.25000000  0.62496835  1.0
  O  O11  1  0.01279350  0.75000000  0.37503165  1.0
  O  O12  1  0.85018962  0.25000000  0.86997774  1.0
  O  O13  1  0.14981038  0.75000000  0.13002226  1.0
  O  O14  1  0.75653487  0.25000000  0.16189073  1.0
  O  O15  1  0.24346513  0.75000000  0.83810927  1.0
  O  O16  1  0.68057093  0.25000000  0.44778630  1.0
  O  O17  1  0.31942907  0.75000000  0.55221370  1.0
  O  O18  1  0.50522851  0.25000000  0.75704071  1.0
  O  O19  1  0.49477149  0.75000000  0.24295929  1.0
  O  O20  1  0.40604652  0.25000000  0.04900330  1.0
  O  O21  1  0.59395348  0.75000000  0.95099670  1.0
  O  O22  1  0.30703335  0.25000000  0.33710525  1.0
  O  O23  1  0.69296665  0.75000000  0.66289475  1.0
