# generated using pymatgen
data_Sm3Sb5O12
_symmetry_space_group_name_H-M   'P 1'
_cell_length_a   9.59399828
_cell_length_b   9.59399828
_cell_length_c   9.59399828
_cell_angle_alpha   109.47122063
_cell_angle_beta   109.47122063
_cell_angle_gamma   109.47122063
_symmetry_Int_Tables_number   1
_chemical_formula_structural   Sm3Sb5O12
_chemical_formula_sum   'Sm6 Sb10 O24'
_cell_volume   679.79351643
_cell_formula_units_Z   2
loop_
 _symmetry_equiv_pos_site_id
 _symmetry_equiv_pos_as_xyz
  1  'x, y, z'
loop_
 _atom_site_type_symbol
 _atom_site_label
 _atom_site_symmetry_multiplicity
 _atom_site_fract_x
 _atom_site_fract_y
 _atom_site_fract_z
 _atom_site_occupancy
  Sm  Sm0  1  0.25000000  0.75000000  0.50000000  1.0
  Sm  Sm1  1  0.75000000  0.25000000  0.50000000  1.0
  Sm  Sm2  1  0.25000000  0.50000000  0.75000000  1.0
  Sm  Sm3  1  0.50000000  0.25000000  0.75000000  1.0
  Sm  Sm4  1  0.75000000  0.50000000  0.25000000  1.0
  Sm  Sm5  1  0.50000000  0.75000000  0.25000000  1.0
  Sb  Sb6  1  0.71866830  0.71866830  0.00000000  1.0
  Sb  Sb7  1  0.71866830  0.00000000  0.71866830  1.0
  Sb  Sb8  1  -0.00000000  0.71866830  0.71866830  1.0
  Sb  Sb9  1  0.28133170  0.00000000  0.28133170  1.0
  Sb  Sb10  1  -0.00000000  0.28133170  0.28133170  1.0
  Sb  Sb11  1  0.28133170  0.28133170  0.00000000  1.0
  Sb  Sb12  1  0.50761750  0.50761750  0.50761750  1.0
  Sb  Sb13  1  1.00000000  1.00000000  0.49238250  1.0
  Sb  Sb14  1  1.00000000  0.49238250  1.00000000  1.0
  Sb  Sb15  1  0.49238250  1.00000000  1.00000000  1.0
  O  O16  1  0.79930704  0.50795006  0.50795006  1.0
  O  O17  1  0.50795006  0.79930704  0.50795006  1.0
  O  O18  1  1.00000000  1.29135698  0.49204994  1.0
  O  O19  1  1.29135698  1.00000000  0.49204994  1.0
  O  O20  1  0.50795006  0.50795006  0.79930704  1.0
  O  O21  1  0.70864302  0.70864302  0.20069296  1.0
  O  O22  1  1.00000000  0.49204994  1.29135698  1.0
  O  O23  1  0.70864302  0.20069296  0.70864302  1.0
  O  O24  1  0.20069296  0.70864302  0.70864302  1.0
  O  O25  1  0.49204994  1.00000000  1.29135698  1.0
  O  O26  1  1.29135698  0.49204994  1.00000000  1.0
  O  O27  1  0.49204994  1.29135698  1.00000000  1.0
  O  O28  1  0.27455716  0.47387017  0.47387017  1.0
  O  O29  1  0.47387017  0.27455716  0.47387017  1.0
  O  O30  1  1.00000000  0.80068698  1.52612983  1.0
  O  O31  1  0.80068698  1.00000000  1.52612983  1.0
  O  O32  1  0.47387017  0.47387017  0.27455716  1.0
  O  O33  1  1.19931302  1.19931302  0.72544284  1.0
  O  O34  1  1.00000000  1.52612983  0.80068698  1.0
  O  O35  1  1.19931302  0.72544284  1.19931302  1.0
  O  O36  1  0.72544284  1.19931302  1.19931302  1.0
  O  O37  1  1.52612983  1.00000000  0.80068698  1.0
  O  O38  1  0.80068698  1.52612983  1.00000000  1.0
  O  O39  1  1.52612983  0.80068698  1.00000000  1.0
