# generated using pymatgen
data_RbB3O5
_symmetry_space_group_name_H-M   'P 1'
_cell_length_a   5.57361928
_cell_length_b   8.35812498
_cell_length_c   10.35640607
_cell_angle_alpha   90.00000000
_cell_angle_beta   90.00000000
_cell_angle_gamma   90.00000000
_symmetry_Int_Tables_number   1
_chemical_formula_structural   RbB3O5
_chemical_formula_sum   'Rb4 B12 O20'
_cell_volume   482.45324439
_cell_formula_units_Z   4
loop_
 _symmetry_equiv_pos_site_id
 _symmetry_equiv_pos_as_xyz
  1  'x, y, z'
loop_
 _atom_site_type_symbol
 _atom_site_label
 _atom_site_symmetry_multiplicity
 _atom_site_fract_x
 _atom_site_fract_y
 _atom_site_fract_z
 _atom_site_occupancy
  Rb  Rb0  1  0.49401722  0.70379369  0.14059888  1.0
  Rb  Rb1  1  -0.00598278  0.79620631  0.85940112  1.0
  Rb  Rb2  1  0.50598278  0.20379369  0.35940112  1.0
  Rb  Rb3  1  1.00598278  0.29620631  0.64059888  1.0
  B  B4  1  0.46239117  0.44719291  0.81418619  1.0
  B  B5  1  0.96239117  0.05280709  0.18581381  1.0
  B  B6  1  0.53760883  0.94719291  0.68581381  1.0
  B  B7  1  0.03760883  0.55280709  0.31418619  1.0
  B  B8  1  0.42531008  0.66055983  0.64792645  1.0
  B  B9  1  0.92531008  0.83944017  0.35207355  1.0
  B  B10  1  0.57468992  0.16055983  0.85207355  1.0
  B  B11  1  0.07468992  0.33944017  0.14792645  1.0
  B  B12  1  0.22438914  0.88336293  0.53166063  1.0
  B  B13  1  0.72438914  0.61663707  0.46833937  1.0
  B  B14  1  0.77561086  0.38336293  0.96833937  1.0
  B  B15  1  0.27561086  0.11663707  0.03166063  1.0
  O  O16  1  0.43231274  0.28876204  0.78972747  1.0
  O  O17  1  0.93231274  0.21123796  0.21027253  1.0
  O  O18  1  0.56768726  0.78876204  0.71027253  1.0
  O  O19  1  0.06768726  0.71123796  0.28972747  1.0
  O  O20  1  0.36714927  0.99948734  0.59527033  1.0
  O  O21  1  0.86714927  0.50051266  0.40472967  1.0
  O  O22  1  0.63285073  0.49948734  0.90472967  1.0
  O  O23  1  0.13285073  0.00051266  0.09527033  1.0
  O  O24  1  0.32211097  0.55611512  0.74904290  1.0
  O  O25  1  0.82211097  0.94388488  0.25095710  1.0
  O  O26  1  0.67788903  0.05611512  0.75095710  1.0
  O  O27  1  0.17788903  0.44388488  0.24904290  1.0
  O  O28  1  0.22540478  0.72835071  0.57272209  1.0
  O  O29  1  0.72540478  0.77164929  0.42727791  1.0
  O  O30  1  0.77459522  0.22835071  0.92727791  1.0
  O  O31  1  0.27459522  0.27164929  0.07272209  1.0
  O  O32  1  0.91660930  0.44048512  0.06546685  1.0
  O  O33  1  0.41660930  0.05951488  0.93453315  1.0
  O  O34  1  0.08339070  0.94048512  0.43453315  1.0
  O  O35  1  0.58339070  0.55951488  0.56546685  1.0
