# generated using pymatgen
data_FeH3(CO2)3
_symmetry_space_group_name_H-M   'P 1'
_cell_length_a   8.66017466
_cell_length_b   8.66017466
_cell_length_c   8.66017466
_cell_angle_alpha   56.88668641
_cell_angle_beta   56.88668641
_cell_angle_gamma   56.88668641
_symmetry_Int_Tables_number   1
_chemical_formula_structural   FeH3(CO2)3
_chemical_formula_sum   'Fe2 H6 C6 O12'
_cell_volume   426.27944239
_cell_formula_units_Z   2
loop_
 _symmetry_equiv_pos_site_id
 _symmetry_equiv_pos_as_xyz
  1  'x, y, z'
loop_
 _atom_site_type_symbol
 _atom_site_label
 _atom_site_symmetry_multiplicity
 _atom_site_fract_x
 _atom_site_fract_y
 _atom_site_fract_z
 _atom_site_occupancy
  Fe  Fe0  1  1.00000000  0.00000000  -0.00000000  1.0
  Fe  Fe1  1  0.50000000  0.50000000  -0.50000000  1.0
  H  H2  1  0.25000000  0.63729557  -0.13729557  1.0
  H  H3  1  0.63729557  -0.13729557  0.25000000  1.0
  H  H4  1  0.86270443  0.25000000  -0.36270443  1.0
  H  H5  1  0.75000000  0.36270443  0.13729557  1.0
  H  H6  1  1.36270443  0.13729557  -0.25000000  1.0
  H  H7  1  1.13729557  -0.25000000  0.36270443  1.0
  C  C8  1  0.25000000  0.77140244  -0.27140244  1.0
  C  C9  1  0.77140244  -0.27140244  0.25000000  1.0
  C  C10  1  0.72859756  0.25000000  -0.22859756  1.0
  C  C11  1  0.75000000  0.22859756  0.27140244  1.0
  C  C12  1  1.22859756  0.27140244  -0.25000000  1.0
  C  C13  1  1.27140244  -0.25000000  0.22859756  1.0
  O  O14  1  1.15368622  -0.06143576  -0.25274203  1.0
  O  O15  1  0.93856424  -0.25274203  0.15368622  1.0
  O  O16  1  0.74725797  0.15368622  -0.06143576  1.0
  O  O17  1  0.65368622  1.24725797  -0.56143576  1.0
  O  O18  1  1.24725797  0.43856424  -0.34631378  1.0
  O  O19  1  0.43856424  0.65368622  0.24725797  1.0
  O  O20  1  0.84631378  0.06143576  0.25274203  1.0
  O  O21  1  1.06143576  0.25274203  -0.15368622  1.0
  O  O22  1  1.25274203  -0.15368622  0.06143576  1.0
  O  O23  1  0.34631378  0.75274203  -0.43856424  1.0
  O  O24  1  0.75274203  0.56143576  -0.65368622  1.0
  O  O25  1  0.56143576  0.34631378  -0.24725797  1.0
