# generated using pymatgen
data_LaGe3Rh
_symmetry_space_group_name_H-M   'P 1'
_cell_length_a   5.98044791
_cell_length_b   5.98044791
_cell_length_c   5.98044791
_cell_angle_alpha   136.23229148
_cell_angle_beta   136.23229148
_cell_angle_gamma   63.62141272
_symmetry_Int_Tables_number   1
_chemical_formula_structural   LaGe3Rh
_chemical_formula_sum   'La1 Ge3 Rh1'
_cell_volume   101.00781773
_cell_formula_units_Z   1
loop_
 _symmetry_equiv_pos_site_id
 _symmetry_equiv_pos_as_xyz
  1  'x, y, z'
loop_
 _atom_site_type_symbol
 _atom_site_label
 _atom_site_symmetry_multiplicity
 _atom_site_fract_x
 _atom_site_fract_y
 _atom_site_fract_z
 _atom_site_occupancy
  La  La0  1  0.57049218  0.57049218  1.00000000  1.0
  Ge  Ge1  1  -0.00820675  -0.00820675  -0.00000000  1.0
  Ge  Ge2  1  0.83278453  0.33278453  0.50000000  1.0
  Ge  Ge3  1  0.33278453  0.83278453  0.50000000  1.0
  Rh  Rh4  1  0.22994550  0.22994550  0.00000000  1.0
