# generated using pymatgen
data_NClO4
_symmetry_space_group_name_H-M   'P 1'
_cell_length_a   12.97890231
_cell_length_b   8.09220161
_cell_length_c   4.19332174
_cell_angle_alpha   90.00000000
_cell_angle_beta   90.00000000
_cell_angle_gamma   90.00000000
_symmetry_Int_Tables_number   1
_chemical_formula_structural   NClO4
_chemical_formula_sum   'N4 Cl4 O16'
_cell_volume   440.41575255
_cell_formula_units_Z   4
loop_
 _symmetry_equiv_pos_site_id
 _symmetry_equiv_pos_as_xyz
  1  'x, y, z'
loop_
 _atom_site_type_symbol
 _atom_site_label
 _atom_site_symmetry_multiplicity
 _atom_site_fract_x
 _atom_site_fract_y
 _atom_site_fract_z
 _atom_site_occupancy
  N  N0  1  0.29355105  0.25000000  0.12217807  1.0
  N  N1  1  0.70644895  0.75000000  0.87782193  1.0
  N  N2  1  0.20644895  0.75000000  0.62217807  1.0
  N  N3  1  0.79355105  0.25000000  0.37782193  1.0
  Cl  Cl4  1  0.09133421  0.25000000  0.32673132  1.0
  Cl  Cl5  1  0.90866579  0.75000000  0.67326868  1.0
  Cl  Cl6  1  0.40866579  0.75000000  0.82673132  1.0
  Cl  Cl7  1  0.59133421  0.25000000  0.17326868  1.0
  O  O8  1  0.31301648  0.25000000  -0.13564585  1.0
  O  O9  1  0.68698352  0.75000000  1.13564585  1.0
  O  O10  1  0.18698352  0.75000000  0.36435415  1.0
  O  O11  1  0.81301648  0.25000000  0.63564585  1.0
  O  O12  1  -0.00148756  0.25000000  0.12307785  1.0
  O  O13  1  1.00148756  0.75000000  0.87692215  1.0
  O  O14  1  0.50148756  0.75000000  0.62307785  1.0
  O  O15  1  0.49851244  0.25000000  0.37692215  1.0
  O  O16  1  0.15918401  0.10176221  0.23191434  1.0
  O  O17  1  0.15918401  0.39823779  0.23191434  1.0
  O  O18  1  0.84081599  0.60176221  0.76808566  1.0
  O  O19  1  0.34081599  0.60176221  0.73191434  1.0
  O  O20  1  0.65918401  0.39823779  0.26808566  1.0
  O  O21  1  0.65918401  0.10176221  0.26808566  1.0
  O  O22  1  0.34081599  0.89823779  0.73191434  1.0
  O  O23  1  0.84081599  0.89823779  0.76808566  1.0
