# generated using pymatgen
data_Nb(SeCl)2
_symmetry_space_group_name_H-M   'P 1'
_cell_length_a   6.59181670
_cell_length_b   6.59181670
_cell_length_c   7.92325911
_cell_angle_alpha   79.80119001
_cell_angle_beta   100.19880999
_cell_angle_gamma   58.34650472
_symmetry_Int_Tables_number   1
_chemical_formula_structural   Nb(SeCl)2
_chemical_formula_sum   'Nb2 Se4 Cl4'
_cell_volume   273.04736758
_cell_formula_units_Z   2
loop_
 _symmetry_equiv_pos_site_id
 _symmetry_equiv_pos_as_xyz
  1  'x, y, z'
loop_
 _atom_site_type_symbol
 _atom_site_label
 _atom_site_symmetry_multiplicity
 _atom_site_fract_x
 _atom_site_fract_y
 _atom_site_fract_z
 _atom_site_occupancy
  Nb  Nb0  1  0.87014054  -0.12985946  -0.00000000  1.0
  Nb  Nb1  1  1.12985946  0.12985946  -0.00000000  1.0
  Se  Se2  1  0.63938473  -0.63938473  0.87390768  1.0
  Se  Se3  1  0.36061527  -0.36061527  0.12609232  1.0
  Se  Se4  1  0.86389304  -0.86389304  0.70430968  1.0
  Se  Se5  1  0.13610696  -0.13610696  0.29569032  1.0
  Cl  Cl6  1  0.43046432  -0.00883558  0.80595749  1.0
  Cl  Cl7  1  1.00883558  0.56953568  0.80595749  1.0
  Cl  Cl8  1  0.99116442  -0.56953568  0.19404251  1.0
  Cl  Cl9  1  1.56953568  0.00883558  0.19404251  1.0
