# generated using pymatgen
data_CoH8(CO2)4
_symmetry_space_group_name_H-M   'P 1'
_cell_length_a   8.06043680
_cell_length_b   8.06043680
_cell_length_c   6.95686149
_cell_angle_alpha   83.07193888
_cell_angle_beta   96.92806112
_cell_angle_gamma   70.44483871
_symmetry_Int_Tables_number   1
_chemical_formula_structural   CoH8(CO2)4
_chemical_formula_sum   'Co2 H16 C8 O16'
_cell_volume   416.50161409
_cell_formula_units_Z   2
loop_
 _symmetry_equiv_pos_site_id
 _symmetry_equiv_pos_as_xyz
  1  'x, y, z'
loop_
 _atom_site_type_symbol
 _atom_site_label
 _atom_site_symmetry_multiplicity
 _atom_site_fract_x
 _atom_site_fract_y
 _atom_site_fract_z
 _atom_site_occupancy
  Co  Co0  1  1.50000000  -0.00000000  -0.00000000  1.0
  Co  Co1  1  1.00000000  -0.50000000  0.50000000  1.0
  H  H2  1  0.65067961  -0.15743823  0.37927573  1.0
  H  H3  1  1.15743823  0.34932039  0.87927573  1.0
  H  H4  1  0.84256177  -0.34932039  0.12072427  1.0
  H  H5  1  1.34932039  0.15743823  0.62072427  1.0
  H  H6  1  0.44474869  -0.13553506  0.37084182  1.0
  H  H7  1  1.13553506  0.55525131  0.87084182  1.0
  H  H8  1  0.86446494  -0.55525131  0.12915818  1.0
  H  H9  1  1.55525131  0.13553506  0.62915818  1.0
  H  H10  1  1.61042544  0.27187170  0.04645889  1.0
  H  H11  1  0.72812830  -0.61042544  0.54645889  1.0
  H  H12  1  1.27187170  0.61042544  0.45354111  1.0
  H  H13  1  0.38957456  -0.27187170  0.95354111  1.0
  H  H14  1  1.53742215  0.22149083  0.23528764  1.0
  H  H15  1  0.77850917  -0.53742215  0.73528764  1.0
  H  H16  1  1.22149083  0.53742215  0.26471236  1.0
  H  H17  1  0.46257785  -0.22149083  0.76471236  1.0
  C  C18  1  0.89690935  -0.04995599  0.00647374  1.0
  C  C19  1  1.04995599  0.10309065  0.50647374  1.0
  C  C20  1  0.95004401  -0.10309065  0.49352626  1.0
  C  C21  1  1.10309065  0.04995599  0.99352626  1.0
  C  C22  1  1.87106280  0.08928119  0.49689603  1.0
  C  C23  1  0.91071881  -0.87106280  0.99689603  1.0
  C  C24  1  1.08928119  0.87106280  0.00310397  1.0
  C  C25  1  0.12893720  -0.08928119  0.50310397  1.0
  O  O26  1  0.77577789  -0.11582083  0.01460127  1.0
  O  O27  1  1.11582083  0.22422211  0.51460127  1.0
  O  O28  1  0.88417917  -0.22422211  0.48539873  1.0
  O  O29  1  1.22422211  0.11582083  0.98539873  1.0
  O  O30  1  0.53038131  -0.10394672  0.29742369  1.0
  O  O31  1  1.10394672  0.46961869  0.79742369  1.0
  O  O32  1  0.89605328  -0.46961869  0.20257631  1.0
  O  O33  1  1.46961869  0.10394672  0.70257631  1.0
  O  O34  1  1.71454412  0.19606510  0.49397272  1.0
  O  O35  1  0.80393490  -0.71454412  0.99397272  1.0
  O  O36  1  1.19606510  0.71454412  0.00602728  1.0
  O  O37  1  0.28545588  -0.19606510  0.50602728  1.0
  O  O38  1  1.51126429  0.23724316  0.09167986  1.0
  O  O39  1  0.76275684  -0.51126429  0.59167986  1.0
  O  O40  1  1.23724316  0.51126429  0.40832014  1.0
  O  O41  1  0.48873571  -0.23724316  0.90832014  1.0
