# generated using pymatgen
data_Sr5Nb4O15
_symmetry_space_group_name_H-M   'P 1'
_cell_length_a   9.88792554
_cell_length_b   5.70832459
_cell_length_c   11.60873556
_cell_angle_alpha   90.00000000
_cell_angle_beta   89.98040223
_cell_angle_gamma   90.00000000
_symmetry_Int_Tables_number   1
_chemical_formula_structural   Sr5Nb4O15
_chemical_formula_sum   'Sr10 Nb8 O30'
_cell_volume   655.23749364
_cell_formula_units_Z   2
loop_
 _symmetry_equiv_pos_site_id
 _symmetry_equiv_pos_as_xyz
  1  'x, y, z'
loop_
 _atom_site_type_symbol
 _atom_site_label
 _atom_site_symmetry_multiplicity
 _atom_site_fract_x
 _atom_site_fract_y
 _atom_site_fract_z
 _atom_site_occupancy
  Nb  Nb0  1  0.00004174  0.00000000  0.68005543  1.0
  Nb  Nb1  1  0.99995826  0.00000000  0.31994457  1.0
  Nb  Nb2  1  0.33337841  0.00000000  0.89445017  1.0
  Nb  Nb3  1  0.66662159  0.00000000  0.10554983  1.0
  Nb  Nb4  1  0.50004026  0.50000000  0.68009163  1.0
  Nb  Nb5  1  0.49995974  0.50000000  0.31990837  1.0
  Nb  Nb6  1  0.83338452  0.50000000  0.89443725  1.0
  Nb  Nb7  1  0.16661548  0.50000000  0.10556275  1.0
  O  O8  1  0.16588572  0.00000000  0.80647269  1.0
  O  O9  1  0.83411428  0.00000000  0.19352731  1.0
  O  O10  1  0.24997571  0.24998740  0.00000160  1.0
  O  O11  1  0.24997571  0.75001260  0.00000160  1.0
  O  O12  1  0.75002429  0.75001260  -0.00000160  1.0
  O  O13  1  0.75002429  0.24998740  -0.00000160  1.0
  O  O14  1  0.41733157  0.25149837  0.80666607  1.0
  O  O15  1  0.41733157  0.74850163  0.80666607  1.0
  O  O16  1  0.58266843  0.74850163  0.19333393  1.0
  O  O17  1  0.58266843  0.25149837  0.19333393  1.0
  O  O18  1  0.08443007  0.74700046  0.60865559  1.0
  O  O19  1  0.08443007  0.25299954  0.60865559  1.0
  O  O20  1  0.91556993  0.25299954  0.39134441  1.0
  O  O21  1  0.91556993  0.74700046  0.39134441  1.0
  O  O22  1  0.33136192  0.50000000  0.60877417  1.0
  O  O23  1  0.66863808  0.50000000  0.39122583  1.0
  O  O24  1  0.50000000  0.00000000  -0.00000000  1.0
  O  O25  1  0.58440879  0.24698162  0.60867328  1.0
  O  O26  1  0.58440879  0.75301838  0.60867328  1.0
  O  O27  1  0.41559121  0.75301838  0.39132672  1.0
  O  O28  1  0.41559121  0.24698162  0.39132672  1.0
  O  O29  1  0.83136636  0.00000000  0.60872497  1.0
  O  O30  1  0.16863364  0.00000000  0.39127503  1.0
  O  O31  1  0.91731412  0.75149543  0.80663360  1.0
  O  O32  1  0.91731412  0.24850457  0.80663360  1.0
  O  O33  1  0.08268588  0.24850457  0.19336640  1.0
  O  O34  1  0.08268588  0.75149543  0.19336640  1.0
  O  O35  1  0.66585656  0.50000000  0.80651483  1.0
  O  O36  1  0.33414344  0.50000000  0.19348517  1.0
  O  O37  1  0.00000000  0.50000000  0.00000000  1.0
  Sr  Sr38  1  0.00000000  0.00000000  0.00000000  1.0
  Sr  Sr39  1  0.16662609  0.50000000  0.78103598  1.0
  Sr  Sr40  1  0.83337391  0.50000000  0.21896402  1.0
  Sr  Sr41  1  0.50000000  0.50000000  -0.00000000  1.0
  Sr  Sr42  1  0.83320491  0.50000000  0.56121039  1.0
  Sr  Sr43  1  0.16679509  0.50000000  0.43878961  1.0
  Sr  Sr44  1  0.66666973  0.00000000  0.78102348  1.0
  Sr  Sr45  1  0.33333027  0.00000000  0.21897652  1.0
  Sr  Sr46  1  0.33326867  0.00000000  0.56124647  1.0
  Sr  Sr47  1  0.66673133  0.00000000  0.43875353  1.0
