# generated using pymatgen
data_Cu2CO5
_symmetry_space_group_name_H-M   'P 1'
_cell_length_a   2.96603585
_cell_length_b   9.09045092
_cell_length_c   13.03281031
_cell_angle_alpha   90.00000000
_cell_angle_beta   100.40954582
_cell_angle_gamma   90.00000000
_symmetry_Int_Tables_number   1
_chemical_formula_structural   Cu2CO5
_chemical_formula_sum   'Cu8 C4 O20'
_cell_volume   345.61496120
_cell_formula_units_Z   4
loop_
 _symmetry_equiv_pos_site_id
 _symmetry_equiv_pos_as_xyz
  1  'x, y, z'
loop_
 _atom_site_type_symbol
 _atom_site_label
 _atom_site_symmetry_multiplicity
 _atom_site_fract_x
 _atom_site_fract_y
 _atom_site_fract_z
 _atom_site_occupancy
  Cu  Cu0  1  0.89262972  0.23473374  0.12687158  1.0
  Cu  Cu1  1  0.89262972  0.26526626  0.62687158  1.0
  Cu  Cu2  1  0.10737028  0.73473374  0.37312842  1.0
  Cu  Cu3  1  0.10737028  0.76526626  0.87312842  1.0
  Cu  Cu4  1  0.48028125  0.49961611  0.22366937  1.0
  Cu  Cu5  1  0.48028125  1.00038389  0.72366937  1.0
  Cu  Cu6  1  0.51971875  -0.00038389  0.27633063  1.0
  Cu  Cu7  1  0.51971875  0.50038389  0.77633063  1.0
  C  C8  1  0.81798555  0.27343352  0.37541585  1.0
  C  C9  1  0.81798555  0.22656648  0.87541585  1.0
  C  C10  1  0.18201445  0.77343352  0.12458415  1.0
  C  C11  1  0.18201445  0.72656648  0.62458415  1.0
  O  O12  1  0.86163544  0.34459903  0.28868823  1.0
  O  O13  1  0.86163544  0.15540097  0.78868823  1.0
  O  O14  1  0.13836456  0.84459903  0.21131177  1.0
  O  O15  1  0.13836456  0.65540097  0.71131177  1.0
  O  O16  1  1.11943499  0.63029443  0.12918536  1.0
  O  O17  1  1.11943499  0.86970557  0.62918536  1.0
  O  O18  1  -0.11943499  0.13029443  0.37081464  1.0
  O  O19  1  -0.11943499  0.36970557  0.87081464  1.0
  O  O20  1  0.74516443  0.33593147  0.45500007  1.0
  O  O21  1  0.74516443  0.16406853  0.95500007  1.0
  O  O22  1  0.25483557  0.83593147  0.04499993  1.0
  O  O23  1  0.25483557  0.66406853  0.54499993  1.0
  O  O24  1  0.62386717  0.86591563  0.39058354  1.0
  O  O25  1  0.62386717  0.63408437  0.89058354  1.0
  O  O26  1  0.37613283  0.36591563  0.10941646  1.0
  O  O27  1  0.37613283  0.13408437  0.60941646  1.0
  O  O28  1  0.41708595  0.10903763  0.15410190  1.0
  O  O29  1  0.41708595  0.39096237  0.65410190  1.0
  O  O30  1  0.58291405  0.60903763  0.34589810  1.0
  O  O31  1  0.58291405  0.89096237  0.84589810  1.0
