# generated using pymatgen
data_KNaSnF6
_symmetry_space_group_name_H-M   'P 1'
_cell_length_a   12.15957113
_cell_length_b   6.09013092
_cell_length_c   8.31297417
_cell_angle_alpha   90.00000000
_cell_angle_beta   90.00000000
_cell_angle_gamma   90.00000000
_symmetry_Int_Tables_number   1
_chemical_formula_structural   KNaSnF6
_chemical_formula_sum   'K4 Na4 Sn4 F24'
_cell_volume   615.60383558
_cell_formula_units_Z   4
loop_
 _symmetry_equiv_pos_site_id
 _symmetry_equiv_pos_as_xyz
  1  'x, y, z'
loop_
 _atom_site_type_symbol
 _atom_site_label
 _atom_site_symmetry_multiplicity
 _atom_site_fract_x
 _atom_site_fract_y
 _atom_site_fract_z
 _atom_site_occupancy
  K  K0  1  0.45442182  0.53812272  0.80019207  1.0
  K  K1  1  0.95442182  0.96187728  0.80019207  1.0
  K  K2  1  0.54557818  0.46187728  0.30019207  1.0
  K  K3  1  0.04557818  0.03812272  0.30019207  1.0
  Na  Na4  1  0.14874384  0.55252772  0.54586081  1.0
  Na  Na5  1  0.64874384  0.94747228  0.54586081  1.0
  Na  Na6  1  0.85125616  0.44747228  0.04586081  1.0
  Na  Na7  1  0.35125616  0.05252772  0.04586081  1.0
  Sn  Sn8  1  0.36502883  0.04962540  0.54222491  1.0
  Sn  Sn9  1  0.86502883  0.45037460  0.54222491  1.0
  Sn  Sn10  1  0.63497117  0.95037460  0.04222491  1.0
  Sn  Sn11  1  0.13497117  0.54962540  0.04222491  1.0
  F  F12  1  0.49178990  0.78736085  0.08055572  1.0
  F  F13  1  0.99178990  0.71263915  0.08055572  1.0
  F  F14  1  0.50821010  0.21263915  0.58055572  1.0
  F  F15  1  0.00821010  0.28736085  0.58055572  1.0
  F  F16  1  0.45924921  0.78192588  0.50203305  1.0
  F  F17  1  0.95924921  0.71807412  0.50203305  1.0
  F  F18  1  0.54075079  0.21807412  0.00203305  1.0
  F  F19  1  0.04075079  0.28192588  0.00203305  1.0
  F  F20  1  0.35921611  0.95220698  0.77242213  1.0
  F  F21  1  0.85921611  0.54779302  0.77242213  1.0
  F  F22  1  0.64078389  0.04779302  0.27242213  1.0
  F  F23  1  0.14078389  0.45220698  0.27242213  1.0
  F  F24  1  0.22311720  0.89709316  0.49469068  1.0
  F  F25  1  0.72311720  0.60290684  0.49469068  1.0
  F  F26  1  0.77688280  0.10290684  -0.00530932  1.0
  F  F27  1  0.27688280  0.39709316  -0.00530932  1.0
  F  F28  1  0.20869471  0.83048373  0.10456157  1.0
  F  F29  1  0.70869471  0.66951627  0.10456157  1.0
  F  F30  1  0.79130529  0.16951627  0.60456157  1.0
  F  F31  1  0.29130529  0.33048373  0.60456157  1.0
  F  F32  1  0.12417304  0.64895723  0.81365907  1.0
  F  F33  1  0.62417304  0.85104277  0.81365907  1.0
  F  F34  1  0.87582696  0.35104277  0.31365907  1.0
  F  F35  1  0.37582696  0.14895723  0.31365907  1.0
