# generated using pymatgen
data_Sr3TaHO6
_symmetry_space_group_name_H-M   'P 1'
_cell_length_a   6.71308296
_cell_length_b   6.71308296
_cell_length_c   8.27340076
_cell_angle_alpha   87.40070420
_cell_angle_beta   92.59929580
_cell_angle_gamma   102.31323052
_symmetry_Int_Tables_number   1
_chemical_formula_structural   Sr3TaHO6
_chemical_formula_sum   'Sr6 Ta2 H2 O12'
_cell_volume   363.64998707
_cell_formula_units_Z   2
loop_
 _symmetry_equiv_pos_site_id
 _symmetry_equiv_pos_as_xyz
  1  'x, y, z'
loop_
 _atom_site_type_symbol
 _atom_site_label
 _atom_site_symmetry_multiplicity
 _atom_site_fract_x
 _atom_site_fract_y
 _atom_site_fract_z
 _atom_site_occupancy
  Sr  Sr0  1  1.39755026  0.03846948  0.75706292  1.0
  Sr  Sr1  1  0.96153052  -0.39755026  0.75706292  1.0
  Sr  Sr2  1  0.89757877  -0.46155098  0.25703325  1.0
  Sr  Sr3  1  1.46155098  0.10242123  0.25703325  1.0
  Sr  Sr4  1  -0.01966501  0.01966501  0.01648343  1.0
  Sr  Sr5  1  0.48034593  -0.48034593  0.51646953  1.0
  Ta  Ta6  1  0.99810050  -0.99810050  0.48517926  1.0
  Ta  Ta7  1  0.49806634  -0.49806634  0.98520564  1.0
  H  H8  1  0.72072316  -0.72072316  0.94288466  1.0
  H  H9  1  0.22076276  -0.22076276  0.44292957  1.0
  O  O10  1  0.59740562  -0.59740562  0.78153345  1.0
  O  O11  1  0.09745498  -0.09745498  0.28152478  1.0
  O  O12  1  0.32338124  -0.32338124  0.91811853  1.0
  O  O13  1  0.82343016  -0.82343016  0.41802262  1.0
  O  O14  1  0.01646460  -0.01646460  0.72355173  1.0
  O  O15  1  0.51647768  -0.51647768  0.22356883  1.0
  O  O16  1  0.25846335  -0.25846335  0.55540972  1.0
  O  O17  1  0.75844769  -0.75844769  0.05535368  1.0
  O  O18  1  0.82085270  -0.27512436  0.49639865  1.0
  O  O19  1  1.27512436  0.17914730  0.49639865  1.0
  O  O20  1  1.32081696  0.22491356  0.99641246  1.0
  O  O21  1  0.77508644  -0.32081696  0.99641246  1.0
