# generated using pymatgen
data_LaCoSb3
_symmetry_space_group_name_H-M   'P 1'
_cell_length_a   13.05320967
_cell_length_b   6.20325023
_cell_length_c   12.20695546
_cell_angle_alpha   90.00000000
_cell_angle_beta   90.00000000
_cell_angle_gamma   90.00000000
_symmetry_Int_Tables_number   1
_chemical_formula_structural   LaCoSb3
_chemical_formula_sum   'La8 Co8 Sb24'
_cell_volume   988.42557553
_cell_formula_units_Z   8
loop_
 _symmetry_equiv_pos_site_id
 _symmetry_equiv_pos_as_xyz
  1  'x, y, z'
loop_
 _atom_site_type_symbol
 _atom_site_label
 _atom_site_symmetry_multiplicity
 _atom_site_fract_x
 _atom_site_fract_y
 _atom_site_fract_z
 _atom_site_occupancy
  La  La0  1  0.80197449  0.72538315  0.75000000  1.0
  La  La1  1  0.80197449  0.77461685  0.25000000  1.0
  La  La2  1  0.19802551  0.22538315  0.75000000  1.0
  La  La3  1  0.19802551  0.27461685  0.25000000  1.0
  La  La4  1  0.20144063  0.75000000  0.00000000  1.0
  La  La5  1  0.20144063  0.75000000  0.50000000  1.0
  La  La6  1  0.79855937  0.25000000  0.00000000  1.0
  La  La7  1  0.79855937  0.25000000  0.50000000  1.0
  Co  Co8  1  0.59508001  0.96040549  0.86419099  1.0
  Co  Co9  1  0.59508001  0.96040549  0.63580901  1.0
  Co  Co10  1  0.59508001  0.53959451  0.36419099  1.0
  Co  Co11  1  0.59508001  0.53959451  0.13580901  1.0
  Co  Co12  1  0.40491999  0.46040549  0.86419099  1.0
  Co  Co13  1  0.40491999  0.46040549  0.63580901  1.0
  Co  Co14  1  0.40491999  0.03959451  0.36419099  1.0
  Co  Co15  1  0.40491999  0.03959451  0.13580901  1.0
  Sb  Sb16  1  0.99768956  0.98687701  0.87587971  1.0
  Sb  Sb17  1  0.99768956  0.98687701  0.62412029  1.0
  Sb  Sb18  1  0.99768956  0.51312299  0.37587971  1.0
  Sb  Sb19  1  0.99768956  0.51312299  0.12412029  1.0
  Sb  Sb20  1  0.00231044  0.48687701  0.87587971  1.0
  Sb  Sb21  1  0.00231044  0.48687701  0.62412029  1.0
  Sb  Sb22  1  0.00231044  0.01312299  0.37587971  1.0
  Sb  Sb23  1  0.00231044  0.01312299  0.12412029  1.0
  Sb  Sb24  1  0.55510729  0.61296354  0.75000000  1.0
  Sb  Sb25  1  0.55510729  0.88703646  0.25000000  1.0
  Sb  Sb26  1  0.44489271  0.11296354  0.75000000  1.0
  Sb  Sb27  1  0.44489271  0.38703646  0.25000000  1.0
  Sb  Sb28  1  0.29238227  0.73078714  0.75000000  1.0
  Sb  Sb29  1  0.29238227  0.76921286  0.25000000  1.0
  Sb  Sb30  1  0.70761773  0.23078714  0.75000000  1.0
  Sb  Sb31  1  0.70761773  0.26921286  0.25000000  1.0
  Sb  Sb32  1  0.71369699  0.75000000  0.00000000  1.0
  Sb  Sb33  1  0.71369699  0.75000000  0.50000000  1.0
  Sb  Sb34  1  0.28630301  0.25000000  0.00000000  1.0
  Sb  Sb35  1  0.28630301  0.25000000  0.50000000  1.0
  Sb  Sb36  1  0.47233705  0.75000000  0.00000000  1.0
  Sb  Sb37  1  0.47233705  0.75000000  0.50000000  1.0
  Sb  Sb38  1  0.52766295  0.25000000  0.00000000  1.0
  Sb  Sb39  1  0.52766295  0.25000000  0.50000000  1.0
