# generated using pymatgen
data_Ce(BRh)4
_symmetry_space_group_name_H-M   'P 1'
_cell_length_a   5.35153363
_cell_length_b   5.35153363
_cell_length_c   7.50106749
_cell_angle_alpha   90.00000000
_cell_angle_beta   90.00000000
_cell_angle_gamma   90.00000000
_symmetry_Int_Tables_number   1
_chemical_formula_structural   Ce(BRh)4
_chemical_formula_sum   'Ce2 B8 Rh8'
_cell_volume   214.82241337
_cell_formula_units_Z   2
loop_
 _symmetry_equiv_pos_site_id
 _symmetry_equiv_pos_as_xyz
  1  'x, y, z'
loop_
 _atom_site_type_symbol
 _atom_site_label
 _atom_site_symmetry_multiplicity
 _atom_site_fract_x
 _atom_site_fract_y
 _atom_site_fract_z
 _atom_site_occupancy
  Ce  Ce0  1  0.00000000  0.00000000  0.00000000  1.0
  Ce  Ce1  1  0.50000000  0.50000000  0.50000000  1.0
  B  B2  1  0.83255058  0.50000000  0.15032141  1.0
  B  B3  1  0.16744942  0.50000000  0.15032141  1.0
  B  B4  1  0.00000000  0.33255058  0.65032141  1.0
  B  B5  1  0.00000000  0.66744942  0.65032141  1.0
  B  B6  1  0.66744942  0.00000000  0.34967859  1.0
  B  B7  1  0.33255058  0.00000000  0.34967859  1.0
  B  B8  1  0.50000000  0.16744942  0.84967859  1.0
  B  B9  1  0.50000000  0.83255058  0.84967859  1.0
  Rh  Rh10  1  0.24969344  0.50000000  0.85466878  1.0
  Rh  Rh11  1  0.75030656  0.50000000  0.85466878  1.0
  Rh  Rh12  1  0.00000000  0.74969344  0.35466878  1.0
  Rh  Rh13  1  0.00000000  0.25030656  0.35466878  1.0
  Rh  Rh14  1  0.25030656  0.00000000  0.64533122  1.0
  Rh  Rh15  1  0.74969344  0.00000000  0.64533122  1.0
  Rh  Rh16  1  0.50000000  0.75030656  0.14533122  1.0
  Rh  Rh17  1  0.50000000  0.24969344  0.14533122  1.0
