# generated using pymatgen
data_Tl(ZnSb)2
_symmetry_space_group_name_H-M   'P 1'
_cell_length_a   7.08202349
_cell_length_b   7.08202349
_cell_length_c   7.08202349
_cell_angle_alpha   106.00955400
_cell_angle_beta   106.00955400
_cell_angle_gamma   116.64137827
_symmetry_Int_Tables_number   1
_chemical_formula_structural   Tl(ZnSb)2
_chemical_formula_sum   'Tl2 Zn4 Sb4'
_cell_volume   270.18254849
_cell_formula_units_Z   2
loop_
 _symmetry_equiv_pos_site_id
 _symmetry_equiv_pos_as_xyz
  1  'x, y, z'
loop_
 _atom_site_type_symbol
 _atom_site_label
 _atom_site_symmetry_multiplicity
 _atom_site_fract_x
 _atom_site_fract_y
 _atom_site_fract_z
 _atom_site_occupancy
  Tl  Tl0  1  0.04250292  0.04250292  -0.00000000  1.0
  Tl  Tl1  1  0.54203027  0.54203027  -0.00000000  1.0
  Zn  Zn2  1  0.55142171  1.05133270  0.78437273  1.0
  Zn  Zn3  1  1.05133270  1.26695997  0.49991099  1.0
  Zn  Zn4  1  1.26695997  1.76704898  1.21562727  1.0
  Zn  Zn5  1  0.76704898  0.55142171  0.50008901  1.0
  Sb  Sb6  1  0.61396525  1.11396254  1.19377606  1.0
  Sb  Sb7  1  1.11396254  0.92018648  1.49999730  1.0
  Sb  Sb8  1  0.92018648  0.42018918  0.80622394  1.0
  Sb  Sb9  1  0.42018918  0.61396525  0.50000270  1.0
