# generated using pymatgen
data_VCoB3
_symmetry_space_group_name_H-M   'P 1'
_cell_length_a   8.85710263
_cell_length_b   8.85710263
_cell_length_c   2.97499695
_cell_angle_alpha   90.00000000
_cell_angle_beta   90.00000000
_cell_angle_gamma   160.46007400
_symmetry_Int_Tables_number   1
_chemical_formula_structural   VCoB3
_chemical_formula_sum   'V2 Co2 B6'
_cell_volume   78.05824858
_cell_formula_units_Z   2
loop_
 _symmetry_equiv_pos_site_id
 _symmetry_equiv_pos_as_xyz
  1  'x, y, z'
loop_
 _atom_site_type_symbol
 _atom_site_label
 _atom_site_symmetry_multiplicity
 _atom_site_fract_x
 _atom_site_fract_y
 _atom_site_fract_z
 _atom_site_occupancy
  V  V0  1  0.42559596  0.57440404  0.75000000  1.0
  V  V1  1  -0.42559596  0.42559596  0.25000000  1.0
  Co  Co2  1  -0.29608339  0.29608339  0.75000000  1.0
  Co  Co3  1  0.29608339  0.70391661  0.25000000  1.0
  B  B4  1  0.02499950  0.97500050  0.75000000  1.0
  B  B5  1  -0.02499950  0.02499950  0.25000000  1.0
  B  B6  1  0.12459998  0.87540002  0.75000000  1.0
  B  B7  1  -0.12459998  0.12459998  0.25000000  1.0
  B  B8  1  -0.17916333  0.17916333  0.75000000  1.0
  B  B9  1  0.17916333  0.82083667  0.25000000  1.0
