# generated using pymatgen
data_Gd8Rh5C12
_symmetry_space_group_name_H-M   'P 1'
_cell_length_a   14.15955392
_cell_length_b   14.15955392
_cell_length_c   7.48313842
_cell_angle_alpha   86.83360238
_cell_angle_beta   93.16639762
_cell_angle_gamma   165.24779330
_symmetry_Int_Tables_number   1
_chemical_formula_structural   Gd8Rh5C12
_chemical_formula_sum   'Gd8 Rh5 C12'
_cell_volume   381.44638513
_cell_formula_units_Z   1
loop_
 _symmetry_equiv_pos_site_id
 _symmetry_equiv_pos_as_xyz
  1  'x, y, z'
loop_
 _atom_site_type_symbol
 _atom_site_label
 _atom_site_symmetry_multiplicity
 _atom_site_fract_x
 _atom_site_fract_y
 _atom_site_fract_z
 _atom_site_occupancy
  Gd  Gd0  1  0.69911490  -0.69911490  0.61044152  1.0
  Gd  Gd1  1  1.30088510  -0.30088510  0.38955848  1.0
  Gd  Gd2  1  0.58809990  -0.58809990  0.82832642  1.0
  Gd  Gd3  1  1.41190010  -0.41190010  0.17167358  1.0
  Gd  Gd4  1  1.45357361  -0.45357361  0.70593926  1.0
  Gd  Gd5  1  0.54642639  -0.54642639  0.29406074  1.0
  Gd  Gd6  1  1.29409074  -0.29409074  0.87908827  1.0
  Gd  Gd7  1  0.70590926  -0.70590926  0.12091173  1.0
  Rh  Rh8  1  0.89148586  -0.89148586  0.51455252  1.0
  Rh  Rh9  1  1.10851414  -0.10851414  0.48544748  1.0
  Rh  Rh10  1  0.88222466  -0.88222466  0.87385488  1.0
  Rh  Rh11  1  1.11777534  -0.11777534  0.12614512  1.0
  Rh  Rh12  1  0.00000000  0.00000000  0.00000000  1.0
  C  C13  1  0.97681101  -0.97681101  0.24321974  1.0
  C  C14  1  1.02318899  -0.02318899  0.75678026  1.0
  C  C15  1  0.95149738  -0.95149738  0.38387311  1.0
  C  C16  1  1.04850262  -0.04850262  0.61612689  1.0
  C  C17  1  0.83199437  -0.83199437  0.65045410  1.0
  C  C18  1  1.16800563  -0.16800563  0.34954590  1.0
  C  C19  1  0.78424117  -0.78424117  0.63211824  1.0
  C  C20  1  1.21575883  -0.21575883  0.36788176  1.0
  C  C21  1  1.20700010  -0.20700010  0.87142291  1.0
  C  C22  1  0.79299990  -0.79299990  0.12857709  1.0
  C  C23  1  1.15965768  -0.15965768  0.88929832  1.0
  C  C24  1  0.84034232  -0.84034232  0.11070168  1.0
