# generated using pymatgen
data_C3N4
_symmetry_space_group_name_H-M   'P 1'
_cell_length_a   4.61114034
_cell_length_b   4.61114034
_cell_length_c   4.61114034
_cell_angle_alpha   62.43173259
_cell_angle_beta   62.43173259
_cell_angle_gamma   62.43173259
_symmetry_Int_Tables_number   1
_chemical_formula_structural   C3N4
_chemical_formula_sum   'C3 N4'
_cell_volume   73.08715550
_cell_formula_units_Z   1
loop_
 _symmetry_equiv_pos_site_id
 _symmetry_equiv_pos_as_xyz
  1  'x, y, z'
loop_
 _atom_site_type_symbol
 _atom_site_label
 _atom_site_symmetry_multiplicity
 _atom_site_fract_x
 _atom_site_fract_y
 _atom_site_fract_z
 _atom_site_occupancy
  C  C0  1  0.35443250  0.82500817  -0.17499183  1.0
  C  C1  1  0.82500817  0.35443250  -0.17499183  1.0
  C  C2  1  0.82500817  0.82500817  -0.64556750  1.0
  N  N3  1  0.99441325  0.50513828  -0.49486172  1.0
  N  N4  1  0.50513828  0.99441325  -0.49486172  1.0
  N  N5  1  0.50513828  0.50513828  -0.00558675  1.0
  N  N6  1  0.00096136  0.00096136  0.00096136  1.0
