# generated using pymatgen
data_Nb
_symmetry_space_group_name_H-M   'P 1'
_cell_length_a   10.03998132
_cell_length_b   10.03998132
_cell_length_c   10.03998132
_cell_angle_alpha   31.42657025
_cell_angle_beta   31.42657025
_cell_angle_gamma   31.42657025
_symmetry_Int_Tables_number   1
_chemical_formula_structural   Nb
_chemical_formula_sum   Nb13
_cell_volume   244.23922021
_cell_formula_units_Z   13
loop_
 _symmetry_equiv_pos_site_id
 _symmetry_equiv_pos_as_xyz
  1  'x, y, z'
loop_
 _atom_site_type_symbol
 _atom_site_label
 _atom_site_symmetry_multiplicity
 _atom_site_fract_x
 _atom_site_fract_y
 _atom_site_fract_z
 _atom_site_occupancy
  Nb  Nb0  1  0.00000000  0.00000000  0.00000000  1.0
  Nb  Nb1  1  0.64823174  0.64823174  -0.35176826  1.0
  Nb  Nb2  1  0.35176826  0.35176826  -0.64823174  1.0
  Nb  Nb3  1  0.83235908  -0.16764092  -0.16764092  1.0
  Nb  Nb4  1  0.16764092  0.16764092  0.16764092  1.0
  Nb  Nb5  1  0.54349158  0.54349158  -0.45650842  1.0
  Nb  Nb6  1  0.45650842  0.45650842  -0.54349158  1.0
  Nb  Nb7  1  0.41401717  -0.09150855  -0.09150855  1.0
  Nb  Nb8  1  0.90849145  -0.09150855  -0.58598283  1.0
  Nb  Nb9  1  0.90849145  -0.58598283  -0.09150855  1.0
  Nb  Nb10  1  0.58598283  0.09150855  0.09150855  1.0
  Nb  Nb11  1  1.09150855  0.09150855  -0.41401717  1.0
  Nb  Nb12  1  1.09150855  -0.41401717  0.09150855  1.0
