# generated using pymatgen
data_InPb2F7
_symmetry_space_group_name_H-M   'P 1'
_cell_length_a   5.75123222
_cell_length_b   12.55928975
_cell_length_c   8.60012270
_cell_angle_alpha   90.00000000
_cell_angle_beta   89.84365462
_cell_angle_gamma   90.00000000
_symmetry_Int_Tables_number   1
_chemical_formula_structural   InPb2F7
_chemical_formula_sum   'In4 Pb8 F28'
_cell_volume   621.19651994
_cell_formula_units_Z   4
loop_
 _symmetry_equiv_pos_site_id
 _symmetry_equiv_pos_as_xyz
  1  'x, y, z'
loop_
 _atom_site_type_symbol
 _atom_site_label
 _atom_site_symmetry_multiplicity
 _atom_site_fract_x
 _atom_site_fract_y
 _atom_site_fract_z
 _atom_site_occupancy
  In  In0  1  0.72254643  0.37240694  0.28018975  1.0
  In  In1  1  0.72254643  0.12759306  0.78018975  1.0
  In  In2  1  0.27745357  0.87240694  0.21981025  1.0
  In  In3  1  0.27745357  0.62759306  0.71981025  1.0
  Pb  Pb4  1  0.77946101  0.71171424  0.44567808  1.0
  Pb  Pb5  1  0.77946101  0.78828576  0.94567808  1.0
  Pb  Pb6  1  0.22053899  0.21171424  0.05432192  1.0
  Pb  Pb7  1  0.22053899  0.28828576  0.55432192  1.0
  Pb  Pb8  1  0.76447525  0.05908209  0.32718953  1.0
  Pb  Pb9  1  0.76447525  0.44091791  0.82718953  1.0
  Pb  Pb10  1  0.23552475  0.55908209  0.17281047  1.0
  Pb  Pb11  1  0.23552475  0.94091791  0.67281047  1.0
  F  F12  1  0.98317675  0.39223454  0.08816107  1.0
  F  F13  1  0.98317675  0.10776546  0.58816107  1.0
  F  F14  1  0.01682325  0.89223454  0.41183893  1.0
  F  F15  1  0.01682325  0.60776546  0.91183893  1.0
  F  F16  1  0.98874433  0.24260104  0.29961760  1.0
  F  F17  1  0.98874433  0.25739896  0.79961760  1.0
  F  F18  1  0.01125567  0.74260104  0.20038240  1.0
  F  F19  1  0.01125567  0.75739896  0.70038240  1.0
  F  F20  1  0.82478234  0.36474812  0.51876320  1.0
  F  F21  1  0.82478234  0.13525188  1.01876320  1.0
  F  F22  1  0.17521766  0.86474812  -0.01876320  1.0
  F  F23  1  0.17521766  0.63525188  0.48123680  1.0
  F  F24  1  0.81484053  0.96232428  0.78709492  1.0
  F  F25  1  0.81484053  0.53767572  0.28709492  1.0
  F  F26  1  0.18515947  0.46232428  0.71290508  1.0
  F  F27  1  0.18515947  0.03767572  0.21290508  1.0
  F  F28  1  0.52215703  0.22635081  0.28433458  1.0
  F  F29  1  0.52215703  0.27364919  0.78433458  1.0
  F  F30  1  0.47784297  0.72635081  0.21566542  1.0
  F  F31  1  0.47784297  0.77364919  0.71566542  1.0
  F  F32  1  0.51670470  0.39782513  0.07371841  1.0
  F  F33  1  0.51670470  0.10217487  0.57371841  1.0
  F  F34  1  0.48329530  0.89782513  0.42628159  1.0
  F  F35  1  0.48329530  0.60217487  0.92628159  1.0
  F  F36  1  0.39000243  0.42646318  0.37239398  1.0
  F  F37  1  0.39000243  0.07353682  0.87239398  1.0
  F  F38  1  0.60999757  0.92646318  0.12760602  1.0
  F  F39  1  0.60999757  0.57353682  0.62760602  1.0
