# generated using pymatgen
data_LiTiAsO5
_symmetry_space_group_name_H-M   'P 1'
_cell_length_a   7.66545428
_cell_length_b   6.67577812
_cell_length_c   7.58813072
_cell_angle_alpha   90.00000000
_cell_angle_beta   90.00000000
_cell_angle_gamma   90.00000000
_symmetry_Int_Tables_number   1
_chemical_formula_structural   LiTiAsO5
_chemical_formula_sum   'Li4 Ti4 As4 O20'
_cell_volume   388.30644168
_cell_formula_units_Z   4
loop_
 _symmetry_equiv_pos_site_id
 _symmetry_equiv_pos_as_xyz
  1  'x, y, z'
loop_
 _atom_site_type_symbol
 _atom_site_label
 _atom_site_symmetry_multiplicity
 _atom_site_fract_x
 _atom_site_fract_y
 _atom_site_fract_z
 _atom_site_occupancy
  Li  Li0  1  0.50000000  0.00000000  0.50000000  1.0
  Li  Li1  1  0.00000000  0.50000000  0.00000000  1.0
  Li  Li2  1  0.50000000  0.50000000  0.50000000  1.0
  Li  Li3  1  0.00000000  0.00000000  0.00000000  1.0
  Ti  Ti4  1  0.83342691  0.75000000  0.27730061  1.0
  Ti  Ti5  1  0.33342691  0.75000000  0.22269939  1.0
  Ti  Ti6  1  0.16657309  0.25000000  0.72269939  1.0
  Ti  Ti7  1  0.66657309  0.25000000  0.77730061  1.0
  As  As8  1  0.87336718  0.25000000  0.37207791  1.0
  As  As9  1  0.37336718  0.25000000  0.12792209  1.0
  As  As10  1  0.12663282  0.75000000  0.62792209  1.0
  As  As11  1  0.62663282  0.75000000  0.87207791  1.0
  O  O12  1  0.61776608  0.75000000  0.33618807  1.0
  O  O13  1  0.11776608  0.75000000  0.16381193  1.0
  O  O14  1  0.38223392  0.25000000  0.66381193  1.0
  O  O15  1  0.88223392  0.25000000  0.83618807  1.0
  O  O16  1  0.31330304  0.75000000  0.49706561  1.0
  O  O17  1  0.81330304  0.75000000  1.00293439  1.0
  O  O18  1  0.68669696  0.25000000  0.50293439  1.0
  O  O19  1  0.18669696  0.25000000  -0.00293439  1.0
  O  O20  1  0.56542849  0.25000000  0.00823213  1.0
  O  O21  1  0.06542849  0.25000000  0.49176787  1.0
  O  O22  1  0.43457151  0.75000000  0.99176787  1.0
  O  O23  1  0.93457151  0.75000000  0.50823213  1.0
  O  O24  1  0.37464440  0.45624690  0.26502058  1.0
  O  O25  1  0.87464440  0.04375310  0.23497942  1.0
  O  O26  1  0.62535560  0.95624690  0.73497942  1.0
  O  O27  1  0.12535560  0.54375310  0.76502058  1.0
  O  O28  1  0.62535560  0.54375310  0.73497942  1.0
  O  O29  1  0.12535560  0.95624690  0.76502058  1.0
  O  O30  1  0.37464440  0.04375310  0.26502058  1.0
  O  O31  1  0.87464440  0.45624690  0.23497942  1.0
