# generated using pymatgen
data_LaPt
_symmetry_space_group_name_H-M   'P 1'
_cell_length_a   5.93115696
_cell_length_b   5.93115696
_cell_length_c   4.57547835
_cell_angle_alpha   90.00000000
_cell_angle_beta   90.00000000
_cell_angle_gamma   140.61931191
_symmetry_Int_Tables_number   1
_chemical_formula_structural   LaPt
_chemical_formula_sum   'La2 Pt2'
_cell_volume   102.12367761
_cell_formula_units_Z   2
loop_
 _symmetry_equiv_pos_site_id
 _symmetry_equiv_pos_as_xyz
  1  'x, y, z'
loop_
 _atom_site_type_symbol
 _atom_site_label
 _atom_site_symmetry_multiplicity
 _atom_site_fract_x
 _atom_site_fract_y
 _atom_site_fract_z
 _atom_site_occupancy
  La  La0  1  -0.63549221  0.63549221  0.25000000  1.0
  La  La1  1  -0.36450779  1.36450779  0.75000000  1.0
  Pt  Pt2  1  -0.90867822  0.90867822  0.25000000  1.0
  Pt  Pt3  1  -0.09132178  1.09132178  0.75000000  1.0
