# generated using pymatgen
data_CoH6C2S2N2O3
_symmetry_space_group_name_H-M   'P 1'
_cell_length_a   7.21592162
_cell_length_b   7.21592162
_cell_length_c   10.66732825
_cell_angle_alpha   86.29544112
_cell_angle_beta   93.70455888
_cell_angle_gamma   130.43842779
_symmetry_Int_Tables_number   1
_chemical_formula_structural   CoH6C2S2N2O3
_chemical_formula_sum   'Co2 H12 C4 S4 N4 O6'
_cell_volume   421.67751710
_cell_formula_units_Z   2
loop_
 _symmetry_equiv_pos_site_id
 _symmetry_equiv_pos_as_xyz
  1  'x, y, z'
loop_
 _atom_site_type_symbol
 _atom_site_label
 _atom_site_symmetry_multiplicity
 _atom_site_fract_x
 _atom_site_fract_y
 _atom_site_fract_z
 _atom_site_occupancy
  Co  Co0  1  0.50000000  0.00000000  -0.00000000  1.0
  Co  Co1  1  1.00000000  0.50000000  0.50000000  1.0
  H  H2  1  0.75504129  -0.16371035  0.79944252  1.0
  H  H3  1  1.16371035  0.24495871  0.29944252  1.0
  H  H4  1  0.83628965  0.75504129  0.70055748  1.0
  H  H5  1  0.24495871  0.16371035  0.20055748  1.0
  H  H6  1  0.73333782  0.00213826  0.49203913  1.0
  H  H7  1  0.99786174  0.26666218  -0.00796087  1.0
  H  H8  1  1.00213826  0.73333782  1.00796087  1.0
  H  H9  1  0.26666218  -0.00213826  0.50796087  1.0
  H  H10  1  0.08553482  -0.09124787  0.88861396  1.0
  H  H11  1  1.09124787  0.91446518  0.38861396  1.0
  H  H12  1  0.90875213  0.08553482  0.61138604  1.0
  H  H13  1  0.91446518  0.09124787  0.11138604  1.0
  C  C14  1  0.59751040  0.25323771  0.73327887  1.0
  C  C15  1  0.74676229  0.40248960  0.23327887  1.0
  C  C16  1  1.25323771  0.59751040  0.76672113  1.0
  C  C17  1  0.40248960  -0.25323771  0.26672113  1.0
  S  S18  1  1.37236033  0.61591193  0.90697695  1.0
  S  S19  1  0.38408807  -0.37236033  0.40697695  1.0
  S  S20  1  0.61591193  0.37236033  0.59302305  1.0
  S  S21  1  0.62763967  0.38408807  0.09302305  1.0
  N  N22  1  0.58228142  0.16964870  0.83447110  1.0
  N  N23  1  0.83035130  0.41771858  0.33447110  1.0
  N  N24  1  1.16964870  0.58228142  0.66552890  1.0
  N  N25  1  0.41771858  -0.16964870  0.16552890  1.0
  O  O26  1  0.14394640  -0.11214974  0.97032791  1.0
  O  O27  1  1.11214974  0.85605359  0.47032791  1.0
  O  O28  1  0.88785026  0.14394641  0.52967209  1.0
  O  O29  1  0.85605359  0.11214974  0.02967209  1.0
  O  O30  1  0.89599624  0.89599624  0.75000000  1.0
  O  O31  1  0.10400376  0.10400376  0.25000000  1.0
