# generated using pymatgen
data_CSF2
_symmetry_space_group_name_H-M   'P 1'
_cell_length_a   6.36780464
_cell_length_b   11.48283252
_cell_length_c   8.81365430
_cell_angle_alpha   90.00000000
_cell_angle_beta   90.00000000
_cell_angle_gamma   90.00000000
_symmetry_Int_Tables_number   1
_chemical_formula_structural   CSF2
_chemical_formula_sum   'C8 S8 F16'
_cell_volume   644.45822967
_cell_formula_units_Z   8
loop_
 _symmetry_equiv_pos_site_id
 _symmetry_equiv_pos_as_xyz
  1  'x, y, z'
loop_
 _atom_site_type_symbol
 _atom_site_label
 _atom_site_symmetry_multiplicity
 _atom_site_fract_x
 _atom_site_fract_y
 _atom_site_fract_z
 _atom_site_occupancy
  C  C0  1  0.96660069  0.59328441  0.55508889  1.0
  C  C1  1  0.03339931  0.09328441  0.94491111  1.0
  C  C2  1  0.46660069  0.90671559  0.44491111  1.0
  C  C3  1  0.53339931  0.40671559  0.05508889  1.0
  C  C4  1  0.03339931  0.40671559  0.44491111  1.0
  C  C5  1  0.96660069  0.90671559  0.05508889  1.0
  C  C6  1  0.53339931  0.09328441  0.55508889  1.0
  C  C7  1  0.46660069  0.59328441  0.94491111  1.0
  S  S8  1  0.82368765  0.45591313  0.57093017  1.0
  S  S9  1  0.17631235  0.95591313  0.92906983  1.0
  S  S10  1  0.32368765  0.04408687  0.42906983  1.0
  S  S11  1  0.67631235  0.54408687  0.07093017  1.0
  S  S12  1  0.17631235  0.54408687  0.42906983  1.0
  S  S13  1  0.82368765  0.04408687  0.07093017  1.0
  S  S14  1  0.67631235  0.95591313  0.57093017  1.0
  S  S15  1  0.32368765  0.45591313  0.92906983  1.0
  F  F16  1  0.84871174  0.68195777  0.49555909  1.0
  F  F17  1  0.15128826  0.18195777  0.00444091  1.0
  F  F18  1  0.34871174  0.81804223  0.50444091  1.0
  F  F19  1  0.65128826  0.31804223  0.99555909  1.0
  F  F20  1  0.15128826  0.31804223  0.50444091  1.0
  F  F21  1  0.84871174  0.81804223  0.99555909  1.0
  F  F22  1  0.65128826  0.18195777  0.49555909  1.0
  F  F23  1  0.34871174  0.68195777  0.00444091  1.0
  F  F24  1  0.03810109  0.63465621  0.69146743  1.0
  F  F25  1  0.96189891  0.13465621  0.80853257  1.0
  F  F26  1  0.53810109  0.86534379  0.30853257  1.0
  F  F27  1  0.46189891  0.36534379  0.19146743  1.0
  F  F28  1  0.96189891  0.36534379  0.30853257  1.0
  F  F29  1  0.03810109  0.86534379  0.19146743  1.0
  F  F30  1  0.46189891  0.13465621  0.69146743  1.0
  F  F31  1  0.53810109  0.63465621  0.80853257  1.0
