# generated using pymatgen
data_Nb13Co4C
_symmetry_space_group_name_H-M   'P 1'
_cell_length_a   10.09112483
_cell_length_b   10.09112483
_cell_length_c   10.09112483
_cell_angle_alpha   60.00000000
_cell_angle_beta   60.00000000
_cell_angle_gamma   60.00000000
_symmetry_Int_Tables_number   1
_chemical_formula_structural   Nb13Co4C
_chemical_formula_sum   'Nb26 Co8 C2'
_cell_volume   726.61396071
_cell_formula_units_Z   2
loop_
 _symmetry_equiv_pos_site_id
 _symmetry_equiv_pos_as_xyz
  1  'x, y, z'
loop_
 _atom_site_type_symbol
 _atom_site_label
 _atom_site_symmetry_multiplicity
 _atom_site_fract_x
 _atom_site_fract_y
 _atom_site_fract_z
 _atom_site_occupancy
  Nb  Nb0  1  0.95074893  -0.59686685  0.69536899  1.0
  Nb  Nb1  1  -0.04925107  0.69536899  0.40313315  1.0
  Nb  Nb2  1  -0.15313315  0.29925107  0.29925107  1.0
  Nb  Nb3  1  0.55463101  0.29925107  0.29925107  1.0
  Nb  Nb4  1  -0.59686685  0.95074893  0.69536899  1.0
  Nb  Nb5  1  0.95074893  -0.04925107  0.69536899  1.0
  Nb  Nb6  1  0.95074893  -0.30463101  0.95074893  1.0
  Nb  Nb7  1  -0.59686685  0.69536899  0.95074893  1.0
  Nb  Nb8  1  0.29925107  -0.15313315  0.29925107  1.0
  Nb  Nb9  1  0.29925107  0.29925107  -0.15313315  1.0
  Nb  Nb10  1  0.55463101  0.29925107  -0.15313315  1.0
  Nb  Nb11  1  0.55463101  -0.15313315  0.29925107  1.0
  Nb  Nb12  1  0.69536899  -0.04925107  0.95074893  1.0
  Nb  Nb13  1  -0.59686685  0.95074893  0.95074893  1.0
  Nb  Nb14  1  0.29925107  0.55463101  -0.15313315  1.0
  Nb  Nb15  1  0.29925107  -0.15313315  0.55463101  1.0
  Nb  Nb16  1  -0.30463101  0.95074893  0.40313315  1.0
  Nb  Nb17  1  0.69536899  -0.59686685  0.95074893  1.0
  Nb  Nb18  1  0.95074893  -0.59686685  0.95074893  1.0
  Nb  Nb19  1  -0.04925107  0.95074893  0.40313315  1.0
  Nb  Nb20  1  0.29925107  0.55463101  0.29925107  1.0
  Nb  Nb21  1  -0.15313315  0.55463101  0.29925107  1.0
  Nb  Nb22  1  -0.15313315  0.29925107  0.55463101  1.0
  Nb  Nb23  1  0.29925107  0.29925107  0.55463101  1.0
  Nb  Nb24  1  0.50000000  0.50000000  -0.50000000  1.0
  Nb  Nb25  1  0.75000000  -0.25000000  0.75000000  1.0
  Co  Co26  1  0.66318317  -0.33681683  1.01045048  1.0
  Co  Co27  1  0.66318317  0.01045048  0.66318317  1.0
  Co  Co28  1  0.58681683  -0.41318317  0.58681683  1.0
  Co  Co29  1  1.23954952  -0.41318317  0.58681683  1.0
  Co  Co30  1  1.01045048  -0.33681683  0.66318317  1.0
  Co  Co31  1  0.66318317  -0.33681683  0.66318317  1.0
  Co  Co32  1  0.58681683  0.23954952  0.58681683  1.0
  Co  Co33  1  0.58681683  -0.41318317  1.23954952  1.0
  C  C34  1  0.00000000  1.00000000  -0.00000000  1.0
  C  C35  1  0.25000000  0.25000000  0.25000000  1.0
