# generated using pymatgen
data_Li2Te2O5
_symmetry_space_group_name_H-M   'P 1'
_cell_length_a   10.57759705
_cell_length_b   4.87622008
_cell_length_c   12.33926445
_cell_angle_alpha   90.00000000
_cell_angle_beta   122.99904041
_cell_angle_gamma   90.00000000
_symmetry_Int_Tables_number   1
_chemical_formula_structural   Li2Te2O5
_chemical_formula_sum   'Li8 Te8 O20'
_cell_volume   533.77191027
_cell_formula_units_Z   4
loop_
 _symmetry_equiv_pos_site_id
 _symmetry_equiv_pos_as_xyz
  1  'x, y, z'
loop_
 _atom_site_type_symbol
 _atom_site_label
 _atom_site_symmetry_multiplicity
 _atom_site_fract_x
 _atom_site_fract_y
 _atom_site_fract_z
 _atom_site_occupancy
  Li  Li0  1  0.92302216  0.70374148  0.00943057  1.0
  Li  Li1  1  0.92302216  0.79625852  0.50943057  1.0
  Li  Li2  1  0.07697784  0.20374148  0.49056943  1.0
  Li  Li3  1  0.07697784  0.29625852  0.99056943  1.0
  Li  Li4  1  0.92350018  0.32322312  0.17626274  1.0
  Li  Li5  1  0.92350018  0.17677688  0.67626274  1.0
  Li  Li6  1  0.07649982  0.82322312  0.32373726  1.0
  Li  Li7  1  0.07649982  0.67677688  0.82373726  1.0
  Te  Te8  1  0.69887218  0.31635207  0.34853339  1.0
  Te  Te9  1  0.69887218  0.18364793  0.84853339  1.0
  Te  Te10  1  0.30112782  0.81635207  0.15146661  1.0
  Te  Te11  1  0.30112782  0.68364793  0.65146661  1.0
  Te  Te12  1  0.30374313  0.32755707  0.37502145  1.0
  Te  Te13  1  0.30374313  0.17244293  0.87502145  1.0
  Te  Te14  1  0.69625687  0.82755707  0.12497855  1.0
  Te  Te15  1  0.69625687  0.67244293  0.62497855  1.0
  O  O16  1  0.89106292  0.72981049  0.15644121  1.0
  O  O17  1  0.89106292  0.77018951  0.65644121  1.0
  O  O18  1  0.10893708  0.22981049  0.34355879  1.0
  O  O19  1  0.10893708  0.27018951  0.84355879  1.0
  O  O20  1  0.89241270  0.21336586  0.49751682  1.0
  O  O21  1  0.89241270  0.28663414  0.99751682  1.0
  O  O22  1  0.10758730  0.71336586  0.00248318  1.0
  O  O23  1  0.10758730  0.78663414  0.50248318  1.0
  O  O24  1  0.76622750  0.18827872  0.21157359  1.0
  O  O25  1  0.76622750  0.31172128  0.71157359  1.0
  O  O26  1  0.23377250  0.68827872  0.28842641  1.0
  O  O27  1  0.23377250  0.81172128  0.78842641  1.0
  O  O28  1  0.75703888  0.68745947  0.32905819  1.0
  O  O29  1  0.75703888  0.81254053  0.82905819  1.0
  O  O30  1  0.24296112  0.18745947  0.17094181  1.0
  O  O31  1  0.24296112  0.31254053  0.67094181  1.0
  O  O32  1  0.61078129  0.48082687  0.44985069  1.0
  O  O33  1  0.61078129  0.01917313  0.94985069  1.0
  O  O34  1  0.38921871  0.98082687  0.05014931  1.0
  O  O35  1  0.38921871  0.51917313  0.55014931  1.0
