# generated using pymatgen
data_LaSbS2O
_symmetry_space_group_name_H-M   'P 1'
_cell_length_a   4.00781729
_cell_length_b   4.00781729
_cell_length_c   14.04049614
_cell_angle_alpha   90.00000000
_cell_angle_beta   90.00000000
_cell_angle_gamma   90.00000000
_symmetry_Int_Tables_number   1
_chemical_formula_structural   LaSbS2O
_chemical_formula_sum   'La2 Sb2 S4 O2'
_cell_volume   225.52686531
_cell_formula_units_Z   2
loop_
 _symmetry_equiv_pos_site_id
 _symmetry_equiv_pos_as_xyz
  1  'x, y, z'
loop_
 _atom_site_type_symbol
 _atom_site_label
 _atom_site_symmetry_multiplicity
 _atom_site_fract_x
 _atom_site_fract_y
 _atom_site_fract_z
 _atom_site_occupancy
  La  La0  1  0.50000000  0.00000000  0.09099369  1.0
  La  La1  1  0.00000000  0.50000000  0.90900631  1.0
  Sb  Sb2  1  0.50000000  0.00000000  0.63286692  1.0
  Sb  Sb3  1  0.00000000  0.50000000  0.36713308  1.0
  S  S4  1  0.50000000  0.00000000  0.38560140  1.0
  S  S5  1  0.00000000  0.50000000  0.61439860  1.0
  S  S6  1  0.50000000  0.00000000  0.80499759  1.0
  S  S7  1  0.00000000  0.50000000  0.19500241  1.0
  O  O8  1  0.00000000  0.00000000  0.00000000  1.0
  O  O9  1  0.50000000  0.50000000  0.00000000  1.0
