# generated using pymatgen
data_Ta2Fe4O9
_symmetry_space_group_name_H-M   'P 1'
_cell_length_a   5.21403032
_cell_length_b   5.21403032
_cell_length_c   14.33014800
_cell_angle_alpha   90.00000000
_cell_angle_beta   90.00000000
_cell_angle_gamma   120.00000000
_symmetry_Int_Tables_number   1
_chemical_formula_structural   Ta2Fe4O9
_chemical_formula_sum   'Ta4 Fe8 O18'
_cell_volume   337.38705194
_cell_formula_units_Z   2
loop_
 _symmetry_equiv_pos_site_id
 _symmetry_equiv_pos_as_xyz
  1  'x, y, z'
loop_
 _atom_site_type_symbol
 _atom_site_label
 _atom_site_symmetry_multiplicity
 _atom_site_fract_x
 _atom_site_fract_y
 _atom_site_fract_z
 _atom_site_occupancy
  Ta  Ta0  1  0.00000000  0.00000000  0.14426952  1.0
  Ta  Ta1  1  0.00000000  0.00000000  0.64426952  1.0
  Ta  Ta2  1  0.00000000  0.00000000  0.35573048  1.0
  Ta  Ta3  1  0.00000000  0.00000000  0.85573048  1.0
  Fe  Fe4  1  0.33333333  0.66666667  0.31275318  1.0
  Fe  Fe5  1  0.33333333  0.66666667  0.81275318  1.0
  Fe  Fe6  1  0.66666667  0.33333333  0.18724682  1.0
  Fe  Fe7  1  0.66666667  0.33333333  0.68724682  1.0
  Fe  Fe8  1  0.33333333  0.66666667  0.00771025  1.0
  Fe  Fe9  1  0.33333333  0.66666667  0.50771025  1.0
  Fe  Fe10  1  0.66666667  0.33333333  0.49228975  1.0
  Fe  Fe11  1  0.66666667  0.33333333  0.99228975  1.0
  O  O12  1  0.98377219  0.66304442  0.08405220  1.0
  O  O13  1  0.98377219  0.32072777  0.58405220  1.0
  O  O14  1  0.66304442  0.98377219  0.41594780  1.0
  O  O15  1  0.66304442  0.67927223  0.91594780  1.0
  O  O16  1  0.67927223  0.66304442  0.58405220  1.0
  O  O17  1  0.67927223  0.01622781  0.08405220  1.0
  O  O18  1  0.33695558  0.01622781  0.58405220  1.0
  O  O19  1  0.33695558  0.32072777  0.08405220  1.0
  O  O20  1  0.01622781  0.67927223  0.41594780  1.0
  O  O21  1  0.01622781  0.33695558  0.91594780  1.0
  O  O22  1  0.32072777  0.98377219  0.91594780  1.0
  O  O23  1  0.32072777  0.33695558  0.41594780  1.0
  O  O24  1  0.71069775  0.71069775  0.25000000  1.0
  O  O25  1  0.71069775  0.00000000  0.75000000  1.0
  O  O26  1  -0.00000000  0.71069775  0.75000000  1.0
  O  O27  1  0.00000000  0.28930225  0.25000000  1.0
  O  O28  1  0.28930225  0.28930225  0.75000000  1.0
  O  O29  1  0.28930225  0.00000000  0.25000000  1.0
