# generated using pymatgen
data_KAg3Te2
_symmetry_space_group_name_H-M   'P 1'
_cell_length_a   9.12698430
_cell_length_b   9.12698430
_cell_length_c   9.26138100
_cell_angle_alpha   66.51976692
_cell_angle_beta   113.48023308
_cell_angle_gamma   150.70609034
_symmetry_Int_Tables_number   1
_chemical_formula_structural   KAg3Te2
_chemical_formula_sum   'K2 Ag6 Te4'
_cell_volume   343.98712340
_cell_formula_units_Z   2
loop_
 _symmetry_equiv_pos_site_id
 _symmetry_equiv_pos_as_xyz
  1  'x, y, z'
loop_
 _atom_site_type_symbol
 _atom_site_label
 _atom_site_symmetry_multiplicity
 _atom_site_fract_x
 _atom_site_fract_y
 _atom_site_fract_z
 _atom_site_occupancy
  K  K0  1  0.13520244  -0.13520244  0.05265288  1.0
  K  K1  1  0.86479756  0.13520244  0.94734712  1.0
  Ag  Ag2  1  0.05917206  -0.05917206  0.40846783  1.0
  Ag  Ag3  1  0.94082794  0.05917206  0.59153217  1.0
  Ag  Ag4  1  0.69044522  0.30955478  0.45610070  1.0
  Ag  Ag5  1  0.30955478  -0.30955478  0.54389930  1.0
  Ag  Ag6  1  0.58762690  0.41237310  0.62868366  1.0
  Ag  Ag7  1  0.41237310  -0.41237310  0.37131634  1.0
  Te  Te8  1  0.20398245  -0.20398245  0.70439882  1.0
  Te  Te9  1  0.79601755  0.20398245  0.29560118  1.0
  Te  Te10  1  0.51699684  0.48300316  0.21444136  1.0
  Te  Te11  1  0.48300316  -0.48300316  0.78555864  1.0
