# generated using pymatgen
data_HfMnGe2
_symmetry_space_group_name_H-M   'P 1'
_cell_length_a   9.20094071
_cell_length_b   10.10964358
_cell_length_c   8.08293813
_cell_angle_alpha   90.00000000
_cell_angle_beta   90.00000000
_cell_angle_gamma   90.00000000
_symmetry_Int_Tables_number   1
_chemical_formula_structural   HfMnGe2
_chemical_formula_sum   'Hf12 Mn12 Ge24'
_cell_volume   751.86060735
_cell_formula_units_Z   12
loop_
 _symmetry_equiv_pos_site_id
 _symmetry_equiv_pos_as_xyz
  1  'x, y, z'
loop_
 _atom_site_type_symbol
 _atom_site_label
 _atom_site_symmetry_multiplicity
 _atom_site_fract_x
 _atom_site_fract_y
 _atom_site_fract_z
 _atom_site_occupancy
  Hf  Hf0  1  0.16432586  0.82105591  0.00000000  1.0
  Hf  Hf1  1  0.66432586  0.67894409  0.00000000  1.0
  Hf  Hf2  1  0.83567414  0.17894409  0.00000000  1.0
  Hf  Hf3  1  0.33567414  0.32105591  0.00000000  1.0
  Hf  Hf4  1  0.17252403  0.54801499  0.75640971  1.0
  Hf  Hf5  1  0.17252403  0.54801499  0.24359029  1.0
  Hf  Hf6  1  0.67252403  0.95198501  0.75640971  1.0
  Hf  Hf7  1  0.67252403  0.95198501  0.24359029  1.0
  Hf  Hf8  1  0.82747597  0.45198501  0.75640971  1.0
  Hf  Hf9  1  0.82747597  0.45198501  0.24359029  1.0
  Hf  Hf10  1  0.32747597  0.04801499  0.75640971  1.0
  Hf  Hf11  1  0.32747597  0.04801499  0.24359029  1.0
  Mn  Mn12  1  0.41538996  0.74889980  0.75017651  1.0
  Mn  Mn13  1  0.41538996  0.74889980  0.24982349  1.0
  Mn  Mn14  1  0.91538996  0.75110020  0.75017651  1.0
  Mn  Mn15  1  0.91538996  0.75110020  0.24982349  1.0
  Mn  Mn16  1  0.58461004  0.25110020  0.75017651  1.0
  Mn  Mn17  1  0.58461004  0.25110020  0.24982349  1.0
  Mn  Mn18  1  0.08461004  0.24889980  0.75017651  1.0
  Mn  Mn19  1  0.08461004  0.24889980  0.24982349  1.0
  Mn  Mn20  1  0.50000000  0.50000000  0.75477996  1.0
  Mn  Mn21  1  0.50000000  0.50000000  0.24522004  1.0
  Mn  Mn22  1  0.00000000  0.00000000  0.75477996  1.0
  Mn  Mn23  1  0.00000000  0.00000000  0.24522004  1.0
  Ge  Ge24  1  0.16661544  0.81836981  0.65717369  1.0
  Ge  Ge25  1  0.16661544  0.81836981  0.34282631  1.0
  Ge  Ge26  1  0.66661544  0.68163019  0.65717369  1.0
  Ge  Ge27  1  0.66661544  0.68163019  0.34282631  1.0
  Ge  Ge28  1  0.83338456  0.18163019  0.65717369  1.0
  Ge  Ge29  1  0.83338456  0.18163019  0.34282631  1.0
  Ge  Ge30  1  0.33338456  0.31836981  0.65717369  1.0
  Ge  Ge31  1  0.33338456  0.31836981  0.34282631  1.0
  Ge  Ge32  1  0.46053169  0.87773928  0.50000000  1.0
  Ge  Ge33  1  0.96053169  0.62226072  0.50000000  1.0
  Ge  Ge34  1  0.53946831  0.12226072  0.50000000  1.0
  Ge  Ge35  1  0.03946831  0.37773928  0.50000000  1.0
  Ge  Ge36  1  0.37553910  0.59990709  0.50000000  1.0
  Ge  Ge37  1  0.87553910  0.90009291  0.50000000  1.0
  Ge  Ge38  1  0.62446090  0.40009291  0.50000000  1.0
  Ge  Ge39  1  0.12446090  0.09990709  0.50000000  1.0
  Ge  Ge40  1  0.45913682  0.87957175  0.00000000  1.0
  Ge  Ge41  1  0.95913682  0.62042825  0.00000000  1.0
  Ge  Ge42  1  0.54086318  0.12042825  0.00000000  1.0
  Ge  Ge43  1  0.04086318  0.37957175  0.00000000  1.0
  Ge  Ge44  1  0.36939791  0.60419039  0.00000000  1.0
  Ge  Ge45  1  0.86939791  0.89580961  0.00000000  1.0
  Ge  Ge46  1  0.63060209  0.39580961  0.00000000  1.0
  Ge  Ge47  1  0.13060209  0.10419039  0.00000000  1.0
