# generated using pymatgen
data_SiO2
_symmetry_space_group_name_H-M   'P 1'
_cell_length_a   7.06800995
_cell_length_b   7.06800995
_cell_length_c   7.06800995
_cell_angle_alpha   91.13728316
_cell_angle_beta   104.37054226
_cell_angle_gamma   137.05096844
_symmetry_Int_Tables_number   1
_chemical_formula_structural   SiO2
_chemical_formula_sum   'Si4 O8'
_cell_volume   221.92508697
_cell_formula_units_Z   4
loop_
 _symmetry_equiv_pos_site_id
 _symmetry_equiv_pos_as_xyz
  1  'x, y, z'
loop_
 _atom_site_type_symbol
 _atom_site_label
 _atom_site_symmetry_multiplicity
 _atom_site_fract_x
 _atom_site_fract_y
 _atom_site_fract_z
 _atom_site_occupancy
  Si  Si0  1  0.15107955  0.09175545  0.24209849  1.0
  Si  Si1  1  0.84965696  0.90898106  1.75790151  1.0
  Si  Si2  1  1.15107955  1.40898106  1.55932410  1.0
  Si  Si3  1  0.84965696  0.59175545  0.44067590  1.0
  O  O4  1  0.49683423  0.27001876  0.34052402  1.0
  O  O5  1  0.92949474  1.15631021  1.65947598  1.0
  O  O6  1  1.49683423  1.65631021  1.72681548  1.0
  O  O7  1  0.92949474  0.77001876  0.27318452  1.0
  O  O8  1  1.12226051  1.27099778  1.35126273  1.0
  O  O9  1  0.91973505  0.77099778  0.64873727  1.0
  O  O10  1  0.05735674  0.05735674  -0.00000000  1.0
  O  O11  1  1.05735674  0.55735674  0.50000000  1.0
