# generated using pymatgen
data_SnPdF6
_symmetry_space_group_name_H-M   'P 1'
_cell_length_a   5.78240476
_cell_length_b   5.78240476
_cell_length_c   5.78240476
_cell_angle_alpha   55.96248485
_cell_angle_beta   55.96248485
_cell_angle_gamma   55.96248485
_symmetry_Int_Tables_number   1
_chemical_formula_structural   SnPdF6
_chemical_formula_sum   'Sn1 Pd1 F6'
_cell_volume   123.92324870
_cell_formula_units_Z   1
loop_
 _symmetry_equiv_pos_site_id
 _symmetry_equiv_pos_as_xyz
  1  'x, y, z'
loop_
 _atom_site_type_symbol
 _atom_site_label
 _atom_site_symmetry_multiplicity
 _atom_site_fract_x
 _atom_site_fract_y
 _atom_site_fract_z
 _atom_site_occupancy
  Sn  Sn0  1  0.00000000  0.00000000  0.00000000  1.0
  Pd  Pd1  1  0.50000000  0.50000000  -0.50000000  1.0
  F  F2  1  0.10961275  0.76271426  -0.63419049  1.0
  F  F3  1  0.63419049  -0.10961275  0.23728574  1.0
  F  F4  1  1.23728574  -0.36580951  -0.10961275  1.0
  F  F5  1  0.89038725  0.23728574  -0.36580951  1.0
  F  F6  1  0.36580951  0.10961275  -0.23728574  1.0
  F  F7  1  0.76271426  0.36580951  -0.89038725  1.0
