# generated using pymatgen
data_Pb3SeBr4O3
_symmetry_space_group_name_H-M   'P 1'
_cell_length_a   7.97461102
_cell_length_b   8.65507031
_cell_length_c   17.01341524
_cell_angle_alpha   90.00000000
_cell_angle_beta   90.00000000
_cell_angle_gamma   90.00000000
_symmetry_Int_Tables_number   1
_chemical_formula_structural   Pb3SeBr4O3
_chemical_formula_sum   'Pb12 Se4 Br16 O12'
_cell_volume   1174.27985551
_cell_formula_units_Z   4
loop_
 _symmetry_equiv_pos_site_id
 _symmetry_equiv_pos_as_xyz
  1  'x, y, z'
loop_
 _atom_site_type_symbol
 _atom_site_label
 _atom_site_symmetry_multiplicity
 _atom_site_fract_x
 _atom_site_fract_y
 _atom_site_fract_z
 _atom_site_occupancy
  Pb  Pb0  1  0.55938058  0.00766194  0.92482225  1.0
  Pb  Pb1  1  0.94061942  0.99233806  0.42482225  1.0
  Pb  Pb2  1  0.44061942  0.50766194  0.57517775  1.0
  Pb  Pb3  1  0.05938058  0.49233806  0.07517775  1.0
  Pb  Pb4  1  0.70282472  0.77842132  0.22499555  1.0
  Pb  Pb5  1  0.79717528  0.22157868  0.72499555  1.0
  Pb  Pb6  1  0.29717528  0.27842132  0.27500445  1.0
  Pb  Pb7  1  0.20282472  0.72157868  0.77500445  1.0
  Pb  Pb8  1  0.56241092  0.48971970  0.93354473  1.0
  Pb  Pb9  1  0.93758908  0.51028030  0.43354473  1.0
  Pb  Pb10  1  0.43758908  0.98971970  0.56645527  1.0
  Pb  Pb11  1  0.06241092  0.01028030  0.06645527  1.0
  Se  Se12  1  0.39092278  0.31360932  0.77185638  1.0
  Se  Se13  1  0.10907722  0.68639068  0.27185638  1.0
  Se  Se14  1  0.60907722  0.81360932  0.72814362  1.0
  Se  Se15  1  0.89092278  0.18639068  0.22814362  1.0
  Br  Br16  1  0.75048250  0.75360815  0.03377155  1.0
  Br  Br17  1  0.74951750  0.24639185  0.53377155  1.0
  Br  Br18  1  0.24951750  0.25360815  0.46622845  1.0
  Br  Br19  1  0.25048250  0.74639185  0.96622845  1.0
  Br  Br20  1  0.24707445  0.24896088  0.96823842  1.0
  Br  Br21  1  0.25292555  0.75103912  0.46823842  1.0
  Br  Br22  1  0.75292555  0.74896088  0.53176158  1.0
  Br  Br23  1  0.74707445  0.25103912  0.03176158  1.0
  Br  Br24  1  0.89385293  0.99483292  0.85352393  1.0
  Br  Br25  1  0.60614707  0.00516708  0.35352393  1.0
  Br  Br26  1  0.10614707  0.49483292  0.64647607  1.0
  Br  Br27  1  0.39385293  0.50516708  0.14647607  1.0
  Br  Br28  1  0.63436718  0.48756383  0.33668158  1.0
  Br  Br29  1  0.86563282  0.51243617  0.83668158  1.0
  Br  Br30  1  0.36563282  0.98756383  0.16331842  1.0
  Br  Br31  1  0.13436718  0.01243617  0.66331842  1.0
  O  O32  1  0.55287043  0.23969354  0.83124060  1.0
  O  O33  1  0.94712957  0.76030646  0.33124060  1.0
  O  O34  1  0.44712957  0.73969354  0.66875940  1.0
  O  O35  1  0.05287043  0.26030646  0.16875940  1.0
  O  O36  1  0.38400222  0.49753862  0.81130394  1.0
  O  O37  1  0.11599778  0.50246138  0.31130394  1.0
  O  O38  1  0.61599778  0.99753862  0.68869606  1.0
  O  O39  1  0.88400222  0.00246138  0.18869606  1.0
  O  O40  1  0.51077161  0.33820679  0.68755401  1.0
  O  O41  1  0.98922839  0.66179321  0.18755401  1.0
  O  O42  1  0.48922839  0.83820679  0.81244599  1.0
  O  O43  1  0.01077161  0.16179321  0.31244599  1.0
