# generated using pymatgen
data_Ca2ScSbO6
_symmetry_space_group_name_H-M   'P 1'
_cell_length_a   5.54277711
_cell_length_b   5.70194946
_cell_length_c   9.68176355
_cell_angle_alpha   90.00000000
_cell_angle_beta   124.92769376
_cell_angle_gamma   90.00000000
_symmetry_Int_Tables_number   1
_chemical_formula_structural   Ca2ScSbO6
_chemical_formula_sum   'Ca4 Sc2 Sb2 O12'
_cell_volume   250.87247743
_cell_formula_units_Z   2
loop_
 _symmetry_equiv_pos_site_id
 _symmetry_equiv_pos_as_xyz
  1  'x, y, z'
loop_
 _atom_site_type_symbol
 _atom_site_label
 _atom_site_symmetry_multiplicity
 _atom_site_fract_x
 _atom_site_fract_y
 _atom_site_fract_z
 _atom_site_occupancy
  Ca  Ca0  1  0.23735173  0.44978377  0.25033363  1.0
  Ca  Ca1  1  0.23735173  0.05021623  0.75033363  1.0
  Ca  Ca2  1  0.76264827  0.94978377  0.24966637  1.0
  Ca  Ca3  1  0.76264827  0.55021623  0.74966637  1.0
  Sc  Sc4  1  0.50000000  0.00000000  0.50000000  1.0
  Sc  Sc5  1  0.50000000  0.50000000  -0.00000000  1.0
  Sb  Sb6  1  0.00000000  0.00000000  0.00000000  1.0
  Sb  Sb7  1  -0.00000000  0.50000000  0.50000000  1.0
  O  O8  1  0.34240679  0.03538088  0.24338612  1.0
  O  O9  1  0.34240679  0.46461912  0.74338612  1.0
  O  O10  1  0.65759321  0.53538088  0.25661388  1.0
  O  O11  1  0.65759321  0.96461912  0.75661388  1.0
  O  O12  1  0.85944670  0.70954815  0.05349118  1.0
  O  O13  1  0.85944670  0.79045185  0.55349118  1.0
  O  O14  1  0.14055330  0.20954815  0.44650882  1.0
  O  O15  1  0.14055330  0.29045185  0.94650882  1.0
  O  O16  1  0.75834489  0.19789497  0.05072259  1.0
  O  O17  1  0.75834489  0.30210503  0.55072259  1.0
  O  O18  1  0.24165511  0.69789497  0.44927741  1.0
  O  O19  1  0.24165511  0.80210503  0.94927741  1.0
