# generated using pymatgen
data_CaYb2O4
_symmetry_space_group_name_H-M   'P 1'
_cell_length_a   9.80848436
_cell_length_b   3.34538643
_cell_length_c   11.71334558
_cell_angle_alpha   90.00000000
_cell_angle_beta   90.00000000
_cell_angle_gamma   90.00000000
_symmetry_Int_Tables_number   1
_chemical_formula_structural   CaYb2O4
_chemical_formula_sum   'Ca4 Yb8 O16'
_cell_volume   384.35200584
_cell_formula_units_Z   4
loop_
 _symmetry_equiv_pos_site_id
 _symmetry_equiv_pos_as_xyz
  1  'x, y, z'
loop_
 _atom_site_type_symbol
 _atom_site_label
 _atom_site_symmetry_multiplicity
 _atom_site_fract_x
 _atom_site_fract_y
 _atom_site_fract_z
 _atom_site_occupancy
  Ca  Ca0  1  0.75668837  0.75000000  0.64855052  1.0
  Ca  Ca1  1  0.25668837  0.75000000  0.85144948  1.0
  Ca  Ca2  1  0.24331163  0.25000000  0.35144948  1.0
  Ca  Ca3  1  0.74331163  0.25000000  0.14855052  1.0
  Yb  Yb4  1  0.42149942  0.75000000  0.61247208  1.0
  Yb  Yb5  1  0.92149942  0.75000000  0.88752792  1.0
  Yb  Yb6  1  0.57850058  0.25000000  0.38752792  1.0
  Yb  Yb7  1  0.07850058  0.25000000  0.11247208  1.0
  Yb  Yb8  1  0.92318973  0.75000000  0.38974777  1.0
  Yb  Yb9  1  0.42318973  0.75000000  0.11025223  1.0
  Yb  Yb10  1  0.07681027  0.25000000  0.61025223  1.0
  Yb  Yb11  1  0.57681027  0.25000000  0.88974777  1.0
  O  O12  1  0.92015772  0.75000000  0.08134390  1.0
  O  O13  1  0.42015772  0.75000000  0.41865610  1.0
  O  O14  1  0.07984228  0.25000000  0.91865610  1.0
  O  O15  1  0.57984228  0.25000000  0.58134390  1.0
  O  O16  1  0.71567138  0.75000000  0.31592064  1.0
  O  O17  1  0.21567138  0.75000000  0.18407936  1.0
  O  O18  1  0.28432862  0.25000000  0.68407936  1.0
  O  O19  1  0.78432862  0.25000000  0.81592064  1.0
  O  O20  1  0.63208749  0.75000000  0.02048744  1.0
  O  O21  1  0.13208749  0.75000000  0.47951256  1.0
  O  O22  1  0.36791251  0.25000000  0.97951256  1.0
  O  O23  1  0.86791251  0.25000000  0.52048744  1.0
  O  O24  1  0.50066942  0.75000000  0.78901349  1.0
  O  O25  1  0.00066942  0.75000000  0.71098651  1.0
  O  O26  1  0.49933058  0.25000000  0.21098651  1.0
  O  O27  1  0.99933058  0.25000000  0.28901349  1.0
