# generated using pymatgen
data_TiCl3
_symmetry_space_group_name_H-M   'P 1'
_cell_length_a   6.10582346
_cell_length_b   6.10582346
_cell_length_c   20.20439659
_cell_angle_alpha   90.00000000
_cell_angle_beta   90.00000000
_cell_angle_gamma   120.00000000
_symmetry_Int_Tables_number   1
_chemical_formula_structural   TiCl3
_chemical_formula_sum   'Ti6 Cl18'
_cell_volume   652.32647125
_cell_formula_units_Z   6
loop_
 _symmetry_equiv_pos_site_id
 _symmetry_equiv_pos_as_xyz
  1  'x, y, z'
loop_
 _atom_site_type_symbol
 _atom_site_label
 _atom_site_symmetry_multiplicity
 _atom_site_fract_x
 _atom_site_fract_y
 _atom_site_fract_z
 _atom_site_occupancy
  Ti  Ti0  1  0.00000000  0.00000000  0.33290241  1.0
  Ti  Ti1  1  0.00000000  0.00000000  0.66709759  1.0
  Ti  Ti2  1  0.33333333  0.66666667  0.33294527  1.0
  Ti  Ti3  1  0.33333333  0.66666667  0.66705473  1.0
  Ti  Ti4  1  0.66666667  0.33333333  0.00000000  1.0
  Ti  Ti5  1  0.33333333  0.66666667  0.00000000  1.0
  Cl  Cl6  1  0.64740589  0.64742284  0.06948467  1.0
  Cl  Cl7  1  0.64740589  -0.00001694  0.93051533  1.0
  Cl  Cl8  1  0.00001694  0.64742284  0.93051533  1.0
  Cl  Cl9  1  0.00001694  0.35259411  0.06948467  1.0
  Cl  Cl10  1  0.35257716  0.35259411  0.93051533  1.0
  Cl  Cl11  1  0.35257716  -0.00001694  0.06948467  1.0
  Cl  Cl12  1  0.66668494  0.68583789  0.40241045  1.0
  Cl  Cl13  1  0.66668494  -0.01915295  0.59758955  1.0
  Cl  Cl14  1  0.01915295  0.68583789  0.59758955  1.0
  Cl  Cl15  1  0.01915295  0.33331506  0.40241045  1.0
  Cl  Cl16  1  0.31416211  0.33331506  0.59758955  1.0
  Cl  Cl17  1  0.31416211  -0.01915295  0.40241045  1.0
  Cl  Cl18  1  0.31399297  0.33337338  0.26341189  1.0
  Cl  Cl19  1  0.31399297  -0.01938042  0.73658811  1.0
  Cl  Cl20  1  0.01938042  0.33337338  0.73658811  1.0
  Cl  Cl21  1  0.01938042  0.68600703  0.26341189  1.0
  Cl  Cl22  1  0.66662662  0.68600703  0.73658811  1.0
  Cl  Cl23  1  0.66662662  -0.01938042  0.26341189  1.0
