# generated using pymatgen
data_Sr3Lu(BO3)3
_symmetry_space_group_name_H-M   'P 1'
_cell_length_a   7.86478134
_cell_length_b   7.86478134
_cell_length_c   7.86478134
_cell_angle_alpha   105.01789618
_cell_angle_beta   105.01789618
_cell_angle_gamma   105.01789618
_symmetry_Int_Tables_number   1
_chemical_formula_structural   Sr3Lu(BO3)3
_chemical_formula_sum   'Sr6 Lu2 B6 O18'
_cell_volume   425.14985962
_cell_formula_units_Z   2
loop_
 _symmetry_equiv_pos_site_id
 _symmetry_equiv_pos_as_xyz
  1  'x, y, z'
loop_
 _atom_site_type_symbol
 _atom_site_label
 _atom_site_symmetry_multiplicity
 _atom_site_fract_x
 _atom_site_fract_y
 _atom_site_fract_z
 _atom_site_occupancy
  Sr  Sr0  1  0.76462859  0.64502421  0.14241624  1.0
  Sr  Sr1  1  1.35497579  -0.14241624  0.23537141  1.0
  Sr  Sr2  1  0.85758376  0.23537141  0.35497579  1.0
  Sr  Sr3  1  1.23537141  0.35497579  -0.14241624  1.0
  Sr  Sr4  1  0.64502421  1.14241624  -0.23537141  1.0
  Sr  Sr5  1  1.14241624  0.76462859  -0.35497579  1.0
  Lu  Lu6  1  0.50000000  0.50000000  0.50000000  1.0
  Lu  Lu7  1  -0.00000000  -0.00000000  -0.00000000  1.0
  B  B8  1  1.54017521  0.79029894  -0.11482298  1.0
  B  B9  1  1.20970106  0.11482298  -0.54017521  1.0
  B  B10  1  1.11482298  -0.54017521  0.20970106  1.0
  B  B11  1  0.45982479  0.20970106  0.11482298  1.0
  B  B12  1  0.79029894  0.88517702  0.54017521  1.0
  B  B13  1  0.88517702  1.54017521  -0.20970106  1.0
  O  O14  1  1.47147150  0.75276242  -0.30759156  1.0
  O  O15  1  1.24723758  0.30759156  -0.47147150  1.0
  O  O16  1  1.30759156  -0.47147150  0.24723758  1.0
  O  O17  1  0.52852850  0.24723758  0.30759156  1.0
  O  O18  1  0.75276242  0.69240844  0.47147150  1.0
  O  O19  1  0.69240844  1.47147150  -0.24723758  1.0
  O  O20  1  1.70831208  0.94030952  -0.00636023  1.0
  O  O21  1  1.05969048  0.00636023  -0.70831208  1.0
  O  O22  1  1.00636023  -0.70831208  0.05969048  1.0
  O  O23  1  0.29168792  0.05969048  0.00636023  1.0
  O  O24  1  0.94030952  0.99363977  0.70831208  1.0
  O  O25  1  0.99363977  1.70831208  -0.05969048  1.0
  O  O26  1  0.55282444  0.31263876  0.02863281  1.0
  O  O27  1  0.68736124  0.97136719  0.44717556  1.0
  O  O28  1  0.97136719  1.44717556  -0.31263876  1.0
  O  O29  1  1.44717556  0.68736124  -0.02863281  1.0
  O  O30  1  1.31263876  0.02863281  -0.44717556  1.0
  O  O31  1  1.02863281  -0.44717556  0.31263876  1.0
