# generated using pymatgen
data_FeS2NO8
_symmetry_space_group_name_H-M   'P 1'
_cell_length_a   5.17784160
_cell_length_b   5.17784160
_cell_length_c   8.82410579
_cell_angle_alpha   90.00000000
_cell_angle_beta   90.00000000
_cell_angle_gamma   120.00000000
_symmetry_Int_Tables_number   1
_chemical_formula_structural   FeS2NO8
_chemical_formula_sum   'Fe1 S2 N1 O8'
_cell_volume   204.87966667
_cell_formula_units_Z   1
loop_
 _symmetry_equiv_pos_site_id
 _symmetry_equiv_pos_as_xyz
  1  'x, y, z'
loop_
 _atom_site_type_symbol
 _atom_site_label
 _atom_site_symmetry_multiplicity
 _atom_site_fract_x
 _atom_site_fract_y
 _atom_site_fract_z
 _atom_site_occupancy
  Fe  Fe0  1  0.00000000  0.00000000  0.00000000  1.0
  O  O1  1  0.17576497  0.82415929  0.13580714  1.0
  O  O2  1  0.82415929  0.17576497  0.86419286  1.0
  O  O3  1  0.64839432  0.82423503  0.13580714  1.0
  O  O4  1  0.17584071  0.35160568  0.13580714  1.0
  O  O5  1  0.82423503  0.64839432  0.86419286  1.0
  O  O6  1  0.35160568  0.17584071  0.86419286  1.0
  O  O7  1  0.33333333  0.66666667  0.35751432  1.0
  O  O8  1  0.66666667  0.33333333  0.64248568  1.0
  S  S9  1  0.33333333  0.66666667  0.19242474  1.0
  S  S10  1  0.66666667  0.33333333  0.80757526  1.0
  N  N11  1  0.00000000  0.00000000  0.50000000  1.0
