# generated using pymatgen
data_La5Cu19P12
_symmetry_space_group_name_H-M   'P 1'
_cell_length_a   12.76020863
_cell_length_b   12.76020863
_cell_length_c   3.99138272
_cell_angle_alpha   90.00000000
_cell_angle_beta   90.00000000
_cell_angle_gamma   120.00000000
_symmetry_Int_Tables_number   1
_chemical_formula_structural   La5Cu19P12
_chemical_formula_sum   'La5 Cu19 P12'
_cell_volume   562.82004204
_cell_formula_units_Z   1
loop_
 _symmetry_equiv_pos_site_id
 _symmetry_equiv_pos_as_xyz
  1  'x, y, z'
loop_
 _atom_site_type_symbol
 _atom_site_label
 _atom_site_symmetry_multiplicity
 _atom_site_fract_x
 _atom_site_fract_y
 _atom_site_fract_z
 _atom_site_occupancy
  La  La0  1  0.19233188  0.19233188  0.50000000  1.0
  La  La1  1  0.00000000  0.80766812  0.50000000  1.0
  La  La2  1  0.80766812  0.00000000  0.50000000  1.0
  La  La3  1  0.33333333  0.66666667  -0.00000000  1.0
  La  La4  1  0.66666667  0.33333333  -0.00000000  1.0
  Cu  Cu5  1  0.11755593  0.63403655  0.50000000  1.0
  Cu  Cu6  1  0.63403655  0.11755593  0.50000000  1.0
  Cu  Cu7  1  0.51648061  0.88244407  0.50000000  1.0
  Cu  Cu8  1  0.36596345  0.48351939  0.50000000  1.0
  Cu  Cu9  1  0.88244407  0.51648061  0.50000000  1.0
  Cu  Cu10  1  0.48351939  0.36596345  0.50000000  1.0
  Cu  Cu11  1  0.20736913  0.82836725  0.00000000  1.0
  Cu  Cu12  1  0.82836725  0.20736913  -0.00000000  1.0
  Cu  Cu13  1  0.62099812  0.79263087  0.00000000  1.0
  Cu  Cu14  1  0.17163275  0.37900188  0.00000000  1.0
  Cu  Cu15  1  0.79263087  0.62099812  0.00000000  1.0
  Cu  Cu16  1  0.37900188  0.17163275  -0.00000000  1.0
  Cu  Cu17  1  0.71120439  0.71120439  0.50000000  1.0
  Cu  Cu18  1  0.00000000  0.28879561  0.50000000  1.0
  Cu  Cu19  1  0.28879561  0.00000000  0.50000000  1.0
  Cu  Cu20  1  0.54905408  0.54905408  -0.00000000  1.0
  Cu  Cu21  1  -0.00000000  0.45094592  0.00000000  1.0
  Cu  Cu22  1  0.45094592  0.00000000  -0.00000000  1.0
  Cu  Cu23  1  0.00000000  0.00000000  0.00000000  1.0
  P  P24  1  0.30668025  0.82738471  0.50000000  1.0
  P  P25  1  0.82738471  0.30668025  0.50000000  1.0
  P  P26  1  0.52070445  0.69331975  0.50000000  1.0
  P  P27  1  0.17261529  0.47929555  0.50000000  1.0
  P  P28  1  0.69331975  0.52070445  0.50000000  1.0
  P  P29  1  0.47929555  0.17261529  0.50000000  1.0
  P  P30  1  0.82310937  0.82310937  -0.00000000  1.0
  P  P31  1  -0.00000000  0.17689063  -0.00000000  1.0
  P  P32  1  0.17689063  -0.00000000  -0.00000000  1.0
  P  P33  1  0.36895290  0.36895290  0.00000000  1.0
  P  P34  1  -0.00000000  0.63104710  0.00000000  1.0
  P  P35  1  0.63104710  0.00000000  -0.00000000  1.0
