# generated using pymatgen
data_Ca2GeO4
_symmetry_space_group_name_H-M   'P 1'
_cell_length_a   11.51398237
_cell_length_b   6.83617778
_cell_length_c   5.28639688
_cell_angle_alpha   90.00000000
_cell_angle_beta   90.00000000
_cell_angle_gamma   90.00000000
_symmetry_Int_Tables_number   1
_chemical_formula_structural   Ca2GeO4
_chemical_formula_sum   'Ca8 Ge4 O16'
_cell_volume   416.10091807
_cell_formula_units_Z   4
loop_
 _symmetry_equiv_pos_site_id
 _symmetry_equiv_pos_as_xyz
  1  'x, y, z'
loop_
 _atom_site_type_symbol
 _atom_site_label
 _atom_site_symmetry_multiplicity
 _atom_site_fract_x
 _atom_site_fract_y
 _atom_site_fract_z
 _atom_site_occupancy
  Ca  Ca0  1  0.77981318  0.25000000  0.50663842  1.0
  Ca  Ca1  1  0.27981318  0.25000000  0.99336158  1.0
  Ca  Ca2  1  0.22018682  0.75000000  0.49336158  1.0
  Ca  Ca3  1  0.72018682  0.75000000  0.00663842  1.0
  Ca  Ca4  1  0.00000000  0.50000000  0.00000000  1.0
  Ca  Ca5  1  0.00000000  0.00000000  0.00000000  1.0
  Ca  Ca6  1  0.50000000  0.50000000  0.50000000  1.0
  Ca  Ca7  1  0.50000000  0.00000000  0.50000000  1.0
  Ge  Ge8  1  0.59566698  0.25000000  0.06984850  1.0
  Ge  Ge9  1  0.09566698  0.25000000  0.43015150  1.0
  Ge  Ge10  1  0.40433302  0.75000000  0.93015150  1.0
  Ge  Ge11  1  0.90433302  0.75000000  0.56984850  1.0
  O  O12  1  0.59272087  0.25000000  0.73574762  1.0
  O  O13  1  0.09272087  0.25000000  0.76425238  1.0
  O  O14  1  0.40727913  0.75000000  0.26425238  1.0
  O  O15  1  0.90727913  0.75000000  0.23574762  1.0
  O  O16  1  0.66340600  0.45682860  0.21735846  1.0
  O  O17  1  0.66340600  0.04317140  0.21735846  1.0
  O  O18  1  0.16340600  0.45682860  0.28264154  1.0
  O  O19  1  0.16340600  0.04317140  0.28264154  1.0
  O  O20  1  0.33659400  0.95682860  0.78264154  1.0
  O  O21  1  0.33659400  0.54317140  0.78264154  1.0
  O  O22  1  0.83659400  0.95682860  0.71735846  1.0
  O  O23  1  0.83659400  0.54317140  0.71735846  1.0
  O  O24  1  0.95325531  0.25000000  0.28574751  1.0
  O  O25  1  0.45325531  0.25000000  0.21425249  1.0
  O  O26  1  0.04674469  0.75000000  0.71425249  1.0
  O  O27  1  0.54674469  0.75000000  0.78574751  1.0
