# generated using pymatgen
data_CaIn
_symmetry_space_group_name_H-M   'P 1'
_cell_length_a   6.69681057
_cell_length_b   6.69681057
_cell_length_c   6.69681057
_cell_angle_alpha   111.75606046
_cell_angle_beta   111.75606046
_cell_angle_gamma   104.99226487
_symmetry_Int_Tables_number   1
_chemical_formula_structural   CaIn
_chemical_formula_sum   'Ca4 In4'
_cell_volume   230.14825448
_cell_formula_units_Z   4
loop_
 _symmetry_equiv_pos_site_id
 _symmetry_equiv_pos_as_xyz
  1  'x, y, z'
loop_
 _atom_site_type_symbol
 _atom_site_label
 _atom_site_symmetry_multiplicity
 _atom_site_fract_x
 _atom_site_fract_y
 _atom_site_fract_z
 _atom_site_occupancy
  Ca  Ca0  1  0.71902228  0.71902228  -0.00000000  1.0
  Ca  Ca1  1  0.28097772  0.28097772  -0.00000000  1.0
  Ca  Ca2  1  1.25000000  0.75000000  0.50000000  1.0
  Ca  Ca3  1  0.75000000  1.25000000  0.50000000  1.0
  In  In4  1  0.77259041  0.77259041  0.54518081  1.0
  In  In5  1  1.22740959  0.77259041  1.00000000  1.0
  In  In6  1  0.77259041  1.22740959  1.00000000  1.0
  In  In7  1  0.22740959  0.22740959  0.45481919  1.0
