# generated using pymatgen
data_Cs3NaLi2(BO3)2
_symmetry_space_group_name_H-M   'P 1'
_cell_length_a   10.36454560
_cell_length_b   7.39391780
_cell_length_c   6.84915253
_cell_angle_alpha   103.20104933
_cell_angle_beta   101.17811152
_cell_angle_gamma   94.99336286
_symmetry_Int_Tables_number   1
_chemical_formula_structural   Cs3NaLi2(BO3)2
_chemical_formula_sum   'Cs6 Na2 Li4 B4 O12'
_cell_volume   496.55711038
_cell_formula_units_Z   2
loop_
 _symmetry_equiv_pos_site_id
 _symmetry_equiv_pos_as_xyz
  1  'x, y, z'
loop_
 _atom_site_type_symbol
 _atom_site_label
 _atom_site_symmetry_multiplicity
 _atom_site_fract_x
 _atom_site_fract_y
 _atom_site_fract_z
 _atom_site_occupancy
  Cs  Cs0  1  -0.13557941  -0.72869782  -0.70931593  1.0
  Cs  Cs1  1  -0.86442059  -0.27130218  -0.29068407  1.0
  Cs  Cs2  1  -0.49174763  -0.81591480  -0.68922318  1.0
  Cs  Cs3  1  -0.50825237  -0.18408520  -0.31077682  1.0
  Cs  Cs4  1  -0.91759602  -0.76247893  -0.13446964  1.0
  Cs  Cs5  1  -0.08240398  -0.23752107  -0.86553036  1.0
  Na  Na6  1  -0.41970541  -0.33332298  -0.82674035  1.0
  Na  Na7  1  -0.58029459  -0.66667702  -0.17325965  1.0
  Li  Li8  1  -0.76274940  -0.09532307  -0.71878635  1.0
  Li  Li9  1  -0.23725060  -0.90467693  -0.28121365  1.0
  Li  Li10  1  -0.76500525  -0.58472580  -0.69419791  1.0
  Li  Li11  1  -0.23499475  -0.41527420  -0.30580209  1.0
  B  B12  1  -0.68911116  -0.36683868  -0.84359017  1.0
  B  B13  1  -0.31088884  -0.63316132  -0.15640983  1.0
  B  B14  1  -0.78002623  -0.80963970  -0.52518364  1.0
  B  B15  1  -0.21997377  -0.19036030  -0.47481636  1.0
  O  O16  1  -0.62895341  -0.20216876  -0.87114498  1.0
  O  O17  1  -0.37104659  -0.79783124  -0.12885502  1.0
  O  O18  1  -0.62802081  -0.52754851  -0.84814860  1.0
  O  O19  1  -0.37197919  -0.47245149  -0.15185140  1.0
  O  O20  1  -0.81603707  -0.36854812  -0.79574021  1.0
  O  O21  1  -0.18396293  -0.63145188  -0.20425979  1.0
  O  O22  1  -0.84012271  -0.86163265  -0.73589090  1.0
  O  O23  1  -0.15987729  -0.13836735  -0.26410910  1.0
  O  O24  1  -0.73473309  -0.94535107  -0.42809234  1.0
  O  O25  1  -0.26526691  -0.05464893  -0.57190766  1.0
  O  O26  1  -0.75990234  -0.61979329  -0.42324007  1.0
  O  O27  1  -0.24009766  -0.38020671  -0.57675993  1.0
