# generated using pymatgen
data_Gd2(WO4)3
_symmetry_space_group_name_H-M   'P 1'
_cell_length_a   6.99704805
_cell_length_b   6.99704805
_cell_length_c   11.51514582
_cell_angle_alpha   79.18255243
_cell_angle_beta   100.81744757
_cell_angle_gamma   67.59467852
_symmetry_Int_Tables_number   1
_chemical_formula_structural   Gd2(WO4)3
_chemical_formula_sum   'Gd4 W6 O24'
_cell_volume   490.64530446
_cell_formula_units_Z   2
loop_
 _symmetry_equiv_pos_site_id
 _symmetry_equiv_pos_as_xyz
  1  'x, y, z'
loop_
 _atom_site_type_symbol
 _atom_site_label
 _atom_site_symmetry_multiplicity
 _atom_site_fract_x
 _atom_site_fract_y
 _atom_site_fract_z
 _atom_site_occupancy
  Gd  Gd0  1  1.54213906  0.21238165  0.09281497  1.0
  Gd  Gd1  1  0.78761835  -0.54213906  0.59281497  1.0
  Gd  Gd2  1  1.21238165  0.54213906  0.40718503  1.0
  Gd  Gd3  1  0.45786094  -0.21238165  0.90718503  1.0
  W  W4  1  1.74950136  0.03824985  0.45090928  1.0
  W  W5  1  0.96175015  -0.74950136  0.95090928  1.0
  W  W6  1  1.03824985  0.74950136  0.04909072  1.0
  W  W7  1  0.25049864  -0.03824985  0.54909072  1.0
  W  W8  1  0.63115562  -0.36884438  0.25000000  1.0
  W  W9  1  1.36884438  0.36884438  0.75000000  1.0
  O  O10  1  1.89739391  0.02622573  0.07324335  1.0
  O  O11  1  0.97377427  -0.89739391  0.57324335  1.0
  O  O12  1  1.02622573  0.89739391  0.42675665  1.0
  O  O13  1  0.10260609  -0.02622573  0.92675665  1.0
  O  O14  1  0.57987158  -0.16256464  0.10960851  1.0
  O  O15  1  1.16256464  0.42012842  0.60960851  1.0
  O  O16  1  0.83743536  -0.42012842  0.39039149  1.0
  O  O17  1  1.42012842  0.16256464  0.89039149  1.0
  O  O18  1  0.37762079  -0.29324816  0.28166490  1.0
  O  O19  1  1.29324816  0.62237921  0.78166490  1.0
  O  O20  1  0.70675184  -0.62237921  0.21833510  1.0
  O  O21  1  1.62237921  0.29324816  0.71833510  1.0
  O  O22  1  1.60311126  0.04735230  0.30165080  1.0
  O  O23  1  0.95264770  -0.60311126  0.80165080  1.0
  O  O24  1  1.04735230  0.60311126  0.19834920  1.0
  O  O25  1  0.39688874  -0.04735230  0.69834920  1.0
  O  O26  1  1.58514344  0.31260648  0.46118102  1.0
  O  O27  1  0.68739352  -0.58514344  0.96118102  1.0
  O  O28  1  1.31260648  0.58514344  0.03881898  1.0
  O  O29  1  0.41485656  -0.31260648  0.53881898  1.0
  O  O30  1  1.26789588  0.16489892  0.44074379  1.0
  O  O31  1  0.83510108  -0.26789588  0.94074379  1.0
  O  O32  1  1.16489892  0.26789588  0.05925621  1.0
  O  O33  1  0.73210412  -0.16489892  0.55925621  1.0
