# generated using pymatgen
data_NaH2ClO5
_symmetry_space_group_name_H-M   'P 1'
_cell_length_a   8.47869000
_cell_length_b   8.47869000
_cell_length_c   11.18720072
_cell_angle_alpha   71.32816908
_cell_angle_beta   108.67183092
_cell_angle_gamma   141.79803910
_symmetry_Int_Tables_number   1
_chemical_formula_structural   NaH2ClO5
_chemical_formula_sum   'Na4 H8 Cl4 O20'
_cell_volume   467.94778921
_cell_formula_units_Z   4
loop_
 _symmetry_equiv_pos_site_id
 _symmetry_equiv_pos_as_xyz
  1  'x, y, z'
loop_
 _atom_site_type_symbol
 _atom_site_label
 _atom_site_symmetry_multiplicity
 _atom_site_fract_x
 _atom_site_fract_y
 _atom_site_fract_z
 _atom_site_occupancy
  Na  Na0  1  0.47309969  0.47309969  0.75000000  1.0
  Na  Na1  1  0.52690031  0.52690031  0.25000000  1.0
  Na  Na2  1  0.50000000  0.00000000  0.00000000  1.0
  Na  Na3  1  1.00000000  0.50000000  0.50000000  1.0
  H  H4  1  0.54651755  -0.15846019  0.58588424  1.0
  H  H5  1  1.15846019  0.45348245  0.08588424  1.0
  H  H6  1  0.84153981  0.54651755  0.91411576  1.0
  H  H7  1  0.45348245  0.15846019  0.41411576  1.0
  H  H8  1  1.29897774  0.51935776  0.98617644  1.0
  H  H9  1  0.48064224  -0.29897774  0.48617644  1.0
  H  H10  1  0.51935776  0.29897774  0.51382356  1.0
  H  H11  1  0.70102226  0.48064224  0.01382356  1.0
  Cl  Cl12  1  0.85729397  0.11360846  0.80512081  1.0
  Cl  Cl13  1  0.88639154  0.14270603  0.30512081  1.0
  Cl  Cl14  1  1.11360846  0.85729397  0.69487919  1.0
  Cl  Cl15  1  0.14270603  -0.11360846  0.19487919  1.0
  O  O16  1  0.70807201  -0.15248726  0.85092300  1.0
  O  O17  1  1.15248726  0.29192799  0.35092300  1.0
  O  O18  1  0.84751274  0.70807201  0.64907700  1.0
  O  O19  1  0.29192799  0.15248726  0.14907700  1.0
  O  O20  1  0.41409204  -0.32919619  0.55780535  1.0
  O  O21  1  1.32919619  0.58590796  0.05780535  1.0
  O  O22  1  0.67080381  0.41409204  0.94219465  1.0
  O  O23  1  0.58590796  0.32919619  0.44219465  1.0
  O  O24  1  0.82072505  0.14566540  0.66506169  1.0
  O  O25  1  0.85433460  0.17927495  0.16506169  1.0
  O  O26  1  1.14566540  0.82072505  0.83493831  1.0
  O  O27  1  0.17927495  -0.14566540  0.33493831  1.0
  O  O28  1  0.77703648  0.18013698  0.85404803  1.0
  O  O29  1  0.81986302  0.22296352  0.35404803  1.0
  O  O30  1  1.18013698  0.77703648  0.64595197  1.0
  O  O31  1  0.22296352  -0.18013698  0.14595197  1.0
  O  O32  1  0.28549282  0.13173080  0.65126180  1.0
  O  O33  1  0.86826920  0.71450718  0.15126180  1.0
  O  O34  1  1.13173080  0.28549282  0.84873820  1.0
  O  O35  1  0.71450718  -0.13173080  0.34873820  1.0
