# generated using pymatgen
data_Fe(CO)5
_symmetry_space_group_name_H-M   'P 1'
_cell_length_a   7.22348886
_cell_length_b   7.22348886
_cell_length_c   10.34476267
_cell_angle_alpha   74.06657368
_cell_angle_beta   105.93342632
_cell_angle_gamma   120.17308233
_symmetry_Int_Tables_number   1
_chemical_formula_structural   Fe(CO)5
_chemical_formula_sum   'Fe2 C10 O10'
_cell_volume   442.62123570
_cell_formula_units_Z   2
loop_
 _symmetry_equiv_pos_site_id
 _symmetry_equiv_pos_as_xyz
  1  'x, y, z'
loop_
 _atom_site_type_symbol
 _atom_site_label
 _atom_site_symmetry_multiplicity
 _atom_site_fract_x
 _atom_site_fract_y
 _atom_site_fract_z
 _atom_site_occupancy
  Fe  Fe0  1  1.32653945  0.32653945  0.25000000  1.0
  Fe  Fe1  1  0.67346055  -0.32653945  0.75000000  1.0
  C  C2  1  1.44944327  0.20415743  0.19451902  1.0
  C  C3  1  0.79584257  -0.44944327  0.69451902  1.0
  C  C4  1  1.20415743  0.44944327  0.30548098  1.0
  C  C5  1  0.55055673  -0.20415743  0.80548098  1.0
  C  C6  1  1.27765487  0.12340822  0.40051226  1.0
  C  C7  1  0.87659178  -0.27765487  0.90051226  1.0
  C  C8  1  1.12340822  0.27765487  0.09948774  1.0
  C  C9  1  0.72234513  -0.12340822  0.59948774  1.0
  C  C10  1  0.57609048  -0.42390952  0.25000000  1.0
  C  C11  1  1.42390952  0.42390952  0.75000000  1.0
  O  O12  1  1.75314142  0.00706158  0.50251976  1.0
  O  O13  1  0.99293842  -0.75314142  1.00251976  1.0
  O  O14  1  1.00706158  0.75314142  -0.00251976  1.0
  O  O15  1  0.24685858  -0.00706158  0.49748024  1.0
  O  O16  1  1.52839690  0.12637482  0.15890363  1.0
  O  O17  1  0.87362518  -0.52839690  0.65890363  1.0
  O  O18  1  1.12637482  0.52839690  0.34109637  1.0
  O  O19  1  0.47160310  -0.12637482  0.84109637  1.0
  O  O20  1  0.73652291  -0.26347709  0.25000000  1.0
  O  O21  1  1.26347709  0.26347709  0.75000000  1.0
