# generated using pymatgen
data_K2Sn2OF6
_symmetry_space_group_name_H-M   'P 1'
_cell_length_a   10.38679853
_cell_length_b   10.38679853
_cell_length_c   10.38679853
_cell_angle_alpha   92.22093500
_cell_angle_beta   92.22093500
_cell_angle_gamma   157.29347808
_symmetry_Int_Tables_number   1
_chemical_formula_structural   K2Sn2OF6
_chemical_formula_sum   'K4 Sn4 O2 F12'
_cell_volume   424.09424388
_cell_formula_units_Z   2
loop_
 _symmetry_equiv_pos_site_id
 _symmetry_equiv_pos_as_xyz
  1  'x, y, z'
loop_
 _atom_site_type_symbol
 _atom_site_label
 _atom_site_symmetry_multiplicity
 _atom_site_fract_x
 _atom_site_fract_y
 _atom_site_fract_z
 _atom_site_occupancy
  Sn  Sn0  1  0.96075895  0.65111231  0.61187126  1.0
  Sn  Sn1  1  0.65111231  0.03924105  0.69035336  1.0
  Sn  Sn2  1  1.03924105  1.34888769  1.38812874  1.0
  Sn  Sn3  1  0.34888769  0.96075895  1.30964664  1.0
  O  O4  1  0.00000000  0.00000000  -0.00000000  1.0
  O  O5  1  0.50000000  0.50000000  -0.00000000  1.0
  K  K6  1  0.66486142  0.64104005  0.30590148  1.0
  K  K7  1  0.64104005  0.33513858  0.97617863  1.0
  K  K8  1  1.33513858  1.35895995  1.69409852  1.0
  K  K9  1  0.35895995  0.66486142  1.02382137  1.0
  F  F10  1  0.84505409  0.73340851  0.57846259  1.0
  F  F11  1  0.73340851  0.15494591  0.88835442  1.0
  F  F12  1  1.15494591  1.26659149  1.42153741  1.0
  F  F13  1  0.26659149  0.84505409  1.11164558  1.0
  F  F14  1  0.54119578  0.79414933  1.33534511  1.0
  F  F15  1  0.79414933  1.45880422  1.25295355  1.0
  F  F16  1  0.45880422  0.20585067  0.66465489  1.0
  F  F17  1  1.20585067  0.54119578  0.74704645  1.0
  F  F18  1  0.74564364  0.93366228  1.67930593  1.0
  F  F19  1  0.93366228  1.25435636  1.18801864  1.0
  F  F20  1  0.25435636  0.06633772  0.32069407  1.0
  F  F21  1  1.06633772  0.74564364  0.81198136  1.0
