# generated using pymatgen
data_Bi4Rh7S4
_symmetry_space_group_name_H-M   'P 1'
_cell_length_a   7.04053974
_cell_length_b   7.04053974
_cell_length_c   7.92441738
_cell_angle_alpha   60.45030418
_cell_angle_beta   119.54969582
_cell_angle_gamma   110.71241177
_symmetry_Int_Tables_number   1
_chemical_formula_structural   Bi4Rh7S4
_chemical_formula_sum   'Bi4 Rh7 S4'
_cell_volume   294.08339307
_cell_formula_units_Z   1
loop_
 _symmetry_equiv_pos_site_id
 _symmetry_equiv_pos_as_xyz
  1  'x, y, z'
loop_
 _atom_site_type_symbol
 _atom_site_label
 _atom_site_symmetry_multiplicity
 _atom_site_fract_x
 _atom_site_fract_y
 _atom_site_fract_z
 _atom_site_occupancy
  Bi  Bi0  1  0.75337863  0.24662137  0.24436560  1.0
  Bi  Bi1  1  0.24662137  -0.24662137  0.75563440  1.0
  Bi  Bi2  1  0.68990218  -0.68990218  0.69341211  1.0
  Bi  Bi3  1  1.31009782  -0.31009782  0.30658789  1.0
  Rh  Rh4  1  0.51895855  -0.51895855  0.83789433  1.0
  Rh  Rh5  1  1.48104145  -0.48104145  0.16210567  1.0
  Rh  Rh6  1  0.81102742  0.81102742  0.50000000  1.0
  Rh  Rh7  1  1.18897258  0.18897258  0.50000000  1.0
  Rh  Rh8  1  0.50000000  0.00000000  0.50000000  1.0
  Rh  Rh9  1  1.00000000  0.50000000  0.50000000  1.0
  Rh  Rh10  1  0.00000000  0.00000000  0.00000000  1.0
  S  S11  1  0.77825241  -0.20340837  0.78537284  1.0
  S  S12  1  1.20340837  0.22174759  0.78537284  1.0
  S  S13  1  0.79659163  0.77825241  0.21462716  1.0
  S  S14  1  0.22174759  0.20340837  0.21462716  1.0
