# generated using pymatgen
data_LiLu(WO4)2
_symmetry_space_group_name_H-M   'P 1'
_cell_length_a   5.00839220
_cell_length_b   5.97986739
_cell_length_c   10.94763864
_cell_angle_alpha   90.00000000
_cell_angle_beta   115.32456104
_cell_angle_gamma   90.00000000
_symmetry_Int_Tables_number   1
_chemical_formula_structural   LiLu(WO4)2
_chemical_formula_sum   'Li2 Lu2 W4 O16'
_cell_volume   296.36736158
_cell_formula_units_Z   2
loop_
 _symmetry_equiv_pos_site_id
 _symmetry_equiv_pos_as_xyz
  1  'x, y, z'
loop_
 _atom_site_type_symbol
 _atom_site_label
 _atom_site_symmetry_multiplicity
 _atom_site_fract_x
 _atom_site_fract_y
 _atom_site_fract_z
 _atom_site_occupancy
  Li  Li0  1  0.00000000  0.73764416  0.25000000  1.0
  Li  Li1  1  0.00000000  0.26235584  0.75000000  1.0
  Lu  Lu2  1  0.50000000  0.32387288  0.25000000  1.0
  Lu  Lu3  1  0.50000000  0.67612712  0.75000000  1.0
  W  W4  1  0.73468255  0.82339553  0.48492576  1.0
  W  W5  1  0.73468255  0.17660447  0.98492576  1.0
  W  W6  1  0.26531745  0.82339553  0.01507424  1.0
  W  W7  1  0.26531745  0.17660447  0.51507424  1.0
  O  O8  1  0.83935881  0.89348774  0.90129829  1.0
  O  O9  1  0.83935881  0.10651226  0.40129829  1.0
  O  O10  1  0.16064119  0.89348774  0.59870171  1.0
  O  O11  1  0.16064119  0.10651226  0.09870171  1.0
  O  O12  1  0.76973050  0.62924617  0.36684937  1.0
  O  O13  1  0.76973050  0.37075383  0.86684937  1.0
  O  O14  1  0.23026950  0.62924617  0.13315063  1.0
  O  O15  1  0.23026950  0.37075383  0.63315063  1.0
  O  O16  1  0.72021362  0.35799242  0.11408491  1.0
  O  O17  1  0.72021362  0.64200758  0.61408491  1.0
  O  O18  1  0.27978638  0.35799242  0.38591509  1.0
  O  O19  1  0.27978638  0.64200758  0.88591509  1.0
  O  O20  1  0.65793478  0.90416412  0.11045005  1.0
  O  O21  1  0.65793478  0.09583588  0.61045005  1.0
  O  O22  1  0.34206522  0.90416412  0.38954995  1.0
  O  O23  1  0.34206522  0.09583588  0.88954995  1.0
