# generated using pymatgen
data_Ba5B3BrO9
_symmetry_space_group_name_H-M   'P 1'
_cell_length_a   9.21256219
_cell_length_b   9.21256219
_cell_length_c   8.11396898
_cell_angle_alpha   90.00000000
_cell_angle_beta   90.00000000
_cell_angle_gamma   109.67791677
_symmetry_Int_Tables_number   1
_chemical_formula_structural   Ba5B3BrO9
_chemical_formula_sum   'Ba10 B6 Br2 O18'
_cell_volume   648.42662962
_cell_formula_units_Z   2
loop_
 _symmetry_equiv_pos_site_id
 _symmetry_equiv_pos_as_xyz
  1  'x, y, z'
loop_
 _atom_site_type_symbol
 _atom_site_label
 _atom_site_symmetry_multiplicity
 _atom_site_fract_x
 _atom_site_fract_y
 _atom_site_fract_z
 _atom_site_occupancy
  Ba  Ba0  1  0.22908088  0.49268072  0.06709732  1.0
  Ba  Ba1  1  -0.50731928  1.22908088  0.93290268  1.0
  Ba  Ba2  1  0.50731928  0.77091912  0.43290268  1.0
  Ba  Ba3  1  -0.22908088  1.50731928  0.56709732  1.0
  Ba  Ba4  1  0.13884580  0.86115420  0.25000000  1.0
  Ba  Ba5  1  -0.13884580  1.13884580  0.75000000  1.0
  Ba  Ba6  1  -0.13885449  1.13885449  0.25000000  1.0
  Ba  Ba7  1  0.13885449  0.86114551  0.75000000  1.0
  Ba  Ba8  1  0.74125786  0.74125786  0.00000000  1.0
  Ba  Ba9  1  0.25874214  0.25874214  0.50000000  1.0
  B  B10  1  0.09780559  0.51592028  0.47034006  1.0
  B  B11  1  -0.48407972  1.09780559  0.52965994  1.0
  B  B12  1  0.48407972  0.90219441  0.02965994  1.0
  B  B13  1  -0.09780559  1.48407972  0.97034006  1.0
  B  B14  1  0.12337235  0.12337235  0.00000000  1.0
  B  B15  1  0.87662765  0.87662765  0.50000000  1.0
  Br  Br16  1  -0.44420543  1.44420543  0.25000000  1.0
  Br  Br17  1  0.44420543  0.55579457  0.75000000  1.0
  O  O18  1  0.22993897  0.52721481  0.38158992  1.0
  O  O19  1  -0.47278519  1.22993897  0.61841008  1.0
  O  O20  1  0.47278519  0.77006103  0.11841008  1.0
  O  O21  1  -0.22993897  1.47278519  0.88158992  1.0
  O  O22  1  0.00668527  0.63013078  0.01222069  1.0
  O  O23  1  -0.36986922  1.00668527  0.98777931  1.0
  O  O24  1  0.36986922  0.99331473  0.48777931  1.0
  O  O25  1  -0.00668527  1.36986922  0.51222069  1.0
  O  O26  1  0.18404740  0.18758342  0.15064177  1.0
  O  O27  1  0.18758342  0.18404740  0.84935823  1.0
  O  O28  1  0.81241658  0.81595260  0.34935823  1.0
  O  O29  1  0.81595260  0.81241658  0.65064177  1.0
  O  O30  1  -0.06790821  1.35027975  0.01303310  1.0
  O  O31  1  0.35027975  0.93209179  0.98696690  1.0
  O  O32  1  -0.35027975  1.06790821  0.48696690  1.0
  O  O33  1  0.06790821  0.64972025  0.51303310  1.0
  O  O34  1  0.99100452  0.99100452  0.00000000  1.0
  O  O35  1  0.00899548  0.00899548  0.50000000  1.0
