# generated using pymatgen
data_H8C2N6O7
_symmetry_space_group_name_H-M   'P 1'
_cell_length_a   8.49218117
_cell_length_b   8.49218117
_cell_length_c   8.00714083
_cell_angle_alpha   82.55828357
_cell_angle_beta   97.44171643
_cell_angle_gamma   61.03327872
_symmetry_Int_Tables_number   1
_chemical_formula_structural   H8C2N6O7
_chemical_formula_sum   'H16 C4 N12 O14'
_cell_volume   488.50341603
_cell_formula_units_Z   2
loop_
 _symmetry_equiv_pos_site_id
 _symmetry_equiv_pos_as_xyz
  1  'x, y, z'
loop_
 _atom_site_type_symbol
 _atom_site_label
 _atom_site_symmetry_multiplicity
 _atom_site_fract_x
 _atom_site_fract_y
 _atom_site_fract_z
 _atom_site_occupancy
  H  H0  1  0.22623993  0.11908158  0.68526740  1.0
  H  H1  1  0.88091842  -0.22623993  0.18526740  1.0
  H  H2  1  1.11908158  -0.77376007  0.81473260  1.0
  H  H3  1  0.77376007  -0.11908158  0.31473260  1.0
  H  H4  1  0.44310805  0.20857873  0.84858681  1.0
  H  H5  1  0.79142127  -0.44310805  0.34858681  1.0
  H  H6  1  1.20857873  -0.55689195  0.65141319  1.0
  H  H7  1  0.55689195  -0.20857873  0.15141319  1.0
  H  H8  1  0.47234160  -0.33490580  0.68029486  1.0
  H  H9  1  1.33490580  -0.47234160  0.18029486  1.0
  H  H10  1  0.66509420  -0.52765840  0.81970514  1.0
  H  H11  1  0.52765840  0.33490580  0.31970514  1.0
  H  H12  1  0.63756279  0.21999463  0.94063520  1.0
  H  H13  1  0.78000537  -0.63756279  0.44063520  1.0
  H  H14  1  1.21999463  -0.36243721  0.55936480  1.0
  H  H15  1  0.36243721  -0.21999463  0.05936480  1.0
  C  C16  1  0.88583919  -0.11416081  0.75000000  1.0
  C  C17  1  0.11416081  0.11416081  0.25000000  1.0
  C  C18  1  0.44170173  0.44170173  0.75000000  1.0
  C  C19  1  0.55829827  -0.44170173  0.25000000  1.0
  N  N20  1  0.82152157  0.03430121  0.61388553  1.0
  N  N21  1  0.96569879  -0.82152157  0.11388553  1.0
  N  N22  1  1.03430121  -0.17847843  0.88611447  1.0
  N  N23  1  0.17847843  -0.03430121  0.38611447  1.0
  N  N24  1  0.51928381  0.27188888  0.84851666  1.0
  N  N25  1  0.72811112  -0.51928381  0.34851666  1.0
  N  N26  1  1.27188888  -0.48071619  0.65148334  1.0
  N  N27  1  0.48071619  -0.27188888  0.15148334  1.0
  N  N28  1  0.78512174  -0.21487826  0.75000000  1.0
  N  N29  1  0.21487826  0.21487826  0.25000000  1.0
  N  N30  1  0.53325220  -0.46674780  0.75000000  1.0
  N  N31  1  0.46674780  0.46674780  0.25000000  1.0
  O  O32  1  0.65117138  -0.15733469  0.81734417  1.0
  O  O33  1  1.15733469  -0.65117138  0.31734417  1.0
  O  O34  1  0.84266531  -0.34882862  0.68265583  1.0
  O  O35  1  0.34882862  0.15733469  0.18265583  1.0
  O  O36  1  0.69294282  0.05923610  0.49480653  1.0
  O  O37  1  0.94076390  -0.69294282  -0.00519347  1.0
  O  O38  1  1.05923610  -0.30705718  1.00519347  1.0
  O  O39  1  0.30705718  -0.05923610  0.50519347  1.0
  O  O40  1  0.13867001  -0.11347436  0.88747367  1.0
  O  O41  1  1.11347436  -0.13867001  0.38747367  1.0
  O  O42  1  0.88652564  -0.86132999  0.61252633  1.0
  O  O43  1  0.86132999  0.11347436  0.11252633  1.0
  O  O44  1  0.21298872  0.21298872  0.75000000  1.0
  O  O45  1  0.78701128  -0.21298872  0.25000000  1.0
