# generated using pymatgen
data_PrCrO4
_symmetry_space_group_name_H-M   'P 1'
_cell_length_a   6.09943958
_cell_length_b   6.09943958
_cell_length_c   6.09943958
_cell_angle_alpha   105.99498930
_cell_angle_beta   105.99498930
_cell_angle_gamma   116.67270915
_symmetry_Int_Tables_number   1
_chemical_formula_structural   PrCrO4
_chemical_formula_sum   'Pr2 Cr2 O8'
_cell_volume   172.58738251
_cell_formula_units_Z   2
loop_
 _symmetry_equiv_pos_site_id
 _symmetry_equiv_pos_as_xyz
  1  'x, y, z'
loop_
 _atom_site_type_symbol
 _atom_site_label
 _atom_site_symmetry_multiplicity
 _atom_site_fract_x
 _atom_site_fract_y
 _atom_site_fract_z
 _atom_site_occupancy
  Pr  Pr0  1  0.25000000  0.75000000  0.50000000  1.0
  Pr  Pr1  1  0.50000000  0.50000000  -0.00000000  1.0
  Cr  Cr2  1  0.00000000  0.00000000  0.00000000  1.0
  Cr  Cr3  1  0.75000000  1.25000000  0.50000000  1.0
  O  O4  1  0.17128721  0.35063256  0.17934535  1.0
  O  O5  1  1.10063256  1.42128721  0.67934535  1.0
  O  O6  1  0.74194186  0.42128721  0.32065465  1.0
  O  O7  1  0.17128721  0.99194186  0.82065465  1.0
  O  O8  1  0.57871279  0.89936744  0.32065465  1.0
  O  O9  1  1.64936744  0.82871279  0.82065465  1.0
  O  O10  1  1.00805814  0.82871279  1.17934535  1.0
  O  O11  1  0.57871279  1.25805814  0.67934535  1.0
