# generated using pymatgen
data_Sc11Ir4
_symmetry_space_group_name_H-M   'P 1'
_cell_length_a   9.46897562
_cell_length_b   9.46897562
_cell_length_c   9.46897562
_cell_angle_alpha   60.00000000
_cell_angle_beta   60.00000000
_cell_angle_gamma   60.00000000
_symmetry_Int_Tables_number   1
_chemical_formula_structural   Sc11Ir4
_chemical_formula_sum   'Sc22 Ir8'
_cell_volume   600.33546066
_cell_formula_units_Z   2
loop_
 _symmetry_equiv_pos_site_id
 _symmetry_equiv_pos_as_xyz
  1  'x, y, z'
loop_
 _atom_site_type_symbol
 _atom_site_label
 _atom_site_symmetry_multiplicity
 _atom_site_fract_x
 _atom_site_fract_y
 _atom_site_fract_z
 _atom_site_occupancy
  Sc  Sc0  1  0.88246275  0.88246275  -0.11753725  1.0
  Sc  Sc1  1  1.11753725  0.11753725  0.64738826  1.0
  Sc  Sc2  1  1.11753725  0.64738826  0.11753725  1.0
  Sc  Sc3  1  0.35261174  0.88246275  -0.11753725  1.0
  Sc  Sc4  1  1.64738826  0.11753725  0.11753725  1.0
  Sc  Sc5  1  0.88246275  0.35261174  -0.11753725  1.0
  Sc  Sc6  1  0.88246275  0.88246275  -0.64738826  1.0
  Sc  Sc7  1  1.11753725  0.11753725  0.11753725  1.0
  Sc  Sc8  1  0.65699063  0.65699063  -0.34300937  1.0
  Sc  Sc9  1  0.34300937  1.34300937  -0.02902811  1.0
  Sc  Sc10  1  1.34300937  -0.02902811  0.34300937  1.0
  Sc  Sc11  1  1.02902811  0.65699063  0.65699063  1.0
  Sc  Sc12  1  -0.02902811  1.34300937  0.34300937  1.0
  Sc  Sc13  1  0.65699063  1.02902811  -0.34300937  1.0
  Sc  Sc14  1  0.65699063  0.65699063  1.02902811  1.0
  Sc  Sc15  1  1.34300937  0.34300937  0.34300937  1.0
  Sc  Sc16  1  -0.69797418  0.69797418  0.69797418  1.0
  Sc  Sc17  1  -0.30202582  0.30202582  0.69797418  1.0
  Sc  Sc18  1  0.69797418  0.69797418  -0.69797418  1.0
  Sc  Sc19  1  0.30202582  1.30202582  -0.30202582  1.0
  Sc  Sc20  1  0.30202582  -0.30202582  1.30202582  1.0
  Sc  Sc21  1  -0.30202582  0.30202582  0.30202582  1.0
  Ir  Ir22  1  1.50000000  -0.00000000  0.00000000  1.0
  Ir  Ir23  1  1.00000000  0.50000000  -0.50000000  1.0
  Ir  Ir24  1  -0.00000000  1.50000000  0.00000000  1.0
  Ir  Ir25  1  0.50000000  1.00000000  -0.50000000  1.0
  Ir  Ir26  1  -0.00000000  -0.00000000  0.50000000  1.0
  Ir  Ir27  1  0.50000000  -0.50000000  1.00000000  1.0
  Ir  Ir28  1  -0.50000000  0.50000000  0.50000000  1.0
  Ir  Ir29  1  0.00000000  0.00000000  0.00000000  1.0
