# generated using pymatgen
data_MnH6(SO4)4
_symmetry_space_group_name_H-M   'P 1'
_cell_length_a   5.26884025
_cell_length_b   15.47969978
_cell_length_c   8.66909015
_cell_angle_alpha   90.00000000
_cell_angle_beta   103.92561077
_cell_angle_gamma   90.00000000
_symmetry_Int_Tables_number   1
_chemical_formula_structural   MnH6(SO4)4
_chemical_formula_sum   'Mn2 H12 S8 O32'
_cell_volume   686.27060999
_cell_formula_units_Z   2
loop_
 _symmetry_equiv_pos_site_id
 _symmetry_equiv_pos_as_xyz
  1  'x, y, z'
loop_
 _atom_site_type_symbol
 _atom_site_label
 _atom_site_symmetry_multiplicity
 _atom_site_fract_x
 _atom_site_fract_y
 _atom_site_fract_z
 _atom_site_occupancy
  Mn  Mn0  1  -0.00000000  0.50000000  0.50000000  1.0
  Mn  Mn1  1  0.00000000  0.00000000  0.00000000  1.0
  H  H2  1  0.80409767  0.23660475  0.19234448  1.0
  H  H3  1  0.80409767  0.26339525  0.69234448  1.0
  H  H4  1  0.19590233  0.73660475  0.30765552  1.0
  H  H5  1  0.19590233  0.76339525  0.80765552  1.0
  H  H6  1  0.71826716  0.97731490  0.37056612  1.0
  H  H7  1  0.71826716  0.52268510  0.87056612  1.0
  H  H8  1  0.28173284  0.47731490  0.12943388  1.0
  H  H9  1  0.28173284  0.02268510  0.62943388  1.0
  H  H10  1  0.41092010  0.23334739  0.32884072  1.0
  H  H11  1  0.41092010  0.26665261  0.82884072  1.0
  H  H12  1  0.58907990  0.73334740  0.17115928  1.0
  H  H13  1  0.58907990  0.76665261  0.67115928  1.0
  S  S14  1  0.88422597  0.83202440  0.24704404  1.0
  S  S15  1  0.88422597  0.66797560  0.74704404  1.0
  S  S16  1  0.11577403  0.33202440  0.25295596  1.0
  S  S17  1  0.11577403  0.16797560  0.75295596  1.0
  S  S18  1  0.57547896  0.08629329  0.22178826  1.0
  S  S19  1  0.57547896  0.41370671  0.72178826  1.0
  S  S20  1  0.42452104  0.58629329  0.27821174  1.0
  S  S21  1  0.42452104  0.91370671  0.77821174  1.0
  O  O22  1  0.97681134  0.38638905  0.34265808  1.0
  O  O23  1  0.97681134  0.11361095  0.84265808  1.0
  O  O24  1  0.02318866  0.88638905  0.15734192  1.0
  O  O25  1  0.02318866  0.61361095  0.65734192  1.0
  O  O26  1  0.92051055  0.27272497  0.13767692  1.0
  O  O27  1  0.92051055  0.22727503  0.63767692  1.0
  O  O28  1  0.07948945  0.77272497  0.36232308  1.0
  O  O29  1  0.07948945  0.72727503  0.86232308  1.0
  O  O30  1  0.71368041  0.04238532  0.38314034  1.0
  O  O31  1  0.71368041  0.45761468  0.88314034  1.0
  O  O32  1  0.28631959  0.54238532  0.11685966  1.0
  O  O33  1  0.28631959  0.95761468  0.61685966  1.0
  O  O34  1  0.73075397  0.87443191  0.34349813  1.0
  O  O35  1  0.73075397  0.62556809  0.84349813  1.0
  O  O36  1  0.26924603  0.37443191  0.15650187  1.0
  O  O37  1  0.26924603  0.12556809  0.65650187  1.0
  O  O38  1  0.71082592  0.06169051  0.09882254  1.0
  O  O39  1  0.71082592  0.43830949  0.59882254  1.0
  O  O40  1  0.28917408  0.56169051  0.40117746  1.0
  O  O41  1  0.28917408  0.93830949  0.90117746  1.0
  O  O42  1  0.60853205  0.18023275  0.25984980  1.0
  O  O43  1  0.60853205  0.31976725  0.75984980  1.0
  O  O44  1  0.39146795  0.68023275  0.24015020  1.0
  O  O45  1  0.39146795  0.81976725  0.74015020  1.0
  O  O46  1  0.29061806  0.27147123  0.37764349  1.0
  O  O47  1  0.29061806  0.22852877  0.87764349  1.0
  O  O48  1  0.70938194  0.77147123  0.12235651  1.0
  O  O49  1  0.70938194  0.72852877  0.62235651  1.0
  O  O50  1  0.29787716  0.06150796  0.18242609  1.0
  O  O51  1  0.29787716  0.43849204  0.68242609  1.0
  O  O52  1  0.70212284  0.56150796  0.31757391  1.0
  O  O53  1  0.70212284  0.93849204  0.81757391  1.0
