# generated using pymatgen
data_SrV2O6
_symmetry_space_group_name_H-M   'P 1'
_cell_length_a   7.55895498
_cell_length_b   7.55895498
_cell_length_c   7.75004413
_cell_angle_alpha   90.00000000
_cell_angle_beta   90.00000000
_cell_angle_gamma   113.23203351
_symmetry_Int_Tables_number   1
_chemical_formula_structural   SrV2O6
_chemical_formula_sum   'Sr3 V6 O18'
_cell_volume   406.91435217
_cell_formula_units_Z   3
loop_
 _symmetry_equiv_pos_site_id
 _symmetry_equiv_pos_as_xyz
  1  'x, y, z'
loop_
 _atom_site_type_symbol
 _atom_site_label
 _atom_site_symmetry_multiplicity
 _atom_site_fract_x
 _atom_site_fract_y
 _atom_site_fract_z
 _atom_site_occupancy
  Sr  Sr0  1  0.17730539  0.82269461  0.50000000  1.0
  Sr  Sr1  1  -0.17730539  1.17730539  0.50000000  1.0
  Sr  Sr2  1  0.00000000  0.00000000  0.00000000  1.0
  V  V3  1  -0.00000000  1.50000000  0.07645226  1.0
  V  V4  1  0.50000000  1.00000000  0.92354774  1.0
  V  V5  1  -0.61378936  1.24592879  0.25695014  1.0
  V  V6  1  0.24592879  0.38621064  0.74304986  1.0
  V  V7  1  -0.24592879  1.61378936  0.74304986  1.0
  V  V8  1  0.61378936  0.75407121  0.25695014  1.0
  O  O9  1  -0.15120349  1.82827747  0.29441606  1.0
  O  O10  1  0.82827747  0.84879651  0.70558394  1.0
  O  O11  1  -0.82827747  1.15120349  0.70558394  1.0
  O  O12  1  0.15120349  0.17172253  0.29441606  1.0
  O  O13  1  -0.61088012  1.12747624  0.05439828  1.0
  O  O14  1  0.12747624  0.38911988  0.94560172  1.0
  O  O15  1  -0.12747624  1.61088012  0.94560172  1.0
  O  O16  1  0.61088012  0.87252376  0.05439828  1.0
  O  O17  1  -0.16244796  1.52413548  0.58338215  1.0
  O  O18  1  0.52413548  0.83755204  0.41661785  1.0
  O  O19  1  -0.52413548  1.16244796  0.41661785  1.0
  O  O20  1  0.16244796  0.47586452  0.58338215  1.0
  O  O21  1  0.50000000  0.50000000  0.24018532  1.0
  O  O22  1  0.50000000  0.50000000  0.75981468  1.0
  O  O23  1  0.14850022  0.67547534  0.19810820  1.0
  O  O24  1  -0.32452466  1.14850022  0.80189180  1.0
  O  O25  1  0.32452466  0.85149978  0.80189180  1.0
  O  O26  1  -0.14850022  1.32452466  0.19810820  1.0
