# generated using pymatgen
data_BaTbMn2O5
_symmetry_space_group_name_H-M   'P 1'
_cell_length_a   5.56328848
_cell_length_b   5.56328848
_cell_length_c   7.64265037
_cell_angle_alpha   90.00000000
_cell_angle_beta   90.00000000
_cell_angle_gamma   90.00000000
_symmetry_Int_Tables_number   1
_chemical_formula_structural   BaTbMn2O5
_chemical_formula_sum   'Ba2 Tb2 Mn4 O10'
_cell_volume   236.54139460
_cell_formula_units_Z   2
loop_
 _symmetry_equiv_pos_site_id
 _symmetry_equiv_pos_as_xyz
  1  'x, y, z'
loop_
 _atom_site_type_symbol
 _atom_site_label
 _atom_site_symmetry_multiplicity
 _atom_site_fract_x
 _atom_site_fract_y
 _atom_site_fract_z
 _atom_site_occupancy
  Ba  Ba0  1  0.00000000  0.00000000  0.00000000  1.0
  Ba  Ba1  1  0.50000000  0.50000000  0.00000000  1.0
  O  O2  1  0.75000581  0.25000581  0.30797843  1.0
  O  O3  1  0.75000581  0.74999419  0.30797843  1.0
  O  O4  1  0.25000581  0.75000581  0.69202157  1.0
  O  O5  1  0.25000581  0.24999419  0.69202157  1.0
  O  O6  1  0.74999419  0.75000581  0.69202157  1.0
  O  O7  1  0.74999419  0.24999419  0.69202157  1.0
  O  O8  1  0.24999419  0.25000581  0.30797843  1.0
  O  O9  1  0.24999419  0.74999419  0.30797843  1.0
  O  O10  1  0.50000000  0.00000000  -0.00000317  1.0
  O  O11  1  0.00000000  0.50000000  1.00000317  1.0
  Tb  Tb12  1  0.00000000  0.00000000  0.50000000  1.0
  Tb  Tb13  1  0.50000000  0.50000000  0.50000000  1.0
  Mn  Mn14  1  0.50000000  0.00000000  0.73012280  1.0
  Mn  Mn15  1  0.00000000  0.50000000  0.26987720  1.0
  Mn  Mn16  1  0.50000000  0.00000000  0.26987272  1.0
  Mn  Mn17  1  0.00000000  0.50000000  0.73012728  1.0
