# generated using pymatgen
data_NaHfCuSe3
_symmetry_space_group_name_H-M   'P 1'
_cell_length_a   13.77801145
_cell_length_b   3.84118198
_cell_length_c   10.31406517
_cell_angle_alpha   90.00000000
_cell_angle_beta   90.00000000
_cell_angle_gamma   90.00000000
_symmetry_Int_Tables_number   1
_chemical_formula_structural   NaHfCuSe3
_chemical_formula_sum   'Na4 Hf4 Cu4 Se12'
_cell_volume   545.86003114
_cell_formula_units_Z   4
loop_
 _symmetry_equiv_pos_site_id
 _symmetry_equiv_pos_as_xyz
  1  'x, y, z'
loop_
 _atom_site_type_symbol
 _atom_site_label
 _atom_site_symmetry_multiplicity
 _atom_site_fract_x
 _atom_site_fract_y
 _atom_site_fract_z
 _atom_site_occupancy
  Na  Na0  1  0.22755319  0.75000000  0.54766742  1.0
  Na  Na1  1  0.72755319  0.75000000  0.95233258  1.0
  Na  Na2  1  0.77244681  0.25000000  0.45233258  1.0
  Na  Na3  1  0.27244681  0.25000000  0.04766742  1.0
  Hf  Hf4  1  0.00915701  0.75000000  0.82147033  1.0
  Hf  Hf5  1  0.50915701  0.75000000  0.67852967  1.0
  Hf  Hf6  1  0.99084299  0.25000000  0.17852967  1.0
  Hf  Hf7  1  0.49084299  0.25000000  0.32147033  1.0
  Cu  Cu8  1  0.49288073  0.75000000  0.09135819  1.0
  Cu  Cu9  1  0.99288073  0.75000000  0.40864181  1.0
  Cu  Cu10  1  0.50711927  0.25000000  0.90864181  1.0
  Cu  Cu11  1  0.00711927  0.25000000  0.59135819  1.0
  Se  Se12  1  0.39472550  0.75000000  0.88034511  1.0
  Se  Se13  1  0.89472550  0.75000000  0.61965489  1.0
  Se  Se14  1  0.60527450  0.25000000  0.11965489  1.0
  Se  Se15  1  0.10527450  0.25000000  0.38034511  1.0
  Se  Se16  1  0.36460521  0.75000000  0.25449310  1.0
  Se  Se17  1  0.86460521  0.75000000  0.24550690  1.0
  Se  Se18  1  0.63539479  0.25000000  0.74550690  1.0
  Se  Se19  1  0.13539479  0.25000000  0.75449310  1.0
  Se  Se20  1  0.10155975  0.75000000  0.06319151  1.0
  Se  Se21  1  0.60155975  0.75000000  0.43680849  1.0
  Se  Se22  1  0.89844025  0.25000000  0.93680849  1.0
  Se  Se23  1  0.39844025  0.25000000  0.56319151  1.0
