# generated using pymatgen
data_CrWO4
_symmetry_space_group_name_H-M   'P 1'
_cell_length_a   5.51634585
_cell_length_b   5.51634585
_cell_length_c   4.68027833
_cell_angle_alpha   88.29704830
_cell_angle_beta   91.70295170
_cell_angle_gamma   115.76169652
_symmetry_Int_Tables_number   1
_chemical_formula_structural   CrWO4
_chemical_formula_sum   'Cr2 W2 O8'
_cell_volume   128.18691052
_cell_formula_units_Z   2
loop_
 _symmetry_equiv_pos_site_id
 _symmetry_equiv_pos_as_xyz
  1  'x, y, z'
loop_
 _atom_site_type_symbol
 _atom_site_label
 _atom_site_symmetry_multiplicity
 _atom_site_fract_x
 _atom_site_fract_y
 _atom_site_fract_z
 _atom_site_occupancy
  Cr  Cr0  1  0.75894307  -0.75894307  0.99102353  1.0
  Cr  Cr1  1  0.24105693  -0.24105693  0.00897647  1.0
  W  W2  1  0.72885772  -0.27114228  0.50000000  1.0
  W  W3  1  1.27114228  0.27114228  0.50000000  1.0
  O  O4  1  1.40306748  0.10714802  0.79787850  1.0
  O  O5  1  0.89285198  -0.40306748  0.79787850  1.0
  O  O6  1  1.10714802  0.40306748  0.20212150  1.0
  O  O7  1  0.59693252  -0.10714802  0.20212150  1.0
  O  O8  1  0.90600022  -0.90600022  0.69257433  1.0
  O  O9  1  0.09399978  -0.09399978  0.30742567  1.0
  O  O10  1  0.38760871  -0.38760871  0.71616927  1.0
  O  O11  1  0.61239129  -0.61239129  0.28383073  1.0
