# generated using pymatgen
data_RbCuO2
_symmetry_space_group_name_H-M   'P 1'
_cell_length_a   6.45878775
_cell_length_b   6.45878775
_cell_length_c   5.49311695
_cell_angle_alpha   90.00000000
_cell_angle_beta   90.00000000
_cell_angle_gamma   134.73565760
_symmetry_Int_Tables_number   1
_chemical_formula_structural   RbCuO2
_chemical_formula_sum   'Rb2 Cu2 O4'
_cell_volume   162.77973535
_cell_formula_units_Z   2
loop_
 _symmetry_equiv_pos_site_id
 _symmetry_equiv_pos_as_xyz
  1  'x, y, z'
loop_
 _atom_site_type_symbol
 _atom_site_label
 _atom_site_symmetry_multiplicity
 _atom_site_fract_x
 _atom_site_fract_y
 _atom_site_fract_z
 _atom_site_occupancy
  Rb  Rb0  1  -0.69004452  0.69004452  0.25000000  1.0
  Rb  Rb1  1  -0.30995548  1.30995548  0.75000000  1.0
  Cu  Cu2  1  0.00206125  -0.00206125  0.25000000  1.0
  Cu  Cu3  1  -0.00206125  0.00206125  0.75000000  1.0
  O  O4  1  -0.89683011  0.89683011  -0.00388599  1.0
  O  O5  1  -0.89683011  0.89683011  0.50388599  1.0
  O  O6  1  -0.10316989  1.10316989  0.49611401  1.0
  O  O7  1  -0.10316989  1.10316989  0.00388599  1.0
