# generated using pymatgen
data_Al4Co(BO5)2
_symmetry_space_group_name_H-M   'P 1'
_cell_length_a   7.26814104
_cell_length_b   4.39711338
_cell_length_c   9.62598452
_cell_angle_alpha   90.00000000
_cell_angle_beta   108.48628290
_cell_angle_gamma   90.00000000
_symmetry_Int_Tables_number   1
_chemical_formula_structural   Al4Co(BO5)2
_chemical_formula_sum   'Al8 Co2 B4 O20'
_cell_volume   291.76119445
_cell_formula_units_Z   2
loop_
 _symmetry_equiv_pos_site_id
 _symmetry_equiv_pos_as_xyz
  1  'x, y, z'
loop_
 _atom_site_type_symbol
 _atom_site_label
 _atom_site_symmetry_multiplicity
 _atom_site_fract_x
 _atom_site_fract_y
 _atom_site_fract_z
 _atom_site_occupancy
  Al  Al0  1  0.79744214  0.47834931  0.16834730  1.0
  Al  Al1  1  0.79744214  0.02165069  0.66834730  1.0
  Al  Al2  1  0.20255786  0.97834931  0.33165270  1.0
  Al  Al3  1  0.20255786  0.52165069  0.83165270  1.0
  Al  Al4  1  0.57524786  0.49422014  0.39138219  1.0
  Al  Al5  1  0.57524786  0.00577986  0.89138219  1.0
  Al  Al6  1  0.42475214  0.99422014  0.10861781  1.0
  Al  Al7  1  0.42475214  0.50577986  0.60861781  1.0
  Co  Co8  1  -0.00000000  0.50000000  0.50000000  1.0
  Co  Co9  1  0.00000000  0.00000000  0.00000000  1.0
  B  B10  1  0.79141454  0.92823023  0.35113359  1.0
  B  B11  1  0.79141454  0.57176977  0.85113359  1.0
  B  B12  1  0.20858546  0.42823023  0.14886641  1.0
  B  B13  1  0.20858546  0.07176977  0.64886641  1.0
  O  O14  1  0.95823302  0.79177678  0.31455405  1.0
  O  O15  1  0.95823302  0.70822322  0.81455405  1.0
  O  O16  1  0.04176698  0.29177678  0.18544595  1.0
  O  O17  1  0.04176698  0.20822322  0.68544595  1.0
  O  O18  1  0.78920041  0.80088811  0.49538175  1.0
  O  O19  1  0.78920041  0.69911189  0.99538175  1.0
  O  O20  1  0.21079959  0.30088811  0.00461825  1.0
  O  O21  1  0.21079959  0.19911189  0.50461825  1.0
  O  O22  1  0.78143241  0.25757164  0.34431945  1.0
  O  O23  1  0.78143241  0.24242836  0.84431945  1.0
  O  O24  1  0.21856759  0.75757164  0.15568055  1.0
  O  O25  1  0.21856759  0.74242836  0.65568055  1.0
  O  O26  1  0.61238540  0.21584440  0.06128915  1.0
  O  O27  1  0.61238540  0.28415560  0.56128915  1.0
  O  O28  1  0.38761460  0.71584440  0.43871085  1.0
  O  O29  1  0.38761460  0.78415560  0.93871085  1.0
  O  O30  1  0.37901938  0.25757866  0.25674809  1.0
  O  O31  1  0.37901938  0.24242134  0.75674809  1.0
  O  O32  1  0.62098062  0.75757866  0.24325191  1.0
  O  O33  1  0.62098062  0.74242134  0.74325191  1.0
