# generated using pymatgen
data_WO5
_symmetry_space_group_name_H-M   'P 1'
_cell_length_a   9.95961577
_cell_length_b   9.95961577
_cell_length_c   3.84834437
_cell_angle_alpha   90.00000000
_cell_angle_beta   90.00000000
_cell_angle_gamma   120.00000000
_symmetry_Int_Tables_number   1
_chemical_formula_structural   WO5
_chemical_formula_sum   'W3 O15'
_cell_volume   330.59001187
_cell_formula_units_Z   3
loop_
 _symmetry_equiv_pos_site_id
 _symmetry_equiv_pos_as_xyz
  1  'x, y, z'
loop_
 _atom_site_type_symbol
 _atom_site_label
 _atom_site_symmetry_multiplicity
 _atom_site_fract_x
 _atom_site_fract_y
 _atom_site_fract_z
 _atom_site_occupancy
  W  W0  1  0.50000000  0.50000000  -0.00000000  1.0
  W  W1  1  0.50000000  -0.00000000  0.00000000  1.0
  W  W2  1  -0.00000000  0.50000000  0.00000000  1.0
  O  O3  1  0.56579160  0.71612341  -0.00000000  1.0
  O  O4  1  0.28387659  0.84966819  -0.00000000  1.0
  O  O5  1  0.15033181  0.43420840  -0.00000000  1.0
  O  O6  1  0.71612341  0.56579160  0.00000000  1.0
  O  O7  1  0.84966819  0.28387659  -0.00000000  1.0
  O  O8  1  0.43420840  0.15033181  -0.00000000  1.0
  O  O9  1  0.43420840  0.28387659  0.00000000  1.0
  O  O10  1  0.71612341  0.15033181  0.00000000  1.0
  O  O11  1  0.84966819  0.56579160  0.00000000  1.0
  O  O12  1  0.28387659  0.43420840  -0.00000000  1.0
  O  O13  1  0.15033181  0.71612341  0.00000000  1.0
  O  O14  1  0.56579160  0.84966819  0.00000000  1.0
  O  O15  1  0.50000000  0.50000000  0.50000000  1.0
  O  O16  1  0.50000000  -0.00000000  0.50000000  1.0
  O  O17  1  -0.00000000  0.50000000  0.50000000  1.0
