# generated using pymatgen
data_SrLa2WO7
_symmetry_space_group_name_H-M   'P 1'
_cell_length_a   8.92988497
_cell_length_b   5.85204625
_cell_length_c   12.74465134
_cell_angle_alpha   90.00000000
_cell_angle_beta   105.06165056
_cell_angle_gamma   90.00000000
_symmetry_Int_Tables_number   1
_chemical_formula_structural   SrLa2WO7
_chemical_formula_sum   'Sr4 La8 W4 O28'
_cell_volume   643.13162856
_cell_formula_units_Z   4
loop_
 _symmetry_equiv_pos_site_id
 _symmetry_equiv_pos_as_xyz
  1  'x, y, z'
loop_
 _atom_site_type_symbol
 _atom_site_label
 _atom_site_symmetry_multiplicity
 _atom_site_fract_x
 _atom_site_fract_y
 _atom_site_fract_z
 _atom_site_occupancy
  Sr  Sr0  1  0.99196301  0.48264778  0.13668879  1.0
  Sr  Sr1  1  0.99196301  0.01735222  0.63668879  1.0
  Sr  Sr2  1  0.00803699  0.98264778  0.36331121  1.0
  Sr  Sr3  1  0.00803699  0.51735222  0.86331121  1.0
  La  La4  1  0.57136171  0.01609392  0.37076114  1.0
  La  La5  1  0.57136171  0.48390608  0.87076114  1.0
  La  La6  1  0.42863829  0.51609392  0.12923886  1.0
  La  La7  1  0.42863829  0.98390608  0.62923886  1.0
  La  La8  1  0.29843768  0.48432692  0.41868924  1.0
  La  La9  1  0.29843768  0.01567308  0.91868924  1.0
  La  La10  1  0.70156232  0.98432692  0.08131076  1.0
  La  La11  1  0.70156232  0.51567308  0.58131076  1.0
  W  W12  1  0.78636275  0.45710381  0.33281106  1.0
  W  W13  1  0.78636275  0.04289619  0.83281106  1.0
  W  W14  1  0.21363725  0.95710381  0.16718894  1.0
  W  W15  1  0.21363725  0.54289619  0.66718894  1.0
  O  O16  1  0.00059992  0.43800704  0.33526957  1.0
  O  O17  1  0.00059992  0.06199296  0.83526957  1.0
  O  O18  1  0.99940008  0.93800704  0.16473043  1.0
  O  O19  1  0.99940008  0.56199296  0.66473043  1.0
  O  O20  1  0.81677951  0.25446640  0.46444948  1.0
  O  O21  1  0.81677951  0.24553360  0.96444948  1.0
  O  O22  1  0.18322049  0.75446640  0.03555052  1.0
  O  O23  1  0.18322049  0.74553360  0.53555052  1.0
  O  O24  1  0.80245584  0.72250659  0.42177036  1.0
  O  O25  1  0.80245584  0.77749341  0.92177036  1.0
  O  O26  1  0.19754416  0.22250659  0.07822964  1.0
  O  O27  1  0.19754416  0.27749341  0.57822964  1.0
  O  O28  1  0.75915305  0.15131224  0.25812826  1.0
  O  O29  1  0.75915305  0.34868776  0.75812826  1.0
  O  O30  1  0.24084695  0.65131224  0.24187174  1.0
  O  O31  1  0.24084695  0.84868776  0.74187174  1.0
  O  O32  1  0.56293128  0.43748585  0.31842774  1.0
  O  O33  1  0.56293128  0.06251415  0.81842774  1.0
  O  O34  1  0.43706872  0.93748585  0.18157226  1.0
  O  O35  1  0.43706872  0.56251415  0.68157226  1.0
  O  O36  1  0.50418790  0.25648616  0.01121171  1.0
  O  O37  1  0.50418790  0.24351384  0.51121171  1.0
  O  O38  1  0.49581210  0.75648616  0.48878829  1.0
  O  O39  1  0.49581210  0.74351384  0.98878829  1.0
  O  O40  1  0.25773746  0.10769027  0.30480414  1.0
  O  O41  1  0.25773746  0.39230973  0.80480414  1.0
  O  O42  1  0.74226254  0.60769027  0.19519586  1.0
  O  O43  1  0.74226254  0.89230973  0.69519586  1.0
