# generated using pymatgen
data_Zr(InBr3)2
_symmetry_space_group_name_H-M   'P 1'
_cell_length_a   7.49299567
_cell_length_b   7.49299567
_cell_length_c   11.13316304
_cell_angle_alpha   90.00000000
_cell_angle_beta   90.00000000
_cell_angle_gamma   90.00000000
_symmetry_Int_Tables_number   1
_chemical_formula_structural   Zr(InBr3)2
_chemical_formula_sum   'Zr2 In4 Br12'
_cell_volume   625.07126203
_cell_formula_units_Z   2
loop_
 _symmetry_equiv_pos_site_id
 _symmetry_equiv_pos_as_xyz
  1  'x, y, z'
loop_
 _atom_site_type_symbol
 _atom_site_label
 _atom_site_symmetry_multiplicity
 _atom_site_fract_x
 _atom_site_fract_y
 _atom_site_fract_z
 _atom_site_occupancy
  Zr  Zr0  1  0.50000000  0.50000000  0.50000000  1.0
  Zr  Zr1  1  0.00000000  0.00000000  0.00000000  1.0
  In  In2  1  0.50000000  0.00000000  0.25000000  1.0
  In  In3  1  0.50000000  0.00000000  0.75000000  1.0
  In  In4  1  0.00000000  0.50000000  0.75000000  1.0
  In  In5  1  0.00000000  0.50000000  0.25000000  1.0
  Br  Br6  1  0.32076801  0.80360411  0.50000000  1.0
  Br  Br7  1  0.82076801  0.69639589  0.00000000  1.0
  Br  Br8  1  0.19639589  0.32076801  0.50000000  1.0
  Br  Br9  1  0.69639589  0.17923199  0.00000000  1.0
  Br  Br10  1  0.67923199  0.19639589  0.50000000  1.0
  Br  Br11  1  0.17923199  0.30360411  0.00000000  1.0
  Br  Br12  1  0.80360411  0.67923199  0.50000000  1.0
  Br  Br13  1  0.30360411  0.82076801  0.00000000  1.0
  Br  Br14  1  0.50000000  0.50000000  0.26204301  1.0
  Br  Br15  1  0.50000000  0.50000000  0.73795699  1.0
  Br  Br16  1  0.00000000  0.00000000  0.76204301  1.0
  Br  Br17  1  0.00000000  0.00000000  0.23795699  1.0
