# generated using pymatgen
data_Eu2N
_symmetry_space_group_name_H-M   'P 1'
_cell_length_a   7.38159429
_cell_length_b   7.38159429
_cell_length_c   7.38159429
_cell_angle_alpha   120.01359120
_cell_angle_beta   120.01359120
_cell_angle_gamma   89.97646096
_symmetry_Int_Tables_number   1
_chemical_formula_structural   Eu2N
_chemical_formula_sum   'Eu8 N4'
_cell_volume   284.34542928
_cell_formula_units_Z   4
loop_
 _symmetry_equiv_pos_site_id
 _symmetry_equiv_pos_as_xyz
  1  'x, y, z'
loop_
 _atom_site_type_symbol
 _atom_site_label
 _atom_site_symmetry_multiplicity
 _atom_site_fract_x
 _atom_site_fract_y
 _atom_site_fract_z
 _atom_site_occupancy
  Eu  Eu0  1  1.09806366  0.36602815  0.73203552  1.0
  Eu  Eu1  1  1.11600737  0.88397185  1.23203552  1.0
  Eu  Eu2  1  0.63399263  0.36602815  0.26796448  1.0
  Eu  Eu3  1  0.65193634  0.88397185  0.76796448  1.0
  Eu  Eu4  1  0.63397185  0.36600737  0.73203552  1.0
  Eu  Eu5  1  0.11602815  0.34806366  0.23203552  1.0
  Eu  Eu6  1  0.63397185  0.90193634  1.26796448  1.0
  Eu  Eu7  1  0.11602815  0.88399263  0.76796448  1.0
  N  N8  1  0.87500000  0.12500000  0.75000000  1.0
  N  N9  1  0.37500000  0.12500000  0.25000000  1.0
  N  N10  1  0.87500000  0.62500000  0.75000000  1.0
  N  N11  1  0.87500000  1.12500000  1.25000000  1.0
