# generated using pymatgen
data_Mn2Cu5P4(HO9)2
_symmetry_space_group_name_H-M   'P 1'
_cell_length_a   5.47250238
_cell_length_b   9.00350994
_cell_length_c   7.61388632
_cell_angle_alpha   109.07919276
_cell_angle_beta   102.20933871
_cell_angle_gamma   95.59593932
_symmetry_Int_Tables_number   1
_chemical_formula_structural   Mn2Cu5P4(HO9)2
_chemical_formula_sum   'Mn2 Cu5 P4 H2 O18'
_cell_volume   340.83653156
_cell_formula_units_Z   1
loop_
 _symmetry_equiv_pos_site_id
 _symmetry_equiv_pos_as_xyz
  1  'x, y, z'
loop_
 _atom_site_type_symbol
 _atom_site_label
 _atom_site_symmetry_multiplicity
 _atom_site_fract_x
 _atom_site_fract_y
 _atom_site_fract_z
 _atom_site_occupancy
  O  O0  1  -0.97573706  -0.63564305  -0.45547673  1.0
  O  O1  1  -0.02426294  -0.36435695  -0.54452327  1.0
  O  O2  1  -1.01248265  -0.19606041  -0.76011168  1.0
  O  O3  1  0.01248265  -0.80393959  -0.23988832  1.0
  O  O4  1  -0.78737509  -0.88264845  -0.52390179  1.0
  O  O5  1  -0.21262491  -0.11735155  -0.47609821  1.0
  O  O6  1  -0.78581788  -0.88870653  -0.90874113  1.0
  O  O7  1  -0.21418212  -0.11129347  -0.09125887  1.0
  O  O8  1  -0.42681535  -0.36482085  -0.78058816  1.0
  O  O9  1  -0.57318465  -0.63517915  -0.21941184  1.0
  O  O10  1  -0.37584948  -0.92237849  -0.69768924  1.0
  O  O11  1  -0.62415052  -0.07762151  -0.30231076  1.0
  O  O12  1  -0.34048626  -0.78271624  -0.92619541  1.0
  O  O13  1  -0.65951374  -0.21728376  -0.07380459  1.0
  O  O14  1  -0.90364857  -0.55647754  -0.88060912  1.0
  O  O15  1  -0.09635143  -0.44352246  -0.11939088  1.0
  O  O16  1  -0.51222025  -0.64570972  -0.63415991  1.0
  O  O17  1  -0.48777975  -0.35429028  -0.36584009  1.0
  Cu  Cu18  1  -0.73633302  -0.38437423  -0.96886756  1.0
  Cu  Cu19  1  -0.26366698  -0.61562577  -0.03113244  1.0
  Cu  Cu20  1  -0.76778392  -0.49763166  -0.60501455  1.0
  Cu  Cu21  1  -0.23221608  -0.50236834  -0.39498545  1.0
  Cu  Cu22  1  -0.50000000  0.00000000  -0.50000000  1.0
  Mn  Mn23  1  -0.05027035  -0.98072379  -0.78914117  1.0
  Mn  Mn24  1  -0.94972965  -0.01927621  -0.21085883  1.0
  H  H25  1  -0.85031876  -0.65685066  -0.94688471  1.0
  H  H26  1  -0.14968124  -0.34314934  -0.05311529  1.0
  P  P27  1  -0.82913028  -0.73610535  -0.35286859  1.0
  P  P28  1  -0.17086972  -0.26389465  -0.64713141  1.0
  P  P29  1  -0.50161037  -0.80582626  -0.79128161  1.0
  P  P30  1  -0.49838963  -0.19417374  -0.20871839  1.0
