# generated using pymatgen
data_RbTi2(PO4)3
_symmetry_space_group_name_H-M   'P 1'
_cell_length_a   9.31349058
_cell_length_b   9.31349058
_cell_length_c   9.31349058
_cell_angle_alpha   53.92188639
_cell_angle_beta   53.92188639
_cell_angle_gamma   53.92188639
_symmetry_Int_Tables_number   1
_chemical_formula_structural   RbTi2(PO4)3
_chemical_formula_sum   'Rb2 Ti4 P6 O24'
_cell_volume   490.12231710
_cell_formula_units_Z   2
loop_
 _symmetry_equiv_pos_site_id
 _symmetry_equiv_pos_as_xyz
  1  'x, y, z'
loop_
 _atom_site_type_symbol
 _atom_site_label
 _atom_site_symmetry_multiplicity
 _atom_site_fract_x
 _atom_site_fract_y
 _atom_site_fract_z
 _atom_site_occupancy
  Rb  Rb0  1  1.00000000  -0.00000000  0.00000000  1.0
  Rb  Rb1  1  0.50000000  0.50000000  0.50000000  1.0
  Ti  Ti2  1  0.84913960  -0.15086040  -0.15086040  1.0
  Ti  Ti3  1  0.34913960  0.34913960  0.34913960  1.0
  Ti  Ti4  1  0.65086040  0.65086040  -0.34913960  1.0
  Ti  Ti5  1  1.15086040  0.15086040  0.15086040  1.0
  P  P6  1  0.47019044  0.75000000  0.02980956  1.0
  P  P7  1  0.97019044  -0.47019044  0.25000000  1.0
  P  P8  1  0.25000000  0.97019044  -0.47019044  1.0
  P  P9  1  0.75000000  1.02980956  -0.52980956  1.0
  P  P10  1  0.52980956  0.25000000  -0.02980956  1.0
  P  P11  1  1.02980956  0.47019044  -0.25000000  1.0
  O  O12  1  0.73881033  1.01166773  -0.34722069  1.0
  O  O13  1  1.23881033  0.15277931  -0.48833227  1.0
  O  O14  1  0.84722069  0.48833227  -0.23881033  1.0
  O  O15  1  0.34722069  0.26118967  -0.01166773  1.0
  O  O16  1  0.98833227  0.34722069  -0.73881033  1.0
  O  O17  1  0.48833227  0.76118967  -0.15277931  1.0
  O  O18  1  0.26118967  0.98833227  -0.65277931  1.0
  O  O19  1  0.76118967  0.84722069  -0.51166773  1.0
  O  O20  1  0.65277931  0.73881033  0.01166773  1.0
  O  O21  1  1.15277931  -0.48833227  0.23881033  1.0
  O  O22  1  0.51166773  0.23881033  0.15277931  1.0
  O  O23  1  1.01166773  0.65277931  -0.26118967  1.0
  O  O24  1  0.69819789  0.06774225  -0.07025337  1.0
  O  O25  1  1.19819789  0.42974663  -0.43225775  1.0
  O  O26  1  0.57025337  0.43225775  -0.19819789  1.0
  O  O27  1  1.07025337  0.30180211  -0.06774225  1.0
  O  O28  1  0.93225775  0.07025337  0.30180211  1.0
  O  O29  1  0.43225775  0.80180211  -0.42974663  1.0
  O  O30  1  1.30180211  -0.06774225  0.07025337  1.0
  O  O31  1  0.80180211  0.57025337  -0.56774225  1.0
  O  O32  1  0.92974663  -0.30180211  0.06774225  1.0
  O  O33  1  0.42974663  0.56774225  0.19819789  1.0
  O  O34  1  0.56774225  1.19819789  -0.57025337  1.0
  O  O35  1  1.06774225  -0.07025337  -0.30180211  1.0
