# generated using pymatgen
data_Na4TiS2(O2F)4
_symmetry_space_group_name_H-M   'P 1'
_cell_length_a   6.84249776
_cell_length_b   6.72425809
_cell_length_c   5.79463194
_cell_angle_alpha   74.95618877
_cell_angle_beta   82.04099700
_cell_angle_gamma   85.94121857
_symmetry_Int_Tables_number   1
_chemical_formula_structural   Na4TiS2(O2F)4
_chemical_formula_sum   'Na4 Ti1 S2 O8 F4'
_cell_volume   254.82823659
_cell_formula_units_Z   1
loop_
 _symmetry_equiv_pos_site_id
 _symmetry_equiv_pos_as_xyz
  1  'x, y, z'
loop_
 _atom_site_type_symbol
 _atom_site_label
 _atom_site_symmetry_multiplicity
 _atom_site_fract_x
 _atom_site_fract_y
 _atom_site_fract_z
 _atom_site_occupancy
  Na  Na0  1  -0.64675535  -0.49556446  -0.74265826  1.0
  Na  Na1  1  -0.35324465  -0.50443554  -0.25734174  1.0
  Na  Na2  1  -0.16295117  -0.81121518  -0.68169164  1.0
  Na  Na3  1  -0.83704883  -0.18878482  -0.31830836  1.0
  Ti  Ti4  1  -0.50000000  0.00000000  0.00000000  1.0
  S  S5  1  -0.13653411  -0.28307887  -0.75077058  1.0
  S  S6  1  -0.86346589  -0.71692113  -0.24922942  1.0
  O  O7  1  -0.94765988  -0.33417113  -0.88148360  1.0
  O  O8  1  -0.05234012  -0.66582887  -0.11851640  1.0
  O  O9  1  -0.88797855  -0.79272834  -0.46235930  1.0
  O  O10  1  -0.11202145  -0.20727166  -0.53764070  1.0
  O  O11  1  -0.27272594  -0.45798755  -0.68116792  1.0
  O  O12  1  -0.72727406  -0.54201245  -0.31883208  1.0
  O  O13  1  -0.23399170  -0.10166804  -0.92705638  1.0
  O  O14  1  -0.76600830  -0.89833196  -0.07294362  1.0
  F  F15  1  -0.60885387  -0.14163407  -0.69180191  1.0
  F  F16  1  -0.39114613  -0.85836593  -0.30819809  1.0
  F  F17  1  -0.46759606  -0.75984049  -0.89105516  1.0
  F  F18  1  -0.53240394  -0.24015951  -0.10894484  1.0
