# generated using pymatgen
data_Ag2P2H2O7
_symmetry_space_group_name_H-M   'P 1'
_cell_length_a   15.46447344
_cell_length_b   14.60395312
_cell_length_c   7.16474808
_cell_angle_alpha   83.01217701
_cell_angle_beta   69.60959975
_cell_angle_gamma   27.37822324
_symmetry_Int_Tables_number   1
_chemical_formula_structural   Ag2P2H2O7
_chemical_formula_sum   'Ag8 P8 H8 O28'
_cell_volume   627.85599963
_cell_formula_units_Z   4
loop_
 _symmetry_equiv_pos_site_id
 _symmetry_equiv_pos_as_xyz
  1  'x, y, z'
loop_
 _atom_site_type_symbol
 _atom_site_label
 _atom_site_symmetry_multiplicity
 _atom_site_fract_x
 _atom_site_fract_y
 _atom_site_fract_z
 _atom_site_occupancy
  Ag  Ag0  1  0.99025635  -0.09031442  0.79185706  1.0
  Ag  Ag1  1  -0.09031442  0.99025635  0.30820100  1.0
  Ag  Ag2  1  0.79185706  0.30820100  0.99025635  1.0
  Ag  Ag3  1  0.30820100  0.79185706  -0.09031442  1.0
  Ag  Ag4  1  0.25974365  0.34031442  0.45814294  1.0
  Ag  Ag5  1  0.34031442  0.25974365  -0.05820100  1.0
  Ag  Ag6  1  0.45814294  -0.05820100  0.25974365  1.0
  Ag  Ag7  1  -0.05820100  0.45814294  0.34031442  1.0
  P  P8  1  0.41385523  0.44285954  -0.12677038  1.0
  P  P9  1  0.44285954  0.41385523  0.27005561  1.0
  P  P10  1  -0.12677038  1.27005561  0.41385523  1.0
  P  P11  1  0.27005561  0.87322962  0.44285954  1.0
  P  P12  1  -0.16385523  0.80714046  0.37677038  1.0
  P  P13  1  0.80714046  -0.16385523  0.97994439  1.0
  P  P14  1  -0.62322962  0.97994439  0.83614477  1.0
  P  P15  1  0.97994439  -0.62322962  0.80714046  1.0
  H  H16  1  -0.13694719  0.86305281  0.63694719  1.0
  H  H17  1  -0.36305281  0.63694719  0.86305281  1.0
  H  H18  1  0.38694719  0.38694719  -0.38694719  1.0
  H  H19  1  0.61305281  0.61305281  -0.61305281  1.0
  H  H20  1  -0.42947077  0.92947077  0.57052923  1.0
  H  H21  1  0.92947077  -0.42947077  0.92947077  1.0
  H  H22  1  0.67947077  0.32052923  -0.32052923  1.0
  H  H23  1  0.32052923  0.67947077  0.32052923  1.0
  O  O24  1  0.40436214  0.40436214  0.09563786  1.0
  O  O25  1  0.09563786  1.09563786  0.40436214  1.0
  O  O26  1  -0.15436214  0.84563786  0.15436214  1.0
  O  O27  1  0.15436214  0.15436214  -0.15436214  1.0
  O  O28  1  -0.14829130  0.87993506  0.80891365  1.0
  O  O29  1  -0.12006494  0.85170870  0.45944258  1.0
  O  O30  1  -0.19108635  0.45944258  0.85170870  1.0
  O  O31  1  -0.54055742  0.80891365  0.87993506  1.0
  O  O32  1  0.39829130  0.37006494  1.44108635  1.0
  O  O33  1  0.37006494  0.39829130  -0.20944258  1.0
  O  O34  1  1.44108635  -0.20944258  0.39829130  1.0
  O  O35  1  -0.20944258  1.44108635  0.37006494  1.0
  O  O36  1  0.70721005  0.37742415  -0.34555855  1.0
  O  O37  1  0.37742415  0.70721005  0.26092434  1.0
  O  O38  1  -0.34555855  1.26092434  0.70721005  1.0
  O  O39  1  0.26092434  0.65444145  0.37742415  1.0
  O  O40  1  -0.45721005  0.87257585  0.59555855  1.0
  O  O41  1  0.87257585  -0.45721005  0.98907566  1.0
  O  O42  1  -0.40444145  0.98907566  0.54278995  1.0
  O  O43  1  0.98907566  -0.40444145  0.87257585  1.0
  O  O44  1  0.10106453  0.31708897  0.57433480  1.0
  O  O45  1  0.31708897  0.10106453  0.00751171  1.0
  O  O46  1  0.57433480  0.00751171  0.10106453  1.0
  O  O47  1  0.00751171  0.57433480  0.31708897  1.0
  O  O48  1  1.14893547  -0.06708897  0.67566520  1.0
  O  O49  1  -0.06708897  1.14893547  0.24248829  1.0
  O  O50  1  0.67566520  0.24248829  1.14893547  1.0
  O  O51  1  0.24248829  0.67566520  -0.06708897  1.0
