# generated using pymatgen
data_RbCu4AsS4
_symmetry_space_group_name_H-M   'P 1'
_cell_length_a   6.68997438
_cell_length_b   6.42708625
_cell_length_c   9.82844908
_cell_angle_alpha   90.00000000
_cell_angle_beta   104.21795666
_cell_angle_gamma   90.00000000
_symmetry_Int_Tables_number   1
_chemical_formula_structural   RbCu4AsS4
_chemical_formula_sum   'Rb2 Cu8 As2 S8'
_cell_volume   409.64951285
_cell_formula_units_Z   2
loop_
 _symmetry_equiv_pos_site_id
 _symmetry_equiv_pos_as_xyz
  1  'x, y, z'
loop_
 _atom_site_type_symbol
 _atom_site_label
 _atom_site_symmetry_multiplicity
 _atom_site_fract_x
 _atom_site_fract_y
 _atom_site_fract_z
 _atom_site_occupancy
  Rb  Rb0  1  0.82834637  0.07594603  0.36239006  1.0
  Rb  Rb1  1  0.17165363  0.57594603  0.63760994  1.0
  Cu  Cu2  1  0.79295363  0.20992812  0.95178837  1.0
  Cu  Cu3  1  0.20704637  0.70992812  0.04821163  1.0
  Cu  Cu4  1  0.58032433  0.18784936  0.62345605  1.0
  Cu  Cu5  1  0.41967567  0.68784936  0.37654395  1.0
  Cu  Cu6  1  0.14027793  0.06653121  0.89427454  1.0
  Cu  Cu7  1  0.85972207  0.56653121  0.10572546  1.0
  Cu  Cu8  1  0.47949152  0.41890629  0.01205697  1.0
  Cu  Cu9  1  0.52050848  0.91890629  0.98794303  1.0
  As  As10  1  0.30094011  0.21465982  0.24364207  1.0
  As  As11  1  0.69905989  0.71465982  0.75635793  1.0
  S  S12  1  0.04146269  0.01244849  0.09917272  1.0
  S  S13  1  0.95853731  0.51244849  0.90082728  1.0
  S  S14  1  0.56019538  0.68478818  0.15723529  1.0
  S  S15  1  0.43980462  0.18478818  0.84276471  1.0
  S  S16  1  0.34958053  0.01452080  0.44550694  1.0
  S  S17  1  0.65041947  0.51452080  0.55449306  1.0
  S  S18  1  0.11800819  0.48662170  0.29968420  1.0
  S  S19  1  0.88199181  0.98662170  0.70031580  1.0
