# generated using pymatgen
data_Ga2Te3
_symmetry_space_group_name_H-M   'P 1'
_cell_length_a   9.28178237
_cell_length_b   9.28178237
_cell_length_c   9.28178237
_cell_angle_alpha   26.02299886
_cell_angle_beta   26.02299886
_cell_angle_gamma   26.02299886
_symmetry_Int_Tables_number   1
_chemical_formula_structural   Ga2Te3
_chemical_formula_sum   'Ga2 Te3'
_cell_volume   135.58745696
_cell_formula_units_Z   1
loop_
 _symmetry_equiv_pos_site_id
 _symmetry_equiv_pos_as_xyz
  1  'x, y, z'
loop_
 _atom_site_type_symbol
 _atom_site_label
 _atom_site_symmetry_multiplicity
 _atom_site_fract_x
 _atom_site_fract_y
 _atom_site_fract_z
 _atom_site_occupancy
  Ga  Ga0  1  0.01304346  0.01304346  0.01304346  1.0
  Ga  Ga1  1  0.40095300  0.40095300  -0.59904700  1.0
  Te  Te2  1  0.79474918  -0.20525082  -0.20525082  1.0
  Te  Te3  1  0.61925857  0.61925857  -0.38074143  1.0
  Te  Te4  1  0.20699580  0.20699580  0.20699580  1.0
