# generated using pymatgen
data_NiSb2H12(O3F4)2
_symmetry_space_group_name_H-M   'P 1'
_cell_length_a   5.12451653
_cell_length_b   18.39982805
_cell_length_c   7.75760959
_cell_angle_alpha   90.00000000
_cell_angle_beta   118.57500765
_cell_angle_gamma   90.00000000
_symmetry_Int_Tables_number   1
_chemical_formula_structural   NiSb2H12(O3F4)2
_chemical_formula_sum   'Ni2 Sb4 H24 O12 F16'
_cell_volume   642.36801624
_cell_formula_units_Z   2
loop_
 _symmetry_equiv_pos_site_id
 _symmetry_equiv_pos_as_xyz
  1  'x, y, z'
loop_
 _atom_site_type_symbol
 _atom_site_label
 _atom_site_symmetry_multiplicity
 _atom_site_fract_x
 _atom_site_fract_y
 _atom_site_fract_z
 _atom_site_occupancy
  Ni  Ni0  1  0.50000000  0.00000000  0.50000000  1.0
  Ni  Ni1  1  0.50000000  0.50000000  -0.00000000  1.0
  Sb  Sb2  1  0.12001353  0.78339984  0.01405687  1.0
  Sb  Sb3  1  0.87998647  0.28339984  0.48594313  1.0
  Sb  Sb4  1  0.87998647  0.21660016  0.98594313  1.0
  Sb  Sb5  1  0.12001353  0.71660016  0.51405687  1.0
  H  H6  1  0.77478429  0.88114452  0.46378664  1.0
  H  H7  1  0.22521571  0.38114452  0.03621336  1.0
  H  H8  1  0.22521571  0.11885548  0.53621336  1.0
  H  H9  1  0.77478429  0.61885548  0.96378664  1.0
  H  H10  1  0.31568070  0.88697534  0.64444748  1.0
  H  H11  1  0.68431930  0.38697534  0.85555252  1.0
  H  H12  1  0.68431930  0.11302466  0.35555252  1.0
  H  H13  1  0.31568070  0.61302466  0.14444748  1.0
  H  H14  1  0.64480976  0.91061172  0.79196504  1.0
  H  H15  1  0.35519024  0.41061172  0.70803496  1.0
  H  H16  1  0.35519024  0.08938828  0.20803496  1.0
  H  H17  1  0.64480976  0.58938828  0.29196504  1.0
  H  H18  1  0.06827637  0.94379855  0.17328099  1.0
  H  H19  1  0.93172363  0.44379855  0.32671901  1.0
  H  H20  1  0.93172363  0.05620145  0.82671901  1.0
  H  H21  1  0.06827637  0.55620145  0.67328099  1.0
  H  H22  1  0.78110990  0.94449375  0.33065067  1.0
  H  H23  1  0.21889010  0.44449375  0.16934933  1.0
  H  H24  1  0.21889010  0.05550625  0.66934933  1.0
  H  H25  1  0.78110990  0.55550625  0.83065067  1.0
  H  H26  1  0.98485275  0.02437972  0.18906935  1.0
  H  H27  1  0.01514725  0.52437972  0.31093065  1.0
  H  H28  1  0.01514725  0.97562028  0.81093065  1.0
  H  H29  1  0.98485275  0.47562028  0.68906935  1.0
  O  O30  1  0.65403569  0.92159450  0.37963577  1.0
  O  O31  1  0.34596431  0.42159450  0.12036423  1.0
  O  O32  1  0.34596431  0.07840550  0.62036423  1.0
  O  O33  1  0.65403569  0.57840550  0.87963577  1.0
  O  O34  1  0.45203134  0.92912549  0.68856910  1.0
  O  O35  1  0.54796866  0.42912549  0.81143090  1.0
  O  O36  1  0.54796866  0.07087451  0.31143090  1.0
  O  O37  1  0.45203134  0.57087451  0.18856910  1.0
  O  O38  1  0.05889997  0.97918871  0.26701564  1.0
  O  O39  1  0.94110003  0.47918871  0.23298436  1.0
  O  O40  1  0.94110003  0.02081129  0.73298436  1.0
  O  O41  1  0.05889997  0.52081129  0.76701564  1.0
  F  F42  1  0.05875553  0.67938140  0.10721420  1.0
  F  F43  1  0.94124447  0.17938140  0.39278580  1.0
  F  F44  1  0.94124447  0.32061860  0.89278580  1.0
  F  F45  1  0.05875553  0.82061860  0.60721420  1.0
  F  F46  1  0.01853506  0.90094085  0.95712113  1.0
  F  F47  1  0.98146494  0.40094085  0.54287887  1.0
  F  F48  1  0.98146494  0.09905915  0.04287887  1.0
  F  F49  1  0.01853506  0.59905915  0.45712113  1.0
  F  F50  1  0.07176948  0.81191664  0.24700586  1.0
  F  F51  1  0.92823052  0.31191664  0.25299414  1.0
  F  F52  1  0.92823052  0.18808336  0.75299414  1.0
  F  F53  1  0.07176948  0.68808336  0.74700586  1.0
  F  F54  1  0.68614690  0.72197668  0.34744072  1.0
  F  F55  1  0.31385310  0.22197668  0.15255928  1.0
  F  F56  1  0.31385310  0.27802332  0.65255928  1.0
  F  F57  1  0.68614690  0.77802332  0.84744072  1.0
