# generated using pymatgen
data_Yb2(CN2)3
_symmetry_space_group_name_H-M   'P 1'
_cell_length_a   6.26565316
_cell_length_b   6.26565316
_cell_length_c   6.26565316
_cell_angle_alpha   60.73540514
_cell_angle_beta   60.73540514
_cell_angle_gamma   60.73540514
_symmetry_Int_Tables_number   1
_chemical_formula_structural   Yb2(CN2)3
_chemical_formula_sum   'Yb2 C3 N6'
_cell_volume   176.82014193
_cell_formula_units_Z   1
loop_
 _symmetry_equiv_pos_site_id
 _symmetry_equiv_pos_as_xyz
  1  'x, y, z'
loop_
 _atom_site_type_symbol
 _atom_site_label
 _atom_site_symmetry_multiplicity
 _atom_site_fract_x
 _atom_site_fract_y
 _atom_site_fract_z
 _atom_site_occupancy
  Yb  Yb0  1  0.82701395  0.82701395  -0.17298605  1.0
  Yb  Yb1  1  1.17298605  1.17298605  0.17298605  1.0
  C  C2  1  0.71298079  0.00000000  0.28701921  1.0
  C  C3  1  0.00000000  0.28701921  -0.28701921  1.0
  C  C4  1  0.28701921  -0.28701921  -0.00000000  1.0
  N  N5  1  0.59844697  0.01211202  0.16651750  1.0
  N  N6  1  0.83348250  -0.01211202  -0.59844697  1.0
  N  N7  1  0.98788798  -0.59844697  -0.16651750  1.0
  N  N8  1  0.40155303  -0.16651750  -0.01211202  1.0
  N  N9  1  1.16651750  -0.40155303  0.01211202  1.0
  N  N10  1  1.01211202  0.16651750  -0.40155303  1.0
