# generated using pymatgen
data_Sr7Re4O19
_symmetry_space_group_name_H-M   'P 1'
_cell_length_a   7.45572852
_cell_length_b   7.45572852
_cell_length_c   10.48982684
_cell_angle_alpha   81.93958983
_cell_angle_beta   98.06041017
_cell_angle_gamma   135.72785406
_symmetry_Int_Tables_number   1
_chemical_formula_structural   Sr7Re4O19
_chemical_formula_sum   'Sr7 Re4 O19'
_cell_volume   402.35749629
_cell_formula_units_Z   1
loop_
 _symmetry_equiv_pos_site_id
 _symmetry_equiv_pos_as_xyz
  1  'x, y, z'
loop_
 _atom_site_type_symbol
 _atom_site_label
 _atom_site_symmetry_multiplicity
 _atom_site_fract_x
 _atom_site_fract_y
 _atom_site_fract_z
 _atom_site_occupancy
  O  O0  1  0.67521259  -0.18408650  0.78464584  1.0
  O  O1  1  1.18408650  0.32478741  0.78464584  1.0
  O  O2  1  0.81591350  0.67521259  0.21535416  1.0
  O  O3  1  0.32478741  0.18408650  0.21535416  1.0
  O  O4  1  0.50612137  0.01626836  0.65292154  1.0
  O  O5  1  0.98373164  0.49387863  0.65292154  1.0
  O  O6  1  1.01626836  0.50612137  0.34707846  1.0
  O  O7  1  0.49387863  -0.01626836  0.34707846  1.0
  O  O8  1  0.37922385  0.13097343  0.87364696  1.0
  O  O9  1  0.86902657  0.62077615  0.87364696  1.0
  O  O10  1  1.13097343  0.37922385  0.12635304  1.0
  O  O11  1  0.62077615  -0.13097343  0.12635304  1.0
  O  O12  1  0.89951169  0.10048831  0.57023393  1.0
  O  O13  1  0.10048831  -0.10048831  0.42976607  1.0
  O  O14  1  0.80434916  0.19565084  0.88533468  1.0
  O  O15  1  0.19565084  -0.19565084  0.11466532  1.0
  O  O16  1  0.54526950  0.45473050  0.64679576  1.0
  O  O17  1  0.45473050  -0.45473050  0.35320424  1.0
  O  O18  1  0.50000000  0.50000000  -0.00000000  1.0
  Re  Re19  1  0.83179059  0.16820941  0.71934882  1.0
  Re  Re20  1  0.16820941  -0.16820941  0.28065118  1.0
  Re  Re21  1  0.53313825  0.46686175  0.82324201  1.0
  Re  Re22  1  0.46686175  -0.46686175  0.17675799  1.0
  Sr  Sr23  1  0.91490127  0.08509873  0.33512273  1.0
  Sr  Sr24  1  0.08509873  -0.08509873  0.66487727  1.0
  Sr  Sr25  1  0.64087613  0.35912387  0.45784881  1.0
  Sr  Sr26  1  0.35912387  -0.35912387  0.54215119  1.0
  Sr  Sr27  1  0.28946339  -0.28946339  0.91382074  1.0
  Sr  Sr28  1  0.71053661  0.28946339  0.08617926  1.0
  Sr  Sr29  1  0.00000000  0.00000000  0.00000000  1.0
