# generated using pymatgen
data_TiMnGe2
_symmetry_space_group_name_H-M   'P 1'
_cell_length_a   8.93640745
_cell_length_b   9.87184820
_cell_length_c   7.93971673
_cell_angle_alpha   90.00000000
_cell_angle_beta   90.00000000
_cell_angle_gamma   90.00000000
_symmetry_Int_Tables_number   1
_chemical_formula_structural   TiMnGe2
_chemical_formula_sum   'Ti12 Mn12 Ge24'
_cell_volume   700.43274101
_cell_formula_units_Z   12
loop_
 _symmetry_equiv_pos_site_id
 _symmetry_equiv_pos_as_xyz
  1  'x, y, z'
loop_
 _atom_site_type_symbol
 _atom_site_label
 _atom_site_symmetry_multiplicity
 _atom_site_fract_x
 _atom_site_fract_y
 _atom_site_fract_z
 _atom_site_occupancy
  Ti  Ti0  1  0.17006749  0.54725174  0.76098945  1.0
  Ti  Ti1  1  0.17006749  0.54725174  0.23901055  1.0
  Ti  Ti2  1  0.67006749  0.95274826  0.76098945  1.0
  Ti  Ti3  1  0.67006749  0.95274826  0.23901055  1.0
  Ti  Ti4  1  0.82993251  0.45274826  0.76098945  1.0
  Ti  Ti5  1  0.82993251  0.45274826  0.23901055  1.0
  Ti  Ti6  1  0.32993251  0.04725174  0.76098945  1.0
  Ti  Ti7  1  0.32993251  0.04725174  0.23901055  1.0
  Ti  Ti8  1  0.16361001  0.82042126  0.00000000  1.0
  Ti  Ti9  1  0.66361001  0.67957874  0.00000000  1.0
  Ti  Ti10  1  0.83638999  0.17957874  0.00000000  1.0
  Ti  Ti11  1  0.33638999  0.32042126  0.00000000  1.0
  Mn  Mn12  1  0.41560306  0.74891188  0.75160178  1.0
  Mn  Mn13  1  0.41560306  0.74891188  0.24839822  1.0
  Mn  Mn14  1  0.91560306  0.75108812  0.75160178  1.0
  Mn  Mn15  1  0.91560306  0.75108812  0.24839822  1.0
  Mn  Mn16  1  0.58439694  0.25108812  0.75160178  1.0
  Mn  Mn17  1  0.58439694  0.25108812  0.24839822  1.0
  Mn  Mn18  1  0.08439694  0.24891188  0.75160178  1.0
  Mn  Mn19  1  0.08439694  0.24891188  0.24839822  1.0
  Mn  Mn20  1  0.50000000  0.50000000  0.75635237  1.0
  Mn  Mn21  1  0.50000000  0.50000000  0.24364763  1.0
  Mn  Mn22  1  0.00000000  0.00000000  0.75635237  1.0
  Mn  Mn23  1  0.00000000  0.00000000  0.24364763  1.0
  Ge  Ge24  1  0.16915350  0.81788282  0.66346316  1.0
  Ge  Ge25  1  0.16915350  0.81788282  0.33653684  1.0
  Ge  Ge26  1  0.66915350  0.68211718  0.66346316  1.0
  Ge  Ge27  1  0.66915350  0.68211718  0.33653684  1.0
  Ge  Ge28  1  0.83084650  0.18211718  0.66346316  1.0
  Ge  Ge29  1  0.83084650  0.18211718  0.33653684  1.0
  Ge  Ge30  1  0.33084650  0.31788282  0.66346316  1.0
  Ge  Ge31  1  0.33084650  0.31788282  0.33653684  1.0
  Ge  Ge32  1  0.46655779  0.87640788  0.50000000  1.0
  Ge  Ge33  1  0.96655779  0.62359212  0.50000000  1.0
  Ge  Ge34  1  0.53344221  0.12359212  0.50000000  1.0
  Ge  Ge35  1  0.03344221  0.37640788  0.50000000  1.0
  Ge  Ge36  1  0.36410373  0.59494158  0.50000000  1.0
  Ge  Ge37  1  0.86410373  0.90505842  0.50000000  1.0
  Ge  Ge38  1  0.63589627  0.40505842  0.50000000  1.0
  Ge  Ge39  1  0.13589627  0.09494158  0.50000000  1.0
  Ge  Ge40  1  0.45887976  0.87926975  0.00000000  1.0
  Ge  Ge41  1  0.95887976  0.62073025  0.00000000  1.0
  Ge  Ge42  1  0.54112024  0.12073025  0.00000000  1.0
  Ge  Ge43  1  0.04112024  0.37926975  0.00000000  1.0
  Ge  Ge44  1  0.36319689  0.60154370  0.00000000  1.0
  Ge  Ge45  1  0.86319689  0.89845630  0.00000000  1.0
  Ge  Ge46  1  0.63680311  0.39845630  0.00000000  1.0
  Ge  Ge47  1  0.13680311  0.10154370  0.00000000  1.0
