# generated using pymatgen
data_NaCd2(SiO3)3
_symmetry_space_group_name_H-M   'P 1'
_cell_length_a   7.07132176
_cell_length_b   6.98929473
_cell_length_c   7.94706538
_cell_angle_alpha   102.38706822
_cell_angle_beta   95.17209705
_cell_angle_gamma   90.23276581
_symmetry_Int_Tables_number   1
_chemical_formula_structural   NaCd2(SiO3)3
_chemical_formula_sum   'Na2 Cd4 Si6 O18'
_cell_volume   381.95620122
_cell_formula_units_Z   2
loop_
 _symmetry_equiv_pos_site_id
 _symmetry_equiv_pos_as_xyz
  1  'x, y, z'
loop_
 _atom_site_type_symbol
 _atom_site_label
 _atom_site_symmetry_multiplicity
 _atom_site_fract_x
 _atom_site_fract_y
 _atom_site_fract_z
 _atom_site_occupancy
  Si  Si0  1  0.84488340  0.95086647  0.71443519  1.0
  Si  Si1  1  0.15511660  0.04913353  0.28556481  1.0
  Si  Si2  1  0.83957776  0.40575992  0.71726016  1.0
  Si  Si3  1  0.16042224  0.59424008  0.28273984  1.0
  Si  Si4  1  0.64544312  0.73576939  0.95382434  1.0
  Si  Si5  1  0.35455688  0.26423061  0.04617566  1.0
  Cd  Cd6  1  0.64845322  0.58885328  0.35563939  1.0
  Cd  Cd7  1  0.35154678  0.41114672  0.64436061  1.0
  Cd  Cd8  1  0.36080265  0.91406927  0.65058991  1.0
  Cd  Cd9  1  0.63919735  0.08593073  0.34941009  1.0
  O  O10  1  0.88610103  0.18981341  0.76237769  1.0
  O  O11  1  0.11389897  0.81018659  0.23762231  1.0
  O  O12  1  0.77770470  0.90928285  0.89916304  1.0
  O  O13  1  0.22229530  0.09071715  0.10083696  1.0
  O  O14  1  0.77017223  0.53215008  0.90329793  1.0
  O  O15  1  0.22982777  0.46784992  0.09670207  1.0
  O  O16  1  0.67641604  0.89129659  0.55678656  1.0
  O  O17  1  0.32358396  0.10870341  0.44321344  1.0
  O  O18  1  0.66948844  0.38965940  0.56247976  1.0
  O  O19  1  0.33051156  0.61034060  0.43752024  1.0
  O  O20  1  0.62631037  0.78910820  0.16049706  1.0
  O  O21  1  0.37368963  0.21089180  0.83950294  1.0
  O  O22  1  0.44472100  0.70866604  0.83207141  1.0
  O  O23  1  0.55527900  0.29133396  0.16792859  1.0
  O  O24  1  0.95423108  0.50154161  0.30731289  1.0
  O  O25  1  0.04576892  0.49845839  0.69268711  1.0
  O  O26  1  0.04780190  0.84660513  0.67894342  1.0
  O  O27  1  0.95219810  0.15339487  0.32105658  1.0
  Na  Na28  1  0.15095520  0.73760870  0.93737418  1.0
  Na  Na29  1  0.84904480  0.26239130  0.06262582  1.0
