# generated using pymatgen
data_Tl2Te3
_symmetry_space_group_name_H-M   'P 1'
_cell_length_a   8.30827613
_cell_length_b   8.30827613
_cell_length_c   10.20937171
_cell_angle_alpha   60.20089249
_cell_angle_beta   119.79910751
_cell_angle_gamma   137.77097687
_symmetry_Int_Tables_number   1
_chemical_formula_structural   Tl2Te3
_chemical_formula_sum   'Tl4 Te6'
_cell_volume   400.83896946
_cell_formula_units_Z   2
loop_
 _symmetry_equiv_pos_site_id
 _symmetry_equiv_pos_as_xyz
  1  'x, y, z'
loop_
 _atom_site_type_symbol
 _atom_site_label
 _atom_site_symmetry_multiplicity
 _atom_site_fract_x
 _atom_site_fract_y
 _atom_site_fract_z
 _atom_site_occupancy
  Tl  Tl0  1  0.83987812  0.44509599  0.45171058  1.0
  Tl  Tl1  1  0.55490401  0.16012188  -0.04828942  1.0
  Tl  Tl2  1  1.12230602  0.35192196  0.20890418  1.0
  Tl  Tl3  1  0.64807804  -0.12230602  0.70890418  1.0
  Te  Te4  1  0.94430071  0.83948853  0.55990350  1.0
  Te  Te5  1  0.16051147  0.05569929  0.05990350  1.0
  Te  Te6  1  1.19414642  0.67170925  0.81606843  1.0
  Te  Te7  1  0.32829075  -0.19414642  0.31606843  1.0
  Te  Te8  1  0.44211976  0.43653532  0.58241331  1.0
  Te  Te9  1  0.56346468  0.55788024  0.08241331  1.0
