# generated using pymatgen
data_NO3
_symmetry_space_group_name_H-M   'P 1'
_cell_length_a   7.90564539
_cell_length_b   9.45168151
_cell_length_c   8.63471372
_cell_angle_alpha   90.00000000
_cell_angle_beta   123.33574269
_cell_angle_gamma   90.00000000
_symmetry_Int_Tables_number   1
_chemical_formula_structural   NO3
_chemical_formula_sum   'N8 O24'
_cell_volume   539.04181836
_cell_formula_units_Z   8
loop_
 _symmetry_equiv_pos_site_id
 _symmetry_equiv_pos_as_xyz
  1  'x, y, z'
loop_
 _atom_site_type_symbol
 _atom_site_label
 _atom_site_symmetry_multiplicity
 _atom_site_fract_x
 _atom_site_fract_y
 _atom_site_fract_z
 _atom_site_occupancy
  N  N0  1  0.97279140  0.42676001  0.26671072  1.0
  N  N1  1  0.97279140  0.07323999  0.76671072  1.0
  N  N2  1  0.02720860  0.92676001  0.23328928  1.0
  N  N3  1  0.02720860  0.57323999  0.73328928  1.0
  N  N4  1  0.52424957  0.26218887  0.30079972  1.0
  N  N5  1  0.52424957  0.23781113  0.80079972  1.0
  N  N6  1  0.47575043  0.76218887  0.19920028  1.0
  N  N7  1  0.47575043  0.73781113  0.69920028  1.0
  O  O8  1  0.40275283  0.27681368  0.13071681  1.0
  O  O9  1  0.40275283  0.22318632  0.63071681  1.0
  O  O10  1  0.59724717  0.77681368  0.36928319  1.0
  O  O11  1  0.59724717  0.72318632  0.86928319  1.0
  O  O12  1  0.58060590  0.36745840  0.40435838  1.0
  O  O13  1  0.58060590  0.13254160  0.90435838  1.0
  O  O14  1  0.41939410  0.86745840  0.09564162  1.0
  O  O15  1  0.41939410  0.63254160  0.59564162  1.0
  O  O16  1  0.58935468  0.14261432  0.36753934  1.0
  O  O17  1  0.58935468  0.35738568  0.86753934  1.0
  O  O18  1  0.41064532  0.64261432  0.13246066  1.0
  O  O19  1  0.41064532  0.85738568  0.63246066  1.0
  O  O20  1  0.90934535  0.93001283  0.28615736  1.0
  O  O21  1  0.90934535  0.56998717  0.78615736  1.0
  O  O22  1  0.09065465  0.43001283  0.21384264  1.0
  O  O23  1  0.09065465  0.06998717  0.71384264  1.0
  O  O24  1  0.89206010  0.96212775  0.77301793  1.0
  O  O25  1  0.89206010  0.53787225  0.27301793  1.0
  O  O26  1  0.10793990  0.46212775  0.72698207  1.0
  O  O27  1  0.10793990  0.03787225  0.22698207  1.0
  O  O28  1  0.93500848  0.31256325  0.31349150  1.0
  O  O29  1  0.93500848  0.18743675  0.81349150  1.0
  O  O30  1  0.06499152  0.81256325  0.18650850  1.0
  O  O31  1  0.06499152  0.68743675  0.68650850  1.0
