# generated using pymatgen
data_Ga2O3
_symmetry_space_group_name_H-M   'P 1'
_cell_length_a   4.89859614
_cell_length_b   4.89859614
_cell_length_c   7.28715850
_cell_angle_alpha   90.00000000
_cell_angle_beta   90.00000000
_cell_angle_gamma   146.58964340
_symmetry_Int_Tables_number   1
_chemical_formula_structural   Ga2O3
_chemical_formula_sum   'Ga4 O6'
_cell_volume   96.28588970
_cell_formula_units_Z   2
loop_
 _symmetry_equiv_pos_site_id
 _symmetry_equiv_pos_as_xyz
  1  'x, y, z'
loop_
 _atom_site_type_symbol
 _atom_site_label
 _atom_site_symmetry_multiplicity
 _atom_site_fract_x
 _atom_site_fract_y
 _atom_site_fract_z
 _atom_site_occupancy
  Ga  Ga0  1  0.00000000  0.00000000  0.50000000  1.0
  Ga  Ga1  1  0.00000000  0.00000000  0.00000000  1.0
  Ga  Ga2  1  -0.24776087  0.24776087  0.25000000  1.0
  Ga  Ga3  1  0.24776087  0.75223913  0.75000000  1.0
  O  O4  1  0.10730543  0.89269457  0.25000000  1.0
  O  O5  1  -0.10730543  0.10730543  0.75000000  1.0
  O  O6  1  0.36323142  0.63676858  0.07491858  1.0
  O  O7  1  -0.36323142  0.36323142  0.92508142  1.0
  O  O8  1  0.36323142  0.63676858  0.42508142  1.0
  O  O9  1  -0.36323142  0.36323142  0.57491858  1.0
