# generated using pymatgen
data_HfAs2O9
_symmetry_space_group_name_H-M   'P 1'
_cell_length_a   9.19128951
_cell_length_b   5.54821232
_cell_length_c   16.07803509
_cell_angle_alpha   90.00000000
_cell_angle_beta   109.87722892
_cell_angle_gamma   90.00000000
_symmetry_Int_Tables_number   1
_chemical_formula_structural   HfAs2O9
_chemical_formula_sum   'Hf4 As8 O36'
_cell_volume   771.05593661
_cell_formula_units_Z   4
loop_
 _symmetry_equiv_pos_site_id
 _symmetry_equiv_pos_as_xyz
  1  'x, y, z'
loop_
 _atom_site_type_symbol
 _atom_site_label
 _atom_site_symmetry_multiplicity
 _atom_site_fract_x
 _atom_site_fract_y
 _atom_site_fract_z
 _atom_site_occupancy
  Hf  Hf0  1  0.77068096  0.27820687  0.03432108  1.0
  Hf  Hf1  1  0.77068096  0.22179313  0.53432108  1.0
  Hf  Hf2  1  0.22931904  0.77820687  0.46567892  1.0
  Hf  Hf3  1  0.22931904  0.72179313  0.96567892  1.0
  O  O4  1  0.93868131  0.48836030  0.12750608  1.0
  O  O5  1  0.93868131  0.01163970  0.62750608  1.0
  O  O6  1  0.06131869  0.98836030  0.37249392  1.0
  O  O7  1  0.06131869  0.51163970  0.87249392  1.0
  O  O8  1  0.92000128  0.28662556  0.46608144  1.0
  O  O9  1  0.92000128  0.21337444  0.96608144  1.0
  O  O10  1  0.07999872  0.78662556  0.03391856  1.0
  O  O11  1  0.07999872  0.71337444  0.53391856  1.0
  O  O12  1  0.86848079  0.98273713  0.11122072  1.0
  O  O13  1  0.86848079  0.51726287  0.61122072  1.0
  O  O14  1  0.13151921  0.48273713  0.38877928  1.0
  O  O15  1  0.13151921  0.01726287  0.88877928  1.0
  O  O16  1  0.70550053  0.91649833  0.45556291  1.0
  O  O17  1  0.70550053  0.58350167  0.95556291  1.0
  O  O18  1  0.29449947  0.41649833  0.04443709  1.0
  O  O19  1  0.29449947  0.08350167  0.54443709  1.0
  O  O20  1  0.61365412  0.32125518  0.09887758  1.0
  O  O21  1  0.61365412  0.17874482  0.59887758  1.0
  O  O22  1  0.38634588  0.82125518  0.40112242  1.0
  O  O23  1  0.38634588  0.67874482  0.90112242  1.0
  O  O24  1  0.60231037  0.43181120  0.44361276  1.0
  O  O25  1  0.60231037  0.06818880  0.94361276  1.0
  O  O26  1  0.39768963  0.93181120  0.05638724  1.0
  O  O27  1  0.39768963  0.56818880  0.55638724  1.0
  O  O28  1  0.21495302  0.19756819  0.20796025  1.0
  O  O29  1  0.21495302  0.30243181  0.70796025  1.0
  O  O30  1  0.78504698  0.69756819  0.29203975  1.0
  O  O31  1  0.78504698  0.80243181  0.79203975  1.0
  O  O32  1  0.44716984  0.18439101  0.21134546  1.0
  O  O33  1  0.44716984  0.31560899  0.71134546  1.0
  O  O34  1  0.55283016  0.68439101  0.28865454  1.0
  O  O35  1  0.55283016  0.81560899  0.78865454  1.0
  O  O36  1  0.82508332  0.32674006  0.28557636  1.0
  O  O37  1  0.82508332  0.17325994  0.78557636  1.0
  O  O38  1  0.17491668  0.82674006  0.21442364  1.0
  O  O39  1  0.17491668  0.67325994  0.71442364  1.0
  As  As40  1  0.98975007  0.27192336  0.37934946  1.0
  As  As41  1  0.98975007  0.22807664  0.87934946  1.0
  As  As42  1  0.01024993  0.77192336  0.12065054  1.0
  As  As43  1  0.01024993  0.72807664  0.62065054  1.0
  As  As44  1  0.43797455  0.21795493  0.10003091  1.0
  As  As45  1  0.43797455  0.28204507  0.60003091  1.0
  As  As46  1  0.56202545  0.71795493  0.39996909  1.0
  As  As47  1  0.56202545  0.78204507  0.89996909  1.0
