# generated using pymatgen
data_BaP2(HO2)4
_symmetry_space_group_name_H-M   'P 1'
_cell_length_a   7.75512381
_cell_length_b   10.80376414
_cell_length_c   8.67584869
_cell_angle_alpha   90.00000000
_cell_angle_beta   90.00000000
_cell_angle_gamma   90.00000000
_symmetry_Int_Tables_number   1
_chemical_formula_structural   BaP2(HO2)4
_chemical_formula_sum   'Ba4 P8 H16 O32'
_cell_volume   726.90189247
_cell_formula_units_Z   4
loop_
 _symmetry_equiv_pos_site_id
 _symmetry_equiv_pos_as_xyz
  1  'x, y, z'
loop_
 _atom_site_type_symbol
 _atom_site_label
 _atom_site_symmetry_multiplicity
 _atom_site_fract_x
 _atom_site_fract_y
 _atom_site_fract_z
 _atom_site_occupancy
  Ba  Ba0  1  0.75000000  0.25000000  0.10266594  1.0
  Ba  Ba1  1  0.75000000  0.25000000  0.60266594  1.0
  Ba  Ba2  1  0.25000000  0.75000000  0.89733406  1.0
  Ba  Ba3  1  0.25000000  0.75000000  0.39733406  1.0
  P  P4  1  0.92733166  0.92029289  0.20712649  1.0
  P  P5  1  0.92733166  0.57970711  0.70712649  1.0
  P  P6  1  0.42733166  0.42029289  0.79287351  1.0
  P  P7  1  0.42733166  0.07970711  0.29287351  1.0
  P  P8  1  0.07266834  0.42029289  0.29287351  1.0
  P  P9  1  0.07266834  0.07970711  0.79287351  1.0
  P  P10  1  0.57266834  0.92029289  0.70712649  1.0
  P  P11  1  0.57266834  0.57970711  0.20712649  1.0
  H  H12  1  0.91458406  0.57582756  0.20853762  1.0
  H  H13  1  0.91458406  0.92417244  0.70853762  1.0
  H  H14  1  0.41458406  0.07582756  0.79146238  1.0
  H  H15  1  0.41458406  0.42417244  0.29146238  1.0
  H  H16  1  0.08541594  0.07582756  0.29146238  1.0
  H  H17  1  0.08541594  0.42417244  0.79146238  1.0
  H  H18  1  0.58541594  0.57582756  0.70853762  1.0
  H  H19  1  0.58541594  0.92417244  0.20853762  1.0
  H  H20  1  0.82586704  0.88535321  0.45376907  1.0
  H  H21  1  0.82586704  0.61464679  0.95376907  1.0
  H  H22  1  0.32586704  0.38535321  0.54623093  1.0
  H  H23  1  0.32586704  0.11464679  0.04623093  1.0
  H  H24  1  0.17413296  0.38535321  0.04623093  1.0
  H  H25  1  0.17413296  0.11464679  0.54623093  1.0
  H  H26  1  0.67413296  0.88535321  0.95376907  1.0
  H  H27  1  0.67413296  0.61464679  0.45376907  1.0
  O  O28  1  0.91018772  0.85552707  0.37303749  1.0
  O  O29  1  0.91018772  0.64447293  0.87303749  1.0
  O  O30  1  0.41018772  0.35552707  0.62696251  1.0
  O  O31  1  0.41018772  0.14447293  0.12696251  1.0
  O  O32  1  0.08981228  0.35552707  0.12696251  1.0
  O  O33  1  0.08981228  0.14447293  0.62696251  1.0
  O  O34  1  0.58981228  0.85552707  0.87303749  1.0
  O  O35  1  0.58981228  0.64447293  0.37303749  1.0
  O  O36  1  0.75658448  0.92125381  0.11930445  1.0
  O  O37  1  0.75658448  0.57874619  0.61930445  1.0
  O  O38  1  0.25658448  0.42125381  0.88069555  1.0
  O  O39  1  0.25658448  0.07874619  0.38069555  1.0
  O  O40  1  0.24341552  0.42125381  0.38069555  1.0
  O  O41  1  0.24341552  0.07874619  0.88069555  1.0
  O  O42  1  0.74341552  0.92125381  0.61930445  1.0
  O  O43  1  0.74341552  0.57874619  0.11930445  1.0
  O  O44  1  0.46820574  0.93630349  0.26168481  1.0
  O  O45  1  0.46820574  0.56369651  0.76168481  1.0
  O  O46  1  0.96820574  0.43630349  0.73831519  1.0
  O  O47  1  0.96820574  0.06369651  0.23831519  1.0
  O  O48  1  0.53179426  0.43630349  0.23831519  1.0
  O  O49  1  0.53179426  0.06369651  0.73831519  1.0
  O  O50  1  0.03179426  0.93630349  0.76168481  1.0
  O  O51  1  0.03179426  0.56369651  0.26168481  1.0
  O  O52  1  0.41891192  0.64618592  0.13689541  1.0
  O  O53  1  0.41891192  0.85381408  0.63689541  1.0
  O  O54  1  0.91891192  0.14618592  0.86310459  1.0
  O  O55  1  0.91891192  0.35381408  0.36310459  1.0
  O  O56  1  0.58108808  0.14618592  0.36310459  1.0
  O  O57  1  0.58108808  0.35381408  0.86310459  1.0
  O  O58  1  0.08108808  0.64618592  0.63689541  1.0
  O  O59  1  0.08108808  0.85381408  0.13689541  1.0
