# generated using pymatgen
data_NiB4O7
_symmetry_space_group_name_H-M   'P 1'
_cell_length_a   6.32738211
_cell_length_b   6.32738211
_cell_length_c   5.21901249
_cell_angle_alpha   90.00000000
_cell_angle_beta   90.00000000
_cell_angle_gamma   60.69696685
_symmetry_Int_Tables_number   1
_chemical_formula_structural   NiB4O7
_chemical_formula_sum   'Ni2 B8 O14'
_cell_volume   182.21097925
_cell_formula_units_Z   2
loop_
 _symmetry_equiv_pos_site_id
 _symmetry_equiv_pos_as_xyz
  1  'x, y, z'
loop_
 _atom_site_type_symbol
 _atom_site_label
 _atom_site_symmetry_multiplicity
 _atom_site_fract_x
 _atom_site_fract_y
 _atom_site_fract_z
 _atom_site_occupancy
  Ni  Ni0  1  -0.26206984  1.26206984  0.25000000  1.0
  Ni  Ni1  1  0.26206984  0.73793016  0.75000000  1.0
  B  B2  1  0.06777742  0.70112588  0.25000000  1.0
  B  B3  1  -0.29887412  1.06777742  0.75000000  1.0
  B  B4  1  0.29887412  0.93222258  0.25000000  1.0
  B  B5  1  -0.06777742  1.29887412  0.75000000  1.0
  B  B6  1  0.70093531  0.70093531  0.50000000  1.0
  B  B7  1  0.70093531  0.70093531  0.00000000  1.0
  B  B8  1  0.29906469  0.29906469  0.50000000  1.0
  B  B9  1  0.29906469  0.29906469  0.00000000  1.0
  O  O10  1  0.18776932  0.56035108  0.47643889  1.0
  O  O11  1  0.18776932  0.56035108  0.02356111  1.0
  O  O12  1  -0.43964892  1.18776932  0.97643889  1.0
  O  O13  1  -0.43964892  1.18776932  0.52356111  1.0
  O  O14  1  0.43964892  0.81223068  0.47643889  1.0
  O  O15  1  0.43964892  0.81223068  0.02356111  1.0
  O  O16  1  -0.18776932  1.43964892  0.97643889  1.0
  O  O17  1  -0.18776932  1.43964892  0.52356111  1.0
  O  O18  1  -0.19985583  1.75411278  0.25000000  1.0
  O  O19  1  0.75411278  0.80014417  0.75000000  1.0
  O  O20  1  -0.75411278  1.19985583  0.25000000  1.0
  O  O21  1  0.19985583  0.24588722  0.75000000  1.0
  O  O22  1  0.06556894  0.93443106  0.25000000  1.0
  O  O23  1  -0.06556894  1.06556894  0.75000000  1.0
