# generated using pymatgen
data_RbLu(MoO4)2
_symmetry_space_group_name_H-M   'P 1'
_cell_length_a   7.46897238
_cell_length_b   7.46897238
_cell_length_c   7.78475601
_cell_angle_alpha   61.49960182
_cell_angle_beta   118.50039818
_cell_angle_gamma   92.64345593
_symmetry_Int_Tables_number   1
_chemical_formula_structural   RbLu(MoO4)2
_chemical_formula_sum   'Rb2 Lu2 Mo4 O16'
_cell_volume   325.99773004
_cell_formula_units_Z   2
loop_
 _symmetry_equiv_pos_site_id
 _symmetry_equiv_pos_as_xyz
  1  'x, y, z'
loop_
 _atom_site_type_symbol
 _atom_site_label
 _atom_site_symmetry_multiplicity
 _atom_site_fract_x
 _atom_site_fract_y
 _atom_site_fract_z
 _atom_site_occupancy
  Rb  Rb0  1  0.19308247  0.19308247  0.25000000  1.0
  Rb  Rb1  1  0.80691753  0.80691753  0.75000000  1.0
  Lu  Lu2  1  0.77143418  0.77143418  0.25000000  1.0
  Lu  Lu3  1  0.22856582  0.22856582  0.75000000  1.0
  Mo  Mo4  1  0.69282974  0.30219725  0.23728986  1.0
  Mo  Mo5  1  0.69780275  0.30717026  0.73728986  1.0
  Mo  Mo6  1  1.30219725  -0.30717026  0.26271014  1.0
  Mo  Mo7  1  1.30717026  -0.30219725  0.76271014  1.0
  O  O8  1  1.58721135  -0.36978486  0.03646953  1.0
  O  O9  1  1.36978486  -0.58721135  0.53646953  1.0
  O  O10  1  0.63021514  0.58721135  0.46353047  1.0
  O  O11  1  0.41278865  0.36978486  0.96353047  1.0
  O  O12  1  0.78436353  0.04965915  0.29696210  1.0
  O  O13  1  0.95034085  0.21563647  0.79696210  1.0
  O  O14  1  1.04965915  -0.21563647  0.20303790  1.0
  O  O15  1  1.21563647  -0.04965915  0.70303790  1.0
  O  O16  1  1.37513073  -0.06647495  0.12006006  1.0
  O  O17  1  1.06647495  -0.37513073  0.62006006  1.0
  O  O18  1  0.93352505  0.37513073  0.37993994  1.0
  O  O19  1  0.62486927  0.06647495  0.87993994  1.0
  O  O20  1  0.60943899  0.23185367  0.43224532  1.0
  O  O21  1  0.76814633  0.39056101  0.93224532  1.0
  O  O22  1  1.23185367  -0.39056101  0.06775468  1.0
  O  O23  1  1.39056101  -0.23185367  0.56775468  1.0
