# generated using pymatgen
data_YMgPd
_symmetry_space_group_name_H-M   'P 1'
_cell_length_a   7.47779011
_cell_length_b   7.47779011
_cell_length_c   4.05675589
_cell_angle_alpha   90.00000000
_cell_angle_beta   90.00000000
_cell_angle_gamma   120.00000000
_symmetry_Int_Tables_number   1
_chemical_formula_structural   YMgPd
_chemical_formula_sum   'Y3 Mg3 Pd3'
_cell_volume   196.45181686
_cell_formula_units_Z   3
loop_
 _symmetry_equiv_pos_site_id
 _symmetry_equiv_pos_as_xyz
  1  'x, y, z'
loop_
 _atom_site_type_symbol
 _atom_site_label
 _atom_site_symmetry_multiplicity
 _atom_site_fract_x
 _atom_site_fract_y
 _atom_site_fract_z
 _atom_site_occupancy
  Y  Y0  1  0.41209018  0.41209018  -0.00000000  1.0
  Y  Y1  1  0.00000000  0.58790982  0.00000000  1.0
  Y  Y2  1  0.58790982  -0.00000000  0.00000000  1.0
  Mg  Mg3  1  0.75485830  0.75485830  0.50000000  1.0
  Mg  Mg4  1  -0.00000000  0.24514170  0.50000000  1.0
  Mg  Mg5  1  0.24514170  -0.00000000  0.50000000  1.0
  Pd  Pd6  1  0.33333333  0.66666667  0.50000000  1.0
  Pd  Pd7  1  0.66666667  0.33333333  0.50000000  1.0
  Pd  Pd8  1  -0.00000000  -0.00000000  0.00000000  1.0
