# generated using pymatgen
data_CsTaF6
_symmetry_space_group_name_H-M   'P 1'
_cell_length_a   5.51216010
_cell_length_b   5.51216010
_cell_length_c   5.51216010
_cell_angle_alpha   96.22810321
_cell_angle_beta   96.22810321
_cell_angle_gamma   96.22810321
_symmetry_Int_Tables_number   1
_chemical_formula_structural   CsTaF6
_chemical_formula_sum   'Cs1 Ta1 F6'
_cell_volume   164.27980158
_cell_formula_units_Z   1
loop_
 _symmetry_equiv_pos_site_id
 _symmetry_equiv_pos_as_xyz
  1  'x, y, z'
loop_
 _atom_site_type_symbol
 _atom_site_label
 _atom_site_symmetry_multiplicity
 _atom_site_fract_x
 _atom_site_fract_y
 _atom_site_fract_z
 _atom_site_occupancy
  Cs  Cs0  1  0.50000000  0.50000000  0.50000000  1.0
  Ta  Ta1  1  0.00000000  0.00000000  0.00000000  1.0
  F  F2  1  1.24347170  0.24347170  -0.08581109  1.0
  F  F3  1  1.24347170  -0.08581109  0.24347170  1.0
  F  F4  1  1.08581109  0.75652830  -0.24347170  1.0
  F  F5  1  0.75652830  1.08581109  -0.24347170  1.0
  F  F6  1  0.75652830  0.75652830  0.08581109  1.0
  F  F7  1  0.91418891  0.24347170  0.24347170  1.0
