# generated using pymatgen
data_CsHC8(N2O)2
_symmetry_space_group_name_H-M   'P 1'
_cell_length_a   6.03663188
_cell_length_b   9.90565057
_cell_length_c   10.23040775
_cell_angle_alpha   116.70250382
_cell_angle_beta   95.48374851
_cell_angle_gamma   93.43071492
_symmetry_Int_Tables_number   1
_chemical_formula_structural   CsHC8(N2O)2
_chemical_formula_sum   'Cs2 H2 C16 N8 O4'
_cell_volume   540.35657662
_cell_formula_units_Z   2
loop_
 _symmetry_equiv_pos_site_id
 _symmetry_equiv_pos_as_xyz
  1  'x, y, z'
loop_
 _atom_site_type_symbol
 _atom_site_label
 _atom_site_symmetry_multiplicity
 _atom_site_fract_x
 _atom_site_fract_y
 _atom_site_fract_z
 _atom_site_occupancy
  Cs  Cs0  1  -0.92575347  -0.97741894  -0.73196917  1.0
  Cs  Cs1  1  -0.07424653  -0.02258106  -0.26803083  1.0
  H  H2  1  -0.97549694  -0.60975368  -0.11761394  1.0
  H  H3  1  -0.02450306  -0.39024632  -0.88238606  1.0
  C  C4  1  -0.77815489  -0.53539062  -0.64345426  1.0
  C  C5  1  -0.22184511  -0.46460938  -0.35654574  1.0
  C  C6  1  -0.73487781  -0.64153946  -0.26742813  1.0
  C  C7  1  -0.26512219  -0.35846054  -0.73257187  1.0
  C  C8  1  -0.60647930  -0.42711080  -0.63561362  1.0
  C  C9  1  -0.39352070  -0.57288920  -0.36438638  1.0
  C  C10  1  -0.58838515  -0.74354339  -0.92349980  1.0
  C  C11  1  -0.41161485  -0.25645661  -0.07650020  1.0
  C  C12  1  -0.45762294  -0.46869409  -0.73998509  1.0
  C  C13  1  -0.54237706  -0.53130591  -0.26001491  1.0
  C  C14  1  -0.44702622  -0.60643749  -0.86589129  1.0
  C  C15  1  -0.55297378  -0.39356251  -0.13410871  1.0
  C  C16  1  -0.40007961  -0.72164261  -0.48172200  1.0
  C  C17  1  -0.59992039  -0.27835739  -0.51827800  1.0
  C  C18  1  -0.26127168  -0.58585221  -0.93854660  1.0
  C  C19  1  -0.73872832  -0.41414779  -0.06145340  1.0
  N  N20  1  -0.91794287  -0.62666782  -0.65146553  1.0
  N  N21  1  -0.08205713  -0.37333218  -0.34853447  1.0
  N  N22  1  -0.83950348  -0.56372124  -0.14574677  1.0
  N  N23  1  -0.16049652  -0.43627876  -0.85425323  1.0
  N  N24  1  -0.70670899  -0.85804955  -0.97417537  1.0
  N  N25  1  -0.29329101  -0.14195045  -0.02582463  1.0
  N  N26  1  -0.39175554  -0.84095985  -0.58093155  1.0
  N  N27  1  -0.60824446  -0.15904015  -0.41906845  1.0
  O  O28  1  -0.80198555  -0.32217414  -0.94547465  1.0
  O  O29  1  -0.19801445  -0.67782586  -0.05452535  1.0
  O  O30  1  -0.78950951  -0.77341503  -0.36199981  1.0
  O  O31  1  -0.21049049  -0.22658497  -0.63800019  1.0
