# generated using pymatgen
data_NaH3O2
_symmetry_space_group_name_H-M   'P 1'
_cell_length_a   6.31235324
_cell_length_b   11.65849789
_cell_length_c   6.12652977
_cell_angle_alpha   90.00000000
_cell_angle_beta   90.00000000
_cell_angle_gamma   90.00000000
_symmetry_Int_Tables_number   1
_chemical_formula_structural   NaH3O2
_chemical_formula_sum   'Na8 H24 O16'
_cell_volume   450.86699084
_cell_formula_units_Z   8
loop_
 _symmetry_equiv_pos_site_id
 _symmetry_equiv_pos_as_xyz
  1  'x, y, z'
loop_
 _atom_site_type_symbol
 _atom_site_label
 _atom_site_symmetry_multiplicity
 _atom_site_fract_x
 _atom_site_fract_y
 _atom_site_fract_z
 _atom_site_occupancy
  Na  Na0  1  0.18471122  0.43590466  0.35780453  1.0
  Na  Na1  1  0.18471122  0.06409534  0.85780453  1.0
  Na  Na2  1  0.68471122  0.43590466  0.14219547  1.0
  Na  Na3  1  0.68471122  0.06409534  0.64219547  1.0
  Na  Na4  1  0.81528878  0.93590466  0.14219547  1.0
  Na  Na5  1  0.81528878  0.56409534  0.64219547  1.0
  Na  Na6  1  0.31528878  0.93590466  0.35780453  1.0
  Na  Na7  1  0.31528878  0.56409534  0.85780453  1.0
  H  H8  1  0.41478378  0.13549298  0.26515293  1.0
  H  H9  1  0.41478378  0.36450702  0.76515293  1.0
  H  H10  1  0.91478378  0.13549298  0.23484707  1.0
  H  H11  1  0.91478378  0.36450702  0.73484707  1.0
  H  H12  1  0.58521622  0.63549298  0.23484707  1.0
  H  H13  1  0.58521622  0.86450702  0.73484707  1.0
  H  H14  1  0.08521622  0.63549298  0.26515293  1.0
  H  H15  1  0.08521622  0.86450702  0.76515293  1.0
  H  H16  1  0.36725095  0.29754052  0.05336696  1.0
  H  H17  1  0.36725095  0.20245948  0.55336696  1.0
  H  H18  1  0.86725095  0.29754052  0.44663304  1.0
  H  H19  1  0.86725095  0.20245948  0.94663304  1.0
  H  H20  1  0.63274905  0.79754052  0.44663304  1.0
  H  H21  1  0.63274905  0.70245948  0.94663304  1.0
  H  H22  1  0.13274905  0.79754052  0.05336696  1.0
  H  H23  1  0.13274905  0.70245948  0.55336696  1.0
  H  H24  1  0.09092282  0.13311056  0.43485065  1.0
  H  H25  1  0.09092282  0.36688944  0.93485065  1.0
  H  H26  1  0.59092282  0.13311056  0.06514935  1.0
  H  H27  1  0.59092282  0.36688944  0.56514935  1.0
  H  H28  1  0.90907718  0.63311056  0.06514935  1.0
  H  H29  1  0.90907718  0.86688944  0.56514935  1.0
  H  H30  1  0.40907718  0.63311056  0.43485065  1.0
  H  H31  1  0.40907718  0.86688944  0.93485065  1.0
  O  O32  1  0.43425348  0.13614576  0.10059275  1.0
  O  O33  1  0.43425348  0.36385424  0.60059275  1.0
  O  O34  1  0.93425348  0.13614576  0.39940725  1.0
  O  O35  1  0.93425348  0.36385424  0.89940725  1.0
  O  O36  1  0.56574652  0.63614576  0.39940725  1.0
  O  O37  1  0.56574652  0.86385424  0.89940725  1.0
  O  O38  1  0.06574652  0.63614576  0.10059275  1.0
  O  O39  1  0.06574652  0.86385424  0.60059275  1.0
  O  O40  1  0.34243275  0.37928074  0.02269599  1.0
  O  O41  1  0.34243275  0.12071926  0.52269599  1.0
  O  O42  1  0.84243275  0.37928074  0.47730401  1.0
  O  O43  1  0.84243275  0.12071926  0.97730401  1.0
  O  O44  1  0.65756725  0.87928074  0.47730401  1.0
  O  O45  1  0.65756725  0.62071926  0.97730401  1.0
  O  O46  1  0.15756725  0.87928074  0.02269599  1.0
  O  O47  1  0.15756725  0.62071926  0.52269599  1.0
