# generated using pymatgen
data_SiB3
_symmetry_space_group_name_H-M   'P 1'
_cell_length_a   8.16808200
_cell_length_b   8.16808200
_cell_length_c   8.16808200
_cell_angle_alpha   79.23048516
_cell_angle_beta   118.47351411
_cell_angle_gamma   135.24355541
_symmetry_Int_Tables_number   1
_chemical_formula_structural   SiB3
_chemical_formula_sum   'Si8 B24'
_cell_volume   327.00006306
_cell_formula_units_Z   8
loop_
 _symmetry_equiv_pos_site_id
 _symmetry_equiv_pos_as_xyz
  1  'x, y, z'
loop_
 _atom_site_type_symbol
 _atom_site_label
 _atom_site_symmetry_multiplicity
 _atom_site_fract_x
 _atom_site_fract_y
 _atom_site_fract_z
 _atom_site_occupancy
  Si  Si0  1  0.83285846  0.81385271  1.01900574  1.0
  Si  Si1  1  0.70515303  0.18614729  0.51900574  1.0
  Si  Si2  1  1.29484697  0.81385271  1.48099426  1.0
  Si  Si3  1  1.16714154  0.18614729  0.98099426  1.0
  Si  Si4  1  1.50228581  1.34800450  1.34571869  1.0
  Si  Si5  1  1.49771419  0.84343289  0.84571869  1.0
  Si  Si6  1  1.49771419  1.65199550  1.65428131  1.0
  Si  Si7  1  1.50228581  1.15656711  1.15428131  1.0
  B  B8  1  0.89195078  0.89025619  1.27675453  1.0
  B  B9  1  0.88649835  0.38480375  0.77675453  1.0
  B  B10  1  0.88649835  1.10974381  1.50169459  1.0
  B  B11  1  0.89195078  0.61519625  1.00169459  1.0
  B  B12  1  1.11350165  0.89025619  1.49830541  1.0
  B  B13  1  1.10804922  0.38480375  0.99830541  1.0
  B  B14  1  1.10804922  1.10974381  1.72324547  1.0
  B  B15  1  1.11350165  0.61519625  1.22324547  1.0
  B  B16  1  0.97926040  0.65285980  0.82323513  1.0
  B  B17  1  0.67037532  0.84397472  0.32323513  1.0
  B  B18  1  0.67037532  0.34714020  0.82640060  1.0
  B  B19  1  0.97926040  1.15602528  0.32640060  1.0
  B  B20  1  1.32962468  0.65285980  1.17359940  1.0
  B  B21  1  1.02073960  0.84397472  0.67359940  1.0
  B  B22  1  1.02073960  0.34714020  1.17676487  1.0
  B  B23  1  1.32962468  1.15602528  0.67676487  1.0
  B  B24  1  1.22825725  1.15915486  1.43089760  1.0
  B  B25  1  0.77174275  0.20264035  0.93089760  1.0
  B  B26  1  0.77174275  0.84084514  1.56910240  1.0
  B  B27  1  1.22825725  0.79735965  1.06910240  1.0
  B  B28  1  1.22342902  0.64915338  0.92572436  1.0
  B  B29  1  0.77657098  0.70229534  1.42572436  1.0
  B  B30  1  0.77657098  0.35084662  1.07427564  1.0
  B  B31  1  1.22342902  1.29770466  1.57427564  1.0
