# generated using pymatgen
data_H2O2
_symmetry_space_group_name_H-M   'P 1'
_cell_length_a   8.41429625
_cell_length_b   8.41429625
_cell_length_c   8.41429625
_cell_angle_alpha   93.51670444
_cell_angle_beta   93.51670444
_cell_angle_gamma   151.32085705
_symmetry_Int_Tables_number   1
_chemical_formula_structural   H2O2
_chemical_formula_sum   'H8 O8'
_cell_volume   276.98877800
_cell_formula_units_Z   4
loop_
 _symmetry_equiv_pos_site_id
 _symmetry_equiv_pos_as_xyz
  1  'x, y, z'
loop_
 _atom_site_type_symbol
 _atom_site_label
 _atom_site_symmetry_multiplicity
 _atom_site_fract_x
 _atom_site_fract_y
 _atom_site_fract_z
 _atom_site_occupancy
  H  H0  1  1.19924453  0.38627322  0.81297131  1.0
  H  H1  1  0.17669809  -0.13627322  0.31297131  1.0
  H  H2  1  0.57330191  0.38627322  0.18702869  1.0
  H  H3  1  0.55075547  -0.13627322  0.68702869  1.0
  H  H4  1  0.61372678  0.42669809  0.81297131  1.0
  H  H5  1  1.13627322  1.44924453  1.31297131  1.0
  H  H6  1  0.61372678  0.80075547  1.18702869  1.0
  H  H7  1  1.13627322  0.82330191  0.68702869  1.0
  O  O8  1  0.71879143  -0.04626956  0.76506099  1.0
  O  O9  1  0.56133055  0.29626956  0.26506099  1.0
  O  O10  1  0.18866945  -0.04626956  0.23493901  1.0
  O  O11  1  1.03120857  0.29626956  0.73493901  1.0
  O  O12  1  1.04626956  0.81133055  0.76506099  1.0
  O  O13  1  0.70373044  0.96879143  1.26506099  1.0
  O  O14  1  1.04626956  1.28120857  1.23493901  1.0
  O  O15  1  0.70373044  0.43866945  0.73493901  1.0
