# generated using pymatgen
data_NaY(SeO3)2
_symmetry_space_group_name_H-M   'P 1'
_cell_length_a   12.91781893
_cell_length_b   8.76147961
_cell_length_c   5.47090274
_cell_angle_alpha   90.00000000
_cell_angle_beta   90.00000000
_cell_angle_gamma   90.00000000
_symmetry_Int_Tables_number   1
_chemical_formula_structural   NaY(SeO3)2
_chemical_formula_sum   'Na4 Y4 Se8 O24'
_cell_volume   619.19243469
_cell_formula_units_Z   4
loop_
 _symmetry_equiv_pos_site_id
 _symmetry_equiv_pos_as_xyz
  1  'x, y, z'
loop_
 _atom_site_type_symbol
 _atom_site_label
 _atom_site_symmetry_multiplicity
 _atom_site_fract_x
 _atom_site_fract_y
 _atom_site_fract_z
 _atom_site_occupancy
  Na  Na0  1  0.38291420  0.48560497  0.51332768  1.0
  Na  Na1  1  0.88291420  0.01439503  0.51332768  1.0
  Na  Na2  1  0.61708580  0.51439503  0.01332768  1.0
  Na  Na3  1  0.11708580  0.98560497  0.01332768  1.0
  Y  Y4  1  0.08792821  0.32682040  0.45800021  1.0
  Y  Y5  1  0.58792821  0.17317960  0.45800021  1.0
  Y  Y6  1  0.91207179  0.67317960  0.95800021  1.0
  Y  Y7  1  0.41207179  0.82682040  0.95800021  1.0
  Se  Se8  1  0.42156441  0.23099182  0.00979325  1.0
  Se  Se9  1  0.92156441  0.26900818  0.00979325  1.0
  Se  Se10  1  0.57843559  0.76900818  0.50979325  1.0
  Se  Se11  1  0.07843559  0.73099182  0.50979325  1.0
  Se  Se12  1  0.29710884  0.03168828  0.46263807  1.0
  Se  Se13  1  0.79710884  0.46831172  0.46263807  1.0
  Se  Se14  1  0.70289116  0.96831172  0.96263807  1.0
  Se  Se15  1  0.20289116  0.53168828  0.96263807  1.0
  O  O16  1  0.48773956  0.34464506  0.21173503  1.0
  O  O17  1  0.98773956  0.15535494  0.21173503  1.0
  O  O18  1  0.51226044  0.65535494  0.71173503  1.0
  O  O19  1  0.01226044  0.84464506  0.71173503  1.0
  O  O20  1  0.48439928  0.06133726  0.09499538  1.0
  O  O21  1  0.98439928  0.43866274  0.09499538  1.0
  O  O22  1  0.51560072  0.93866274  0.59499538  1.0
  O  O23  1  0.01560072  0.56133726  0.59499538  1.0
  O  O24  1  0.47665510  0.27754251  0.73493387  1.0
  O  O25  1  0.97665510  0.22245749  0.73493387  1.0
  O  O26  1  0.52334490  0.72245749  0.23493387  1.0
  O  O27  1  0.02334490  0.77754251  0.23493387  1.0
  O  O28  1  0.29542505  0.87748723  0.26741706  1.0
  O  O29  1  0.79542505  0.62251277  0.26741706  1.0
  O  O30  1  0.70457495  0.12251277  0.76741706  1.0
  O  O31  1  0.20457495  0.37748723  0.76741706  1.0
  O  O32  1  0.21573284  0.45079113  0.24991407  1.0
  O  O33  1  0.71573284  0.04920887  0.24991407  1.0
  O  O34  1  0.78426716  0.54920887  0.74991407  1.0
  O  O35  1  0.28426716  0.95079113  0.74991407  1.0
  O  O36  1  0.17457809  0.10195452  0.41454538  1.0
  O  O37  1  0.67457809  0.39804548  0.41454538  1.0
  O  O38  1  0.82542191  0.89804548  0.91454538  1.0
  O  O39  1  0.32542191  0.60195452  0.91454538  1.0
