# generated using pymatgen
data_Mg7P6(HO6)4
_symmetry_space_group_name_H-M   'P 1'
_cell_length_a   7.91546798
_cell_length_b   6.49624653
_cell_length_c   9.69112690
_cell_angle_alpha   69.02763966
_cell_angle_beta   67.87672127
_cell_angle_gamma   78.85618391
_symmetry_Int_Tables_number   1
_chemical_formula_structural   Mg7P6(HO6)4
_chemical_formula_sum   'Mg7 P6 H4 O24'
_cell_volume   430.06870662
_cell_formula_units_Z   1
loop_
 _symmetry_equiv_pos_site_id
 _symmetry_equiv_pos_as_xyz
  1  'x, y, z'
loop_
 _atom_site_type_symbol
 _atom_site_label
 _atom_site_symmetry_multiplicity
 _atom_site_fract_x
 _atom_site_fract_y
 _atom_site_fract_z
 _atom_site_occupancy
  Mg  Mg0  1  -0.78863892  -0.03689842  0.98587171  1.0
  Mg  Mg1  1  -0.21136108  0.03689842  0.01412829  1.0
  Mg  Mg2  1  -0.69186612  0.50848513  0.21465599  1.0
  Mg  Mg3  1  -0.30813388  -0.50848513  0.78534401  1.0
  Mg  Mg4  1  -0.95634438  -0.22521894  0.60907578  1.0
  Mg  Mg5  1  -0.04365562  0.22521894  0.39092422  1.0
  Mg  Mg6  1  -0.50000000  -0.50000000  0.50000000  1.0
  P  P7  1  -0.91856924  0.23902567  0.67272512  1.0
  P  P8  1  -0.08143076  -0.23902567  0.32727488  1.0
  P  P9  1  -0.35361059  0.05013890  0.72277557  1.0
  P  P10  1  -0.64638941  -0.05013890  0.27722443  1.0
  P  P11  1  -0.73290947  -0.46002230  0.87277061  1.0
  P  P12  1  -0.26709053  0.46002230  0.12722939  1.0
  H  H13  1  -0.62608207  0.13202222  0.69330636  1.0
  H  H14  1  -0.37391793  -0.13202222  0.30669364  1.0
  H  H15  1  -0.07774133  -0.30747830  0.93728189  1.0
  H  H16  1  -0.92225867  0.30747830  0.06271811  1.0
  O  O17  1  -0.32270051  0.14337520  0.83720173  1.0
  O  O18  1  -0.67729949  -0.14337520  0.16279827  1.0
  O  O19  1  -0.95468102  0.09487068  0.84710563  1.0
  O  O20  1  -0.04531898  -0.09487068  0.15289437  1.0
  O  O21  1  -0.71251766  0.29408358  0.59672319  1.0
  O  O22  1  -0.28748234  -0.29408358  0.40327681  1.0
  O  O23  1  -0.96086640  0.53937096  0.33561866  1.0
  O  O24  1  -0.03913360  -0.53937096  0.66438134  1.0
  O  O25  1  -0.56825859  0.02233659  0.77922398  1.0
  O  O26  1  -0.43174141  -0.02233659  0.22077602  1.0
  O  O27  1  -0.31247514  0.22403849  0.55591197  1.0
  O  O28  1  -0.68752486  -0.22403849  0.44408803  1.0
  O  O29  1  -0.96138591  0.10775789  0.58563310  1.0
  O  O30  1  -0.03861409  -0.10775789  0.41436690  1.0
  O  O31  1  -0.71134122  -0.36901374  0.99250057  1.0
  O  O32  1  -0.28865878  0.36901374  0.00749943  1.0
  O  O33  1  -0.25680557  -0.18139694  0.72840251  1.0
  O  O34  1  -0.74319443  0.18139694  0.27159749  1.0
  O  O35  1  -0.88517283  -0.33127509  0.80793181  1.0
  O  O36  1  -0.11482717  0.33127509  0.19206819  1.0
  O  O37  1  -0.54954166  -0.47768580  0.74204477  1.0
  O  O38  1  -0.45045834  0.47768580  0.25795523  1.0
  O  O39  1  -0.79934709  -0.70572339  0.97671251  1.0
  O  O40  1  -0.20065291  0.70572339  0.02328749  1.0
