# generated using pymatgen
data_Sc2MnSe4
_symmetry_space_group_name_H-M   'P 1'
_cell_length_a   7.87978263
_cell_length_b   7.87978263
_cell_length_c   7.87978263
_cell_angle_alpha   60.00000000
_cell_angle_beta   60.00000000
_cell_angle_gamma   60.00000000
_symmetry_Int_Tables_number   1
_chemical_formula_structural   Sc2MnSe4
_chemical_formula_sum   'Sc4 Mn2 Se8'
_cell_volume   345.96145463
_cell_formula_units_Z   2
loop_
 _symmetry_equiv_pos_site_id
 _symmetry_equiv_pos_as_xyz
  1  'x, y, z'
loop_
 _atom_site_type_symbol
 _atom_site_label
 _atom_site_symmetry_multiplicity
 _atom_site_fract_x
 _atom_site_fract_y
 _atom_site_fract_z
 _atom_site_occupancy
  Sc  Sc0  1  0.12500000  0.12500000  1.62500000  1.0
  Sc  Sc1  1  0.12500000  0.62500000  0.12500000  1.0
  Sc  Sc2  1  0.62500000  0.12500000  1.12500000  1.0
  Sc  Sc3  1  0.12500000  0.12500000  0.12500000  1.0
  Mn  Mn4  1  0.75000000  -0.25000000  0.75000000  1.0
  Mn  Mn5  1  0.50000000  0.50000000  -0.50000000  1.0
  Se  Se6  1  0.36912946  0.36912946  -0.10738837  1.0
  Se  Se7  1  0.36912946  -0.10738837  0.36912946  1.0
  Se  Se8  1  -0.10738837  0.36912946  0.36912946  1.0
  Se  Se9  1  0.36912946  0.36912946  0.36912946  1.0
  Se  Se10  1  -0.11912946  0.88087054  0.35738837  1.0
  Se  Se11  1  0.88087054  -0.64261163  0.88087054  1.0
  Se  Se12  1  -0.64261163  0.88087054  0.88087054  1.0
  Se  Se13  1  0.88087054  -0.11912946  0.88087054  1.0
