# generated using pymatgen
data_Na3Au
_symmetry_space_group_name_H-M   'P 1'
_cell_length_a   8.98747563
_cell_length_b   8.98747563
_cell_length_c   9.26895628
_cell_angle_alpha   90.00000000
_cell_angle_beta   90.00000000
_cell_angle_gamma   120.00000000
_symmetry_Int_Tables_number   1
_chemical_formula_structural   Na3Au
_chemical_formula_sum   'Na18 Au6'
_cell_volume   648.39090936
_cell_formula_units_Z   6
loop_
 _symmetry_equiv_pos_site_id
 _symmetry_equiv_pos_as_xyz
  1  'x, y, z'
loop_
 _atom_site_type_symbol
 _atom_site_label
 _atom_site_symmetry_multiplicity
 _atom_site_fract_x
 _atom_site_fract_y
 _atom_site_fract_z
 _atom_site_occupancy
  Na  Na0  1  0.94154666  0.63255232  0.07836963  1.0
  Na  Na1  1  0.94154666  0.30899434  0.57836963  1.0
  Na  Na2  1  0.63255232  0.94154666  0.42163037  1.0
  Na  Na3  1  0.63255232  0.69100566  0.92163037  1.0
  Na  Na4  1  0.69100566  0.63255232  0.57836963  1.0
  Na  Na5  1  0.69100566  0.05845334  0.07836963  1.0
  Na  Na6  1  0.36744768  0.05845334  0.57836963  1.0
  Na  Na7  1  0.36744768  0.30899434  0.07836963  1.0
  Na  Na8  1  0.05845334  0.69100566  0.42163037  1.0
  Na  Na9  1  0.05845334  0.36744768  0.92163037  1.0
  Na  Na10  1  0.30899434  0.94154666  0.92163037  1.0
  Na  Na11  1  0.30899434  0.36744768  0.42163037  1.0
  Na  Na12  1  0.33333333  0.66666667  0.18549968  1.0
  Na  Na13  1  0.33333333  0.66666667  0.68549968  1.0
  Na  Na14  1  0.66666667  0.33333333  0.31450032  1.0
  Na  Na15  1  0.66666667  0.33333333  0.81450032  1.0
  Na  Na16  1  -0.00000000  -0.00000000  0.25000000  1.0
  Na  Na17  1  0.00000000  0.00000000  0.75000000  1.0
  Au  Au18  1  0.65745090  0.65745090  0.25000000  1.0
  Au  Au19  1  0.65745090  0.00000000  0.75000000  1.0
  Au  Au20  1  -0.00000000  0.65745090  0.75000000  1.0
  Au  Au21  1  0.00000000  0.34254910  0.25000000  1.0
  Au  Au22  1  0.34254910  0.34254910  0.75000000  1.0
  Au  Au23  1  0.34254910  -0.00000000  0.25000000  1.0
