# generated using pymatgen
data_La10Se19
_symmetry_space_group_name_H-M   'P 1'
_cell_length_a   9.50846356
_cell_length_b   9.50846356
_cell_length_c   17.23565099
_cell_angle_alpha   90.00000000
_cell_angle_beta   90.00000000
_cell_angle_gamma   90.00000000
_symmetry_Int_Tables_number   1
_chemical_formula_structural   La10Se19
_chemical_formula_sum   'La20 Se38'
_cell_volume   1558.29036046
_cell_formula_units_Z   2
loop_
 _symmetry_equiv_pos_site_id
 _symmetry_equiv_pos_as_xyz
  1  'x, y, z'
loop_
 _atom_site_type_symbol
 _atom_site_label
 _atom_site_symmetry_multiplicity
 _atom_site_fract_x
 _atom_site_fract_y
 _atom_site_fract_z
 _atom_site_occupancy
  La  La0  1  0.40308998  0.70618005  0.86975171  1.0
  La  La1  1  0.59691002  0.29381995  0.86975171  1.0
  La  La2  1  0.20618005  0.09691002  0.36975171  1.0
  La  La3  1  0.79381995  0.90308998  0.36975171  1.0
  La  La4  1  0.09691002  0.79381995  0.63024829  1.0
  La  La5  1  0.90308998  0.20618005  0.63024829  1.0
  La  La6  1  0.29381995  0.40308998  0.13024829  1.0
  La  La7  1  0.70618005  0.59691002  0.13024829  1.0
  La  La8  1  0.10127733  0.80350877  0.14615673  1.0
  La  La9  1  0.89872267  0.19649123  0.14615673  1.0
  La  La10  1  0.30350877  0.39872267  0.64615673  1.0
  La  La11  1  0.69649123  0.60127733  0.64615673  1.0
  La  La12  1  0.39872267  0.69649123  0.35384327  1.0
  La  La13  1  0.60127733  0.30350877  0.35384327  1.0
  La  La14  1  0.19649123  0.10127733  0.85384327  1.0
  La  La15  1  0.80350877  0.89872267  0.85384327  1.0
  La  La16  1  0.00000000  0.50000000  0.86567982  1.0
  La  La17  1  0.00000000  0.50000000  0.36567982  1.0
  La  La18  1  0.50000000  0.00000000  0.63432018  1.0
  La  La19  1  0.50000000  0.00000000  0.13432018  1.0
  Se  Se20  1  0.18076894  0.63605847  0.00092186  1.0
  Se  Se21  1  0.81923106  0.36394153  0.00092186  1.0
  Se  Se22  1  0.13605847  0.31923106  0.50092186  1.0
  Se  Se23  1  0.86394153  0.68076894  0.50092186  1.0
  Se  Se24  1  0.31923106  0.86394153  0.49907814  1.0
  Se  Se25  1  0.68076894  0.13605847  0.49907814  1.0
  Se  Se26  1  0.36394153  0.18076894  0.99907814  1.0
  Se  Se27  1  0.63605847  0.81923106  0.99907814  1.0
  Se  Se28  1  0.92492061  0.72107655  0.99962240  1.0
  Se  Se29  1  0.07507939  0.27892345  0.99962240  1.0
  Se  Se30  1  0.22107655  0.57507939  0.49962240  1.0
  Se  Se31  1  0.77892345  0.42492061  0.49962240  1.0
  Se  Se32  1  0.57507939  0.77892345  0.50037760  1.0
  Se  Se33  1  0.42492061  0.22107655  0.50037760  1.0
  Se  Se34  1  0.27892345  0.92492061  0.00037760  1.0
  Se  Se35  1  0.72107655  0.07507939  0.00037760  1.0
  Se  Se36  1  0.50000000  0.50000000  0.00000000  1.0
  Se  Se37  1  0.00000000  0.00000000  0.50000000  1.0
  Se  Se38  1  0.40213386  0.70154470  0.17674660  1.0
  Se  Se39  1  0.59786614  0.29845530  0.17674660  1.0
  Se  Se40  1  0.20154470  0.09786614  0.67674660  1.0
  Se  Se41  1  0.79845530  0.90213386  0.67674660  1.0
  Se  Se42  1  0.09786614  0.79845530  0.32325340  1.0
  Se  Se43  1  0.90213386  0.20154470  0.32325340  1.0
  Se  Se44  1  0.29845530  0.40213386  0.82325340  1.0
  Se  Se45  1  0.70154470  0.59786614  0.82325340  1.0
  Se  Se46  1  0.19752187  0.10075372  0.18632052  1.0
  Se  Se47  1  0.80247813  0.89924628  0.18632052  1.0
  Se  Se48  1  0.60075372  0.30247813  0.68632052  1.0
  Se  Se49  1  0.39924628  0.69752187  0.68632052  1.0
  Se  Se50  1  0.30247813  0.39924628  0.31367948  1.0
  Se  Se51  1  0.69752187  0.60075372  0.31367948  1.0
  Se  Se52  1  0.89924628  0.19752187  0.81367948  1.0
  Se  Se53  1  0.10075372  0.80247813  0.81367948  1.0
  Se  Se54  1  0.50000000  0.00000000  0.81579653  1.0
  Se  Se55  1  0.50000000  0.00000000  0.31579653  1.0
  Se  Se56  1  0.00000000  0.50000000  0.68420347  1.0
  Se  Se57  1  0.00000000  0.50000000  0.18420347  1.0
