# generated using pymatgen
data_CsNO3
_symmetry_space_group_name_H-M   'P 1'
_cell_length_a   9.18937443
_cell_length_b   9.18937443
_cell_length_c   9.18937443
_cell_angle_alpha   90.00000000
_cell_angle_beta   90.00000000
_cell_angle_gamma   90.00000000
_symmetry_Int_Tables_number   1
_chemical_formula_structural   CsNO3
_chemical_formula_sum   'Cs8 N8 O24'
_cell_volume   775.99307089
_cell_formula_units_Z   8
loop_
 _symmetry_equiv_pos_site_id
 _symmetry_equiv_pos_as_xyz
  1  'x, y, z'
loop_
 _atom_site_type_symbol
 _atom_site_label
 _atom_site_symmetry_multiplicity
 _atom_site_fract_x
 _atom_site_fract_y
 _atom_site_fract_z
 _atom_site_occupancy
  Cs  Cs0  1  0.50000000  0.00000000  0.50000000  1.0
  Cs  Cs1  1  0.50000000  0.50000000  -0.00000000  1.0
  Cs  Cs2  1  0.00000000  0.00000000  0.00000000  1.0
  Cs  Cs3  1  -0.00000000  0.50000000  0.50000000  1.0
  Cs  Cs4  1  0.00000000  0.50000000  -0.00000000  1.0
  Cs  Cs5  1  0.00000000  0.00000000  0.50000000  1.0
  Cs  Cs6  1  0.50000000  0.50000000  0.50000000  1.0
  Cs  Cs7  1  0.50000000  0.00000000  0.00000000  1.0
  N  N8  1  0.29223992  0.79223992  0.70776008  1.0
  N  N9  1  0.29223992  0.70776008  0.20776008  1.0
  N  N10  1  0.79223992  0.79223992  0.79223992  1.0
  N  N11  1  0.79223992  0.70776008  0.29223992  1.0
  N  N12  1  0.70776008  0.29223992  0.79223992  1.0
  N  N13  1  0.70776008  0.20776008  0.29223992  1.0
  N  N14  1  0.20776008  0.29223992  0.70776008  1.0
  N  N15  1  0.20776008  0.20776008  0.20776008  1.0
  O  O16  1  0.40600535  0.73534997  0.76070767  1.0
  O  O17  1  0.40600535  0.76465003  0.26070767  1.0
  O  O18  1  0.90600535  0.73534997  0.73929233  1.0
  O  O19  1  0.90600535  0.76465003  0.23929233  1.0
  O  O20  1  0.23534997  0.73929233  0.59399465  1.0
  O  O21  1  0.23534997  0.76070767  0.09399465  1.0
  O  O22  1  0.73534997  0.73929233  0.90600535  1.0
  O  O23  1  0.73534997  0.76070767  0.40600535  1.0
  O  O24  1  0.23929233  0.90600535  0.76465003  1.0
  O  O25  1  0.23929233  0.59399465  0.26465003  1.0
  O  O26  1  0.73929233  0.90600535  0.73534997  1.0
  O  O27  1  0.73929233  0.59399465  0.23534997  1.0
  O  O28  1  0.59399465  0.23534997  0.73929233  1.0
  O  O29  1  0.59399465  0.26465003  0.23929233  1.0
  O  O30  1  0.09399465  0.23534997  0.76070767  1.0
  O  O31  1  0.09399465  0.26465003  0.26070767  1.0
  O  O32  1  0.76465003  0.23929233  0.90600535  1.0
  O  O33  1  0.76465003  0.26070767  0.40600535  1.0
  O  O34  1  0.26465003  0.23929233  0.59399465  1.0
  O  O35  1  0.26465003  0.26070767  0.09399465  1.0
  O  O36  1  0.76070767  0.40600535  0.73534997  1.0
  O  O37  1  0.76070767  0.09399465  0.23534997  1.0
  O  O38  1  0.26070767  0.40600535  0.76465003  1.0
  O  O39  1  0.26070767  0.09399465  0.26465003  1.0
