# generated using pymatgen
data_Al7Cu2Ru
_symmetry_space_group_name_H-M   'P 1'
_cell_length_a   6.44282729
_cell_length_b   6.44282729
_cell_length_c   14.87976578
_cell_angle_alpha   90.00000000
_cell_angle_beta   90.00000000
_cell_angle_gamma   90.00000000
_symmetry_Int_Tables_number   1
_chemical_formula_structural   Al7Cu2Ru
_chemical_formula_sum   'Al28 Cu8 Ru4'
_cell_volume   617.65942665
_cell_formula_units_Z   4
loop_
 _symmetry_equiv_pos_site_id
 _symmetry_equiv_pos_as_xyz
  1  'x, y, z'
loop_
 _atom_site_type_symbol
 _atom_site_label
 _atom_site_symmetry_multiplicity
 _atom_site_fract_x
 _atom_site_fract_y
 _atom_site_fract_z
 _atom_site_occupancy
  Al  Al0  1  0.29839588  0.91582546  0.40254440  1.0
  Al  Al1  1  0.29839588  0.91582546  0.59745560  1.0
  Al  Al2  1  0.79839588  0.58417454  0.90254440  1.0
  Al  Al3  1  0.79839588  0.58417454  0.09745560  1.0
  Al  Al4  1  0.08417454  0.29839588  0.40254440  1.0
  Al  Al5  1  0.08417454  0.29839588  0.59745560  1.0
  Al  Al6  1  0.58417454  0.20160412  0.90254440  1.0
  Al  Al7  1  0.58417454  0.20160412  0.09745560  1.0
  Al  Al8  1  0.70160412  0.08417454  0.40254440  1.0
  Al  Al9  1  0.70160412  0.08417454  0.59745560  1.0
  Al  Al10  1  0.20160412  0.41582546  0.90254440  1.0
  Al  Al11  1  0.20160412  0.41582546  0.09745560  1.0
  Al  Al12  1  0.91582546  0.70160412  0.40254440  1.0
  Al  Al13  1  0.91582546  0.70160412  0.59745560  1.0
  Al  Al14  1  0.41582546  0.79839588  0.90254440  1.0
  Al  Al15  1  0.41582546  0.79839588  0.09745560  1.0
  Al  Al16  1  0.34325201  0.15674799  0.25000000  1.0
  Al  Al17  1  0.34325201  0.15674799  0.75000000  1.0
  Al  Al18  1  0.84325201  0.34325201  0.75000000  1.0
  Al  Al19  1  0.84325201  0.34325201  0.25000000  1.0
  Al  Al20  1  0.65674799  0.84325201  0.25000000  1.0
  Al  Al21  1  0.65674799  0.84325201  0.75000000  1.0
  Al  Al22  1  0.15674799  0.65674799  0.75000000  1.0
  Al  Al23  1  0.15674799  0.65674799  0.25000000  1.0
  Al  Al24  1  0.50000000  0.50000000  0.37002299  1.0
  Al  Al25  1  0.50000000  0.50000000  0.62997701  1.0
  Al  Al26  1  0.00000000  0.00000000  0.87002299  1.0
  Al  Al27  1  0.00000000  0.00000000  0.12997701  1.0
  Cu  Cu28  1  0.23239734  0.58902660  0.50000000  1.0
  Cu  Cu29  1  0.73239734  0.91097340  0.00000000  1.0
  Cu  Cu30  1  0.41097340  0.23239734  0.50000000  1.0
  Cu  Cu31  1  0.91097340  0.26760266  0.00000000  1.0
  Cu  Cu32  1  0.76760266  0.41097340  0.50000000  1.0
  Cu  Cu33  1  0.26760266  0.08902660  0.00000000  1.0
  Cu  Cu34  1  0.58902660  0.76760266  0.50000000  1.0
  Cu  Cu35  1  0.08902660  0.73239734  0.00000000  1.0
  Ru  Ru36  1  0.50000000  0.50000000  0.20087642  1.0
  Ru  Ru37  1  0.50000000  0.50000000  0.79912358  1.0
  Ru  Ru38  1  0.00000000  0.00000000  0.70087642  1.0
  Ru  Ru39  1  0.00000000  0.00000000  0.29912358  1.0
