# generated using pymatgen
data_Y(NiB)2
_symmetry_space_group_name_H-M   'P 1'
_cell_length_a   4.96565217
_cell_length_b   4.96565217
_cell_length_c   6.85586740
_cell_angle_alpha   59.45497951
_cell_angle_beta   120.54502049
_cell_angle_gamma   115.62204074
_symmetry_Int_Tables_number   1
_chemical_formula_structural   Y(NiB)2
_chemical_formula_sum   'Y2 Ni4 B4'
_cell_volume   121.88210790
_cell_formula_units_Z   2
loop_
 _symmetry_equiv_pos_site_id
 _symmetry_equiv_pos_as_xyz
  1  'x, y, z'
loop_
 _atom_site_type_symbol
 _atom_site_label
 _atom_site_symmetry_multiplicity
 _atom_site_fract_x
 _atom_site_fract_y
 _atom_site_fract_z
 _atom_site_occupancy
  Y  Y0  1  0.88326771  0.88326771  0.75000000  1.0
  Y  Y1  1  1.11673229  0.11673229  0.25000000  1.0
  Ni  Ni2  1  1.53268466  0.27959050  0.70029759  1.0
  Ni  Ni3  1  0.72040950  0.46731534  0.20029759  1.0
  Ni  Ni4  1  1.27959050  0.53268466  0.79970241  1.0
  Ni  Ni5  1  1.46731534  -0.27959050  0.29970241  1.0
  B  B6  1  0.50476659  -0.15441534  0.97560593  1.0
  B  B7  1  1.15441534  0.49523341  0.47560593  1.0
  B  B8  1  0.84558466  0.50476659  0.52439407  1.0
  B  B9  1  0.49523341  0.15441534  0.02439407  1.0
