# generated using pymatgen
data_BaHf(SiO3)3
_symmetry_space_group_name_H-M   'P 1'
_cell_length_a   6.83285687
_cell_length_b   6.83285687
_cell_length_c   10.10398687
_cell_angle_alpha   90.00000000
_cell_angle_beta   90.00000000
_cell_angle_gamma   120.00000000
_symmetry_Int_Tables_number   1
_chemical_formula_structural   BaHf(SiO3)3
_chemical_formula_sum   'Ba2 Hf2 Si6 O18'
_cell_volume   408.53385459
_cell_formula_units_Z   2
loop_
 _symmetry_equiv_pos_site_id
 _symmetry_equiv_pos_as_xyz
  1  'x, y, z'
loop_
 _atom_site_type_symbol
 _atom_site_label
 _atom_site_symmetry_multiplicity
 _atom_site_fract_x
 _atom_site_fract_y
 _atom_site_fract_z
 _atom_site_occupancy
  Ba  Ba0  1  0.00000000  0.00000000  0.50000000  1.0
  Ba  Ba1  1  -0.00000000  -0.00000000  -0.00000000  1.0
  Hf  Hf2  1  0.33333333  0.66666667  0.50000000  1.0
  Hf  Hf3  1  0.33333333  0.66666667  0.00000000  1.0
  Si  Si4  1  0.60781028  0.55507830  0.25000000  1.0
  Si  Si5  1  0.60781028  0.05273199  0.75000000  1.0
  Si  Si6  1  0.94726801  0.55507830  0.75000000  1.0
  Si  Si7  1  0.94726801  0.39218972  0.25000000  1.0
  Si  Si8  1  0.44492170  0.39218972  0.75000000  1.0
  Si  Si9  1  0.44492170  0.05273199  0.25000000  1.0
  O  O10  1  0.08715239  0.40898988  0.38385414  1.0
  O  O11  1  0.08715239  0.40898988  0.11614586  1.0
  O  O12  1  0.08715239  0.67816251  0.88385414  1.0
  O  O13  1  0.08715239  0.67816251  0.61614586  1.0
  O  O14  1  0.32183749  0.40898988  0.88385414  1.0
  O  O15  1  0.32183749  0.40898988  0.61614586  1.0
  O  O16  1  0.32183749  0.91284761  0.38385414  1.0
  O  O17  1  0.32183749  0.91284761  0.11614586  1.0
  O  O18  1  0.59101012  0.91284761  0.88385414  1.0
  O  O19  1  0.59101012  0.91284761  0.61614586  1.0
  O  O20  1  0.59101012  0.67816251  0.38385414  1.0
  O  O21  1  0.59101012  0.67816251  0.11614586  1.0
  O  O22  1  0.86250298  0.58074313  0.25000000  1.0
  O  O23  1  0.86250298  0.28175985  0.75000000  1.0
  O  O24  1  0.71824015  0.58074313  0.75000000  1.0
  O  O25  1  0.71824015  0.13749702  0.25000000  1.0
  O  O26  1  0.41925687  0.13749702  0.75000000  1.0
  O  O27  1  0.41925687  0.28175985  0.25000000  1.0
