# generated using pymatgen
data_Ti6Ga16Ni7
_symmetry_space_group_name_H-M   'P 1'
_cell_length_a   8.40691247
_cell_length_b   8.40691247
_cell_length_c   8.40691247
_cell_angle_alpha   60.00000000
_cell_angle_beta   60.00000000
_cell_angle_gamma   60.00000000
_symmetry_Int_Tables_number   1
_chemical_formula_structural   Ti6Ga16Ni7
_chemical_formula_sum   'Ti6 Ga16 Ni7'
_cell_volume   420.14053015
_cell_formula_units_Z   1
loop_
 _symmetry_equiv_pos_site_id
 _symmetry_equiv_pos_as_xyz
  1  'x, y, z'
loop_
 _atom_site_type_symbol
 _atom_site_label
 _atom_site_symmetry_multiplicity
 _atom_site_fract_x
 _atom_site_fract_y
 _atom_site_fract_z
 _atom_site_occupancy
  Ti  Ti0  1  0.70727006  0.70727006  -0.70727006  1.0
  Ti  Ti1  1  0.29272994  -0.29272994  1.29272994  1.0
  Ti  Ti2  1  -0.29272994  0.29272994  0.29272994  1.0
  Ti  Ti3  1  0.29272994  1.29272994  -0.29272994  1.0
  Ti  Ti4  1  -0.29272994  0.29272994  0.70727006  1.0
  Ti  Ti5  1  -0.70727006  0.70727006  0.70727006  1.0
  Ga  Ga6  1  0.87676860  0.87676860  -0.63030580  1.0
  Ga  Ga7  1  0.87676860  0.36969420  -0.12323140  1.0
  Ga  Ga8  1  0.36969420  0.87676860  -0.12323140  1.0
  Ga  Ga9  1  0.87676860  0.87676860  -0.12323140  1.0
  Ga  Ga10  1  1.12323140  0.12323140  0.63030580  1.0
  Ga  Ga11  1  1.12323140  0.63030580  0.12323140  1.0
  Ga  Ga12  1  1.63030580  0.12323140  0.12323140  1.0
  Ga  Ga13  1  1.12323140  0.12323140  0.12323140  1.0
  Ga  Ga14  1  0.64974840  0.64974840  0.05075481  1.0
  Ga  Ga15  1  0.64974840  1.05075481  -0.35025160  1.0
  Ga  Ga16  1  1.05075481  0.64974840  -0.35025160  1.0
  Ga  Ga17  1  0.64974840  0.64974840  -0.35025160  1.0
  Ga  Ga18  1  1.35025160  0.35025160  -0.05075481  1.0
  Ga  Ga19  1  1.35025160  -0.05075481  0.35025160  1.0
  Ga  Ga20  1  0.94924519  0.35025160  0.35025160  1.0
  Ga  Ga21  1  1.35025160  0.35025160  0.35025160  1.0
  Ni  Ni22  1  0.00000000  0.00000000  0.00000000  1.0
  Ni  Ni23  1  -0.00000000  -0.00000000  0.50000000  1.0
  Ni  Ni24  1  0.50000000  1.00000000  -0.50000000  1.0
  Ni  Ni25  1  1.00000000  0.50000000  -0.50000000  1.0
  Ni  Ni26  1  0.50000000  -0.50000000  1.00000000  1.0
  Ni  Ni27  1  -0.00000000  1.50000000  0.00000000  1.0
  Ni  Ni28  1  1.50000000  -0.00000000  0.00000000  1.0
