# generated using pymatgen
data_LiAsSe2
_symmetry_space_group_name_H-M   'P 1'
_cell_length_a   6.85876512
_cell_length_b   6.85876512
_cell_length_c   5.60228879
_cell_angle_alpha   69.45058568
_cell_angle_beta   110.54941432
_cell_angle_gamma   132.12519447
_symmetry_Int_Tables_number   1
_chemical_formula_structural   LiAsSe2
_chemical_formula_sum   'Li2 As2 Se4'
_cell_volume   180.47773949
_cell_formula_units_Z   2
loop_
 _symmetry_equiv_pos_site_id
 _symmetry_equiv_pos_as_xyz
  1  'x, y, z'
loop_
 _atom_site_type_symbol
 _atom_site_label
 _atom_site_symmetry_multiplicity
 _atom_site_fract_x
 _atom_site_fract_y
 _atom_site_fract_z
 _atom_site_occupancy
  Li  Li0  1  0.73296883  0.73536110  0.49522164  1.0
  Li  Li1  1  0.26463890  0.26703117  -0.00477836  1.0
  As  As2  1  0.99476354  -0.43380314  0.16712523  1.0
  As  As3  1  1.43380314  0.00523646  0.66712523  1.0
  Se  Se4  1  0.77366668  -0.24844663  0.01236048  1.0
  Se  Se5  1  1.24844663  0.22633332  0.51236048  1.0
  Se  Se6  1  1.03155590  -0.48315638  0.76399265  1.0
  Se  Se7  1  1.48315638  -0.03155590  0.26399265  1.0
