# generated using pymatgen
data_BaTi(AsO4)2
_symmetry_space_group_name_H-M   'P 1'
_cell_length_a   5.10201655
_cell_length_b   5.10201655
_cell_length_c   7.92846093
_cell_angle_alpha   86.85019789
_cell_angle_beta   93.14980211
_cell_angle_gamma   114.38780495
_symmetry_Int_Tables_number   1
_chemical_formula_structural   BaTi(AsO4)2
_chemical_formula_sum   'Ba1 Ti1 As2 O8'
_cell_volume   187.56512086
_cell_formula_units_Z   1
loop_
 _symmetry_equiv_pos_site_id
 _symmetry_equiv_pos_as_xyz
  1  'x, y, z'
loop_
 _atom_site_type_symbol
 _atom_site_label
 _atom_site_symmetry_multiplicity
 _atom_site_fract_x
 _atom_site_fract_y
 _atom_site_fract_z
 _atom_site_occupancy
  Ba  Ba0  1  -0.00000000  0.00000000  0.50000000  1.0
  Ti  Ti1  1  0.00000000  0.00000000  0.00000000  1.0
  As  As2  1  0.63342382  -0.63342382  0.79389226  1.0
  As  As3  1  0.36657618  -0.36657618  0.20610774  1.0
  O  O4  1  1.26098074  0.22877931  0.81745537  1.0
  O  O5  1  0.77122069  -0.26098074  0.81745537  1.0
  O  O6  1  1.22877931  0.26098074  0.18254463  1.0
  O  O7  1  0.73901926  -0.22877931  0.18254463  1.0
  O  O8  1  0.77870156  -0.77870156  0.95581760  1.0
  O  O9  1  0.22129844  -0.22129844  0.04418240  1.0
  O  O10  1  0.69116632  -0.69116632  0.59220633  1.0
  O  O11  1  0.30883368  -0.30883368  0.40779367  1.0
