# generated using pymatgen
data_Cs3TlF6
_symmetry_space_group_name_H-M   'P 1'
_cell_length_a   7.20119522
_cell_length_b   7.20119522
_cell_length_c   7.20119522
_cell_angle_alpha   120.37319789
_cell_angle_beta   120.37319789
_cell_angle_gamma   89.35480864
_symmetry_Int_Tables_number   1
_chemical_formula_structural   Cs3TlF6
_chemical_formula_sum   'Cs3 Tl1 F6'
_cell_volume   262.55008756
_cell_formula_units_Z   1
loop_
 _symmetry_equiv_pos_site_id
 _symmetry_equiv_pos_as_xyz
  1  'x, y, z'
loop_
 _atom_site_type_symbol
 _atom_site_label
 _atom_site_symmetry_multiplicity
 _atom_site_fract_x
 _atom_site_fract_y
 _atom_site_fract_z
 _atom_site_occupancy
  Cs  Cs0  1  0.25000000  0.75000000  0.50000000  1.0
  Cs  Cs1  1  0.75000000  0.25000000  0.50000000  1.0
  Cs  Cs2  1  0.50000000  0.50000000  1.00000000  1.0
  Tl  Tl3  1  0.00000000  0.00000000  0.00000000  1.0
  F  F4  1  0.00000000  0.69631880  0.69631880  1.0
  F  F5  1  0.69631880  -0.00000000  0.69631880  1.0
  F  F6  1  0.30368120  -0.00000000  0.30368120  1.0
  F  F7  1  0.00000000  0.30368120  0.30368120  1.0
  F  F8  1  0.77620583  0.77620583  1.00000000  1.0
  F  F9  1  0.22379417  0.22379417  -0.00000000  1.0
