# generated using pymatgen
data_La2Si2O7
_symmetry_space_group_name_H-M   'P 1'
_cell_length_a   5.53144493
_cell_length_b   8.86460015
_cell_length_c   14.39554093
_cell_angle_alpha   90.00000000
_cell_angle_beta   112.72088099
_cell_angle_gamma   90.00000000
_symmetry_Int_Tables_number   1
_chemical_formula_structural   La2Si2O7
_chemical_formula_sum   'La8 Si8 O28'
_cell_volume   651.09415534
_cell_formula_units_Z   4
loop_
 _symmetry_equiv_pos_site_id
 _symmetry_equiv_pos_as_xyz
  1  'x, y, z'
loop_
 _atom_site_type_symbol
 _atom_site_label
 _atom_site_symmetry_multiplicity
 _atom_site_fract_x
 _atom_site_fract_y
 _atom_site_fract_z
 _atom_site_occupancy
  La  La0  1  0.98461805  0.31201747  0.73369206  1.0
  La  La1  1  0.01538195  0.81201747  0.76630794  1.0
  La  La2  1  0.01538195  0.68798253  0.26630794  1.0
  La  La3  1  0.98461805  0.18798253  0.23369206  1.0
  La  La4  1  0.65361263  0.10832991  0.91090815  1.0
  La  La5  1  0.34638737  0.60832991  0.58909185  1.0
  La  La6  1  0.34638737  0.89167009  0.08909185  1.0
  La  La7  1  0.65361263  0.39167009  0.41090815  1.0
  Si  Si8  1  0.69742067  0.74493881  0.47327826  1.0
  Si  Si9  1  0.30257933  0.24493881  0.02672174  1.0
  Si  Si10  1  0.30257933  0.25506119  0.52672174  1.0
  Si  Si11  1  0.69742067  0.75506119  0.97327826  1.0
  Si  Si12  1  0.59706532  0.99368871  0.32059242  1.0
  Si  Si13  1  0.40293468  0.49368871  0.17940758  1.0
  Si  Si14  1  0.40293468  0.00631129  0.67940758  1.0
  Si  Si15  1  0.59706532  0.50631129  0.82059242  1.0
  O  O16  1  0.66382998  0.91902161  0.43204136  1.0
  O  O17  1  0.33617002  0.41902161  0.06795864  1.0
  O  O18  1  0.33617002  0.08097839  0.56795864  1.0
  O  O19  1  0.66382998  0.58097839  0.93204136  1.0
  O  O20  1  0.92166769  0.65290535  0.44696850  1.0
  O  O21  1  0.07833231  0.15290535  0.05303150  1.0
  O  O22  1  0.07833231  0.34709465  0.55303150  1.0
  O  O23  1  0.92166769  0.84709465  0.94696850  1.0
  O  O24  1  0.42286878  0.64451189  0.41987796  1.0
  O  O25  1  0.57713122  0.14451189  0.08012204  1.0
  O  O26  1  0.57713122  0.35548811  0.58012204  1.0
  O  O27  1  0.42286878  0.85548811  0.91987796  1.0
  O  O28  1  0.74986225  0.74188487  0.59276588  1.0
  O  O29  1  0.25013775  0.24188487  0.90723413  1.0
  O  O30  1  0.25013775  0.25811513  0.40723413  1.0
  O  O31  1  0.74986225  0.75811513  0.09276588  1.0
  O  O32  1  0.28137546  0.97547244  0.25060154  1.0
  O  O33  1  0.71862454  0.47547244  0.24939846  1.0
  O  O34  1  0.71862454  0.02452756  0.74939846  1.0
  O  O35  1  0.28137546  0.52452756  0.75060154  1.0
  O  O36  1  0.75845630  0.91237981  0.25939689  1.0
  O  O37  1  0.24154370  0.41237981  0.24060311  1.0
  O  O38  1  0.24154370  0.08762019  0.74060311  1.0
  O  O39  1  0.75845630  0.58762019  0.75939689  1.0
  O  O40  1  0.69014176  0.16951002  0.32966836  1.0
  O  O41  1  0.30985824  0.66951002  0.17033164  1.0
  O  O42  1  0.30985824  0.83048998  0.67033164  1.0
  O  O43  1  0.69014176  0.33048998  0.82966836  1.0
