# generated using pymatgen
data_Li4SiO4
_symmetry_space_group_name_H-M   'P 1'
_cell_length_a   7.56885425
_cell_length_b   5.05658433
_cell_length_c   5.05219830
_cell_angle_alpha   68.27109074
_cell_angle_beta   70.93583618
_cell_angle_gamma   82.82439264
_symmetry_Int_Tables_number   1
_chemical_formula_structural   Li4SiO4
_chemical_formula_sum   'Li8 Si2 O8'
_cell_volume   169.76807288
_cell_formula_units_Z   2
loop_
 _symmetry_equiv_pos_site_id
 _symmetry_equiv_pos_as_xyz
  1  'x, y, z'
loop_
 _atom_site_type_symbol
 _atom_site_label
 _atom_site_symmetry_multiplicity
 _atom_site_fract_x
 _atom_site_fract_y
 _atom_site_fract_z
 _atom_site_occupancy
  Li  Li0  1  -0.00556723  -0.23495329  -0.76326643  1.0
  Li  Li1  1  -0.99443277  -0.76504671  -0.23673357  1.0
  Li  Li2  1  -0.44457294  -0.26272104  -0.50852744  1.0
  Li  Li3  1  -0.55542706  -0.73727896  -0.49147256  1.0
  Li  Li4  1  -0.19268253  -0.71256977  -0.61165638  1.0
  Li  Li5  1  -0.80731747  -0.28743023  -0.38834362  1.0
  Li  Li6  1  -0.40911901  -0.74985950  -0.08131607  1.0
  Li  Li7  1  -0.59088099  -0.25014050  -0.91868393  1.0
  Si  Si8  1  -0.23651744  -0.28204773  -0.15794811  1.0
  Si  Si9  1  -0.76348256  -0.71795227  -0.84205189  1.0
  O  O10  1  -0.37332399  -0.01962383  -0.30069535  1.0
  O  O11  1  -0.62667601  -0.98037617  -0.69930465  1.0
  O  O12  1  -0.04714941  -0.16486649  -0.15017969  1.0
  O  O13  1  -0.95285059  -0.83513351  -0.84982031  1.0
  O  O14  1  -0.19378846  -0.48841890  -0.36022107  1.0
  O  O15  1  -0.80621154  -0.51158110  -0.63977893  1.0
  O  O16  1  -0.63134395  -0.53199781  -0.18236030  1.0
  O  O17  1  -0.36865605  -0.46800219  -0.81763970  1.0
