# generated using pymatgen
data_Zr3V3C
_symmetry_space_group_name_H-M   'P 1'
_cell_length_a   8.64282113
_cell_length_b   8.64282113
_cell_length_c   8.64282113
_cell_angle_alpha   60.00000000
_cell_angle_beta   60.00000000
_cell_angle_gamma   60.00000000
_symmetry_Int_Tables_number   1
_chemical_formula_structural   Zr3V3C
_chemical_formula_sum   'Zr12 V12 C4'
_cell_volume   456.51134737
_cell_formula_units_Z   4
loop_
 _symmetry_equiv_pos_site_id
 _symmetry_equiv_pos_as_xyz
  1  'x, y, z'
loop_
 _atom_site_type_symbol
 _atom_site_label
 _atom_site_symmetry_multiplicity
 _atom_site_fract_x
 _atom_site_fract_y
 _atom_site_fract_z
 _atom_site_occupancy
  Zr  Zr0  1  0.55931166  0.55931166  0.94068834  1.0
  Zr  Zr1  1  0.94068834  0.55931166  0.94068834  1.0
  Zr  Zr2  1  0.55931166  0.94068834  0.94068834  1.0
  Zr  Zr3  1  0.94068834  0.94068834  0.55931166  1.0
  Zr  Zr4  1  0.55931166  0.94068834  0.55931166  1.0
  Zr  Zr5  1  0.94068834  0.55931166  0.55931166  1.0
  Zr  Zr6  1  0.69068834  0.69068834  -0.69068834  1.0
  Zr  Zr7  1  1.30931166  -0.30931166  0.30931166  1.0
  Zr  Zr8  1  -0.30931166  0.30931166  0.30931166  1.0
  Zr  Zr9  1  0.30931166  0.30931166  -0.30931166  1.0
  Zr  Zr10  1  0.69068834  -0.69068834  0.69068834  1.0
  Zr  Zr11  1  -0.69068834  0.69068834  0.69068834  1.0
  V  V12  1  0.12500000  0.12500000  1.62500000  1.0
  V  V13  1  0.12500000  0.62500000  1.12500000  1.0
  V  V14  1  1.62500000  0.12500000  0.12500000  1.0
  V  V15  1  1.12500000  0.12500000  0.12500000  1.0
  V  V16  1  0.92375250  -0.07624750  0.22874249  1.0
  V  V17  1  0.92375250  -0.77125751  0.92375250  1.0
  V  V18  1  0.22874249  0.92375250  0.92375250  1.0
  V  V19  1  0.92375250  0.92375250  0.92375250  1.0
  V  V20  1  1.32624750  0.32624750  0.02125751  1.0
  V  V21  1  1.32624750  0.02125751  0.32624750  1.0
  V  V22  1  1.02125751  0.32624750  0.32624750  1.0
  V  V23  1  1.32624750  0.32624750  0.32624750  1.0
  C  C24  1  0.62500000  0.62500000  1.12500000  1.0
  C  C25  1  0.62500000  1.12500000  0.62500000  1.0
  C  C26  1  1.12500000  0.62500000  0.62500000  1.0
  C  C27  1  0.62500000  0.62500000  0.62500000  1.0
