# generated using pymatgen
data_Zr2Te4Cl2O11
_symmetry_space_group_name_H-M   'P 1'
_cell_length_a   10.48650418
_cell_length_b   7.97875884
_cell_length_c   10.81207455
_cell_angle_alpha   111.52813253
_cell_angle_beta   114.64455910
_cell_angle_gamma   93.80489759
_symmetry_Int_Tables_number   1
_chemical_formula_structural   Zr2Te4Cl2O11
_chemical_formula_sum   'Zr4 Te8 Cl4 O22'
_cell_volume   738.68118296
_cell_formula_units_Z   2
loop_
 _symmetry_equiv_pos_site_id
 _symmetry_equiv_pos_as_xyz
  1  'x, y, z'
loop_
 _atom_site_type_symbol
 _atom_site_label
 _atom_site_symmetry_multiplicity
 _atom_site_fract_x
 _atom_site_fract_y
 _atom_site_fract_z
 _atom_site_occupancy
  Zr  Zr0  1  -0.61025880  -0.88839909  -0.11607946  1.0
  Zr  Zr1  1  -0.38974120  -0.11160091  -0.88392054  1.0
  Zr  Zr2  1  -0.89345146  -0.62324195  -0.39182625  1.0
  Zr  Zr3  1  -0.10654854  -0.37675805  -0.60817375  1.0
  Te  Te4  1  -0.76688983  -1.01976538  -0.50684398  1.0
  Te  Te5  1  -0.23311017  0.01976538  -0.49315602  1.0
  Te  Te6  1  -1.01091497  -0.82810740  -0.77923287  1.0
  Te  Te7  1  0.01091497  -0.17189260  -0.22076713  1.0
  Te  Te8  1  -0.45500954  -0.69994539  -0.69010225  1.0
  Te  Te9  1  -0.54499046  -0.30005461  -0.30989775  1.0
  Te  Te10  1  -0.72412981  -0.43901978  -0.95623130  1.0
  Te  Te11  1  -0.27587019  -0.56098022  -0.04376870  1.0
  Cl  Cl12  1  -0.61187359  -0.37218562  -0.60524999  1.0
  Cl  Cl13  1  -0.38812641  -0.62781438  -0.39475001  1.0
  Cl  Cl14  1  -0.90782448  -0.13139559  -0.88536760  1.0
  Cl  Cl15  1  -0.09217552  -0.86860441  -0.11463240  1.0
  O  O16  1  -0.19896920  -0.98710693  -0.86755288  1.0
  O  O17  1  -0.80103080  -0.01289307  -0.13244712  1.0
  O  O18  1  -0.34348218  -0.89122402  -0.66099375  1.0
  O  O19  1  -0.65651782  -0.10877598  -0.33900625  1.0
  O  O20  1  -0.47459372  -0.86251338  -0.89389401  1.0
  O  O21  1  -0.52540628  -0.13748662  -0.10610599  1.0
  O  O22  1  -0.76001903  -0.82866193  -0.32138284  1.0
  O  O23  1  -0.23998097  -0.17133807  -0.67861716  1.0
  O  O24  1  -0.90777882  -0.86497008  -0.58971092  1.0
  O  O25  1  -0.09222118  -0.13502992  -0.41028908  1.0
  O  O26  1  -0.62232322  -0.63364521  -0.97713937  1.0
  O  O27  1  -0.37767678  -0.36635479  -0.02286063  1.0
  O  O28  1  -1.02518878  -0.61796176  -0.61541829  1.0
  O  O29  1  0.02518878  -0.38203824  -0.38458171  1.0
  O  O30  1  -0.29851919  -0.49640612  -0.61984139  1.0
  O  O31  1  -0.70148081  -0.50359388  -0.38015861  1.0
  O  O32  1  -0.82218604  -0.46741138  -0.16213558  1.0
  O  O33  1  -0.17781396  -0.53258862  -0.83786442  1.0
  O  O34  1  -0.56355510  -0.22808843  -0.87243326  1.0
  O  O35  1  -0.43644491  -0.77191157  -0.12756674  1.0
  O  O36  1  -0.93254297  -0.22183539  -0.58919843  1.0
  O  O37  1  -0.06745703  -0.77816461  -0.41080157  1.0
