# generated using pymatgen
data_CuTeO3
_symmetry_space_group_name_H-M   'P 1'
_cell_length_a   5.13905490
_cell_length_b   9.68426065
_cell_length_c   7.59469377
_cell_angle_alpha   90.00000000
_cell_angle_beta   128.20540019
_cell_angle_gamma   90.00000000
_symmetry_Int_Tables_number   1
_chemical_formula_structural   CuTeO3
_chemical_formula_sum   'Cu4 Te4 O12'
_cell_volume   297.01012012
_cell_formula_units_Z   4
loop_
 _symmetry_equiv_pos_site_id
 _symmetry_equiv_pos_as_xyz
  1  'x, y, z'
loop_
 _atom_site_type_symbol
 _atom_site_label
 _atom_site_symmetry_multiplicity
 _atom_site_fract_x
 _atom_site_fract_y
 _atom_site_fract_z
 _atom_site_occupancy
  Cu  Cu0  1  0.87713876  0.98708075  0.14115696  1.0
  Cu  Cu1  1  0.87713876  0.51291925  0.64115696  1.0
  Cu  Cu2  1  0.12286124  0.48708075  0.35884304  1.0
  Cu  Cu3  1  0.12286124  0.01291925  0.85884304  1.0
  Te  Te4  1  0.66128899  0.21502285  0.42417981  1.0
  Te  Te5  1  0.66128899  0.28497715  0.92417981  1.0
  Te  Te6  1  0.33871101  0.71502285  0.07582019  1.0
  Te  Te7  1  0.33871101  0.78497715  0.57582019  1.0
  O  O8  1  0.89343417  0.86203564  0.34230037  1.0
  O  O9  1  0.89343417  0.63796436  0.84230037  1.0
  O  O10  1  0.10656583  0.36203564  0.15769963  1.0
  O  O11  1  0.10656583  0.13796436  0.65769963  1.0
  O  O12  1  0.66604921  0.15150729  0.15748377  1.0
  O  O13  1  0.66604921  0.34849271  0.65748377  1.0
  O  O14  1  0.33395079  0.65150729  0.34251623  1.0
  O  O15  1  0.33395079  0.84849271  0.84251623  1.0
  O  O16  1  0.83996157  0.39708784  0.41741778  1.0
  O  O17  1  0.83996157  0.10291216  0.91741778  1.0
  O  O18  1  0.16003843  0.89708784  0.08258222  1.0
  O  O19  1  0.16003843  0.60291216  0.58258222  1.0
