# generated using pymatgen
data_KSiHO3
_symmetry_space_group_name_H-M   'P 1'
_cell_length_a   7.60452547
_cell_length_b   7.60452547
_cell_length_c   11.44069273
_cell_angle_alpha   90.00000000
_cell_angle_beta   90.00000000
_cell_angle_gamma   79.40690568
_symmetry_Int_Tables_number   1
_chemical_formula_structural   KSiHO3
_chemical_formula_sum   'K8 Si8 H8 O24'
_cell_volume   650.32628204
_cell_formula_units_Z   8
loop_
 _symmetry_equiv_pos_site_id
 _symmetry_equiv_pos_as_xyz
  1  'x, y, z'
loop_
 _atom_site_type_symbol
 _atom_site_label
 _atom_site_symmetry_multiplicity
 _atom_site_fract_x
 _atom_site_fract_y
 _atom_site_fract_z
 _atom_site_occupancy
  K  K0  1  -0.32318442  1.32318442  0.45724356  1.0
  K  K1  1  0.17681558  0.82318442  0.04275644  1.0
  K  K2  1  0.32318442  0.67681558  0.54275644  1.0
  K  K3  1  -0.17681558  1.17681558  0.95724356  1.0
  K  K4  1  -0.49115647  0.99115647  0.25000000  1.0
  K  K5  1  0.00884353  1.49115647  0.25000000  1.0
  K  K6  1  -0.00884353  0.50884353  0.75000000  1.0
  K  K7  1  0.49115647  1.00884353  0.75000000  1.0
  Si  Si8  1  -0.48518148  1.48518148  0.18410490  1.0
  Si  Si9  1  0.01481852  0.98518148  0.31589510  1.0
  Si  Si10  1  0.48518148  0.51481852  0.81589510  1.0
  Si  Si11  1  -0.01481852  1.01481852  0.68410490  1.0
  Si  Si12  1  0.19664552  1.19664552  0.50000000  1.0
  Si  Si13  1  -0.30335448  0.69664552  0.00000000  1.0
  Si  Si14  1  -0.19664552  0.80335448  0.50000000  1.0
  Si  Si15  1  0.30335448  1.30335448  0.00000000  1.0
  H  H16  1  -0.17014437  1.17014437  0.19384660  1.0
  H  H17  1  0.32985563  0.67014437  0.30615340  1.0
  H  H18  1  0.17014437  0.82985563  0.80615340  1.0
  H  H19  1  -0.32985563  1.32985563  0.69384660  1.0
  H  H20  1  0.50000000  1.00000000  0.50000000  1.0
  H  H21  1  -0.00000000  1.50000000  0.00000000  1.0
  H  H22  1  -0.00000000  1.50000000  0.50000000  1.0
  H  H23  1  0.50000000  1.00000000  0.00000000  1.0
  O  O24  1  -0.15980288  0.93409135  0.38844286  1.0
  O  O25  1  0.34019712  1.43409135  0.11155714  1.0
  O  O26  1  -0.06590865  0.84019712  0.61155714  1.0
  O  O27  1  0.43409135  1.34019712  0.88844286  1.0
  O  O28  1  0.06590865  1.15980288  0.38844286  1.0
  O  O29  1  -0.43409135  0.65980288  0.11155714  1.0
  O  O30  1  0.15980288  1.06590865  0.61155714  1.0
  O  O31  1  -0.34019712  0.56590865  0.88844286  1.0
  O  O32  1  0.40646416  1.13728074  0.46650118  1.0
  O  O33  1  -0.09353584  0.63728074  0.03349882  1.0
  O  O34  1  0.13728074  1.40646416  0.53349882  1.0
  O  O35  1  -0.36271926  0.90646416  0.96650118  1.0
  O  O36  1  -0.13728074  0.59353584  0.46650118  1.0
  O  O37  1  0.36271926  1.09353584  0.03349882  1.0
  O  O38  1  -0.40646416  0.86271926  0.53349882  1.0
  O  O39  1  0.09353584  1.36271926  0.96650118  1.0
  O  O40  1  -0.32288517  1.32288517  0.20217586  1.0
  O  O41  1  0.17711483  0.82288517  0.29782414  1.0
  O  O42  1  0.32288517  0.67711483  0.79782414  1.0
  O  O43  1  -0.17711483  1.17711483  0.70217586  1.0
  O  O44  1  -0.06432054  1.06432054  0.18800800  1.0
  O  O45  1  0.43567946  0.56432054  0.31199200  1.0
  O  O46  1  0.06432054  0.93567946  0.81199200  1.0
  O  O47  1  -0.43567946  1.43567946  0.68800800  1.0
