# generated using pymatgen
data_ZnS
_symmetry_space_group_name_H-M   'P 1'
_cell_length_a   25.30988702
_cell_length_b   25.30988702
_cell_length_c   25.30988702
_cell_angle_alpha   8.71803388
_cell_angle_beta   8.71803388
_cell_angle_gamma   8.71803388
_symmetry_Int_Tables_number   1
_chemical_formula_structural   ZnS
_chemical_formula_sum   'Zn8 S8'
_cell_volume   323.20343645
_cell_formula_units_Z   8
loop_
 _symmetry_equiv_pos_site_id
 _symmetry_equiv_pos_as_xyz
  1  'x, y, z'
loop_
 _atom_site_type_symbol
 _atom_site_label
 _atom_site_symmetry_multiplicity
 _atom_site_fract_x
 _atom_site_fract_y
 _atom_site_fract_z
 _atom_site_occupancy
  Zn  Zn0  1  0.96882027  -0.03117973  -0.03117973  1.0
  Zn  Zn1  1  0.88548412  -0.11451588  -0.11451588  1.0
  Zn  Zn2  1  0.80210292  -0.19789708  -0.19789708  1.0
  Zn  Zn3  1  0.71870518  -0.28129482  -0.28129482  1.0
  Zn  Zn4  1  0.59385128  0.59385128  -0.40614872  1.0
  Zn  Zn5  1  0.51045663  0.51045663  -0.48954337  1.0
  Zn  Zn6  1  0.42707342  0.42707342  -0.57292658  1.0
  Zn  Zn7  1  0.34373179  0.34373179  -0.65626821  1.0
  S  S8  1  -0.00000008  -0.00000008  -0.00000008  1.0
  S  S9  1  0.91671537  -0.08328463  -0.08328463  1.0
  S  S10  1  0.83332973  -0.16667027  -0.16667027  1.0
  S  S11  1  0.74994235  -0.25005765  -0.25005765  1.0
  S  S12  1  0.62508129  0.62508129  -0.37491871  1.0
  S  S13  1  0.54168552  0.54168552  -0.45831448  1.0
  S  S14  1  0.45830349  0.45830349  -0.54169651  1.0
  S  S15  1  0.37491671  0.37491671  -0.62508329  1.0
