# generated using pymatgen
data_NaCd2(GeO3)3
_symmetry_space_group_name_H-M   'P 1'
_cell_length_a   7.25969137
_cell_length_b   7.17729731
_cell_length_c   8.12616695
_cell_angle_alpha   102.53048927
_cell_angle_beta   93.99579284
_cell_angle_gamma   90.09459543
_symmetry_Int_Tables_number   1
_chemical_formula_structural   NaCd2(GeO3)3
_chemical_formula_sum   'Na2 Cd4 Ge6 O18'
_cell_volume   412.26234017
_cell_formula_units_Z   2
loop_
 _symmetry_equiv_pos_site_id
 _symmetry_equiv_pos_as_xyz
  1  'x, y, z'
loop_
 _atom_site_type_symbol
 _atom_site_label
 _atom_site_symmetry_multiplicity
 _atom_site_fract_x
 _atom_site_fract_y
 _atom_site_fract_z
 _atom_site_occupancy
  Cd  Cd0  1  0.64250221  0.58617037  0.35273914  1.0
  Cd  Cd1  1  0.35749779  0.41382963  0.64726086  1.0
  Cd  Cd2  1  0.36668288  0.91246958  0.64843427  1.0
  Cd  Cd3  1  0.63331712  0.08753042  0.35156573  1.0
  O  O4  1  0.91923169  0.18971660  0.76299355  1.0
  O  O5  1  0.08076831  0.81028340  0.23700645  1.0
  O  O6  1  0.78919934  0.91725696  0.91069982  1.0
  O  O7  1  0.21080066  0.08274304  0.08930018  1.0
  O  O8  1  0.77101774  0.52165348  0.91396135  1.0
  O  O9  1  0.22898226  0.47834652  0.08603865  1.0
  O  O10  1  0.66981567  0.88994654  0.54805179  1.0
  O  O11  1  0.33018433  0.11005346  0.45194821  1.0
  O  O12  1  0.66069988  0.38836772  0.55498777  1.0
  O  O13  1  0.33930012  0.61163228  0.44501223  1.0
  O  O14  1  0.60714344  0.79381828  0.17626785  1.0
  O  O15  1  0.39285656  0.20618172  0.82373215  1.0
  O  O16  1  0.43700949  0.71088314  0.82490026  1.0
  O  O17  1  0.56299051  0.28911686  0.17509974  1.0
  O  O18  1  0.93968934  0.48379552  0.30842908  1.0
  O  O19  1  0.06031066  0.51620448  0.69157092  1.0
  O  O20  1  0.06025192  0.82494806  0.65976429  1.0
  O  O21  1  0.93974808  0.17505194  0.34023571  1.0
  Ge  Ge22  1  0.85203929  0.94461658  0.70620706  1.0
  Ge  Ge23  1  0.14796071  0.05538342  0.29379294  1.0
  Ge  Ge24  1  0.84606020  0.40710736  0.70883499  1.0
  Ge  Ge25  1  0.15393980  0.59289264  0.29116501  1.0
  Ge  Ge26  1  0.64034786  0.73675701  0.96002264  1.0
  Ge  Ge27  1  0.35965214  0.26324299  0.03997736  1.0
  Na  Na28  1  0.14751427  0.74180495  0.94162189  1.0
  Na  Na29  1  0.85248573  0.25819505  0.05837811  1.0
