# generated using pymatgen
data_CrNiP
_symmetry_space_group_name_H-M   'P 1'
_cell_length_a   5.90851504
_cell_length_b   5.90851504
_cell_length_c   3.51448465
_cell_angle_alpha   90.00000000
_cell_angle_beta   90.00000000
_cell_angle_gamma   120.00000000
_symmetry_Int_Tables_number   1
_chemical_formula_structural   CrNiP
_chemical_formula_sum   'Cr3 Ni3 P3'
_cell_volume   106.25490143
_cell_formula_units_Z   3
loop_
 _symmetry_equiv_pos_site_id
 _symmetry_equiv_pos_as_xyz
  1  'x, y, z'
loop_
 _atom_site_type_symbol
 _atom_site_label
 _atom_site_symmetry_multiplicity
 _atom_site_fract_x
 _atom_site_fract_y
 _atom_site_fract_z
 _atom_site_occupancy
  Cr  Cr0  1  0.40498919  0.40498919  0.00000000  1.0
  Cr  Cr1  1  0.00000000  0.59501081  -0.00000000  1.0
  Cr  Cr2  1  0.59501081  0.00000000  -0.00000000  1.0
  Ni  Ni3  1  0.74493704  0.74493704  0.50000000  1.0
  Ni  Ni4  1  0.00000000  0.25506296  0.50000000  1.0
  Ni  Ni5  1  0.25506296  0.00000000  0.50000000  1.0
  P  P6  1  0.33333333  0.66666667  0.50000000  1.0
  P  P7  1  0.66666667  0.33333333  0.50000000  1.0
  P  P8  1  -0.00000000  -0.00000000  0.00000000  1.0
