# generated using pymatgen
data_Fe3O4
_symmetry_space_group_name_H-M   'P 1'
_cell_length_a   2.84153523
_cell_length_b   9.61510209
_cell_length_c   9.88661818
_cell_angle_alpha   90.00000000
_cell_angle_beta   90.00000000
_cell_angle_gamma   90.00000000
_symmetry_Int_Tables_number   1
_chemical_formula_structural   Fe3O4
_chemical_formula_sum   'Fe12 O16'
_cell_volume   270.11873499
_cell_formula_units_Z   4
loop_
 _symmetry_equiv_pos_site_id
 _symmetry_equiv_pos_as_xyz
  1  'x, y, z'
loop_
 _atom_site_type_symbol
 _atom_site_label
 _atom_site_symmetry_multiplicity
 _atom_site_fract_x
 _atom_site_fract_y
 _atom_site_fract_z
 _atom_site_occupancy
  Fe  Fe0  1  0.24974801  0.88119489  0.75000000  1.0
  Fe  Fe1  1  0.24974801  0.61880511  0.25000000  1.0
  Fe  Fe2  1  0.75025199  0.38119489  0.75000000  1.0
  Fe  Fe3  1  0.75025199  0.11880511  0.25000000  1.0
  Fe  Fe4  1  0.74993583  0.62263556  0.92539325  1.0
  Fe  Fe5  1  0.74993583  0.62263556  0.57460675  1.0
  Fe  Fe6  1  0.74993583  0.87736444  0.42539325  1.0
  Fe  Fe7  1  0.74993583  0.87736444  0.07460675  1.0
  Fe  Fe8  1  0.25006417  0.12263556  0.92539325  1.0
  Fe  Fe9  1  0.25006417  0.12263556  0.57460675  1.0
  Fe  Fe10  1  0.25006417  0.37736444  0.42539325  1.0
  Fe  Fe11  1  0.25006417  0.37736444  0.07460675  1.0
  O  O12  1  0.74967182  0.97411504  0.88530904  1.0
  O  O13  1  0.74967182  0.97411504  0.61469096  1.0
  O  O14  1  0.74967182  0.52588496  0.38530904  1.0
  O  O15  1  0.74967182  0.52588496  0.11469096  1.0
  O  O16  1  0.25032818  0.47411504  0.88530904  1.0
  O  O17  1  0.25032818  0.47411504  0.61469096  1.0
  O  O18  1  0.25032818  0.02588496  0.38530904  1.0
  O  O19  1  0.25032818  0.02588496  0.11469096  1.0
  O  O20  1  0.74986614  0.72143274  0.75000000  1.0
  O  O21  1  0.74986614  0.77856726  0.25000000  1.0
  O  O22  1  0.25013386  0.22143274  0.75000000  1.0
  O  O23  1  0.25013386  0.27856726  0.25000000  1.0
  O  O24  1  0.24949036  0.75000000  0.00000000  1.0
  O  O25  1  0.24949036  0.75000000  0.50000000  1.0
  O  O26  1  0.75050964  0.25000000  0.00000000  1.0
  O  O27  1  0.75050964  0.25000000  0.50000000  1.0
