# generated using pymatgen
data_Zr6CCl14
_symmetry_space_group_name_H-M   'P 1'
_cell_length_a   9.69162032
_cell_length_b   9.69162032
_cell_length_c   11.63968134
_cell_angle_alpha   90.00000000
_cell_angle_beta   90.00000000
_cell_angle_gamma   84.75763187
_symmetry_Int_Tables_number   1
_chemical_formula_structural   Zr6CCl14
_chemical_formula_sum   'Zr12 C2 Cl28'
_cell_volume   1088.71311994
_cell_formula_units_Z   2
loop_
 _symmetry_equiv_pos_site_id
 _symmetry_equiv_pos_as_xyz
  1  'x, y, z'
loop_
 _atom_site_type_symbol
 _atom_site_label
 _atom_site_symmetry_multiplicity
 _atom_site_fract_x
 _atom_site_fract_y
 _atom_site_fract_z
 _atom_site_occupancy
  Zr  Zr0  1  0.45248248  1.31819729  0.38243877  1.0
  Zr  Zr1  1  -0.04751752  0.81819729  0.11756123  1.0
  Zr  Zr2  1  0.31819729  1.45248248  0.61756123  1.0
  Zr  Zr3  1  -0.18180271  0.95248248  0.88243877  1.0
  Zr  Zr4  1  -0.31819729  0.54751752  0.38243877  1.0
  Zr  Zr5  1  0.18180271  1.04751752  0.11756123  1.0
  Zr  Zr6  1  -0.45248248  0.68180271  0.61756123  1.0
  Zr  Zr7  1  0.04751752  1.18180271  0.88243877  1.0
  Zr  Zr8  1  -0.14359978  1.14359978  0.10339409  1.0
  Zr  Zr9  1  0.35640022  0.64359978  0.39660591  1.0
  Zr  Zr10  1  0.14359978  0.85640022  0.89660591  1.0
  Zr  Zr11  1  -0.35640022  1.35640022  0.60339409  1.0
  C  C12  1  -0.50000000  0.50000000  0.50000000  1.0
  C  C13  1  0.00000000  1.00000000  0.00000000  1.0
  Cl  Cl14  1  -0.38688292  1.14025631  0.48896693  1.0
  Cl  Cl15  1  0.11311708  0.64025631  0.01103307  1.0
  Cl  Cl16  1  0.14025631  0.61311708  0.51103307  1.0
  Cl  Cl17  1  -0.35974369  1.11311708  0.98896693  1.0
  Cl  Cl18  1  -0.14025631  1.38688292  0.48896693  1.0
  Cl  Cl19  1  0.35974369  0.88688292  0.01103307  1.0
  Cl  Cl20  1  0.38688292  0.85974369  0.51103307  1.0
  Cl  Cl21  1  -0.11311708  1.35974369  0.98896693  1.0
  Cl  Cl22  1  -0.21080974  0.96651602  0.24677634  1.0
  Cl  Cl23  1  0.28919026  1.46651602  0.25322366  1.0
  Cl  Cl24  1  -0.03348398  0.78919026  0.75322366  1.0
  Cl  Cl25  1  0.46651602  1.28919026  0.74677634  1.0
  Cl  Cl26  1  0.03348398  1.21080974  0.24677634  1.0
  Cl  Cl27  1  -0.46651602  0.71080974  0.25322366  1.0
  Cl  Cl28  1  0.21080974  1.03348398  0.75322366  1.0
  Cl  Cl29  1  -0.28919026  0.53348398  0.74677634  1.0
  Cl  Cl30  1  -0.34667157  1.34667157  0.23798741  1.0
  Cl  Cl31  1  0.15332843  0.84667157  0.26201259  1.0
  Cl  Cl32  1  0.34667157  0.65332843  0.76201259  1.0
  Cl  Cl33  1  -0.15332843  1.15332843  0.73798741  1.0
  Cl  Cl34  1  0.39341950  1.10658050  0.25000000  1.0
  Cl  Cl35  1  -0.10658050  0.60658050  0.25000000  1.0
  Cl  Cl36  1  0.10658050  1.39341950  0.75000000  1.0
  Cl  Cl37  1  -0.39341950  0.89341950  0.75000000  1.0
  Cl  Cl38  1  0.25181467  1.25181467  0.50000000  1.0
  Cl  Cl39  1  -0.24818533  0.75181467  0.00000000  1.0
  Cl  Cl40  1  -0.25181467  0.74818533  0.50000000  1.0
  Cl  Cl41  1  0.24818533  1.24818533  0.00000000  1.0
