# generated using pymatgen
data_Y3Cu3Sb4
_symmetry_space_group_name_H-M   'P 1'
_cell_length_a   8.31471411
_cell_length_b   8.31471411
_cell_length_c   8.31471411
_cell_angle_alpha   109.47122063
_cell_angle_beta   109.47122063
_cell_angle_gamma   109.47122063
_symmetry_Int_Tables_number   1
_chemical_formula_structural   Y3Cu3Sb4
_chemical_formula_sum   'Y6 Cu6 Sb8'
_cell_volume   442.50692600
_cell_formula_units_Z   2
loop_
 _symmetry_equiv_pos_site_id
 _symmetry_equiv_pos_as_xyz
  1  'x, y, z'
loop_
 _atom_site_type_symbol
 _atom_site_label
 _atom_site_symmetry_multiplicity
 _atom_site_fract_x
 _atom_site_fract_y
 _atom_site_fract_z
 _atom_site_occupancy
  Y  Y0  1  1.12500000  0.87500000  1.25000000  1.0
  Y  Y1  1  0.37500000  0.62500000  0.75000000  1.0
  Y  Y2  1  0.25000000  1.12500000  0.87500000  1.0
  Y  Y3  1  0.75000000  1.37500000  0.62500000  1.0
  Y  Y4  1  0.62500000  0.75000000  0.37500000  1.0
  Y  Y5  1  0.87500000  0.25000000  1.12500000  1.0
  Cu  Cu6  1  1.62500000  1.37500000  1.25000000  1.0
  Cu  Cu7  1  0.87500000  1.12500000  0.75000000  1.0
  Cu  Cu8  1  0.25000000  0.62500000  0.37500000  1.0
  Cu  Cu9  1  0.75000000  0.87500000  0.12500000  1.0
  Cu  Cu10  1  0.12500000  0.75000000  0.87500000  1.0
  Cu  Cu11  1  1.37500000  1.25000000  1.62500000  1.0
  Sb  Sb12  1  1.33957479  1.33957479  1.33957479  1.0
  Sb  Sb13  1  1.50000000  1.00000000  1.16042521  1.0
  Sb  Sb14  1  0.83957479  0.83957479  0.83957479  1.0
  Sb  Sb15  1  0.50000000  1.00000000  0.66042521  1.0
  Sb  Sb16  1  1.00000000  1.16042521  1.50000000  1.0
  Sb  Sb17  1  1.16042521  0.50000000  1.00000000  1.0
  Sb  Sb18  1  1.00000000  0.66042521  1.50000000  1.0
  Sb  Sb19  1  0.66042521  1.50000000  1.00000000  1.0
