# generated using pymatgen
data_Cu4Br6N4O
_symmetry_space_group_name_H-M   'P 1'
_cell_length_a   8.82350330
_cell_length_b   8.82350330
_cell_length_c   9.84781137
_cell_angle_alpha   90.00000000
_cell_angle_beta   90.00000000
_cell_angle_gamma   90.00000000
_symmetry_Int_Tables_number   1
_chemical_formula_structural   Cu4Br6N4O
_chemical_formula_sum   'Cu8 Br12 N8 O2'
_cell_volume   766.69358008
_cell_formula_units_Z   2
loop_
 _symmetry_equiv_pos_site_id
 _symmetry_equiv_pos_as_xyz
  1  'x, y, z'
loop_
 _atom_site_type_symbol
 _atom_site_label
 _atom_site_symmetry_multiplicity
 _atom_site_fract_x
 _atom_site_fract_y
 _atom_site_fract_z
 _atom_site_occupancy
  Cu  Cu0  1  0.33611328  0.42992984  0.38793655  1.0
  Cu  Cu1  1  0.16388672  0.92992984  0.11206345  1.0
  Cu  Cu2  1  0.57007016  0.33611328  0.61206345  1.0
  Cu  Cu3  1  0.92992984  0.83611328  0.88793655  1.0
  Cu  Cu4  1  0.66388672  0.57007016  0.38793655  1.0
  Cu  Cu5  1  0.83611328  0.07007016  0.11206345  1.0
  Cu  Cu6  1  0.42992984  0.66388672  0.61206345  1.0
  Cu  Cu7  1  0.07007016  0.16388672  0.88793655  1.0
  Br  Br8  1  0.37333559  0.17911278  0.49808895  1.0
  Br  Br9  1  0.12666441  0.67911278  0.00191105  1.0
  Br  Br10  1  0.82088722  0.37333559  0.50191105  1.0
  Br  Br11  1  0.67911278  0.87333559  0.99808895  1.0
  Br  Br12  1  0.62666441  0.82088722  0.49808895  1.0
  Br  Br13  1  0.87333559  0.32088722  0.00191105  1.0
  Br  Br14  1  0.17911278  0.62666441  0.50191105  1.0
  Br  Br15  1  0.32088722  0.12666441  0.99808895  1.0
  Br  Br16  1  0.50000000  0.50000000  0.19171489  1.0
  Br  Br17  1  0.00000000  0.00000000  0.30828511  1.0
  Br  Br18  1  0.50000000  0.50000000  0.80828511  1.0
  Br  Br19  1  0.00000000  0.00000000  0.69171489  1.0
  N  N20  1  0.18485807  0.36577007  0.28535857  1.0
  N  N21  1  0.31514193  0.86577007  0.21464143  1.0
  N  N22  1  0.63422993  0.18485807  0.71464143  1.0
  N  N23  1  0.86577007  0.68485807  0.78535857  1.0
  N  N24  1  0.81514193  0.63422993  0.28535857  1.0
  N  N25  1  0.68485807  0.13422993  0.21464143  1.0
  N  N26  1  0.36577007  0.81514193  0.71464143  1.0
  N  N27  1  0.13422993  0.31514193  0.78535857  1.0
  O  O28  1  0.50000000  0.50000000  0.50000000  1.0
  O  O29  1  0.00000000  0.00000000  0.00000000  1.0
