# generated using pymatgen
data_H2C2S3N2(OF)6
_symmetry_space_group_name_H-M   'P 1'
_cell_length_a   5.54744315
_cell_length_b   5.54744315
_cell_length_c   21.96493431
_cell_angle_alpha   85.28228657
_cell_angle_beta   94.71771343
_cell_angle_gamma   115.50230683
_symmetry_Int_Tables_number   1
_chemical_formula_structural   H2C2S3N2(OF)6
_chemical_formula_sum   'H4 C4 S6 N4 O12 F12'
_cell_volume   607.20054581
_cell_formula_units_Z   2
loop_
 _symmetry_equiv_pos_site_id
 _symmetry_equiv_pos_as_xyz
  1  'x, y, z'
loop_
 _atom_site_type_symbol
 _atom_site_label
 _atom_site_symmetry_multiplicity
 _atom_site_fract_x
 _atom_site_fract_y
 _atom_site_fract_z
 _atom_site_occupancy
  H  H0  1  1.06079838  0.41398795  0.29438071  1.0
  H  H1  1  1.41398795  0.06079838  0.20561929  1.0
  H  H2  1  0.93920162  -0.41398795  0.70561929  1.0
  H  H3  1  0.58601205  -0.06079838  0.79438071  1.0
  C  C4  1  1.31568358  0.23305969  0.42364741  1.0
  C  C5  1  1.23305969  0.31568358  0.07635259  1.0
  C  C6  1  0.68431642  -0.23305969  0.57635259  1.0
  C  C7  1  0.76694031  -0.31568358  0.92364741  1.0
  S  S8  1  1.11841790  0.07253171  0.35202556  1.0
  S  S9  1  1.07253171  0.11841790  0.14797444  1.0
  S  S10  1  0.88158210  -0.07253171  0.64797444  1.0
  S  S11  1  0.92746829  -0.11841790  0.85202556  1.0
  S  S12  1  1.43350089  0.43350089  0.25000000  1.0
  S  S13  1  0.56649911  -0.43350089  0.75000000  1.0
  N  N14  1  1.19656875  0.33265666  0.30117089  1.0
  N  N15  1  1.33265666  0.19656875  0.19882911  1.0
  N  N16  1  0.80343125  -0.33265666  0.69882911  1.0
  N  N17  1  0.66734334  -0.19656875  0.80117089  1.0
  O  O18  1  0.84211435  -0.01454643  0.36439541  1.0
  O  O19  1  0.98545357  -0.15788565  0.13560459  1.0
  O  O20  1  1.15788565  0.01454643  0.63560459  1.0
  O  O21  1  1.01454643  0.15788565  0.86439541  1.0
  O  O22  1  0.22885532  -0.10086196  0.33383936  1.0
  O  O23  1  0.89913804  -0.77114468  0.16616064  1.0
  O  O24  1  1.77114468  0.10086196  0.66616064  1.0
  O  O25  1  1.10086196  0.77114468  0.83383936  1.0
  O  O26  1  0.67014096  -0.57557365  0.27948150  1.0
  O  O27  1  0.42442635  -0.32985904  0.22051850  1.0
  O  O28  1  1.32985904  0.57557365  0.72051850  1.0
  O  O29  1  1.57557365  0.32985904  0.77948150  1.0
  F  F30  1  1.23885569  0.41787826  0.43947621  1.0
  F  F31  1  1.41787826  0.23885569  0.06052379  1.0
  F  F32  1  0.76114431  -0.41787826  0.56052379  1.0
  F  F33  1  0.58212174  -0.23885569  0.93947621  1.0
  F  F34  1  1.25943617  0.03752010  0.46821830  1.0
  F  F35  1  1.03752010  0.25943617  0.03178170  1.0
  F  F36  1  0.74056383  -0.03752010  0.53178170  1.0
  F  F37  1  0.96247990  -0.25943617  0.96821830  1.0
  F  F38  1  1.57911975  0.34760969  0.41552761  1.0
  F  F39  1  1.34760969  0.57911975  0.08447239  1.0
  F  F40  1  0.42088025  -0.34760969  0.58447239  1.0
  F  F41  1  0.65239031  -0.57911975  0.91552761  1.0
