# generated using pymatgen
data_CaLaMn2O6
_symmetry_space_group_name_H-M   'P 1'
_cell_length_a   7.62292832
_cell_length_b   5.47286146
_cell_length_c   10.89802300
_cell_angle_alpha   90.00000000
_cell_angle_beta   90.00000000
_cell_angle_gamma   90.00000000
_symmetry_Int_Tables_number   1
_chemical_formula_structural   CaLaMn2O6
_chemical_formula_sum   'Ca4 La4 Mn8 O24'
_cell_volume   454.65713403
_cell_formula_units_Z   4
loop_
 _symmetry_equiv_pos_site_id
 _symmetry_equiv_pos_as_xyz
  1  'x, y, z'
loop_
 _atom_site_type_symbol
 _atom_site_label
 _atom_site_symmetry_multiplicity
 _atom_site_fract_x
 _atom_site_fract_y
 _atom_site_fract_z
 _atom_site_occupancy
  Ca  Ca0  1  0.00000000  0.99157488  0.50992126  1.0
  Ca  Ca1  1  0.50000000  0.00842512  0.00992126  1.0
  Ca  Ca2  1  0.00000000  0.50852242  0.74619369  1.0
  Ca  Ca3  1  0.50000000  0.49147758  0.24619369  1.0
  La  La4  1  0.00000000  0.99341570  -0.00052014  1.0
  La  La5  1  0.50000000  0.00658430  0.49947986  1.0
  La  La6  1  0.00000000  0.50662722  0.25674334  1.0
  La  La7  1  0.50000000  0.49337278  0.75674334  1.0
  Mn  Mn8  1  0.74652974  0.49643912  0.00308149  1.0
  Mn  Mn9  1  0.24652974  0.50356088  0.50308149  1.0
  Mn  Mn10  1  0.25347026  0.49643912  0.00308149  1.0
  Mn  Mn11  1  0.75347026  0.50356088  0.50308149  1.0
  Mn  Mn12  1  0.74650555  0.00359444  0.25313077  1.0
  Mn  Mn13  1  0.24650555  -0.00359444  0.75313077  1.0
  Mn  Mn14  1  0.25349445  0.00359444  0.25313077  1.0
  Mn  Mn15  1  0.75349445  -0.00359444  0.75313077  1.0
  O  O16  1  0.78910764  0.76484024  0.38307485  1.0
  O  O17  1  0.28910764  0.23515976  0.88307485  1.0
  O  O18  1  0.21089236  0.76484024  0.38307485  1.0
  O  O19  1  0.71089236  0.23515976  0.88307485  1.0
  O  O20  1  0.79097232  0.75003950  0.62809569  1.0
  O  O21  1  0.29097232  0.24996050  0.12809569  1.0
  O  O22  1  0.20902768  0.75003950  0.62809569  1.0
  O  O23  1  0.70902768  0.24996050  0.12809569  1.0
  O  O24  1  0.78384145  0.75002572  0.12810317  1.0
  O  O25  1  0.28384145  0.24997428  0.62810317  1.0
  O  O26  1  0.21615855  0.75002572  0.12810317  1.0
  O  O27  1  0.71615855  0.24997428  0.62810317  1.0
  O  O28  1  0.71085910  0.26489662  0.37312944  1.0
  O  O29  1  0.21085910  0.73510338  0.87312944  1.0
  O  O30  1  0.28914090  0.26489662  0.37312944  1.0
  O  O31  1  0.78914090  0.73510338  0.87312944  1.0
  O  O32  1  0.00000000  0.42340028  0.49657190  1.0
  O  O33  1  0.50000000  0.57659972  0.99657190  1.0
  O  O34  1  0.00000000  0.43401723  0.01144403  1.0
  O  O35  1  0.50000000  0.56598277  0.51144403  1.0
  O  O36  1  0.00000000  0.06600989  0.24491517  1.0
  O  O37  1  0.50000000  0.93399011  0.74491517  1.0
  O  O38  1  0.00000000  0.07668038  0.75969994  1.0
  O  O39  1  0.50000000  0.92331962  0.25969994  1.0
