# generated using pymatgen
data_FeCu2C8(N3O4)2
_symmetry_space_group_name_H-M   'P 1'
_cell_length_a   7.63698420
_cell_length_b   7.63698420
_cell_length_c   9.07796140
_cell_angle_alpha   65.24390658
_cell_angle_beta   114.75609342
_cell_angle_gamma   74.07780366
_symmetry_Int_Tables_number   1
_chemical_formula_structural   FeCu2C8(N3O4)2
_chemical_formula_sum   'Fe1 Cu2 C8 N6 O8'
_cell_volume   365.98447932
_cell_formula_units_Z   1
loop_
 _symmetry_equiv_pos_site_id
 _symmetry_equiv_pos_as_xyz
  1  'x, y, z'
loop_
 _atom_site_type_symbol
 _atom_site_label
 _atom_site_symmetry_multiplicity
 _atom_site_fract_x
 _atom_site_fract_y
 _atom_site_fract_z
 _atom_site_occupancy
  Fe  Fe0  1  0.50000000  -0.50000000  0.50000000  1.0
  Cu  Cu1  1  1.00000000  0.50000000  0.00000000  1.0
  Cu  Cu2  1  0.50000000  0.00000000  0.00000000  1.0
  C  C3  1  0.73595553  -0.02336660  0.72179102  1.0
  C  C4  1  0.97663340  -0.26404447  0.27820898  1.0
  C  C5  1  1.26404447  0.02336660  0.27820898  1.0
  C  C6  1  1.02336660  0.26404447  0.72179102  1.0
  C  C7  1  0.97687486  0.90968031  0.84310012  1.0
  C  C8  1  1.90968031  -0.02312514  0.15689988  1.0
  C  C9  1  1.02312514  -0.90968031  0.15689988  1.0
  C  C10  1  0.09031969  0.02312514  0.84310012  1.0
  N  N11  1  1.13557149  0.68774950  1.01323165  1.0
  N  N12  1  1.68774950  0.13557149  -0.01323165  1.0
  N  N13  1  0.86442851  -0.68774950  -0.01323165  1.0
  N  N14  1  0.31225050  -0.13557149  1.01323165  1.0
  N  N15  1  0.33903472  -0.33903472  0.11930563  1.0
  N  N16  1  0.66096528  -0.66096528  0.88069437  1.0
  O  O17  1  0.70630411  -0.18925800  0.77256379  1.0
  O  O18  1  0.81074200  -0.29369589  0.22743621  1.0
  O  O19  1  1.29369589  0.18925800  0.22743621  1.0
  O  O20  1  1.18925800  0.29369589  0.77256379  1.0
  O  O21  1  1.57294445  0.18608438  0.58553768  1.0
  O  O22  1  1.18608438  0.57294445  0.41446232  1.0
  O  O23  1  0.42705555  -0.18608438  0.41446232  1.0
  O  O24  1  0.81391562  -0.57294445  0.58553768  1.0
