# generated using pymatgen
data_SbSeI
_symmetry_space_group_name_H-M   'P 1'
_cell_length_a   9.06298897
_cell_length_b   4.17666104
_cell_length_c   11.34453982
_cell_angle_alpha   90.00000000
_cell_angle_beta   90.00000000
_cell_angle_gamma   90.00000000
_symmetry_Int_Tables_number   1
_chemical_formula_structural   SbSeI
_chemical_formula_sum   'Sb4 Se4 I4'
_cell_volume   429.42523939
_cell_formula_units_Z   4
loop_
 _symmetry_equiv_pos_site_id
 _symmetry_equiv_pos_as_xyz
  1  'x, y, z'
loop_
 _atom_site_type_symbol
 _atom_site_label
 _atom_site_symmetry_multiplicity
 _atom_site_fract_x
 _atom_site_fract_y
 _atom_site_fract_z
 _atom_site_occupancy
  Sb  Sb0  1  0.90234792  0.75000000  0.12788149  1.0
  Sb  Sb1  1  0.40234792  0.75000000  0.37211851  1.0
  Sb  Sb2  1  0.09765208  0.25000000  0.87211851  1.0
  Sb  Sb3  1  0.59765208  0.25000000  0.62788149  1.0
  Se  Se4  1  0.66821359  0.75000000  0.46800808  1.0
  Se  Se5  1  0.16821359  0.75000000  0.03199192  1.0
  Se  Se6  1  0.33178641  0.25000000  0.53199192  1.0
  Se  Se7  1  0.83178641  0.25000000  0.96800808  1.0
  I  I8  1  0.96163844  0.75000000  0.69343688  1.0
  I  I9  1  0.46163844  0.75000000  0.80656312  1.0
  I  I10  1  0.03836156  0.25000000  0.30656312  1.0
  I  I11  1  0.53836156  0.25000000  0.19343688  1.0
