# generated using pymatgen
data_TlAg3S2
_symmetry_space_group_name_H-M   'P 1'
_cell_length_a   8.88438950
_cell_length_b   8.90958305
_cell_length_c   6.92422875
_cell_angle_alpha   90.00000000
_cell_angle_beta   90.00000000
_cell_angle_gamma   90.00000000
_symmetry_Int_Tables_number   1
_chemical_formula_structural   TlAg3S2
_chemical_formula_sum   'Tl4 Ag12 S8'
_cell_volume   548.09567797
_cell_formula_units_Z   4
loop_
 _symmetry_equiv_pos_site_id
 _symmetry_equiv_pos_as_xyz
  1  'x, y, z'
loop_
 _atom_site_type_symbol
 _atom_site_label
 _atom_site_symmetry_multiplicity
 _atom_site_fract_x
 _atom_site_fract_y
 _atom_site_fract_z
 _atom_site_occupancy
  Tl  Tl0  1  0.50000000  0.40089817  0.75000000  1.0
  Tl  Tl1  1  0.50000000  0.59910183  0.25000000  1.0
  Tl  Tl2  1  0.00000000  0.90089817  0.75000000  1.0
  Tl  Tl3  1  0.00000000  0.09910183  0.25000000  1.0
  Ag  Ag4  1  0.30600835  0.09536988  0.88290322  1.0
  Ag  Ag5  1  0.30600835  0.90463012  0.38290322  1.0
  Ag  Ag6  1  0.80600835  0.59536988  0.61709678  1.0
  Ag  Ag7  1  0.80600835  0.40463012  0.11709678  1.0
  Ag  Ag8  1  0.69399165  0.09536988  0.61709678  1.0
  Ag  Ag9  1  0.69399165  0.90463012  0.11709678  1.0
  Ag  Ag10  1  0.19399165  0.59536988  0.88290322  1.0
  Ag  Ag11  1  0.19399165  0.40463012  0.38290322  1.0
  Ag  Ag12  1  0.50000000  0.84047124  0.75000000  1.0
  Ag  Ag13  1  0.50000000  0.15952876  0.25000000  1.0
  Ag  Ag14  1  0.00000000  0.34047124  0.75000000  1.0
  Ag  Ag15  1  0.00000000  0.65952876  0.25000000  1.0
  S  S16  1  0.31912752  0.17013041  0.51129009  1.0
  S  S17  1  0.31912752  0.82986959  0.01129009  1.0
  S  S18  1  0.81912752  0.67013041  0.98870991  1.0
  S  S19  1  0.81912752  0.32986959  0.48870991  1.0
  S  S20  1  0.68087248  0.17013041  0.98870991  1.0
  S  S21  1  0.68087248  0.82986959  0.48870991  1.0
  S  S22  1  0.18087248  0.67013041  0.51129009  1.0
  S  S23  1  0.18087248  0.32986959  0.01129009  1.0
