# generated using pymatgen
data_K2Zr(H2N)6
_symmetry_space_group_name_H-M   'P 1'
_cell_length_a   11.73704887
_cell_length_b   11.73704887
_cell_length_c   11.73704887
_cell_angle_alpha   32.68828461
_cell_angle_beta   32.68828461
_cell_angle_gamma   32.68828461
_symmetry_Int_Tables_number   1
_chemical_formula_structural   K2Zr(H2N)6
_chemical_formula_sum   'K4 Zr2 H24 N12'
_cell_volume   419.47266667
_cell_formula_units_Z   2
loop_
 _symmetry_equiv_pos_site_id
 _symmetry_equiv_pos_as_xyz
  1  'x, y, z'
loop_
 _atom_site_type_symbol
 _atom_site_label
 _atom_site_symmetry_multiplicity
 _atom_site_fract_x
 _atom_site_fract_y
 _atom_site_fract_z
 _atom_site_occupancy
  K  K0  1  0.86647110  -0.13352890  -0.13352890  1.0
  K  K1  1  0.36647110  0.36647110  0.36647110  1.0
  K  K2  1  0.63352890  0.63352890  -0.36647110  1.0
  K  K3  1  1.13352890  0.13352890  0.13352890  1.0
  Zr  Zr4  1  0.75000000  0.75000000  -0.25000000  1.0
  Zr  Zr5  1  0.25000000  0.25000000  0.25000000  1.0
  H  H6  1  0.74457630  -0.06616104  0.16643138  1.0
  H  H7  1  1.24457630  0.66643138  -0.56616104  1.0
  H  H8  1  0.33356862  0.56616104  -0.24457630  1.0
  H  H9  1  0.83356862  0.25542370  0.06616104  1.0
  H  H10  1  1.06616104  -0.16643138  0.25542370  1.0
  H  H11  1  0.56616104  0.75542370  -0.66643138  1.0
  H  H12  1  1.25542370  0.06616104  -0.16643138  1.0
  H  H13  1  0.75542370  0.33356862  -0.43383896  1.0
  H  H14  1  1.16643138  -0.25542370  -0.06616104  1.0
  H  H15  1  0.66643138  0.43383896  0.24457630  1.0
  H  H16  1  0.43383896  1.24457630  -0.33356862  1.0
  H  H17  1  0.93383896  0.16643138  -0.25542370  1.0
  H  H18  1  0.66585056  0.18845071  0.07992075  1.0
  H  H19  1  1.16585056  0.57992075  -0.31154929  1.0
  H  H20  1  0.42007925  0.31154929  -0.16585056  1.0
  H  H21  1  0.92007925  0.33414944  -0.18845071  1.0
  H  H22  1  0.81154929  -0.07992075  0.33414944  1.0
  H  H23  1  0.31154929  0.83414944  -0.57992075  1.0
  H  H24  1  1.33414944  -0.18845071  -0.07992075  1.0
  H  H25  1  0.83414944  0.42007925  -0.68845071  1.0
  H  H26  1  1.07992075  -0.33414944  0.18845071  1.0
  H  H27  1  0.57992075  0.68845071  0.16585056  1.0
  H  H28  1  0.68845071  1.16585056  -0.42007925  1.0
  H  H29  1  1.18845071  0.07992075  -0.33414944  1.0
  N  N30  1  0.59912997  0.08931268  0.17844902  1.0
  N  N31  1  1.09912997  0.67844902  -0.41068732  1.0
  N  N32  1  0.32155098  0.41068732  -0.09912997  1.0
  N  N33  1  0.82155098  0.40087003  -0.08931268  1.0
  N  N34  1  0.91068732  0.82155098  -0.59912997  1.0
  N  N35  1  0.41068732  0.90087003  -0.67844903  1.0
  N  N36  1  0.40087003  0.91068732  -0.17844903  1.0
  N  N37  1  0.90087003  0.32155098  -0.58931268  1.0
  N  N38  1  1.17844902  -0.40087003  0.08931268  1.0
  N  N39  1  0.67844902  0.58931268  0.09912997  1.0
  N  N40  1  0.58931268  1.09912997  -0.32155098  1.0
  N  N41  1  1.08931268  0.17844902  -0.40087003  1.0
