# generated using pymatgen
data_Sr3Fe2O5
_symmetry_space_group_name_H-M   'P 1'
_cell_length_a   10.75066840
_cell_length_b   10.75066840
_cell_length_c   3.45875431
_cell_angle_alpha   90.00000000
_cell_angle_beta   90.00000000
_cell_angle_gamma   159.01414561
_symmetry_Int_Tables_number   1
_chemical_formula_structural   Sr3Fe2O5
_chemical_formula_sum   'Sr3 Fe2 O5'
_cell_volume   143.16616219
_cell_formula_units_Z   1
loop_
 _symmetry_equiv_pos_site_id
 _symmetry_equiv_pos_as_xyz
  1  'x, y, z'
loop_
 _atom_site_type_symbol
 _atom_site_label
 _atom_site_symmetry_multiplicity
 _atom_site_fract_x
 _atom_site_fract_y
 _atom_site_fract_z
 _atom_site_occupancy
  Fe  Fe0  1  0.09235849  0.90764151  -0.00000000  1.0
  Fe  Fe1  1  -0.09235849  0.09235849  -0.00000000  1.0
  O  O2  1  0.18371787  0.81628213  0.00000000  1.0
  O  O3  1  -0.18371787  0.18371787  0.00000000  1.0
  O  O4  1  0.40756964  0.59243036  0.00000000  1.0
  O  O5  1  -0.40756964  0.40756964  0.00000000  1.0
  O  O6  1  0.00000000  0.00000000  0.00000000  1.0
  Sr  Sr7  1  0.32068801  0.67931199  0.50000000  1.0
  Sr  Sr8  1  -0.32068801  0.32068801  0.50000000  1.0
  Sr  Sr9  1  0.50000000  0.50000000  0.50000000  1.0
