# generated using pymatgen
data_H5(NO)3
_symmetry_space_group_name_H-M   'P 1'
_cell_length_a   8.09872775
_cell_length_b   5.94764579
_cell_length_c   11.65425600
_cell_angle_alpha   90.00000000
_cell_angle_beta   135.45278569
_cell_angle_gamma   90.00000000
_symmetry_Int_Tables_number   1
_chemical_formula_structural   H5(NO)3
_chemical_formula_sum   'H20 N12 O12'
_cell_volume   393.79675233
_cell_formula_units_Z   4
loop_
 _symmetry_equiv_pos_site_id
 _symmetry_equiv_pos_as_xyz
  1  'x, y, z'
loop_
 _atom_site_type_symbol
 _atom_site_label
 _atom_site_symmetry_multiplicity
 _atom_site_fract_x
 _atom_site_fract_y
 _atom_site_fract_z
 _atom_site_occupancy
  H  H0  1  0.94028050  0.98722961  0.25910056  1.0
  H  H1  1  0.94028050  0.51277039  0.75910056  1.0
  H  H2  1  0.05971950  0.48722961  0.24089944  1.0
  H  H3  1  0.05971950  0.01277039  0.74089944  1.0
  H  H4  1  0.94376733  0.81271746  0.37512153  1.0
  H  H5  1  0.94376733  0.68728254  0.87512153  1.0
  H  H6  1  0.05623267  0.31271746  0.12487847  1.0
  H  H7  1  0.05623267  0.18728254  0.62487847  1.0
  H  H8  1  0.68005908  0.92477269  0.20073453  1.0
  H  H9  1  0.68005908  0.57522731  0.70073453  1.0
  H  H10  1  0.31994092  0.42477269  0.29926547  1.0
  H  H11  1  0.31994092  0.07522731  0.79926547  1.0
  H  H12  1  0.29476447  0.05902656  0.34150182  1.0
  H  H13  1  0.29476447  0.44097344  0.84150182  1.0
  H  H14  1  0.70523553  0.55902656  0.15849818  1.0
  H  H15  1  0.70523553  0.94097344  0.65849818  1.0
  H  H16  1  0.28384694  0.22118814  0.45236686  1.0
  H  H17  1  0.28384694  0.27881186  0.95236686  1.0
  H  H18  1  0.71615306  0.72118814  0.04763314  1.0
  H  H19  1  0.71615306  0.77881186  0.54763314  1.0
  N  N20  1  0.84179703  0.86178163  0.25313557  1.0
  N  N21  1  0.84179703  0.63821837  0.75313557  1.0
  N  N22  1  0.15820297  0.36178163  0.24686443  1.0
  N  N23  1  0.15820297  0.13821837  0.74686443  1.0
  N  N24  1  0.69230420  0.35770918  0.36095951  1.0
  N  N25  1  0.69230420  0.14229082  0.86095951  1.0
  N  N26  1  0.30769580  0.85770918  0.13904049  1.0
  N  N27  1  0.30769580  0.64229082  0.63904049  1.0
  N  N28  1  0.18998051  0.16842699  0.33560749  1.0
  N  N29  1  0.18998051  0.33157301  0.83560749  1.0
  N  N30  1  0.81001949  0.66842699  0.16439251  1.0
  N  N31  1  0.81001949  0.83157301  0.66439251  1.0
  O  O32  1  0.88291603  0.26527733  0.42447147  1.0
  O  O33  1  0.88291603  0.23472267  0.92447147  1.0
  O  O34  1  0.11708397  0.76527733  0.07552853  1.0
  O  O35  1  0.11708397  0.73472267  0.57552853  1.0
  O  O36  1  0.65221589  0.39122504  0.44660171  1.0
  O  O37  1  0.65221589  0.10877496  0.94660171  1.0
  O  O38  1  0.34778411  0.89122504  0.05339829  1.0
  O  O39  1  0.34778411  0.60877496  0.55339829  1.0
  O  O40  1  0.54372736  0.41663742  0.21309321  1.0
  O  O41  1  0.54372736  0.08336258  0.71309321  1.0
  O  O42  1  0.45627264  0.91663742  0.28690679  1.0
  O  O43  1  0.45627264  0.58336258  0.78690679  1.0
