# generated using pymatgen
data_B2Pb4O7
_symmetry_space_group_name_H-M   'P 1'
_cell_length_a   7.60607298
_cell_length_b   7.60607298
_cell_length_c   15.66702433
_cell_angle_alpha   90.00000000
_cell_angle_beta   90.00000000
_cell_angle_gamma   85.52817547
_symmetry_Int_Tables_number   1
_chemical_formula_structural   B2Pb4O7
_chemical_formula_sum   'B8 Pb16 O28'
_cell_volume   903.61492605
_cell_formula_units_Z   4
loop_
 _symmetry_equiv_pos_site_id
 _symmetry_equiv_pos_as_xyz
  1  'x, y, z'
loop_
 _atom_site_type_symbol
 _atom_site_label
 _atom_site_symmetry_multiplicity
 _atom_site_fract_x
 _atom_site_fract_y
 _atom_site_fract_z
 _atom_site_occupancy
  B  B0  1  0.60682716  0.63463532  0.75389129  1.0
  B  B1  1  0.36536468  0.39317284  0.24610871  1.0
  B  B2  1  0.10682716  0.13463532  0.74610871  1.0
  B  B3  1  0.86536468  0.89317284  0.25389129  1.0
  B  B4  1  0.60011330  0.62474526  0.00847677  1.0
  B  B5  1  0.37525474  0.39988670  0.99152323  1.0
  B  B6  1  0.10011330  0.12474526  0.49152323  1.0
  B  B7  1  0.87525474  0.89988670  0.50847677  1.0
  Pb  Pb8  1  -0.23309368  1.31620917  0.88161417  1.0
  Pb  Pb9  1  -0.31620917  1.23309368  0.11838583  1.0
  Pb  Pb10  1  0.26690632  0.81620917  0.61838583  1.0
  Pb  Pb11  1  0.18379083  0.73309368  0.38161417  1.0
  Pb  Pb12  1  0.41965315  0.96875702  0.87335791  1.0
  Pb  Pb13  1  0.03124298  0.58034685  0.12664209  1.0
  Pb  Pb14  1  -0.08034685  1.46875702  0.62664209  1.0
  Pb  Pb15  1  -0.46875702  1.08034685  0.37335791  1.0
  Pb  Pb16  1  0.76960405  0.97349397  0.69825569  1.0
  Pb  Pb17  1  0.02650603  0.23039595  0.30174431  1.0
  Pb  Pb18  1  0.26960405  0.47349397  0.80174431  1.0
  Pb  Pb19  1  0.52650603  0.73039595  0.19825569  1.0
  Pb  Pb20  1  -0.10488950  1.85184115  0.92131273  1.0
  Pb  Pb21  1  -0.85184115  1.10488950  0.07868727  1.0
  Pb  Pb22  1  -0.60488950  1.35184115  0.57868727  1.0
  Pb  Pb23  1  -0.35184115  1.60488950  0.42131273  1.0
  O  O24  1  0.47023030  0.76692938  0.75614921  1.0
  O  O25  1  0.23307062  0.52976970  0.24385079  1.0
  O  O26  1  -0.02976970  1.26692938  0.74385079  1.0
  O  O27  1  -0.26692938  1.02976970  0.25614921  1.0
  O  O28  1  -0.29531743  1.03403386  0.83962957  1.0
  O  O29  1  -0.03403386  1.29531743  0.16037043  1.0
  O  O30  1  0.20468257  0.53403386  0.66037043  1.0
  O  O31  1  0.46596614  0.79531743  0.33962957  1.0
  O  O32  1  -0.52232362  1.27593831  0.94662405  1.0
  O  O33  1  -0.27593831  1.52232362  0.05337595  1.0
  O  O34  1  -0.02232362  1.77593831  0.55337595  1.0
  O  O35  1  -0.77593831  1.02232362  0.44662405  1.0
  O  O36  1  -0.22115955  1.67508893  0.73761738  1.0
  O  O37  1  -0.67508893  1.22115955  0.26238262  1.0
  O  O38  1  -0.72115955  1.17508893  0.76238262  1.0
  O  O39  1  -0.17508893  1.72115955  0.23761738  1.0
  O  O40  1  0.06847333  0.96031072  0.73377352  1.0
  O  O41  1  0.03968928  0.93152667  0.26622648  1.0
  O  O42  1  -0.43152667  1.46031072  0.76622648  1.0
  O  O43  1  -0.46031072  1.43152667  0.23377352  1.0
  O  O44  1  -0.09717554  1.09717554  0.00000000  1.0
  O  O45  1  0.40282446  0.59717554  0.50000000  1.0
  O  O46  1  0.63087784  0.78387632  0.97230128  1.0
  O  O47  1  0.21612368  0.36912216  0.02769872  1.0
  O  O48  1  0.13087784  0.28387632  0.52769872  1.0
  O  O49  1  0.71612368  0.86912216  0.47230128  1.0
  O  O50  1  0.42643960  0.57356040  0.00000000  1.0
  O  O51  1  -0.07356040  1.07356040  0.50000000  1.0
