# generated using pymatgen
data_TiPO4
_symmetry_space_group_name_H-M   'P 1'
_cell_length_a   4.81645908
_cell_length_b   6.59255066
_cell_length_c   17.79725892
_cell_angle_alpha   90.00000000
_cell_angle_beta   96.42355036
_cell_angle_gamma   90.00000000
_symmetry_Int_Tables_number   1
_chemical_formula_structural   TiPO4
_chemical_formula_sum   'Ti8 P8 O32'
_cell_volume   561.56415943
_cell_formula_units_Z   8
loop_
 _symmetry_equiv_pos_site_id
 _symmetry_equiv_pos_as_xyz
  1  'x, y, z'
loop_
 _atom_site_type_symbol
 _atom_site_label
 _atom_site_symmetry_multiplicity
 _atom_site_fract_x
 _atom_site_fract_y
 _atom_site_fract_z
 _atom_site_occupancy
  Ti  Ti0  1  0.74967027  1.00000178  0.62498330  1.0
  Ti  Ti1  1  0.74967027  0.49999822  0.62498330  1.0
  Ti  Ti2  1  0.25032973  0.50000178  0.37501670  1.0
  Ti  Ti3  1  0.25032973  -0.00000178  0.37501670  1.0
  Ti  Ti4  1  0.24982375  0.99998846  0.87499598  1.0
  Ti  Ti5  1  0.24982375  0.50001154  0.87499598  1.0
  Ti  Ti6  1  0.75017625  0.49998846  0.12500402  1.0
  Ti  Ti7  1  0.75017625  0.00001154  0.12500402  1.0
  P  P8  1  0.73175050  0.75000000  0.28858169  1.0
  P  P9  1  0.26824950  0.25000000  0.71141831  1.0
  P  P10  1  0.73118595  0.75000000  0.78856161  1.0
  P  P11  1  0.26881405  0.25000000  0.21143839  1.0
  P  P12  1  0.23153288  0.75000000  0.03857180  1.0
  P  P13  1  0.76846712  0.25000000  0.96142820  1.0
  P  P14  1  0.23109627  0.75000000  0.53854584  1.0
  P  P15  1  0.76890373  0.25000000  0.46145416  1.0
  O  O16  1  0.89343093  0.94253374  0.81559825  1.0
  O  O17  1  0.89343093  0.55746626  0.81559825  1.0
  O  O18  1  0.10656907  0.44253374  0.18440175  1.0
  O  O19  1  0.10656907  0.05746626  0.18440175  1.0
  O  O20  1  0.89396609  0.94256093  0.31560816  1.0
  O  O21  1  0.89396609  0.55743907  0.31560816  1.0
  O  O22  1  0.10603391  0.44256093  0.68439184  1.0
  O  O23  1  0.10603391  0.05743907  0.68439184  1.0
  O  O24  1  0.60624586  0.44254588  0.93439200  1.0
  O  O25  1  0.60624586  0.05745412  0.93439200  1.0
  O  O26  1  0.39375414  0.94254588  0.06560800  1.0
  O  O27  1  0.39375414  0.55745412  0.06560800  1.0
  O  O28  1  0.39328492  0.94256004  0.56558601  1.0
  O  O29  1  0.39328492  0.55743996  0.56558601  1.0
  O  O30  1  0.60671508  0.44256004  0.43441399  1.0
  O  O31  1  0.60671508  0.05743996  0.43441399  1.0
  O  O32  1  0.94214580  0.75000000  0.07206000  1.0
  O  O33  1  0.05785420  0.25000000  0.92794000  1.0
  O  O34  1  0.94163630  0.75000000  0.57199626  1.0
  O  O35  1  0.05836370  0.25000000  0.42800374  1.0
  O  O36  1  0.68739526  0.75000000  0.19949287  1.0
  O  O37  1  0.31260474  0.25000000  0.80050713  1.0
  O  O38  1  0.68682120  0.75000000  0.69947069  1.0
  O  O39  1  0.31317880  0.25000000  0.30052931  1.0
  O  O40  1  0.44236214  0.75000000  0.32207339  1.0
  O  O41  1  0.55763786  0.25000000  0.67792661  1.0
  O  O42  1  0.44180137  0.75000000  0.82205352  1.0
  O  O43  1  0.55819863  0.25000000  0.17794648  1.0
  O  O44  1  0.18712122  0.75000000  0.44945372  1.0
  O  O45  1  0.81287878  0.25000000  0.55054628  1.0
  O  O46  1  0.18708211  0.75000000  0.94947983  1.0
  O  O47  1  0.81291789  0.25000000  0.05052017  1.0
