# generated using pymatgen
data_H8(CN2)5
_symmetry_space_group_name_H-M   'P 1'
_cell_length_a   4.28388906
_cell_length_b   15.61377136
_cell_length_c   8.65523744
_cell_angle_alpha   90.00000000
_cell_angle_beta   109.60452876
_cell_angle_gamma   90.00000000
_symmetry_Int_Tables_number   1
_chemical_formula_structural   H8(CN2)5
_chemical_formula_sum   'H16 C10 N20'
_cell_volume   545.36866595
_cell_formula_units_Z   2
loop_
 _symmetry_equiv_pos_site_id
 _symmetry_equiv_pos_as_xyz
  1  'x, y, z'
loop_
 _atom_site_type_symbol
 _atom_site_label
 _atom_site_symmetry_multiplicity
 _atom_site_fract_x
 _atom_site_fract_y
 _atom_site_fract_z
 _atom_site_occupancy
  H  H0  1  1.02139055  0.46201588  0.17367086  1.0
  H  H1  1  -0.02139055  0.96201588  0.82632914  1.0
  H  H2  1  0.87857325  0.27468820  0.96812614  1.0
  H  H3  1  0.12142675  0.77468820  0.03187386  1.0
  H  H4  1  0.82819297  0.70593108  0.75869898  1.0
  H  H5  1  0.17180703  0.20593108  0.24130102  1.0
  H  H6  1  0.82645846  0.56017913  0.94895141  1.0
  H  H7  1  0.17354154  0.06017913  0.05104859  1.0
  H  H8  1  0.70138237  0.96266994  0.92140035  1.0
  H  H9  1  0.29861763  0.46266994  0.07859965  1.0
  H  H10  1  0.56773056  0.74639849  0.84467788  1.0
  H  H11  1  0.43226944  0.24639849  0.15532212  1.0
  H  H12  1  0.50025751  0.10590486  0.69820354  1.0
  H  H13  1  0.49974249  0.60590486  0.30179646  1.0
  H  H14  1  0.50140795  0.21882906  0.72530842  1.0
  H  H15  1  0.49859205  0.71882906  0.27469158  1.0
  C  C16  1  0.98585992  0.36812505  0.43538021  1.0
  C  C17  1  0.01414008  0.86812505  0.56461979  1.0
  C  C18  1  0.89457554  0.05036169  0.38498537  1.0
  C  C19  1  0.10542446  0.55036169  0.61501463  1.0
  C  C20  1  0.84791489  0.14777128  0.90304262  1.0
  C  C21  1  0.15208511  0.64777128  0.09695738  1.0
  C  C22  1  0.25821116  0.47094969  0.67180109  1.0
  C  C23  1  0.74178884  0.97094969  0.32819891  1.0
  C  C24  1  0.20222234  0.39086126  0.59249318  1.0
  C  C25  1  0.79777766  0.89086126  0.40750682  1.0
  N  N26  1  0.97209702  0.61487840  0.56542792  1.0
  N  N27  1  0.02790298  0.11487840  0.43457208  1.0
  N  N28  1  0.98968383  0.21567477  0.99657561  1.0
  N  N29  1  0.01031617  0.71567477  0.00342439  1.0
  N  N30  1  0.96808640  0.06894536  0.94913600  1.0
  N  N31  1  0.03191360  0.56894536  0.05086400  1.0
  N  N32  1  0.80809482  -0.00094248  0.85420636  1.0
  N  N33  1  0.19190518  0.49905752  0.14579364  1.0
  N  N34  1  0.80937037  0.35039723  0.30409086  1.0
  N  N35  1  0.19062963  0.85039723  0.69590914  1.0
  N  N36  1  0.74751963  0.70131678  0.85722170  1.0
  N  N37  1  0.25248037  0.20131678  0.14277830  1.0
  N  N38  1  0.58740709  0.15852397  0.76804001  1.0
  N  N39  1  0.41259291  0.65852397  0.23195999  1.0
  N  N40  1  0.57713227  0.37678510  0.83156514  1.0
  N  N41  1  0.42286773  0.87678510  0.16843486  1.0
  N  N42  1  0.49437958  0.45950008  0.82107088  1.0
  N  N43  1  0.50562042  0.95950008  0.17892912  1.0
  N  N44  1  0.40696770  0.33413517  0.69693824  1.0
  N  N45  1  0.59303230  0.83413517  0.30306176  1.0
