# generated using pymatgen
data_B5W2
_symmetry_space_group_name_H-M   'P 1'
_cell_length_a   7.33954115
_cell_length_b   7.33954115
_cell_length_c   7.33954115
_cell_angle_alpha   24.29034572
_cell_angle_beta   24.29034572
_cell_angle_gamma   24.29034572
_symmetry_Int_Tables_number   1
_chemical_formula_structural   B5W2
_chemical_formula_sum   'B5 W2'
_cell_volume   58.80789665
_cell_formula_units_Z   1
loop_
 _symmetry_equiv_pos_site_id
 _symmetry_equiv_pos_as_xyz
  1  'x, y, z'
loop_
 _atom_site_type_symbol
 _atom_site_label
 _atom_site_symmetry_multiplicity
 _atom_site_fract_x
 _atom_site_fract_y
 _atom_site_fract_z
 _atom_site_occupancy
  B  B0  1  0.83110927  0.83110927  0.83110927  1.0
  B  B1  1  1.16889073  1.16889073  0.16889073  1.0
  B  B2  1  0.68515034  0.68515034  0.68515034  1.0
  B  B3  1  1.31484966  1.31484966  0.31484966  1.0
  B  B4  1  0.00000000  -0.00000000  -0.00000000  1.0
  W  W5  1  1.57662212  0.57662212  0.57662212  1.0
  W  W6  1  1.42337788  0.42337788  0.42337788  1.0
