# generated using pymatgen
data_CaZrO3
_symmetry_space_group_name_H-M   'P 1'
_cell_length_a   5.79980678
_cell_length_b   8.06331750
_cell_length_c   5.61305287
_cell_angle_alpha   90.00000000
_cell_angle_beta   90.00000000
_cell_angle_gamma   90.00000000
_symmetry_Int_Tables_number   1
_chemical_formula_structural   CaZrO3
_chemical_formula_sum   'Ca4 Zr4 O12'
_cell_volume   262.49825393
_cell_formula_units_Z   4
loop_
 _symmetry_equiv_pos_site_id
 _symmetry_equiv_pos_as_xyz
  1  'x, y, z'
loop_
 _atom_site_type_symbol
 _atom_site_label
 _atom_site_symmetry_multiplicity
 _atom_site_fract_x
 _atom_site_fract_y
 _atom_site_fract_z
 _atom_site_occupancy
  Ca  Ca0  1  0.54991486  0.25000000  0.48671932  1.0
  Ca  Ca1  1  0.04991486  0.25000000  0.01328068  1.0
  Ca  Ca2  1  0.45008514  0.75000000  0.51328068  1.0
  Ca  Ca3  1  0.95008514  0.75000000  0.98671932  1.0
  Zr  Zr4  1  0.50000000  0.00000000  0.00000000  1.0
  Zr  Zr5  1  0.00000000  0.50000000  0.50000000  1.0
  Zr  Zr6  1  0.50000000  0.50000000  0.00000000  1.0
  Zr  Zr7  1  0.00000000  0.00000000  0.50000000  1.0
  O  O8  1  -0.04095361  0.25000000  0.60701009  1.0
  O  O9  1  0.45904639  0.25000000  0.89298991  1.0
  O  O10  1  1.04095361  0.75000000  0.39298991  1.0
  O  O11  1  0.54095361  0.75000000  0.10701009  1.0
  O  O12  1  0.79924005  0.05690518  0.19836737  1.0
  O  O13  1  0.29924005  0.44309482  0.30163263  1.0
  O  O14  1  0.20075995  0.55690518  0.80163263  1.0
  O  O15  1  0.70075995  0.94309482  0.69836737  1.0
  O  O16  1  0.20075995  0.94309482  0.80163263  1.0
  O  O17  1  0.70075995  0.55690518  0.69836737  1.0
  O  O18  1  0.79924005  0.44309482  0.19836737  1.0
  O  O19  1  0.29924005  0.05690518  0.30163263  1.0
