# generated using pymatgen
data_SbN6Cl
_symmetry_space_group_name_H-M   'P 1'
_cell_length_a   6.99433136
_cell_length_b   6.99433136
_cell_length_c   13.77646760
_cell_angle_alpha   83.33952979
_cell_angle_beta   96.66047021
_cell_angle_gamma   112.68239903
_symmetry_Int_Tables_number   1
_chemical_formula_structural   SbN6Cl
_chemical_formula_sum   'Sb4 N24 Cl4'
_cell_volume   615.76138417
_cell_formula_units_Z   4
loop_
 _symmetry_equiv_pos_site_id
 _symmetry_equiv_pos_as_xyz
  1  'x, y, z'
loop_
 _atom_site_type_symbol
 _atom_site_label
 _atom_site_symmetry_multiplicity
 _atom_site_fract_x
 _atom_site_fract_y
 _atom_site_fract_z
 _atom_site_occupancy
  Sb  Sb0  1  0.68670148  -0.15017889  0.48011240  1.0
  Sb  Sb1  1  1.15017889  0.31329852  0.98011240  1.0
  Sb  Sb2  1  0.84982111  -0.31329852  0.01988760  1.0
  Sb  Sb3  1  1.31329852  0.15017889  0.51988760  1.0
  N  N4  1  0.45768517  -0.27218105  0.17138794  1.0
  N  N5  1  1.27218105  0.54231483  0.67138794  1.0
  N  N6  1  0.72781895  -0.54231483  0.32861206  1.0
  N  N7  1  1.54231483  0.27218105  0.82861206  1.0
  N  N8  1  1.85736564  0.14164951  0.22322041  1.0
  N  N9  1  0.85835049  -0.85736564  0.72322041  1.0
  N  N10  1  1.14164951  0.85736564  0.27677959  1.0
  N  N11  1  0.14263436  -0.14164951  0.77677959  1.0
  N  N12  1  1.55224351  0.15407324  0.42842126  1.0
  N  N13  1  0.84592676  -0.55224351  0.92842126  1.0
  N  N14  1  1.15407324  0.55224351  0.07157874  1.0
  N  N15  1  0.44775649  -0.15407324  0.57157874  1.0
  N  N16  1  1.64155709  0.31202704  0.37698669  1.0
  N  N17  1  0.68797296  -0.64155709  0.87698669  1.0
  N  N18  1  1.31202704  0.64155709  0.12301331  1.0
  N  N19  1  0.35844291  -0.31202704  0.62301331  1.0
  N  N20  1  0.11479030  -0.10438411  0.35133562  1.0
  N  N21  1  1.10438411  0.88520970  0.85133562  1.0
  N  N22  1  0.89561589  -0.88520970  0.14866438  1.0
  N  N23  1  1.88520970  0.10438411  0.64866438  1.0
  N  N24  1  0.07603663  -0.07045478  0.43057280  1.0
  N  N25  1  1.07045478  0.92396337  0.93057280  1.0
  N  N26  1  0.92954522  -0.92396337  0.06942720  1.0
  N  N27  1  1.92396337  0.07045478  0.56942720  1.0
  Cl  Cl28  1  1.44158047  0.27178015  0.08785059  1.0
  Cl  Cl29  1  0.72821985  -0.44158047  0.58785059  1.0
  Cl  Cl30  1  1.27178015  0.44158047  0.41214941  1.0
  Cl  Cl31  1  0.55841953  -0.27178015  0.91214941  1.0
