# generated using pymatgen
data_KYb(BH4)4
_symmetry_space_group_name_H-M   'P 1'
_cell_length_a   7.71811641
_cell_length_b   7.71811641
_cell_length_c   9.93567399
_cell_angle_alpha   90.00000000
_cell_angle_beta   90.00000000
_cell_angle_gamma   113.37413858
_symmetry_Int_Tables_number   1
_chemical_formula_structural   KYb(BH4)4
_chemical_formula_sum   'K2 Yb2 B8 H32'
_cell_volume   543.28953578
_cell_formula_units_Z   2
loop_
 _symmetry_equiv_pos_site_id
 _symmetry_equiv_pos_as_xyz
  1  'x, y, z'
loop_
 _atom_site_type_symbol
 _atom_site_label
 _atom_site_symmetry_multiplicity
 _atom_site_fract_x
 _atom_site_fract_y
 _atom_site_fract_z
 _atom_site_occupancy
  K  K0  1  0.00000000  0.00000000  0.50000000  1.0
  K  K1  1  0.00000000  0.00000000  0.00000000  1.0
  Yb  Yb2  1  0.35969508  0.64030492  0.25000000  1.0
  Yb  Yb3  1  -0.35969508  1.35969508  0.75000000  1.0
  B  B4  1  0.23498589  0.29374608  0.25000000  1.0
  B  B5  1  -0.70625392  1.23498589  0.75000000  1.0
  B  B6  1  0.70625392  0.76501411  0.25000000  1.0
  B  B7  1  -0.23498589  1.70625392  0.75000000  1.0
  B  B8  1  0.25251017  0.74748983  0.45148502  1.0
  B  B9  1  0.25251017  0.74748983  0.04851498  1.0
  B  B10  1  -0.25251017  1.25251017  0.95148502  1.0
  B  B11  1  -0.25251017  1.25251017  0.54851498  1.0
  H  H12  1  0.11790346  0.64575076  0.38069010  1.0
  H  H13  1  0.11790346  0.64575076  0.11930990  1.0
  H  H14  1  -0.35424924  1.11790346  0.88069010  1.0
  H  H15  1  -0.35424924  1.11790346  0.61930990  1.0
  H  H16  1  0.35424924  0.88209654  0.38069010  1.0
  H  H17  1  0.35424924  0.88209654  0.11930990  1.0
  H  H18  1  -0.11790346  1.35424924  0.88069010  1.0
  H  H19  1  -0.11790346  1.35424924  0.61930990  1.0
  H  H20  1  0.33428693  0.36013937  0.35032847  1.0
  H  H21  1  0.33428693  0.36013937  0.14967153  1.0
  H  H22  1  -0.63986063  1.33428693  0.85032847  1.0
  H  H23  1  -0.63986063  1.33428693  0.64967153  1.0
  H  H24  1  0.63986063  0.66571307  0.35032847  1.0
  H  H25  1  0.63986063  0.66571307  0.14967153  1.0
  H  H26  1  -0.33428693  1.63986063  0.85032847  1.0
  H  H27  1  -0.33428693  1.63986063  0.64967153  1.0
  H  H28  1  -0.12354730  1.82567630  0.25000000  1.0
  H  H29  1  0.82567630  0.87645270  0.75000000  1.0
  H  H30  1  -0.82567630  1.12354730  0.25000000  1.0
  H  H31  1  0.12354730  0.17432370  0.75000000  1.0
  H  H32  1  0.10688626  0.35251921  0.25000000  1.0
  H  H33  1  -0.64748079  1.10688626  0.75000000  1.0
  H  H34  1  0.64748079  0.89311374  0.25000000  1.0
  H  H35  1  -0.10688626  1.64748079  0.75000000  1.0
  H  H36  1  0.20288075  0.79711925  0.94602730  1.0
  H  H37  1  0.20288075  0.79711925  0.55397270  1.0
  H  H38  1  -0.20288075  1.20288075  0.44602730  1.0
  H  H39  1  -0.20288075  1.20288075  0.05397270  1.0
  H  H40  1  0.34677293  0.65322707  0.47734237  1.0
  H  H41  1  0.34677293  0.65322707  0.02265763  1.0
  H  H42  1  -0.34677293  1.34677293  0.97734237  1.0
  H  H43  1  -0.34677293  1.34677293  0.52265763  1.0
