# generated using pymatgen
data_Ba(GeIr)2
_symmetry_space_group_name_H-M   'P 1'
_cell_length_a   8.96272919
_cell_length_b   8.96346752
_cell_length_c   7.79231730
_cell_angle_alpha   64.22961630
_cell_angle_beta   64.23939455
_cell_angle_gamma   51.53098915
_symmetry_Int_Tables_number   1
_chemical_formula_structural   Ba(GeIr)2
_chemical_formula_sum   'Ba4 Ge8 Ir8'
_cell_volume   429.25806049
_cell_formula_units_Z   4
loop_
 _symmetry_equiv_pos_site_id
 _symmetry_equiv_pos_as_xyz
  1  'x, y, z'
loop_
 _atom_site_type_symbol
 _atom_site_label
 _atom_site_symmetry_multiplicity
 _atom_site_fract_x
 _atom_site_fract_y
 _atom_site_fract_z
 _atom_site_occupancy
  Ba  Ba0  1  0.12500000  0.12500000  1.62500000  1.0
  Ba  Ba1  1  0.12500000  0.62500000  1.12500000  1.0
  Ba  Ba2  1  0.12500000  0.12500000  1.12500000  1.0
  Ba  Ba3  1  0.62500000  0.12500000  1.12500000  1.0
  Ge  Ge4  1  -0.19346341  0.47668579  0.35838054  1.0
  Ge  Ge5  1  0.35839708  0.35838054  1.47668579  1.0
  Ge  Ge6  1  -0.22668579  0.44346341  0.89160292  1.0
  Ge  Ge7  1  -0.10838054  0.89160292  0.44346341  1.0
  Ge  Ge8  1  0.35838054  0.35839708  -0.19346341  1.0
  Ge  Ge9  1  0.47668579  -0.19346341  1.35839708  1.0
  Ge  Ge10  1  -0.10839708  0.89161946  0.77331421  1.0
  Ge  Ge11  1  -0.55653659  0.77331421  0.89161946  1.0
  Ir  Ir12  1  0.53129651  0.53138556  1.22618963  1.0
  Ir  Ir13  1  -0.28887170  0.22618963  0.53138556  1.0
  Ir  Ir14  1  -0.28138556  0.71870349  0.53887170  1.0
  Ir  Ir15  1  0.02381037  0.53887170  0.71870349  1.0
  Ir  Ir16  1  0.22618963  -0.28887170  1.53129651  1.0
  Ir  Ir17  1  0.53138556  0.53129651  -0.28887170  1.0
  Ir  Ir18  1  -0.46112830  1.02381037  0.71861444  1.0
  Ir  Ir19  1  -0.28129651  0.71861444  1.02381037  1.0
