# generated using pymatgen
data_La7Si5Ni2
_symmetry_space_group_name_H-M   'P 1'
_cell_length_a   23.37481992
_cell_length_b   4.36492331
_cell_length_c   13.87645637
_cell_angle_alpha   90.00000000
_cell_angle_beta   90.00000000
_cell_angle_gamma   90.00000000
_symmetry_Int_Tables_number   1
_chemical_formula_structural   La7Si5Ni2
_chemical_formula_sum   'La28 Si20 Ni8'
_cell_volume   1415.80507787
_cell_formula_units_Z   4
loop_
 _symmetry_equiv_pos_site_id
 _symmetry_equiv_pos_as_xyz
  1  'x, y, z'
loop_
 _atom_site_type_symbol
 _atom_site_label
 _atom_site_symmetry_multiplicity
 _atom_site_fract_x
 _atom_site_fract_y
 _atom_site_fract_z
 _atom_site_occupancy
  La  La0  1  0.47930776  0.75000000  0.11648220  1.0
  La  La1  1  0.97930776  0.75000000  0.38351780  1.0
  La  La2  1  0.52069224  0.25000000  0.88351780  1.0
  La  La3  1  0.02069224  0.25000000  0.61648220  1.0
  La  La4  1  0.43198295  0.75000000  0.54442309  1.0
  La  La5  1  0.93198295  0.75000000  0.95557691  1.0
  La  La6  1  0.56801705  0.25000000  0.45557691  1.0
  La  La7  1  0.06801705  0.25000000  0.04442309  1.0
  La  La8  1  0.27421178  0.75000000  0.39925121  1.0
  La  La9  1  0.77421178  0.75000000  0.10074879  1.0
  La  La10  1  0.72578822  0.25000000  0.60074879  1.0
  La  La11  1  0.22578822  0.25000000  0.89925121  1.0
  La  La12  1  0.26199635  0.75000000  0.66281106  1.0
  La  La13  1  0.76199635  0.75000000  0.83718894  1.0
  La  La14  1  0.73800365  0.25000000  0.33718894  1.0
  La  La15  1  0.23800365  0.25000000  0.16281106  1.0
  La  La16  1  0.13286601  0.75000000  0.52298208  1.0
  La  La17  1  0.63286601  0.75000000  0.97701792  1.0
  La  La18  1  0.86713399  0.25000000  0.47701792  1.0
  La  La19  1  0.36713399  0.25000000  0.02298208  1.0
  La  La20  1  0.11733436  0.75000000  0.24911675  1.0
  La  La21  1  0.61733436  0.75000000  0.25088325  1.0
  La  La22  1  0.88266564  0.25000000  0.75088325  1.0
  La  La23  1  0.38266564  0.25000000  0.74911675  1.0
  La  La24  1  0.10349096  0.75000000  0.80869148  1.0
  La  La25  1  0.60349096  0.75000000  0.69130852  1.0
  La  La26  1  0.89650904  0.25000000  0.19130852  1.0
  La  La27  1  0.39650904  0.25000000  0.30869148  1.0
  Si  Si28  1  0.42776863  0.75000000  0.89211218  1.0
  Si  Si29  1  0.92776863  0.75000000  0.60788782  1.0
  Si  Si30  1  0.57223137  0.25000000  0.10788782  1.0
  Si  Si31  1  0.07223137  0.25000000  0.39211218  1.0
  Si  Si32  1  0.33537471  0.75000000  0.17916984  1.0
  Si  Si33  1  0.83537471  0.75000000  0.32083016  1.0
  Si  Si34  1  0.66462529  0.25000000  0.82083016  1.0
  Si  Si35  1  0.16462529  0.25000000  0.67916984  1.0
  Si  Si36  1  0.32186598  0.75000000  0.87790353  1.0
  Si  Si37  1  0.82186598  0.75000000  0.62209647  1.0
  Si  Si38  1  0.67813402  0.25000000  0.12209647  1.0
  Si  Si39  1  0.17813402  0.25000000  0.37790353  1.0
  Si  Si40  1  0.16808894  0.75000000  0.03260505  1.0
  Si  Si41  1  0.66808894  0.75000000  0.46739495  1.0
  Si  Si42  1  0.83191106  0.25000000  0.96739495  1.0
  Si  Si43  1  0.33191106  0.25000000  0.53260505  1.0
  Si  Si44  1  -0.00587371  0.75000000  0.15908882  1.0
  Si  Si45  1  0.49412629  0.75000000  0.34091118  1.0
  Si  Si46  1  1.00587371  0.25000000  0.84091118  1.0
  Si  Si47  1  0.50587371  0.25000000  0.65908882  1.0
  Ni  Ni48  1  0.48066511  0.75000000  0.74078867  1.0
  Ni  Ni49  1  0.98066511  0.75000000  0.75921133  1.0
  Ni  Ni50  1  0.51933489  0.25000000  0.25921133  1.0
  Ni  Ni51  1  0.01933489  0.25000000  0.24078867  1.0
  Ni  Ni52  1  0.27326231  0.75000000  0.03045125  1.0
  Ni  Ni53  1  0.77326231  0.75000000  0.46954875  1.0
  Ni  Ni54  1  0.72673769  0.25000000  0.96954875  1.0
  Ni  Ni55  1  0.22673769  0.25000000  0.53045125  1.0
