# generated using pymatgen
data_MgSiO3
_symmetry_space_group_name_H-M   'P 1'
_cell_length_a   9.36190979
_cell_length_b   8.85800883
_cell_length_c   5.37906349
_cell_angle_alpha   90.00000000
_cell_angle_beta   90.00000000
_cell_angle_gamma   90.00000000
_symmetry_Int_Tables_number   1
_chemical_formula_structural   MgSiO3
_chemical_formula_sum   'Mg8 Si8 O24'
_cell_volume   446.07433005
_cell_formula_units_Z   8
loop_
 _symmetry_equiv_pos_site_id
 _symmetry_equiv_pos_as_xyz
  1  'x, y, z'
loop_
 _atom_site_type_symbol
 _atom_site_label
 _atom_site_symmetry_multiplicity
 _atom_site_fract_x
 _atom_site_fract_y
 _atom_site_fract_z
 _atom_site_occupancy
  Mg  Mg0  1  0.50000000  0.40131023  0.25000000  1.0
  Mg  Mg1  1  0.00000000  0.09868977  0.75000000  1.0
  Mg  Mg2  1  0.50000000  0.59868977  0.75000000  1.0
  Mg  Mg3  1  0.00000000  0.90131023  0.25000000  1.0
  Mg  Mg4  1  0.50000000  0.23874341  0.75000000  1.0
  Mg  Mg5  1  0.00000000  0.26125659  0.25000000  1.0
  Mg  Mg6  1  0.50000000  0.76125659  0.25000000  1.0
  Mg  Mg7  1  0.00000000  0.73874341  0.75000000  1.0
  Si  Si8  1  0.79204867  0.40940639  0.56288133  1.0
  Si  Si9  1  0.70795133  0.09059361  0.06288133  1.0
  Si  Si10  1  0.29204867  0.09059361  0.43711867  1.0
  Si  Si11  1  0.20795133  0.40940639  0.93711867  1.0
  Si  Si12  1  0.20795133  0.59059361  0.43711867  1.0
  Si  Si13  1  0.29204867  0.90940639  0.93711867  1.0
  Si  Si14  1  0.70795133  0.90940639  0.56288133  1.0
  Si  Si15  1  0.79204867  0.59059361  0.06288133  1.0
  O  O16  1  0.61786079  0.40621023  0.57626412  1.0
  O  O17  1  0.88213921  0.09378977  0.07626412  1.0
  O  O18  1  0.11786079  0.09378977  0.42373588  1.0
  O  O19  1  0.38213921  0.40621023  0.92373588  1.0
  O  O20  1  0.38213921  0.59378977  0.42373588  1.0
  O  O21  1  0.11786079  0.90621023  0.92373588  1.0
  O  O22  1  0.88213921  0.90621023  0.57626412  1.0
  O  O23  1  0.61786079  0.59378977  0.07626412  1.0
  O  O24  1  0.87843457  0.25254774  0.56744705  1.0
  O  O25  1  0.62156543  0.24745226  0.06744705  1.0
  O  O26  1  0.37843457  0.24745226  0.43255295  1.0
  O  O27  1  0.12156543  0.25254774  0.93255295  1.0
  O  O28  1  0.12156543  0.74745226  0.43255295  1.0
  O  O29  1  0.37843457  0.75254774  0.93255295  1.0
  O  O30  1  0.62156543  0.75254774  0.56744705  1.0
  O  O31  1  0.87843457  0.74745226  0.06744705  1.0
  O  O32  1  0.84854959  0.52603150  0.78527115  1.0
  O  O33  1  0.65145041  -0.02603150  0.28527115  1.0
  O  O34  1  0.34854959  -0.02603150  0.21472885  1.0
  O  O35  1  0.15145041  0.52603150  0.71472885  1.0
  O  O36  1  0.15145041  0.47396850  0.21472885  1.0
  O  O37  1  0.34854959  1.02603150  0.71472885  1.0
  O  O38  1  0.65145041  1.02603150  0.78527115  1.0
  O  O39  1  0.84854959  0.47396850  0.28527115  1.0
