# generated using pymatgen
data_Li2NiO2
_symmetry_space_group_name_H-M   'P 1'
_cell_length_a   3.13735772
_cell_length_b   3.13735772
_cell_length_c   5.02278480
_cell_angle_alpha   90.00000000
_cell_angle_beta   90.00000000
_cell_angle_gamma   120.00000000
_symmetry_Int_Tables_number   1
_chemical_formula_structural   Li2NiO2
_chemical_formula_sum   'Li2 Ni1 O2'
_cell_volume   42.81572288
_cell_formula_units_Z   1
loop_
 _symmetry_equiv_pos_site_id
 _symmetry_equiv_pos_as_xyz
  1  'x, y, z'
loop_
 _atom_site_type_symbol
 _atom_site_label
 _atom_site_symmetry_multiplicity
 _atom_site_fract_x
 _atom_site_fract_y
 _atom_site_fract_z
 _atom_site_occupancy
  Li  Li0  1  0.33333333  0.66666667  0.64876223  1.0
  Li  Li1  1  0.66666667  0.33333333  0.35123777  1.0
  Ni  Ni2  1  0.00000000  0.00000000  0.00000000  1.0
  O  O3  1  0.33333333  0.66666667  0.23343337  1.0
  O  O4  1  0.66666667  0.33333333  0.76656663  1.0
