# generated using pymatgen
data_CdMoO2
_symmetry_space_group_name_H-M   'P 1'
_cell_length_a   7.19021235
_cell_length_b   7.19021235
_cell_length_c   7.19021235
_cell_angle_alpha   129.86786979
_cell_angle_beta   129.86786979
_cell_angle_gamma   73.61808496
_symmetry_Int_Tables_number   1
_chemical_formula_structural   CdMoO2
_chemical_formula_sum   'Cd4 Mo4 O8'
_cell_volume   213.67896933
_cell_formula_units_Z   4
loop_
 _symmetry_equiv_pos_site_id
 _symmetry_equiv_pos_as_xyz
  1  'x, y, z'
loop_
 _atom_site_type_symbol
 _atom_site_label
 _atom_site_symmetry_multiplicity
 _atom_site_fract_x
 _atom_site_fract_y
 _atom_site_fract_z
 _atom_site_occupancy
  Cd  Cd0  1  0.37500000  0.62500000  0.75000000  1.0
  Cd  Cd1  1  0.87500000  0.62500000  1.25000000  1.0
  Cd  Cd2  1  0.37500000  1.12500000  0.75000000  1.0
  Cd  Cd3  1  0.37500000  0.62500000  0.25000000  1.0
  Mo  Mo4  1  0.87500000  0.12500000  0.75000000  1.0
  Mo  Mo5  1  0.37500000  0.12500000  0.25000000  1.0
  Mo  Mo6  1  0.87500000  0.62500000  0.75000000  1.0
  Mo  Mo7  1  0.87500000  1.12500000  1.25000000  1.0
  O  O8  1  1.18531771  0.98104357  1.79572109  1.0
  O  O9  1  0.56467752  0.86040338  1.29572109  1.0
  O  O10  1  1.01895643  0.81467752  1.20427414  1.0
  O  O11  1  1.13959662  1.43531771  1.70427414  1.0
  O  O12  1  0.18532248  0.38959662  0.20427891  1.0
  O  O13  1  0.56468229  0.26895643  0.70427891  1.0
  O  O14  1  0.61040338  0.81468229  0.79572586  1.0
  O  O15  1  0.73104357  0.43532248  0.29572586  1.0
