# generated using pymatgen
data_MgB7
_symmetry_space_group_name_H-M   'P 1'
_cell_length_a   7.25256942
_cell_length_b   7.25256942
_cell_length_c   7.25256942
_cell_angle_alpha   131.43678597
_cell_angle_beta   87.78814195
_cell_angle_gamma   112.13568740
_symmetry_Int_Tables_number   1
_chemical_formula_structural   MgB7
_chemical_formula_sum   'Mg4 B28'
_cell_volume   252.41669352
_cell_formula_units_Z   4
loop_
 _symmetry_equiv_pos_site_id
 _symmetry_equiv_pos_as_xyz
  1  'x, y, z'
loop_
 _atom_site_type_symbol
 _atom_site_label
 _atom_site_symmetry_multiplicity
 _atom_site_fract_x
 _atom_site_fract_y
 _atom_site_fract_z
 _atom_site_occupancy
  Mg  Mg0  1  1.11440199  0.36440199  0.75000000  1.0
  Mg  Mg1  1  0.88559801  0.63559801  0.25000000  1.0
  Mg  Mg2  1  1.50000000  1.50000000  1.50000000  1.0
  Mg  Mg3  1  1.50000000  1.00000000  1.00000000  1.0
  B  B4  1  1.27284280  0.68101967  1.28070796  1.0
  B  B5  1  1.09968829  1.00786516  1.78070796  1.0
  B  B6  1  0.72715720  1.00786516  0.40817687  1.0
  B  B7  1  0.90031171  1.68101967  0.90817687  1.0
  B  B8  1  1.27284280  0.99213484  1.59182313  1.0
  B  B9  1  1.09968829  0.31898033  1.09182313  1.0
  B  B10  1  0.72715720  1.31898033  0.71929204  1.0
  B  B11  1  0.90031171  0.99213484  0.21929204  1.0
  B  B12  1  0.87740419  0.70858753  0.67549723  1.0
  B  B13  1  1.46690970  0.79809303  1.17549723  1.0
  B  B14  1  1.12259581  0.79809303  0.83118333  1.0
  B  B15  1  0.53309030  0.70858753  0.33118333  1.0
  B  B16  1  0.87740419  1.20190697  1.16881667  1.0
  B  B17  1  1.46690970  1.29141247  1.66881667  1.0
  B  B18  1  1.12259581  1.29141247  1.32450277  1.0
  B  B19  1  0.53309030  1.20190697  0.82450277  1.0
  B  B20  1  1.74138497  0.82359952  0.91778545  1.0
  B  B21  1  1.59418592  1.17640048  1.41778545  1.0
  B  B22  1  0.25861503  0.17640048  0.08221455  1.0
  B  B23  1  0.40581408  0.82359952  0.58221455  1.0
  B  B24  1  1.47439698  0.61507434  0.85932264  1.0
  B  B25  1  0.74424830  0.38492566  0.35932264  1.0
  B  B26  1  0.52560302  0.38492566  0.14067736  1.0
  B  B27  1  1.25575170  0.61507434  0.64067736  1.0
  B  B28  1  1.30946362  0.97566588  1.33379774  1.0
  B  B29  1  0.85813186  1.02433412  0.83379774  1.0
  B  B30  1  0.69053638  1.02433412  0.66620226  1.0
  B  B31  1  1.14186814  0.97566588  1.16620226  1.0
