# generated using pymatgen
data_SrAl2
_symmetry_space_group_name_H-M   'P 1'
_cell_length_a   4.49073634
_cell_length_b   4.49109953
_cell_length_c   7.83903838
_cell_angle_alpha   90.00000000
_cell_angle_beta   90.00000000
_cell_angle_gamma   90.00000000
_symmetry_Int_Tables_number   1
_chemical_formula_structural   SrAl2
_chemical_formula_sum   'Sr2 Al4'
_cell_volume   158.10042168
_cell_formula_units_Z   2
loop_
 _symmetry_equiv_pos_site_id
 _symmetry_equiv_pos_as_xyz
  1  'x, y, z'
loop_
 _atom_site_type_symbol
 _atom_site_label
 _atom_site_symmetry_multiplicity
 _atom_site_fract_x
 _atom_site_fract_y
 _atom_site_fract_z
 _atom_site_occupancy
  Sr  Sr0  1  0.50000000  0.00000000  0.32441660  1.0
  Sr  Sr1  1  0.00000000  0.50000000  0.67558340  1.0
  Al  Al2  1  0.00000000  0.00000000  1.00003653  1.0
  Al  Al3  1  0.50000000  0.50000000  -0.00003653  1.0
  Al  Al4  1  0.00000000  0.50000000  0.20471025  1.0
  Al  Al5  1  0.50000000  0.00000000  0.79528975  1.0
