# generated using pymatgen
data_TaCdS2
_symmetry_space_group_name_H-M   'P 1'
_cell_length_a   3.30782515
_cell_length_b   3.30782515
_cell_length_c   18.09110237
_cell_angle_alpha   90.00000000
_cell_angle_beta   90.00000000
_cell_angle_gamma   120.00000000
_symmetry_Int_Tables_number   1
_chemical_formula_structural   TaCdS2
_chemical_formula_sum   'Ta2 Cd2 S4'
_cell_volume   171.42760344
_cell_formula_units_Z   2
loop_
 _symmetry_equiv_pos_site_id
 _symmetry_equiv_pos_as_xyz
  1  'x, y, z'
loop_
 _atom_site_type_symbol
 _atom_site_label
 _atom_site_symmetry_multiplicity
 _atom_site_fract_x
 _atom_site_fract_y
 _atom_site_fract_z
 _atom_site_occupancy
  Ta  Ta0  1  0.33333333  0.66666667  0.25000000  1.0
  Ta  Ta1  1  0.66666667  0.33333333  0.75000000  1.0
  Cd  Cd2  1  0.00000000  0.00000000  0.50000000  1.0
  Cd  Cd3  1  -0.00000000  -0.00000000  0.00000000  1.0
  S  S4  1  0.33333333  0.66666667  0.83691503  1.0
  S  S5  1  0.66666667  0.33333333  0.16308497  1.0
  S  S6  1  0.66666667  0.33333333  0.33691503  1.0
  S  S7  1  0.33333333  0.66666667  0.66308497  1.0
