# generated using pymatgen
data_Mn2O3
_symmetry_space_group_name_H-M   'P 1'
_cell_length_a   9.49016899
_cell_length_b   9.49108782
_cell_length_c   9.49112881
_cell_angle_alpha   90.00000000
_cell_angle_beta   90.00000000
_cell_angle_gamma   90.00000000
_symmetry_Int_Tables_number   1
_chemical_formula_structural   Mn2O3
_chemical_formula_sum   'Mn32 O48'
_cell_volume   854.88521372
_cell_formula_units_Z   16
loop_
 _symmetry_equiv_pos_site_id
 _symmetry_equiv_pos_as_xyz
  1  'x, y, z'
loop_
 _atom_site_type_symbol
 _atom_site_label
 _atom_site_symmetry_multiplicity
 _atom_site_fract_x
 _atom_site_fract_y
 _atom_site_fract_z
 _atom_site_occupancy
  Mn  Mn0  1  0.49998807  0.24999461  0.21518728  1.0
  Mn  Mn1  1  0.49998807  0.25000539  0.71518728  1.0
  Mn  Mn2  1  0.99998807  0.24999461  0.28481272  1.0
  Mn  Mn3  1  0.99998807  0.25000539  0.78481272  1.0
  Mn  Mn4  1  0.50001193  0.74999461  0.28481272  1.0
  Mn  Mn5  1  0.50001193  0.75000539  0.78481272  1.0
  Mn  Mn6  1  0.00001193  0.74999461  0.21518728  1.0
  Mn  Mn7  1  0.00001193  0.75000539  0.71518728  1.0
  Mn  Mn8  1  0.28483703  0.50000719  0.25003478  1.0
  Mn  Mn9  1  0.28483703  -0.00000719  0.75003478  1.0
  Mn  Mn10  1  0.78483703  0.50000719  0.24996522  1.0
  Mn  Mn11  1  0.78483703  -0.00000719  0.74996522  1.0
  Mn  Mn12  1  0.71516297  1.00000719  0.24996522  1.0
  Mn  Mn13  1  0.71516297  0.49999281  0.74996522  1.0
  Mn  Mn14  1  0.21516297  1.00000719  0.25003478  1.0
  Mn  Mn15  1  0.21516297  0.49999281  0.75003478  1.0
  Mn  Mn16  1  0.24996625  0.21519038  0.00004859  1.0
  Mn  Mn17  1  0.24996625  0.28480962  0.50004859  1.0
  Mn  Mn18  1  0.74996625  0.21519038  0.49995141  1.0
  Mn  Mn19  1  0.74996625  0.28480962  0.99995141  1.0
  Mn  Mn20  1  0.75003375  0.71519038  0.49995141  1.0
  Mn  Mn21  1  0.75003375  0.78480962  0.99995141  1.0
  Mn  Mn22  1  0.25003375  0.71519038  0.00004859  1.0
  Mn  Mn23  1  0.25003375  0.78480962  0.50004859  1.0
  Mn  Mn24  1  0.50000000  0.50000000  0.50000000  1.0
  Mn  Mn25  1  0.50000000  0.00000000  0.00000000  1.0
  Mn  Mn26  1  0.00000000  0.50000000  0.00000000  1.0
  Mn  Mn27  1  0.00000000  0.00000000  0.50000000  1.0
  Mn  Mn28  1  0.50000000  0.50000000  0.00000000  1.0
  Mn  Mn29  1  0.50000000  0.00000000  0.50000000  1.0
  Mn  Mn30  1  0.00000000  0.50000000  0.50000000  1.0
  Mn  Mn31  1  0.00000000  0.00000000  0.00000000  1.0
  O  O32  1  0.41694381  0.37218102  0.35473797  1.0
  O  O33  1  0.41694381  0.12781898  0.85473797  1.0
  O  O34  1  0.91694381  0.37218102  0.14526203  1.0
  O  O35  1  0.91694381  0.12781898  0.64526203  1.0
  O  O36  1  0.58305619  0.87218102  0.14526203  1.0
  O  O37  1  0.58305619  0.62781898  0.64526203  1.0
  O  O38  1  0.08305619  0.87218102  0.35473797  1.0
  O  O39  1  0.08305619  0.62781898  0.85473797  1.0
  O  O40  1  0.37215764  0.35472605  0.08311317  1.0
  O  O41  1  0.37215764  0.14527395  0.58311318  1.0
  O  O42  1  0.87215764  0.35472605  0.41688683  1.0
  O  O43  1  0.87215764  0.14527395  0.91688683  1.0
  O  O44  1  0.62784236  0.85472605  0.41688683  1.0
  O  O45  1  0.62784236  0.64527395  0.91688683  1.0
  O  O46  1  0.12784236  0.85472605  0.08311317  1.0
  O  O47  1  0.12784236  0.64527395  0.58311318  1.0
  O  O48  1  0.35468144  0.08308663  0.12782472  1.0
  O  O49  1  0.35468144  0.41691337  0.62782472  1.0
  O  O50  1  0.85468144  0.08308663  0.37217528  1.0
  O  O51  1  0.85468144  0.41691337  0.87217528  1.0
  O  O52  1  0.64531856  0.58308663  0.37217528  1.0
  O  O53  1  0.64531856  0.91691337  0.87217528  1.0
  O  O54  1  0.14531856  0.58308663  0.12782472  1.0
  O  O55  1  0.14531856  0.91691337  0.62782472  1.0
  O  O56  1  0.14527194  0.41691137  0.37219009  1.0
  O  O57  1  0.14527194  0.08308863  0.87219009  1.0
  O  O58  1  0.64527194  0.41691137  0.12780991  1.0
  O  O59  1  0.64527194  0.08308863  0.62780991  1.0
  O  O60  1  0.85472806  0.91691137  0.12780991  1.0
  O  O61  1  0.85472806  0.58308863  0.62780991  1.0
  O  O62  1  0.35472806  0.91691137  0.37219009  1.0
  O  O63  1  0.35472806  0.58308863  0.87219009  1.0
  O  O64  1  0.12786321  0.14525063  0.41687427  1.0
  O  O65  1  0.12786321  0.35474937  0.91687427  1.0
  O  O66  1  0.62786321  0.14525063  0.08312573  1.0
  O  O67  1  0.62786321  0.35474937  0.58312573  1.0
  O  O68  1  0.87213679  0.64525063  0.08312573  1.0
  O  O69  1  0.87213679  0.85474937  0.58312573  1.0
  O  O70  1  0.37213679  0.64525063  0.41687427  1.0
  O  O71  1  0.37213679  0.85474937  0.91687427  1.0
  O  O72  1  0.08306596  0.12783480  0.14527408  1.0
  O  O73  1  0.08306596  0.37216520  0.64527408  1.0
  O  O74  1  0.58306596  0.12783480  0.35472592  1.0
  O  O75  1  0.58306596  0.37216520  0.85472592  1.0
  O  O76  1  0.91693404  0.62783480  0.35472592  1.0
  O  O77  1  0.91693404  0.87216520  0.85472592  1.0
  O  O78  1  0.41693404  0.62783480  0.14527408  1.0
  O  O79  1  0.41693404  0.87216520  0.64527408  1.0
