# generated using pymatgen
data_Zr6Be15Cu8
_symmetry_space_group_name_H-M   'P 1'
_cell_length_a   7.88774292
_cell_length_b   7.88774292
_cell_length_c   7.88774292
_cell_angle_alpha   60.00000000
_cell_angle_beta   60.00000000
_cell_angle_gamma   60.00000000
_symmetry_Int_Tables_number   1
_chemical_formula_structural   Zr6Be15Cu8
_chemical_formula_sum   'Zr6 Be15 Cu8'
_cell_volume   347.01100167
_cell_formula_units_Z   1
loop_
 _symmetry_equiv_pos_site_id
 _symmetry_equiv_pos_as_xyz
  1  'x, y, z'
loop_
 _atom_site_type_symbol
 _atom_site_label
 _atom_site_symmetry_multiplicity
 _atom_site_fract_x
 _atom_site_fract_y
 _atom_site_fract_z
 _atom_site_occupancy
  Zr  Zr0  1  -0.70320617  0.70320617  0.70320617  1.0
  Zr  Zr1  1  -0.29679383  0.29679383  0.70320617  1.0
  Zr  Zr2  1  0.70320617  0.70320617  -0.70320617  1.0
  Zr  Zr3  1  0.29679383  1.29679383  -0.29679383  1.0
  Zr  Zr4  1  0.29679383  -0.29679383  1.29679383  1.0
  Zr  Zr5  1  -0.29679383  0.29679383  0.29679383  1.0
  Be  Be6  1  0.67663666  0.67663666  -0.32336334  1.0
  Be  Be7  1  1.32336334  0.32336334  0.02990998  1.0
  Be  Be8  1  1.32336334  0.02990998  0.32336334  1.0
  Be  Be9  1  0.97009002  0.67663666  -0.32336334  1.0
  Be  Be10  1  1.02990998  0.32336334  0.32336334  1.0
  Be  Be11  1  0.67663666  0.97009002  -0.32336334  1.0
  Be  Be12  1  0.67663666  0.67663666  -0.02990998  1.0
  Be  Be13  1  1.32336334  0.32336334  0.32336334  1.0
  Be  Be14  1  1.50000000  0.00000000  -0.00000000  1.0
  Be  Be15  1  1.00000000  0.50000000  -0.50000000  1.0
  Be  Be16  1  0.00000000  1.50000000  -0.00000000  1.0
  Be  Be17  1  0.50000000  1.00000000  -0.50000000  1.0
  Be  Be18  1  -0.00000000  0.00000000  0.50000000  1.0
  Be  Be19  1  0.50000000  -0.50000000  1.00000000  1.0
  Be  Be20  1  0.00000000  0.00000000  -0.00000000  1.0
  Cu  Cu21  1  0.87665276  0.87665276  -0.12334724  1.0
  Cu  Cu22  1  1.12334724  0.12334724  0.62995827  1.0
  Cu  Cu23  1  1.12334724  0.62995827  0.12334724  1.0
  Cu  Cu24  1  0.37004173  0.87665276  -0.12334724  1.0
  Cu  Cu25  1  1.62995827  0.12334724  0.12334724  1.0
  Cu  Cu26  1  0.87665276  0.37004173  -0.12334724  1.0
  Cu  Cu27  1  0.87665276  0.87665276  -0.62995827  1.0
  Cu  Cu28  1  1.12334724  0.12334724  0.12334724  1.0
