# generated using pymatgen
data_La2Cr(SeO)2
_symmetry_space_group_name_H-M   'P 1'
_cell_length_a   6.10640997
_cell_length_b   6.10640997
_cell_length_c   7.18300032
_cell_angle_alpha   60.40975210
_cell_angle_beta   119.59024790
_cell_angle_gamma   141.68274695
_symmetry_Int_Tables_number   1
_chemical_formula_structural   La2Cr(SeO)2
_chemical_formula_sum   'La2 Cr1 Se2 O2'
_cell_volume   141.56909341
_cell_formula_units_Z   1
loop_
 _symmetry_equiv_pos_site_id
 _symmetry_equiv_pos_as_xyz
  1  'x, y, z'
loop_
 _atom_site_type_symbol
 _atom_site_label
 _atom_site_symmetry_multiplicity
 _atom_site_fract_x
 _atom_site_fract_y
 _atom_site_fract_z
 _atom_site_occupancy
  La  La0  1  0.30493321  -0.30493321  0.75584424  1.0
  La  La1  1  0.69506679  -0.69506679  0.24415576  1.0
  Cr  Cr2  1  0.50000000  0.50000000  0.50000000  1.0
  Se  Se3  1  0.05381304  -0.05381304  0.80909383  1.0
  Se  Se4  1  0.94618696  -0.94618696  0.19090617  1.0
  O  O5  1  0.69409038  0.30590962  0.58049782  1.0
  O  O6  1  1.30590962  -0.30590962  0.41950218  1.0
