# generated using pymatgen
data_TlCuPSe3
_symmetry_space_group_name_H-M   'P 1'
_cell_length_a   7.77239952
_cell_length_b   9.29496580
_cell_length_c   11.53203097
_cell_angle_alpha   90.00000000
_cell_angle_beta   130.51363513
_cell_angle_gamma   90.00000000
_symmetry_Int_Tables_number   1
_chemical_formula_structural   TlCuPSe3
_chemical_formula_sum   'Tl4 Cu4 P4 Se12'
_cell_volume   633.38231814
_cell_formula_units_Z   4
loop_
 _symmetry_equiv_pos_site_id
 _symmetry_equiv_pos_as_xyz
  1  'x, y, z'
loop_
 _atom_site_type_symbol
 _atom_site_label
 _atom_site_symmetry_multiplicity
 _atom_site_fract_x
 _atom_site_fract_y
 _atom_site_fract_z
 _atom_site_occupancy
  Tl  Tl0  1  0.69996639  0.46436993  0.24852492  1.0
  Tl  Tl1  1  0.69996639  0.03563007  0.74852492  1.0
  Tl  Tl2  1  0.30003361  0.96436993  0.25147508  1.0
  Tl  Tl3  1  0.30003361  0.53563007  0.75147508  1.0
  Cu  Cu4  1  0.90946065  0.16300353  0.23146675  1.0
  Cu  Cu5  1  0.90946065  0.33699647  0.73146675  1.0
  Cu  Cu6  1  0.09053935  0.66300353  0.26853325  1.0
  Cu  Cu7  1  0.09053935  0.83699647  0.76853325  1.0
  P  P8  1  0.92976167  0.89607917  0.43171327  1.0
  P  P9  1  0.92976167  0.60392083  0.93171327  1.0
  P  P10  1  0.07023833  0.39607917  0.06828673  1.0
  P  P11  1  0.07023833  0.10392083  0.56828673  1.0
  Se  Se12  1  0.76583877  0.22242602  0.50370235  1.0
  Se  Se13  1  0.76583877  0.27757398  1.00370235  1.0
  Se  Se14  1  0.23416123  0.72242602  -0.00370235  1.0
  Se  Se15  1  0.23416123  0.77757398  0.49629765  1.0
  Se  Se16  1  0.67830712  0.96951507  0.19243429  1.0
  Se  Se17  1  0.67830712  0.53048493  0.69243429  1.0
  Se  Se18  1  0.32169288  0.46951507  0.30756571  1.0
  Se  Se19  1  0.32169288  0.03048493  0.80756571  1.0
  Se  Se20  1  0.22088539  0.22748434  0.48611476  1.0
  Se  Se21  1  0.22088539  0.27251566  0.98611476  1.0
  Se  Se22  1  0.77911461  0.72748434  0.01388524  1.0
  Se  Se23  1  0.77911461  0.77251566  0.51388524  1.0
