# generated using pymatgen
data_RbLi(C2N3)2
_symmetry_space_group_name_H-M   'P 1'
_cell_length_a   8.95083791
_cell_length_b   8.95083791
_cell_length_c   8.95083791
_cell_angle_alpha   130.18538287
_cell_angle_beta   130.18538287
_cell_angle_gamma   73.11057333
_symmetry_Int_Tables_number   1
_chemical_formula_structural   RbLi(C2N3)2
_chemical_formula_sum   'Rb2 Li2 C8 N12'
_cell_volume   408.69197719
_cell_formula_units_Z   2
loop_
 _symmetry_equiv_pos_site_id
 _symmetry_equiv_pos_as_xyz
  1  'x, y, z'
loop_
 _atom_site_type_symbol
 _atom_site_label
 _atom_site_symmetry_multiplicity
 _atom_site_fract_x
 _atom_site_fract_y
 _atom_site_fract_z
 _atom_site_occupancy
  Rb  Rb0  1  0.75000000  0.75000000  1.00000000  1.0
  Rb  Rb1  1  0.25000000  0.25000000  0.00000000  1.0
  Li  Li2  1  0.25000000  0.75000000  0.50000000  1.0
  Li  Li3  1  0.75000000  0.25000000  0.50000000  1.0
  C  C4  1  1.23507538  0.73507538  1.13089948  1.0
  C  C5  1  0.39582410  0.89582410  1.13089948  1.0
  C  C6  1  1.10417590  1.23507538  1.50000000  1.0
  C  C7  1  0.26492462  0.39582410  0.50000000  1.0
  C  C8  1  0.73507538  0.60417590  0.50000000  1.0
  C  C9  1  0.89582410  0.76492462  1.50000000  1.0
  C  C10  1  0.60417590  1.10417590  0.86910052  1.0
  C  C11  1  0.76492462  0.26492462  0.86910052  1.0
  N  N12  1  1.19497692  0.69497692  1.20545027  1.0
  N  N13  1  0.51047335  1.01047335  1.20545027  1.0
  N  N14  1  0.98952665  1.19497692  1.50000000  1.0
  N  N15  1  0.30502308  0.51047335  0.50000000  1.0
  N  N16  1  0.69497692  0.48952665  0.50000000  1.0
  N  N17  1  1.01047335  0.80502308  1.50000000  1.0
  N  N18  1  0.48952665  0.98952665  0.79454973  1.0
  N  N19  1  0.80502308  0.30502308  0.79454973  1.0
  N  N20  1  0.73848767  0.23848767  0.97697533  1.0
  N  N21  1  0.76151233  0.73848767  1.50000000  1.0
  N  N22  1  0.23848767  0.26151233  0.50000000  1.0
  N  N23  1  0.26151233  0.76151233  1.02302467  1.0
