# generated using pymatgen
data_Cr3C2
_symmetry_space_group_name_H-M   'P 1'
_cell_length_a   4.81367462
_cell_length_b   4.81367462
_cell_length_c   6.90041705
_cell_angle_alpha   90.00000000
_cell_angle_beta   90.00000000
_cell_angle_gamma   146.01267914
_symmetry_Int_Tables_number   1
_chemical_formula_structural   Cr3C2
_chemical_formula_sum   'Cr6 C4'
_cell_volume   89.38156091
_cell_formula_units_Z   2
loop_
 _symmetry_equiv_pos_site_id
 _symmetry_equiv_pos_as_xyz
  1  'x, y, z'
loop_
 _atom_site_type_symbol
 _atom_site_label
 _atom_site_symmetry_multiplicity
 _atom_site_fract_x
 _atom_site_fract_y
 _atom_site_fract_z
 _atom_site_occupancy
  Cr  Cr0  1  0.35704123  0.64295877  0.92978919  1.0
  Cr  Cr1  1  0.35704123  0.64295877  0.57021081  1.0
  Cr  Cr2  1  -0.35704123  0.35704123  0.42978919  1.0
  Cr  Cr3  1  -0.35704123  0.35704123  0.07021081  1.0
  Cr  Cr4  1  0.09946557  0.90053443  0.75000000  1.0
  Cr  Cr5  1  -0.09946557  0.09946557  0.25000000  1.0
  C  C6  1  -0.25389405  0.25389405  0.75000000  1.0
  C  C7  1  0.25389405  0.74610595  0.25000000  1.0
  C  C8  1  0.00000000  0.00000000  0.00000000  1.0
  C  C9  1  0.00000000  0.00000000  0.50000000  1.0
