# generated using pymatgen
data_K2SnO3
_symmetry_space_group_name_H-M   'P 1'
_cell_length_a   5.83886952
_cell_length_b   10.52563294
_cell_length_c   7.11383345
_cell_angle_alpha   90.00000000
_cell_angle_beta   90.00000000
_cell_angle_gamma   90.00000000
_symmetry_Int_Tables_number   1
_chemical_formula_structural   K2SnO3
_chemical_formula_sum   'K8 Sn4 O12'
_cell_volume   437.20053494
_cell_formula_units_Z   4
loop_
 _symmetry_equiv_pos_site_id
 _symmetry_equiv_pos_as_xyz
  1  'x, y, z'
loop_
 _atom_site_type_symbol
 _atom_site_label
 _atom_site_symmetry_multiplicity
 _atom_site_fract_x
 _atom_site_fract_y
 _atom_site_fract_z
 _atom_site_occupancy
  K  K0  1  0.23426437  0.41209668  0.61547765  1.0
  K  K1  1  0.23426437  0.08790332  0.61547765  1.0
  K  K2  1  0.73426437  0.41209668  0.88452235  1.0
  K  K3  1  0.73426437  0.08790332  0.88452235  1.0
  K  K4  1  0.76573563  0.91209668  0.38452235  1.0
  K  K5  1  0.76573563  0.58790332  0.38452235  1.0
  K  K6  1  0.26573563  0.91209668  0.11547765  1.0
  K  K7  1  0.26573563  0.58790332  0.11547765  1.0
  Sn  Sn8  1  0.27082097  0.25000000  0.15975790  1.0
  Sn  Sn9  1  0.77082097  0.25000000  0.34024210  1.0
  Sn  Sn10  1  0.72917903  0.75000000  0.84024210  1.0
  Sn  Sn11  1  0.22917903  0.75000000  0.65975790  1.0
  O  O12  1  0.49130463  0.87917209  0.72344564  1.0
  O  O13  1  0.49130463  0.62082791  0.72344564  1.0
  O  O14  1  0.99130463  0.87917209  0.77655436  1.0
  O  O15  1  0.99130463  0.62082791  0.77655436  1.0
  O  O16  1  0.50869537  0.37917209  0.27655436  1.0
  O  O17  1  0.50869537  0.12082791  0.27655436  1.0
  O  O18  1  0.00869537  0.37917209  0.22344564  1.0
  O  O19  1  0.00869537  0.12082791  0.22344564  1.0
  O  O20  1  0.34724180  0.25000000  0.89192850  1.0
  O  O21  1  0.84724180  0.25000000  0.60807150  1.0
  O  O22  1  0.65275820  0.75000000  0.10807150  1.0
  O  O23  1  0.15275820  0.75000000  0.39192850  1.0
