# generated using pymatgen
data_Fe2B
_symmetry_space_group_name_H-M   'P 1'
_cell_length_a   4.15226303
_cell_length_b   4.15226303
_cell_length_c   4.15226303
_cell_angle_alpha   105.06939444
_cell_angle_beta   105.06939444
_cell_angle_gamma   118.68687191
_symmetry_Int_Tables_number   1
_chemical_formula_structural   Fe2B
_chemical_formula_sum   'Fe4 B2'
_cell_volume   54.02567042
_cell_formula_units_Z   2
loop_
 _symmetry_equiv_pos_site_id
 _symmetry_equiv_pos_as_xyz
  1  'x, y, z'
loop_
 _atom_site_type_symbol
 _atom_site_label
 _atom_site_symmetry_multiplicity
 _atom_site_fract_x
 _atom_site_fract_y
 _atom_site_fract_z
 _atom_site_occupancy
  Fe  Fe0  1  0.83332268  0.33332268  1.16664536  1.0
  Fe  Fe1  1  0.66667732  0.83332268  0.50000000  1.0
  Fe  Fe2  1  0.33332268  0.16667732  0.50000000  1.0
  Fe  Fe3  1  1.16667732  0.66667732  0.83335464  1.0
  B  B4  1  0.25000000  0.25000000  -0.00000000  1.0
  B  B5  1  0.75000000  0.75000000  -0.00000000  1.0
