# generated using pymatgen
data_Rb2Al2Si3O10
_symmetry_space_group_name_H-M   'P 1'
_cell_length_a   10.15348779
_cell_length_b   9.49675836
_cell_length_c   13.09743098
_cell_angle_alpha   50.37960718
_cell_angle_beta   46.09280756
_cell_angle_gamma   83.52758526
_symmetry_Int_Tables_number   1
_chemical_formula_structural   Rb2Al2Si3O10
_chemical_formula_sum   'Rb4 Al4 Si6 O20'
_cell_volume   563.95568292
_cell_formula_units_Z   2
loop_
 _symmetry_equiv_pos_site_id
 _symmetry_equiv_pos_as_xyz
  1  'x, y, z'
loop_
 _atom_site_type_symbol
 _atom_site_label
 _atom_site_symmetry_multiplicity
 _atom_site_fract_x
 _atom_site_fract_y
 _atom_site_fract_z
 _atom_site_occupancy
  Rb  Rb0  1  0.27265146  -0.04031653  0.61061088  1.0
  Rb  Rb1  1  0.63938912  0.09294581  -0.02265146  1.0
  Rb  Rb2  1  -0.04031653  0.27265146  0.15705419  1.0
  Rb  Rb3  1  0.09294581  0.63938912  0.29031653  1.0
  Al  Al4  1  0.69294655  0.58768198  -0.00934636  1.0
  Al  Al5  1  1.25934636  0.52128217  -0.44294655  1.0
  Al  Al6  1  0.58768198  0.69294655  -0.27128217  1.0
  Al  Al7  1  0.52128217  1.25934636  -0.33768198  1.0
  Si  Si8  1  0.69852203  0.56696068  0.23419782  1.0
  Si  Si9  1  1.01580218  0.74968053  -0.44852203  1.0
  Si  Si10  1  0.56696068  0.69852203  -0.49968053  1.0
  Si  Si11  1  0.74968053  1.01580218  -0.31696068  1.0
  Si  Si12  1  1.00754776  0.00754776  -0.00754776  1.0
  Si  Si13  1  0.25754776  0.25754776  0.24245224  1.0
  O  O14  1  0.50685476  0.61216996  0.31401972  1.0
  O  O15  1  0.93598028  0.68304444  -0.25685476  1.0
  O  O16  1  0.61216996  0.50685476  -0.43304444  1.0
  O  O17  1  0.68304444  0.93598028  -0.36216996  1.0
  O  O18  1  0.03228130  0.19956997  0.45343375  1.0
  O  O19  1  0.79656625  0.93528502  -0.78228130  1.0
  O  O20  1  0.19956997  0.03228130  0.31471498  1.0
  O  O21  1  0.93528502  0.79656625  0.05043003  1.0
  O  O22  1  0.76287595  0.53853432  0.09703638  1.0
  O  O23  1  1.15296362  0.64844665  -0.51287595  1.0
  O  O24  1  0.53853432  0.76287595  -0.39844665  1.0
  O  O25  1  0.64844665  1.15296362  -0.28853432  1.0
  O  O26  1  0.45180015  0.33101703  0.18940397  1.0
  O  O27  1  1.06059603  0.22222114  -0.20180015  1.0
  O  O28  1  0.33101703  0.45180015  0.02777886  1.0
  O  O29  1  0.22222114  1.06059603  -0.08101703  1.0
  O  O30  1  0.34009830  -0.37699565  0.59349974  1.0
  O  O31  1  0.65650026  0.80660239  -0.09009830  1.0
  O  O32  1  -0.37699565  0.34009830  0.44339761  1.0
  O  O33  1  0.80660239  0.65650026  -0.37300435  1.0
