# generated using pymatgen
data_RbGe
_symmetry_space_group_name_H-M   'P 1'
_cell_length_a   13.40185951
_cell_length_b   13.40185951
_cell_length_c   13.40185951
_cell_angle_alpha   90.00000000
_cell_angle_beta   90.00000000
_cell_angle_gamma   90.00000000
_symmetry_Int_Tables_number   1
_chemical_formula_structural   RbGe
_chemical_formula_sum   'Rb32 Ge32'
_cell_volume   2407.10581728
_cell_formula_units_Z   32
loop_
 _symmetry_equiv_pos_site_id
 _symmetry_equiv_pos_as_xyz
  1  'x, y, z'
loop_
 _atom_site_type_symbol
 _atom_site_label
 _atom_site_symmetry_multiplicity
 _atom_site_fract_x
 _atom_site_fract_y
 _atom_site_fract_z
 _atom_site_occupancy
  Rb  Rb0  1  0.43359987  0.16251493  0.63901331  1.0
  Rb  Rb1  1  0.43359987  0.83748507  0.36098669  1.0
  Rb  Rb2  1  0.93359987  0.86098669  0.33748507  1.0
  Rb  Rb3  1  0.93359987  0.13901331  0.66251493  1.0
  Rb  Rb4  1  0.36098669  0.43359987  0.83748507  1.0
  Rb  Rb5  1  0.36098669  0.56640013  0.16251493  1.0
  Rb  Rb6  1  0.86098669  0.66251493  0.06640013  1.0
  Rb  Rb7  1  0.86098669  0.33748507  0.93359987  1.0
  Rb  Rb8  1  0.16251493  0.36098669  0.56640013  1.0
  Rb  Rb9  1  0.16251493  0.63901331  0.43359987  1.0
  Rb  Rb10  1  0.66251493  0.93359987  0.13901331  1.0
  Rb  Rb11  1  0.66251493  0.06640013  0.86098669  1.0
  Rb  Rb12  1  0.56640013  0.16251493  0.36098669  1.0
  Rb  Rb13  1  0.56640013  0.83748507  0.63901331  1.0
  Rb  Rb14  1  0.06640013  0.86098669  0.66251493  1.0
  Rb  Rb15  1  0.06640013  0.13901331  0.33748507  1.0
  Rb  Rb16  1  0.63901331  0.43359987  0.16251493  1.0
  Rb  Rb17  1  0.63901331  0.56640013  0.83748507  1.0
  Rb  Rb18  1  0.13901331  0.66251493  0.93359987  1.0
  Rb  Rb19  1  0.13901331  0.33748507  0.06640013  1.0
  Rb  Rb20  1  0.83748507  0.36098669  0.43359987  1.0
  Rb  Rb21  1  0.83748507  0.63901331  0.56640013  1.0
  Rb  Rb22  1  0.33748507  0.93359987  0.86098669  1.0
  Rb  Rb23  1  0.33748507  0.06640013  0.13901331  1.0
  Rb  Rb24  1  0.16574557  0.16574557  0.83425443  1.0
  Rb  Rb25  1  0.16574557  0.83425443  0.16574557  1.0
  Rb  Rb26  1  0.66574557  0.66574557  0.33425443  1.0
  Rb  Rb27  1  0.66574557  0.33425443  0.66574557  1.0
  Rb  Rb28  1  0.83425443  0.16574557  0.16574557  1.0
  Rb  Rb29  1  0.83425443  0.83425443  0.83425443  1.0
  Rb  Rb30  1  0.33425443  0.66574557  0.66574557  1.0
  Rb  Rb31  1  0.33425443  0.33425443  0.33425443  1.0
  Ge  Ge32  1  0.43127674  0.43127674  0.56872326  1.0
  Ge  Ge33  1  0.43127674  0.56872326  0.43127674  1.0
  Ge  Ge34  1  0.93127674  0.93127674  0.06872326  1.0
  Ge  Ge35  1  0.93127674  0.06872326  0.93127674  1.0
  Ge  Ge36  1  0.56872326  0.43127674  0.43127674  1.0
  Ge  Ge37  1  0.56872326  0.56872326  0.56872326  1.0
  Ge  Ge38  1  0.06872326  0.93127674  0.93127674  1.0
  Ge  Ge39  1  0.06872326  0.06872326  0.06872326  1.0
  Ge  Ge40  1  0.43702399  0.18223441  0.92500520  1.0
  Ge  Ge41  1  0.43702399  0.81776559  0.07499480  1.0
  Ge  Ge42  1  0.93702399  0.57499480  0.31776559  1.0
  Ge  Ge43  1  0.93702399  0.42500520  0.68223441  1.0
  Ge  Ge44  1  0.07499480  0.43702399  0.81776559  1.0
  Ge  Ge45  1  0.07499480  0.56297601  0.18223441  1.0
  Ge  Ge46  1  0.57499480  0.68223441  0.06297601  1.0
  Ge  Ge47  1  0.57499480  0.31776559  0.93702399  1.0
  Ge  Ge48  1  0.18223441  0.07499480  0.56297601  1.0
  Ge  Ge49  1  0.18223441  0.92500520  0.43702399  1.0
  Ge  Ge50  1  0.68223441  0.93702399  0.42500520  1.0
  Ge  Ge51  1  0.68223441  0.06297601  0.57499480  1.0
  Ge  Ge52  1  0.56297601  0.18223441  0.07499480  1.0
  Ge  Ge53  1  0.56297601  0.81776559  0.92500520  1.0
  Ge  Ge54  1  0.06297601  0.57499480  0.68223441  1.0
  Ge  Ge55  1  0.06297601  0.42500520  0.31776559  1.0
  Ge  Ge56  1  0.92500520  0.43702399  0.18223441  1.0
  Ge  Ge57  1  0.92500520  0.56297601  0.81776559  1.0
  Ge  Ge58  1  0.42500520  0.68223441  0.93702399  1.0
  Ge  Ge59  1  0.42500520  0.31776559  0.06297601  1.0
  Ge  Ge60  1  0.81776559  0.07499480  0.43702399  1.0
  Ge  Ge61  1  0.81776559  0.92500520  0.56297601  1.0
  Ge  Ge62  1  0.31776559  0.93702399  0.57499480  1.0
  Ge  Ge63  1  0.31776559  0.06297601  0.42500520  1.0
