# generated using pymatgen
data_Al3Si2H3O10
_symmetry_space_group_name_H-M   'P 1'
_cell_length_a   6.18585310
_cell_length_b   7.81293147
_cell_length_c   7.33928349
_cell_angle_alpha   115.41314683
_cell_angle_beta   93.34938823
_cell_angle_gamma   88.09422417
_symmetry_Int_Tables_number   1
_chemical_formula_structural   Al3Si2H3O10
_chemical_formula_sum   'Al6 Si4 H6 O20'
_cell_volume   319.82216229
_cell_formula_units_Z   2
loop_
 _symmetry_equiv_pos_site_id
 _symmetry_equiv_pos_as_xyz
  1  'x, y, z'
loop_
 _atom_site_type_symbol
 _atom_site_label
 _atom_site_symmetry_multiplicity
 _atom_site_fract_x
 _atom_site_fract_y
 _atom_site_fract_z
 _atom_site_occupancy
  Al  Al0  1  0.01458332  0.21297380  -0.73603954  1.0
  Al  Al1  1  0.30874405  0.00555897  -0.03878885  1.0
  Al  Al2  1  0.45201319  0.61993274  -0.14032938  1.0
  Al  Al3  1  0.51301440  0.21589096  -0.23660799  1.0
  Al  Al4  1  0.81031345  0.00264401  -0.53821852  1.0
  Al  Al5  1  0.87131448  0.59860231  -0.63449526  1.0
  Si  Si6  1  0.01889441  0.31375120  -0.10974150  1.0
  Si  Si7  1  0.30443387  0.90478293  -0.66508191  1.0
  Si  Si8  1  0.52718609  0.31766281  -0.61452725  1.0
  Si  Si9  1  0.79614118  0.90086974  -0.16030366  1.0
  H  H10  1  0.27429735  0.74087021  -0.38916181  1.0
  H  H11  1  0.04905453  0.47766603  -0.38566672  1.0
  H  H12  1  0.36932776  0.62512630  -0.65062346  1.0
  H  H13  1  0.78398273  0.74143717  -0.88960271  1.0
  H  H14  1  0.53935111  0.47709707  -0.88522432  1.0
  H  H15  1  0.95399017  0.59340001  -0.12421409  1.0
  O  O16  1  0.00318191  0.00791642  -0.00049805  1.0
  O  O17  1  0.02135553  0.45507868  -0.52709924  1.0
  O  O18  1  0.08911656  0.04418773  -0.60639722  1.0
  O  O19  1  0.08304460  0.50683337  -0.13778486  1.0
  O  O20  1  0.23421114  0.17434617  -0.16842840  1.0
  O  O21  1  0.24027831  0.71170103  -0.63703867  1.0
  O  O22  1  0.30197109  0.76345384  -0.24772751  1.0
  O  O23  1  0.32014442  0.21061526  -0.77433141  1.0
  O  O24  1  0.37251284  0.84043696  -0.89882641  1.0
  O  O25  1  0.46212749  0.38434732  -0.37752664  1.0
  O  O26  1  0.50406877  0.01124632  -0.49869077  1.0
  O  O27  1  0.52128548  0.45668512  -0.02770067  1.0
  O  O28  1  0.58657462  0.04965328  -0.10462785  1.0
  O  O29  1  0.59231555  0.50551322  -0.64575293  1.0
  O  O30  1  0.73100949  0.71301961  -0.12907816  1.0
  O  O31  1  0.73675192  0.16887877  -0.67020383  1.0
  O  O32  1  0.80203785  0.76184919  -0.74712528  1.0
  O  O33  1  0.81925909  0.20728838  -0.27613399  1.0
  O  O34  1  0.86119846  0.83418572  -0.39730319  1.0
  O  O35  1  0.95081277  0.37809735  -0.87599793  1.0
