# generated using pymatgen
data_Na2Te3Mo3O16
_symmetry_space_group_name_H-M   'P 1'
_cell_length_a   7.81303848
_cell_length_b   7.81303848
_cell_length_c   7.41184214
_cell_angle_alpha   65.27669466
_cell_angle_beta   114.72330534
_cell_angle_gamma   84.15393320
_symmetry_Int_Tables_number   1
_chemical_formula_structural   Na2Te3Mo3O16
_chemical_formula_sum   'Na2 Te3 Mo3 O16'
_cell_volume   351.67194839
_cell_formula_units_Z   1
loop_
 _symmetry_equiv_pos_site_id
 _symmetry_equiv_pos_as_xyz
  1  'x, y, z'
loop_
 _atom_site_type_symbol
 _atom_site_label
 _atom_site_symmetry_multiplicity
 _atom_site_fract_x
 _atom_site_fract_y
 _atom_site_fract_z
 _atom_site_occupancy
  Na  Na0  1  0.60926819  -0.39073181  0.50000000  1.0
  Na  Na1  1  0.01054901  0.01054901  -0.00000000  1.0
  Te  Te2  1  1.13008433  0.57514169  0.49465945  1.0
  Te  Te3  1  1.57514169  0.13008433  0.50534055  1.0
  Te  Te4  1  0.51215245  -0.48784755  0.00000000  1.0
  Mo  Mo5  1  1.49263943  0.03162528  0.98566190  1.0
  Mo  Mo6  1  1.03162528  0.49263943  0.01433810  1.0
  Mo  Mo7  1  1.10355995  0.10355995  0.50000000  1.0
  O  O8  1  1.22805513  0.27893232  0.66420908  1.0
  O  O9  1  1.27893232  0.22805513  0.33579092  1.0
  O  O10  1  0.95457854  -0.93307145  0.62601663  1.0
  O  O11  1  0.06692855  -0.04542146  0.37398337  1.0
  O  O12  1  1.40189966  0.58769573  0.65603120  1.0
  O  O13  1  1.58769573  0.40189966  0.34396880  1.0
  O  O14  1  1.22438588  0.56373142  0.91731436  1.0
  O  O15  1  1.56373142  0.22438588  0.08268564  1.0
  O  O16  1  0.96741514  -0.64858008  0.88311025  1.0
  O  O17  1  0.35141992  -0.03258486  0.11688975  1.0
  O  O18  1  1.14043466  0.63839848  0.21952975  1.0
  O  O19  1  1.63839848  0.14043466  0.78047025  1.0
  O  O20  1  0.36657961  -0.06860318  0.76984136  1.0
  O  O21  1  0.93139682  -0.63342039  0.23015864  1.0
  O  O22  1  0.81987880  -0.29385098  0.81503133  1.0
  O  O23  1  0.70614902  -0.18012120  0.18496867  1.0
