# generated using pymatgen
data_Pb4SO8
_symmetry_space_group_name_H-M   'P 1'
_cell_length_a   8.14467739
_cell_length_b   5.81042201
_cell_length_c   10.98934928
_cell_angle_alpha   100.18072809
_cell_angle_beta   105.69152202
_cell_angle_gamma   78.21161961
_symmetry_Int_Tables_number   1
_chemical_formula_structural   Pb4SO8
_chemical_formula_sum   'Pb8 S2 O16'
_cell_volume   486.02831669
_cell_formula_units_Z   2
loop_
 _symmetry_equiv_pos_site_id
 _symmetry_equiv_pos_as_xyz
  1  'x, y, z'
loop_
 _atom_site_type_symbol
 _atom_site_label
 _atom_site_symmetry_multiplicity
 _atom_site_fract_x
 _atom_site_fract_y
 _atom_site_fract_z
 _atom_site_occupancy
  O  O0  1  0.60776485  0.80475087  -0.07759487  1.0
  O  O1  1  0.39223515  0.19524913  -0.92240513  1.0
  O  O2  1  0.67969755  0.86246704  -0.74671190  1.0
  O  O3  1  0.32030245  0.13753296  -0.25328810  1.0
  O  O4  1  0.59664698  0.77432364  -0.56455973  1.0
  O  O5  1  0.40335302  0.22567636  -0.43544027  1.0
  O  O6  1  0.90447245  0.74091343  -0.56164016  1.0
  O  O7  1  0.09552755  0.25908657  -0.43835984  1.0
  O  O8  1  0.72961616  0.45171906  -0.70183610  1.0
  O  O9  1  0.27038384  0.54828094  -0.29816390  1.0
  O  O10  1  0.24762689  0.97436915  -0.78408578  1.0
  O  O11  1  0.75237311  0.02563085  -0.21591422  1.0
  O  O12  1  0.85984618  0.62254559  -0.25825178  1.0
  O  O13  1  0.14015382  0.37745441  -0.74174822  1.0
  O  O14  1  0.87496852  0.09390070  -0.92481135  1.0
  O  O15  1  0.12503148  0.90609930  -0.07518865  1.0
  S  S16  1  0.73046238  0.70412588  -0.64074341  1.0
  S  S17  1  0.26953762  0.29587412  -0.35925659  1.0
  Pb  Pb18  1  0.01200383  0.89271015  -0.30881071  1.0
  Pb  Pb19  1  0.98799617  0.10728985  -0.69118929  1.0
  Pb  Pb20  1  0.55729977  0.76874710  -0.32810840  1.0
  Pb  Pb21  1  0.44270023  0.23125290  -0.67189160  1.0
  Pb  Pb22  1  0.41610400  0.78508338  -0.94353467  1.0
  Pb  Pb23  1  0.58389600  0.21491662  -0.05646533  1.0
  Pb  Pb24  1  0.89993971  0.74478628  -1.05154207  1.0
  Pb  Pb25  1  0.10006029  0.25521372  0.05154207  1.0
