# generated using pymatgen
data_V2Ni2O7
_symmetry_space_group_name_H-M   'P 1'
_cell_length_a   6.56801309
_cell_length_b   8.31371832
_cell_length_c   9.38722186
_cell_angle_alpha   90.00000000
_cell_angle_beta   100.16042481
_cell_angle_gamma   90.00000000
_symmetry_Int_Tables_number   1
_chemical_formula_structural   V2Ni2O7
_chemical_formula_sum   'V8 Ni8 O28'
_cell_volume   504.54706881
_cell_formula_units_Z   4
loop_
 _symmetry_equiv_pos_site_id
 _symmetry_equiv_pos_as_xyz
  1  'x, y, z'
loop_
 _atom_site_type_symbol
 _atom_site_label
 _atom_site_symmetry_multiplicity
 _atom_site_fract_x
 _atom_site_fract_y
 _atom_site_fract_z
 _atom_site_occupancy
  Ni  Ni0  1  0.64657498  0.87896975  0.96285134  1.0
  Ni  Ni1  1  0.64657498  0.62103025  0.46285134  1.0
  Ni  Ni2  1  0.35342502  0.37896975  0.53714866  1.0
  Ni  Ni3  1  0.35342502  0.12103025  0.03714866  1.0
  Ni  Ni4  1  0.80280737  0.88688491  0.67861404  1.0
  Ni  Ni5  1  0.80280737  0.61311509  0.17861404  1.0
  Ni  Ni6  1  0.19719263  0.38688491  0.82138596  1.0
  Ni  Ni7  1  0.19719263  0.11311509  0.32138596  1.0
  O  O8  1  0.89333737  0.36714501  0.87280276  1.0
  O  O9  1  0.89333737  0.13285499  0.37280276  1.0
  O  O10  1  0.10666263  0.86714501  0.62719724  1.0
  O  O11  1  0.10666263  0.63285499  0.12719724  1.0
  O  O12  1  0.17553110  0.62060014  0.85050638  1.0
  O  O13  1  0.17553110  0.87939986  0.35050638  1.0
  O  O14  1  0.82446890  0.12060014  0.64949362  1.0
  O  O15  1  0.82446890  0.37939986  0.14949362  1.0
  O  O16  1  0.67105013  0.63165569  0.95909423  1.0
  O  O17  1  0.67105013  0.86834431  0.45909423  1.0
  O  O18  1  0.32894987  0.13165569  0.54090577  1.0
  O  O19  1  0.32894987  0.36834431  0.04090577  1.0
  O  O20  1  0.64544930  0.38104347  0.49653631  1.0
  O  O21  1  0.64544930  0.11895653  0.99653631  1.0
  O  O22  1  0.35455070  0.88104347  0.00346369  1.0
  O  O23  1  0.35455070  0.61895653  0.50346369  1.0
  O  O24  1  0.92457088  0.87436972  0.89292628  1.0
  O  O25  1  0.92457088  0.62563028  0.39292628  1.0
  O  O26  1  0.07542912  0.37436972  0.60707372  1.0
  O  O27  1  0.07542912  0.12563028  0.10707372  1.0
  O  O28  1  0.75251902  0.64540596  0.67710001  1.0
  O  O29  1  0.75251902  0.85459404  0.17710001  1.0
  O  O30  1  0.24748098  0.14540596  0.82289999  1.0
  O  O31  1  0.24748098  0.35459404  0.32289999  1.0
  O  O32  1  0.53418882  0.91861810  0.75004243  1.0
  O  O33  1  0.53418882  0.58138190  0.25004243  1.0
  O  O34  1  0.46581118  0.41861810  0.74995757  1.0
  O  O35  1  0.46581118  0.08138190  0.24995757  1.0
  V  V36  1  0.69310534  0.51981688  0.81020508  1.0
  V  V37  1  0.69310534  0.98018312  0.31020508  1.0
  V  V38  1  0.30689466  0.01981688  0.68979492  1.0
  V  V39  1  0.30689466  0.48018312  0.18979492  1.0
  V  V40  1  0.86319710  0.25939651  0.53102506  1.0
  V  V41  1  0.86319710  0.24060349  0.03102506  1.0
  V  V42  1  0.13680290  0.75939651  0.96897494  1.0
  V  V43  1  0.13680290  0.74060349  0.46897494  1.0
