# generated using pymatgen
data_RbNb4Cl11
_symmetry_space_group_name_H-M   'P 1'
_cell_length_a   16.28188484
_cell_length_b   7.00204486
_cell_length_c   7.02656765
_cell_angle_alpha   90.00000000
_cell_angle_beta   90.00000000
_cell_angle_gamma   90.00000000
_symmetry_Int_Tables_number   1
_chemical_formula_structural   RbNb4Cl11
_chemical_formula_sum   'Rb2 Nb8 Cl22'
_cell_volume   801.07430041
_cell_formula_units_Z   2
loop_
 _symmetry_equiv_pos_site_id
 _symmetry_equiv_pos_as_xyz
  1  'x, y, z'
loop_
 _atom_site_type_symbol
 _atom_site_label
 _atom_site_symmetry_multiplicity
 _atom_site_fract_x
 _atom_site_fract_y
 _atom_site_fract_z
 _atom_site_occupancy
  Rb  Rb0  1  0.75000000  0.50000000  0.47621933  1.0
  Rb  Rb1  1  0.25000000  0.50000000  0.52378067  1.0
  Nb  Nb2  1  0.35834838  0.00000000  0.11465728  1.0
  Nb  Nb3  1  0.85834838  0.00000000  0.88534272  1.0
  Nb  Nb4  1  0.64165162  0.00000000  0.88534272  1.0
  Nb  Nb5  1  0.14165162  0.00000000  0.11465728  1.0
  Nb  Nb6  1  0.00000000  0.78632456  -0.00000000  1.0
  Nb  Nb7  1  0.00000000  0.21367544  0.00000000  1.0
  Nb  Nb8  1  0.50000000  0.78632456  0.00000000  1.0
  Nb  Nb9  1  0.50000000  0.21367544  -0.00000000  1.0
  Cl  Cl10  1  0.42062799  0.74903523  0.30342297  1.0
  Cl  Cl11  1  0.42062799  0.25096477  0.30342297  1.0
  Cl  Cl12  1  0.92062799  0.74903523  0.69657703  1.0
  Cl  Cl13  1  0.92062799  0.25096477  0.69657703  1.0
  Cl  Cl14  1  0.57937201  0.74903523  0.69657703  1.0
  Cl  Cl15  1  0.57937201  0.25096477  0.69657703  1.0
  Cl  Cl16  1  0.07937201  0.74903523  0.30342297  1.0
  Cl  Cl17  1  0.07937201  0.25096477  0.30342297  1.0
  Cl  Cl18  1  0.75000000  0.76896231  0.01976482  1.0
  Cl  Cl19  1  0.75000000  0.23103769  0.01976482  1.0
  Cl  Cl20  1  0.25000000  0.76896231  0.98023518  1.0
  Cl  Cl21  1  0.25000000  0.23103769  0.98023518  1.0
  Cl  Cl22  1  0.91776835  0.50000000  0.13521167  1.0
  Cl  Cl23  1  0.41776835  0.50000000  0.86478833  1.0
  Cl  Cl24  1  0.08223165  0.50000000  0.86478833  1.0
  Cl  Cl25  1  0.58223165  0.50000000  0.13521167  1.0
  Cl  Cl26  1  0.91564779  0.00000000  0.20676507  1.0
  Cl  Cl27  1  0.41564779  0.00000000  0.79323493  1.0
  Cl  Cl28  1  0.08435221  0.00000000  0.79323493  1.0
  Cl  Cl29  1  0.58435221  0.00000000  0.20676507  1.0
  Cl  Cl30  1  0.75000000  0.00000000  0.60988739  1.0
  Cl  Cl31  1  0.25000000  0.00000000  0.39011261  1.0
