# generated using pymatgen
data_Na2Ti9O19
_symmetry_space_group_name_H-M   'P 1'
_cell_length_a   6.41433126
_cell_length_b   6.41433126
_cell_length_c   15.81064485
_cell_angle_alpha   76.72753986
_cell_angle_beta   103.27246014
_cell_angle_gamma   145.53660062
_symmetry_Int_Tables_number   1
_chemical_formula_structural   Na2Ti9O19
_chemical_formula_sum   'Na2 Ti9 O19'
_cell_volume   357.31644344
_cell_formula_units_Z   1
loop_
 _symmetry_equiv_pos_site_id
 _symmetry_equiv_pos_as_xyz
  1  'x, y, z'
loop_
 _atom_site_type_symbol
 _atom_site_label
 _atom_site_symmetry_multiplicity
 _atom_site_fract_x
 _atom_site_fract_y
 _atom_site_fract_z
 _atom_site_occupancy
  Na  Na0  1  0.67060041  0.32939959  0.46173220  1.0
  Na  Na1  1  1.32939959  -0.32939959  0.53826780  1.0
  Ti  Ti2  1  -0.00000000  0.00000000  0.50000000  1.0
  Ti  Ti3  1  0.81283042  0.18716958  0.88403520  1.0
  Ti  Ti4  1  1.18716958  -0.18716958  0.11596480  1.0
  Ti  Ti5  1  0.91940486  -0.91940486  0.70816928  1.0
  Ti  Ti6  1  0.08059514  -0.08059514  0.29183072  1.0
  Ti  Ti7  1  0.10972774  -0.10972774  0.88031437  1.0
  Ti  Ti8  1  0.89027226  -0.89027226  0.11968563  1.0
  Ti  Ti9  1  0.21213572  -0.21213572  0.70192273  1.0
  Ti  Ti10  1  0.78786428  -0.78786428  0.29807727  1.0
  O  O11  1  0.50000000  0.50000000  0.50000000  1.0
  O  O12  1  0.86620699  0.13379301  0.99835427  1.0
  O  O13  1  1.13379301  -0.13379301  0.00164573  1.0
  O  O14  1  0.64657550  0.35342450  0.87918703  1.0
  O  O15  1  1.35342450  -0.35342450  0.12081297  1.0
  O  O16  1  0.75283595  0.24716405  0.72689641  1.0
  O  O17  1  1.24716405  -0.24716405  0.27310359  1.0
  O  O18  1  0.91373790  -0.91373790  0.59175098  1.0
  O  O19  1  0.08626210  -0.08626210  0.40824902  1.0
  O  O20  1  0.07769862  -0.07769862  0.74257665  1.0
  O  O21  1  0.92230138  -0.92230138  0.25742335  1.0
  O  O22  1  0.15593435  -0.15593435  0.58639234  1.0
  O  O23  1  0.84406565  -0.84406565  0.41360766  1.0
  O  O24  1  1.37783499  -0.37783499  0.70468502  1.0
  O  O25  1  0.62216501  0.37783499  0.29531498  1.0
  O  O26  1  0.27458989  -0.27458989  0.85807625  1.0
  O  O27  1  0.72541011  -0.72541011  0.14192375  1.0
  O  O28  1  0.95226010  -0.95226010  0.84770947  1.0
  O  O29  1  0.04773990  -0.04773990  0.15229053  1.0
