# generated using pymatgen
data_CaSiPd
_symmetry_space_group_name_H-M   'P 1'
_cell_length_a   5.89802617
_cell_length_b   5.74648214
_cell_length_c   7.79228194
_cell_angle_alpha   90.00000000
_cell_angle_beta   116.07160254
_cell_angle_gamma   90.00000000
_symmetry_Int_Tables_number   1
_chemical_formula_structural   CaSiPd
_chemical_formula_sum   'Ca4 Si4 Pd4'
_cell_volume   237.22937782
_cell_formula_units_Z   4
loop_
 _symmetry_equiv_pos_site_id
 _symmetry_equiv_pos_as_xyz
  1  'x, y, z'
loop_
 _atom_site_type_symbol
 _atom_site_label
 _atom_site_symmetry_multiplicity
 _atom_site_fract_x
 _atom_site_fract_y
 _atom_site_fract_z
 _atom_site_occupancy
  Ca  Ca0  1  0.70287352  0.87346948  0.38387151  1.0
  Ca  Ca1  1  0.70287352  0.62653052  0.88387151  1.0
  Ca  Ca2  1  0.29712648  0.37346948  0.11612849  1.0
  Ca  Ca3  1  0.29712648  0.12653052  0.61612849  1.0
  Si  Si4  1  0.71443199  0.11748467  0.04353447  1.0
  Si  Si5  1  0.71443199  0.38251533  0.54353447  1.0
  Si  Si6  1  0.28556801  0.61748467  0.45646553  1.0
  Si  Si7  1  0.28556801  0.88251533  0.95646553  1.0
  Pd  Pd8  1  0.88764575  0.38794566  0.30983869  1.0
  Pd  Pd9  1  0.88764575  0.11205434  0.80983869  1.0
  Pd  Pd10  1  0.11235425  0.88794566  0.19016131  1.0
  Pd  Pd11  1  0.11235425  0.61205434  0.69016131  1.0
