# generated using pymatgen
data_Ba4MgC4(N4F)2
_symmetry_space_group_name_H-M   'P 1'
_cell_length_a   8.49460140
_cell_length_b   8.61938603
_cell_length_c   8.50041931
_cell_angle_alpha   90.00000000
_cell_angle_beta   109.28785916
_cell_angle_gamma   90.00000000
_symmetry_Int_Tables_number   1
_chemical_formula_structural   Ba4MgC4(N4F)2
_chemical_formula_sum   'Ba8 Mg2 C8 N16 F4'
_cell_volume   587.45189938
_cell_formula_units_Z   2
loop_
 _symmetry_equiv_pos_site_id
 _symmetry_equiv_pos_as_xyz
  1  'x, y, z'
loop_
 _atom_site_type_symbol
 _atom_site_label
 _atom_site_symmetry_multiplicity
 _atom_site_fract_x
 _atom_site_fract_y
 _atom_site_fract_z
 _atom_site_occupancy
  Ba  Ba0  1  0.74592386  0.82700252  0.24422024  1.0
  Ba  Ba1  1  0.74592386  0.67299748  0.74422024  1.0
  Ba  Ba2  1  0.25407614  0.32700252  0.25577976  1.0
  Ba  Ba3  1  0.25407614  0.17299748  0.75577976  1.0
  Ba  Ba4  1  0.71008500  0.33299062  0.08736001  1.0
  Ba  Ba5  1  0.71008500  0.16700938  0.58736001  1.0
  Ba  Ba6  1  0.28991500  0.83299062  0.41263999  1.0
  Ba  Ba7  1  0.28991500  0.66700938  0.91263999  1.0
  Mg  Mg8  1  -0.00000000  0.50000000  0.50000000  1.0
  Mg  Mg9  1  0.00000000  0.00000000  0.00000000  1.0
  C  C10  1  0.99182867  0.14380090  0.35440683  1.0
  C  C11  1  0.99182867  0.35619910  0.85440683  1.0
  C  C12  1  0.00817133  0.64380090  0.14559317  1.0
  C  C13  1  0.00817133  0.85619910  0.64559317  1.0
  C  C14  1  0.42395134  0.05565049  0.15986829  1.0
  C  C15  1  0.42395134  0.44434951  0.65986829  1.0
  C  C16  1  0.57604866  0.55565049  0.34013171  1.0
  C  C17  1  0.57604866  0.94434951  0.84013171  1.0
  N  N18  1  0.99920712  0.95758638  0.74493790  1.0
  N  N19  1  0.99920712  0.54241362  0.24493790  1.0
  N  N20  1  0.00079288  0.45758638  0.75506210  1.0
  N  N21  1  0.00079288  0.04241362  0.25506210  1.0
  N  N22  1  0.98389326  0.24737958  0.45207535  1.0
  N  N23  1  0.98389326  0.25262042  0.95207535  1.0
  N  N24  1  0.01610674  0.74737958  0.04792465  1.0
  N  N25  1  0.01610674  0.75262042  0.54792465  1.0
  N  N26  1  0.71906071  0.50540838  0.40837601  1.0
  N  N27  1  0.71906071  -0.00540838  0.90837601  1.0
  N  N28  1  0.28093929  1.00540838  0.09162399  1.0
  N  N29  1  0.28093929  0.49459162  0.59162399  1.0
  N  N30  1  0.56476604  0.10968818  0.23109025  1.0
  N  N31  1  0.56476604  0.39031182  0.73109025  1.0
  N  N32  1  0.43523396  0.60968818  0.26890975  1.0
  N  N33  1  0.43523396  0.89031182  0.76890975  1.0
  F  F34  1  0.62969860  0.86896875  0.50312316  1.0
  F  F35  1  0.62969860  0.63103125  1.00312316  1.0
  F  F36  1  0.37030140  0.36896875  -0.00312316  1.0
  F  F37  1  0.37030140  0.13103125  0.49687684  1.0
