# generated using pymatgen
data_CsK(ClO4)2
_symmetry_space_group_name_H-M   'P 1'
_cell_length_a   8.31408769
_cell_length_b   8.31408769
_cell_length_c   8.31408769
_cell_angle_alpha   40.92247689
_cell_angle_beta   40.92247689
_cell_angle_gamma   40.92247689
_symmetry_Int_Tables_number   1
_chemical_formula_structural   CsK(ClO4)2
_chemical_formula_sum   'Cs1 K1 Cl2 O8'
_cell_volume   222.58258155
_cell_formula_units_Z   1
loop_
 _symmetry_equiv_pos_site_id
 _symmetry_equiv_pos_as_xyz
  1  'x, y, z'
loop_
 _atom_site_type_symbol
 _atom_site_label
 _atom_site_symmetry_multiplicity
 _atom_site_fract_x
 _atom_site_fract_y
 _atom_site_fract_z
 _atom_site_occupancy
  Cs  Cs0  1  0.00000000  0.00000000  -0.00000000  1.0
  K  K1  1  1.50000000  0.50000000  0.50000000  1.0
  Cl  Cl2  1  0.76497633  0.76497633  0.76497633  1.0
  Cl  Cl3  1  1.23502367  1.23502367  0.23502367  1.0
  O  O4  1  1.39447984  1.39447984  -0.01813925  1.0
  O  O5  1  1.39447984  0.98186075  0.39447984  1.0
  O  O6  1  1.01813925  0.60552016  0.60552016  1.0
  O  O7  1  1.60552016  0.01813925  0.60552016  1.0
  O  O8  1  1.60552016  0.60552016  0.01813925  1.0
  O  O9  1  0.98186075  1.39447984  0.39447984  1.0
  O  O10  1  0.82914689  0.82914689  0.82914689  1.0
  O  O11  1  1.17085311  1.17085311  0.17085311  1.0
