# generated using pymatgen
data_YCO4
_symmetry_space_group_name_H-M   'P 1'
_cell_length_a   4.81343499
_cell_length_b   7.23998657
_cell_length_c   9.01628751
_cell_angle_alpha   90.00000000
_cell_angle_beta   90.00000000
_cell_angle_gamma   90.00000000
_symmetry_Int_Tables_number   1
_chemical_formula_structural   YCO4
_chemical_formula_sum   'Y4 C4 O16'
_cell_volume   314.21044931
_cell_formula_units_Z   4
loop_
 _symmetry_equiv_pos_site_id
 _symmetry_equiv_pos_as_xyz
  1  'x, y, z'
loop_
 _atom_site_type_symbol
 _atom_site_label
 _atom_site_symmetry_multiplicity
 _atom_site_fract_x
 _atom_site_fract_y
 _atom_site_fract_z
 _atom_site_occupancy
  Y  Y0  1  0.96755711  0.64148874  0.66970864  1.0
  Y  Y1  1  0.46755711  0.85851126  0.33029136  1.0
  Y  Y2  1  0.03244289  0.14148874  0.83029136  1.0
  Y  Y3  1  0.53244289  0.35851126  0.16970864  1.0
  O  O4  1  0.45413903  0.56952596  0.73451043  1.0
  O  O5  1  0.95413903  0.93047404  0.26548957  1.0
  O  O6  1  0.54586097  0.06952596  0.76548957  1.0
  O  O7  1  0.04586097  0.43047404  0.23451043  1.0
  O  O8  1  0.34198814  0.37839834  0.92553626  1.0
  O  O9  1  0.84198814  0.12160166  0.07446374  1.0
  O  O10  1  0.65801186  0.87839834  0.57446374  1.0
  O  O11  1  0.15801186  0.62160166  0.42553626  1.0
  O  O12  1  0.21574872  0.93596008  0.63113593  1.0
  O  O13  1  0.71574872  0.56403992  0.36886407  1.0
  O  O14  1  0.78425128  0.43596008  0.86886407  1.0
  O  O15  1  0.28425128  0.06403992  0.13113593  1.0
  O  O16  1  0.02566336  0.83616557  0.85409373  1.0
  O  O17  1  0.52566336  0.66383443  0.14590627  1.0
  O  O18  1  0.97433664  0.33616557  0.64590627  1.0
  O  O19  1  0.47433664  0.16383443  0.35409373  1.0
  C  C20  1  0.48061158  0.96183655  0.65919504  1.0
  C  C21  1  0.98061158  0.53816345  0.34080496  1.0
  C  C22  1  0.51938842  0.46183655  0.84080496  1.0
  C  C23  1  0.01938842  0.03816345  0.15919504  1.0
