# generated using pymatgen
data_HfPdF6
_symmetry_space_group_name_H-M   'P 1'
_cell_length_a   5.88017571
_cell_length_b   5.88017571
_cell_length_c   5.88017571
_cell_angle_alpha   58.58850278
_cell_angle_beta   58.58850278
_cell_angle_gamma   58.58850278
_symmetry_Int_Tables_number   1
_chemical_formula_structural   HfPdF6
_chemical_formula_sum   'Hf1 Pd1 F6'
_cell_volume   139.12613441
_cell_formula_units_Z   1
loop_
 _symmetry_equiv_pos_site_id
 _symmetry_equiv_pos_as_xyz
  1  'x, y, z'
loop_
 _atom_site_type_symbol
 _atom_site_label
 _atom_site_symmetry_multiplicity
 _atom_site_fract_x
 _atom_site_fract_y
 _atom_site_fract_z
 _atom_site_occupancy
  Hf  Hf0  1  -0.00000000  -0.00000000  0.00000000  1.0
  Pd  Pd1  1  0.50000000  0.50000000  -0.50000000  1.0
  F  F2  1  0.16606583  0.76085378  -0.68799255  1.0
  F  F3  1  0.68799255  -0.16606583  0.23914622  1.0
  F  F4  1  1.23914622  -0.31200745  -0.16606583  1.0
  F  F5  1  0.83393417  0.23914622  -0.31200745  1.0
  F  F6  1  0.31200745  0.16606583  -0.23914622  1.0
  F  F7  1  0.76085378  0.31200745  -0.83393417  1.0
