# generated using pymatgen
data_Fe(CN)6
_symmetry_space_group_name_H-M   'P 1'
_cell_length_a   6.52359850
_cell_length_b   6.52359850
_cell_length_c   6.83498727
_cell_angle_alpha   90.00000000
_cell_angle_beta   90.00000000
_cell_angle_gamma   120.00000000
_symmetry_Int_Tables_number   1
_chemical_formula_structural   Fe(CN)6
_chemical_formula_sum   'Fe1 C6 N6'
_cell_volume   251.90848171
_cell_formula_units_Z   1
loop_
 _symmetry_equiv_pos_site_id
 _symmetry_equiv_pos_as_xyz
  1  'x, y, z'
loop_
 _atom_site_type_symbol
 _atom_site_label
 _atom_site_symmetry_multiplicity
 _atom_site_fract_x
 _atom_site_fract_y
 _atom_site_fract_z
 _atom_site_occupancy
  Fe  Fe0  1  0.00000000  0.00000000  0.00000000  1.0
  C  C1  1  0.76361927  0.76361927  0.16472174  1.0
  C  C2  1  0.76361927  0.00000000  0.83527826  1.0
  C  C3  1  0.00000000  0.76361927  0.83527826  1.0
  C  C4  1  -0.00000000  0.23638073  0.16472174  1.0
  C  C5  1  0.23638073  0.23638073  0.83527826  1.0
  C  C6  1  0.23638073  0.00000000  0.16472174  1.0
  N  N7  1  0.61076797  0.61076797  0.25716919  1.0
  N  N8  1  0.61076797  0.00000000  0.74283081  1.0
  N  N9  1  -0.00000000  0.61076797  0.74283081  1.0
  N  N10  1  0.00000000  0.38923203  0.25716919  1.0
  N  N11  1  0.38923203  0.38923203  0.74283081  1.0
  N  N12  1  0.38923203  0.00000000  0.25716919  1.0
