# generated using pymatgen
data_Al2CdS4
_symmetry_space_group_name_H-M   'P 1'
_cell_length_a   6.49822268
_cell_length_b   6.49822268
_cell_length_c   6.49822268
_cell_angle_alpha   128.63096785
_cell_angle_beta   128.63096785
_cell_angle_gamma   75.60509114
_symmetry_Int_Tables_number   1
_chemical_formula_structural   Al2CdS4
_chemical_formula_sum   'Al2 Cd1 S4'
_cell_volume   162.91087786
_cell_formula_units_Z   1
loop_
 _symmetry_equiv_pos_site_id
 _symmetry_equiv_pos_as_xyz
  1  'x, y, z'
loop_
 _atom_site_type_symbol
 _atom_site_label
 _atom_site_symmetry_multiplicity
 _atom_site_fract_x
 _atom_site_fract_y
 _atom_site_fract_z
 _atom_site_occupancy
  Al  Al0  1  0.25000000  0.75000000  0.50000000  1.0
  Al  Al1  1  0.50000000  0.50000000  1.00000000  1.0
  Cd  Cd2  1  0.00000000  0.00000000  0.00000000  1.0
  S  S3  1  0.39798796  0.85416856  0.98419372  1.0
  S  S4  1  1.14583144  1.13002516  1.54381940  1.0
  S  S5  1  0.86997484  0.41379424  1.01580628  1.0
  S  S6  1  0.58620576  0.60201204  0.45618060  1.0
