# generated using pymatgen
data_V3O10
_symmetry_space_group_name_H-M   'P 1'
_cell_length_a   8.88979284
_cell_length_b   8.88979284
_cell_length_c   5.37951250
_cell_angle_alpha   90.00000000
_cell_angle_beta   90.00000000
_cell_angle_gamma   90.00000000
_symmetry_Int_Tables_number   1
_chemical_formula_structural   V3O10
_chemical_formula_sum   'V6 O20'
_cell_volume   425.13435543
_cell_formula_units_Z   2
loop_
 _symmetry_equiv_pos_site_id
 _symmetry_equiv_pos_as_xyz
  1  'x, y, z'
loop_
 _atom_site_type_symbol
 _atom_site_label
 _atom_site_symmetry_multiplicity
 _atom_site_fract_x
 _atom_site_fract_y
 _atom_site_fract_z
 _atom_site_occupancy
  O  O0  1  0.31267194  0.58568146  0.37932777  1.0
  O  O1  1  0.81267194  0.91431854  0.37932777  1.0
  O  O2  1  0.41431854  0.31267194  0.37932777  1.0
  O  O3  1  0.91431854  0.18732806  0.37932777  1.0
  O  O4  1  0.68732806  0.41431854  0.37932777  1.0
  O  O5  1  0.18732806  0.08568146  0.37932777  1.0
  O  O6  1  0.58568146  0.68732806  0.37932777  1.0
  O  O7  1  0.08568146  0.81267194  0.37932777  1.0
  O  O8  1  0.00000000  0.50000000  0.36519368  1.0
  O  O9  1  0.50000000  0.00000000  0.36519368  1.0
  O  O10  1  0.50000000  0.50000000  0.00084116  1.0
  O  O11  1  0.00000000  0.00000000  0.00084116  1.0
  O  O12  1  0.78208906  0.71791094  0.82057373  1.0
  O  O13  1  0.28208906  0.78208906  0.82057373  1.0
  O  O14  1  0.21791094  0.28208906  0.82057373  1.0
  O  O15  1  0.71791094  0.21791094  0.82057373  1.0
  O  O16  1  0.36161332  0.13838668  0.96484223  1.0
  O  O17  1  0.86161332  0.36161332  0.96484223  1.0
  O  O18  1  0.63838668  0.86161332  0.96484223  1.0
  O  O19  1  0.13838668  0.63838668  0.96484223  1.0
  V  V20  1  0.36388095  0.13611905  0.27455076  1.0
  V  V21  1  0.86388095  0.36388095  0.27455076  1.0
  V  V22  1  0.63611905  0.86388095  0.27455076  1.0
  V  V23  1  0.13611905  0.63611905  0.27455076  1.0
  V  V24  1  0.50000000  0.50000000  0.29462066  1.0
  V  V25  1  0.00000000  0.00000000  0.29462066  1.0
