# generated using pymatgen
data_LuVO2
_symmetry_space_group_name_H-M   'P 1'
_cell_length_a   7.00233011
_cell_length_b   7.00233011
_cell_length_c   7.00233011
_cell_angle_alpha   129.65512983
_cell_angle_beta   129.65512983
_cell_angle_gamma   73.95870128
_symmetry_Int_Tables_number   1
_chemical_formula_structural   LuVO2
_chemical_formula_sum   'Lu4 V4 O8'
_cell_volume   198.48821864
_cell_formula_units_Z   4
loop_
 _symmetry_equiv_pos_site_id
 _symmetry_equiv_pos_as_xyz
  1  'x, y, z'
loop_
 _atom_site_type_symbol
 _atom_site_label
 _atom_site_symmetry_multiplicity
 _atom_site_fract_x
 _atom_site_fract_y
 _atom_site_fract_z
 _atom_site_occupancy
  Lu  Lu0  1  0.37500000  0.62500000  0.75000000  1.0
  Lu  Lu1  1  0.87500000  0.62500000  1.25000000  1.0
  Lu  Lu2  1  0.37500000  1.12500000  0.75000000  1.0
  Lu  Lu3  1  0.37500000  0.62500000  0.25000000  1.0
  V  V4  1  0.87500000  0.12500000  0.75000000  1.0
  V  V5  1  0.37500000  0.12500000  0.25000000  1.0
  V  V6  1  0.87500000  0.62500000  0.75000000  1.0
  V  V7  1  0.87500000  1.12500000  1.25000000  1.0
  O  O8  1  1.17192960  0.94697211  1.77501733  1.0
  O  O9  1  0.57804523  0.85308773  1.27501733  1.0
  O  O10  1  1.05302789  0.82804523  1.22495750  1.0
  O  O11  1  1.14691227  1.42192960  1.72495750  1.0
  O  O12  1  0.17195477  0.39691227  0.22498267  1.0
  O  O13  1  0.57807040  0.30302789  0.72498267  1.0
  O  O14  1  0.60308773  0.82807040  0.77504250  1.0
  O  O15  1  0.69697211  0.42195477  0.27504250  1.0
