# generated using pymatgen
data_EuAlGe2O7
_symmetry_space_group_name_H-M   'P 1'
_cell_length_a   7.33561890
_cell_length_b   6.58319129
_cell_length_c   12.85862115
_cell_angle_alpha   90.00000000
_cell_angle_beta   117.83070710
_cell_angle_gamma   90.00000000
_symmetry_Int_Tables_number   1
_chemical_formula_structural   EuAlGe2O7
_chemical_formula_sum   'Eu4 Al4 Ge8 O28'
_cell_volume   549.13918333
_cell_formula_units_Z   4
loop_
 _symmetry_equiv_pos_site_id
 _symmetry_equiv_pos_as_xyz
  1  'x, y, z'
loop_
 _atom_site_type_symbol
 _atom_site_label
 _atom_site_symmetry_multiplicity
 _atom_site_fract_x
 _atom_site_fract_y
 _atom_site_fract_z
 _atom_site_occupancy
  Eu  Eu0  1  0.74306817  0.85322709  0.97236961  1.0
  Eu  Eu1  1  0.74306817  0.64677291  0.47236961  1.0
  Eu  Eu2  1  0.25693183  0.35322709  0.52763039  1.0
  Eu  Eu3  1  0.25693183  0.14677291  0.02763039  1.0
  Al  Al4  1  0.71200971  0.90023939  0.22834647  1.0
  Al  Al5  1  0.71200971  0.59976061  0.72834647  1.0
  Al  Al6  1  0.28799029  0.40023939  0.27165353  1.0
  Al  Al7  1  0.28799029  0.09976061  0.77165353  1.0
  Ge  Ge8  1  0.80438651  0.41087901  0.22031475  1.0
  Ge  Ge9  1  0.80438651  0.08912099  0.72031475  1.0
  Ge  Ge10  1  0.19561349  0.91087901  0.27968525  1.0
  Ge  Ge11  1  0.19561349  0.58912099  0.77968525  1.0
  Ge  Ge12  1  0.70930646  0.15800055  0.45003872  1.0
  Ge  Ge13  1  0.70930646  0.34199945  0.95003872  1.0
  Ge  Ge14  1  0.29069354  0.65800055  0.04996128  1.0
  Ge  Ge15  1  0.29069354  0.84199945  0.54996128  1.0
  O  O16  1  0.92497019  0.88092836  0.19458096  1.0
  O  O17  1  0.92497019  0.61907164  0.69458096  1.0
  O  O18  1  0.07502981  0.38092836  0.30541904  1.0
  O  O19  1  0.07502981  0.11907164  0.80541904  1.0
  O  O20  1  0.90681016  0.32707035  0.47436799  1.0
  O  O21  1  0.90681016  0.17292965  0.97436799  1.0
  O  O22  1  0.09318984  0.82707035  0.02563201  1.0
  O  O23  1  0.09318984  0.67292965  0.52563201  1.0
  O  O24  1  0.75192674  0.49820136  0.07373918  1.0
  O  O25  1  0.75192674  0.00179864  0.57373918  1.0
  O  O26  1  0.24807326  0.99820136  0.42626082  1.0
  O  O27  1  0.24807326  0.50179864  0.92626082  1.0
  O  O28  1  0.70566757  0.94716103  0.36511938  1.0
  O  O29  1  0.70566757  0.55283897  0.86511938  1.0
  O  O30  1  0.29433243  0.44716103  0.13488062  1.0
  O  O31  1  0.29433243  0.05283897  0.63488062  1.0
  O  O32  1  0.66041862  0.18385510  0.18904845  1.0
  O  O33  1  0.66041862  0.31614490  0.68904845  1.0
  O  O34  1  0.33958138  0.68385510  0.31095155  1.0
  O  O35  1  0.33958138  0.81614490  0.81095155  1.0
  O  O36  1  0.50872761  0.34220475  0.41556007  1.0
  O  O37  1  0.50872761  0.15779525  0.91556007  1.0
  O  O38  1  0.49127239  0.84220475  0.08443993  1.0
  O  O39  1  0.49127239  0.65779525  0.58443993  1.0
  O  O40  1  0.27513729  0.11829627  0.22335210  1.0
  O  O41  1  0.27513729  0.38170373  0.72335210  1.0
  O  O42  1  0.72486271  0.61829627  0.27664790  1.0
  O  O43  1  0.72486271  0.88170373  0.77664790  1.0
