# generated using pymatgen
data_PbC6(Br2N)2
_symmetry_space_group_name_H-M   'P 1'
_cell_length_a   16.26361475
_cell_length_b   6.75920683
_cell_length_c   7.88987765
_cell_angle_alpha   90.00000000
_cell_angle_beta   122.79837502
_cell_angle_gamma   90.00000000
_symmetry_Int_Tables_number   1
_chemical_formula_structural   PbC6(Br2N)2
_chemical_formula_sum   'Pb2 C12 Br8 N4'
_cell_volume   729.05979864
_cell_formula_units_Z   2
loop_
 _symmetry_equiv_pos_site_id
 _symmetry_equiv_pos_as_xyz
  1  'x, y, z'
loop_
 _atom_site_type_symbol
 _atom_site_label
 _atom_site_symmetry_multiplicity
 _atom_site_fract_x
 _atom_site_fract_y
 _atom_site_fract_z
 _atom_site_occupancy
  C  C0  1  0.56587901  1.00141031  0.36185566  1.0
  C  C1  1  0.56587901  0.49858969  0.86185566  1.0
  C  C2  1  0.43412099  -0.00141031  0.63814434  1.0
  C  C3  1  0.43412099  0.50141031  0.13814434  1.0
  C  C4  1  0.52323662  0.00037037  0.45138959  1.0
  C  C5  1  0.52323662  0.49962963  0.95138959  1.0
  C  C6  1  0.47676338  0.99962963  0.54861041  1.0
  C  C7  1  0.47676338  0.50037037  0.04861041  1.0
  C  C8  1  0.60970076  1.00447707  0.25715673  1.0
  C  C9  1  0.60970076  0.49552293  0.75715673  1.0
  C  C10  1  0.39029924  -0.00447707  0.74284327  1.0
  C  C11  1  0.39029924  0.50447707  0.24284327  1.0
  N  N12  1  0.64536083  0.00816412  0.16161661  1.0
  N  N13  1  0.64536083  0.49183588  0.66161661  1.0
  N  N14  1  0.35463917  0.99183588  0.83838339  1.0
  N  N15  1  0.35463917  0.50816412  0.33838339  1.0
  Br  Br16  1  0.83506953  0.19984242  0.81579800  1.0
  Br  Br17  1  0.83506953  0.30015758  0.31579800  1.0
  Br  Br18  1  0.16493047  0.80015758  0.18420200  1.0
  Br  Br19  1  0.16493047  0.69984242  0.68420200  1.0
  Br  Br20  1  0.90866141  0.74695198  0.65080143  1.0
  Br  Br21  1  0.90866141  0.75304802  0.15080143  1.0
  Br  Br22  1  0.09133859  0.25304802  0.34919857  1.0
  Br  Br23  1  0.09133859  0.24695198  0.84919857  1.0
  Pb  Pb24  1  0.00000000  0.00000000  0.00000000  1.0
  Pb  Pb25  1  -0.00000000  0.50000000  0.50000000  1.0
