# generated using pymatgen
data_Mn15(Br3O10)2
_symmetry_space_group_name_H-M   'P 1'
_cell_length_a   9.31110352
_cell_length_b   9.31110352
_cell_length_c   9.31110352
_cell_angle_alpha   120.00669794
_cell_angle_beta   120.00669794
_cell_angle_gamma   89.98839922
_symmetry_Int_Tables_number   1
_chemical_formula_structural   Mn15(Br3O10)2
_chemical_formula_sum   'Mn15 Br6 O20'
_cell_volume   570.74811849
_cell_formula_units_Z   1
loop_
 _symmetry_equiv_pos_site_id
 _symmetry_equiv_pos_as_xyz
  1  'x, y, z'
loop_
 _atom_site_type_symbol
 _atom_site_label
 _atom_site_symmetry_multiplicity
 _atom_site_fract_x
 _atom_site_fract_y
 _atom_site_fract_z
 _atom_site_occupancy
  Mn  Mn0  1  0.64946680  0.64946680  0.64945922  1.0
  Mn  Mn1  1  0.99999242  0.99999242  0.64945922  1.0
  Mn  Mn2  1  1.00000758  1.64946680  1.00000000  1.0
  Mn  Mn3  1  1.35053320  0.99999242  1.00000000  1.0
  Mn  Mn4  1  1.64946680  1.00000758  1.00000000  1.0
  Mn  Mn5  1  0.99999242  1.35053320  1.00000000  1.0
  Mn  Mn6  1  1.00000758  1.00000758  0.35054078  1.0
  Mn  Mn7  1  0.35053320  0.35053320  0.35054078  1.0
  Mn  Mn8  1  0.00000000  0.64947128  0.64947128  1.0
  Mn  Mn9  1  0.64947128  -0.00000000  0.64947128  1.0
  Mn  Mn10  1  0.35052872  0.00000000  0.35052872  1.0
  Mn  Mn11  1  0.00000000  0.35052872  0.35052872  1.0
  Mn  Mn12  1  1.25000000  0.75000000  0.50000000  1.0
  Mn  Mn13  1  0.75000000  1.25000000  0.50000000  1.0
  Mn  Mn14  1  0.00000000  0.00000000  0.00000000  1.0
  Br  Br15  1  0.69922080  0.69922080  0.39844160  1.0
  Br  Br16  1  1.30077920  0.69922080  1.00000000  1.0
  Br  Br17  1  0.69922080  1.30077920  1.00000000  1.0
  Br  Br18  1  0.30077920  0.30077920  0.60155840  1.0
  Br  Br19  1  0.69918771  0.69918771  0.00000000  1.0
  Br  Br20  1  0.30081229  0.30081229  0.00000000  1.0
  O  O21  1  1.70031500  0.90009942  0.80021558  1.0
  O  O22  1  0.90011617  1.09990058  0.80021558  1.0
  O  O23  1  1.09988383  0.90009942  0.19978442  1.0
  O  O24  1  1.29968500  1.09990058  1.19978442  1.0
  O  O25  1  0.90009942  1.70031500  0.80021558  1.0
  O  O26  1  1.09990058  0.90011617  0.80021558  1.0
  O  O27  1  0.90009942  1.09988383  0.19978442  1.0
  O  O28  1  1.09990058  1.29968500  1.19978442  1.0
  O  O29  1  1.09789793  1.59789793  1.19579586  1.0
  O  O30  1  1.59789793  1.09789793  1.19579586  1.0
  O  O31  1  1.40210207  1.59789793  1.50000000  1.0
  O  O32  1  0.90210207  1.09789793  0.50000000  1.0
  O  O33  1  1.09789793  0.90210207  0.50000000  1.0
  O  O34  1  1.59789793  1.40210207  1.50000000  1.0
  O  O35  1  1.40210207  0.90210207  0.80420414  1.0
  O  O36  1  0.90210207  1.40210207  0.80420414  1.0
  O  O37  1  1.40211013  0.90211013  0.50000000  1.0
  O  O38  1  0.59788987  1.09788987  0.50000000  1.0
  O  O39  1  0.90211013  1.40211013  0.50000000  1.0
  O  O40  1  1.09788987  0.59788987  0.50000000  1.0
