# generated using pymatgen
data_SrVPO6
_symmetry_space_group_name_H-M   'P 1'
_cell_length_a   5.60124350
_cell_length_b   9.89535143
_cell_length_c   8.56151361
_cell_angle_alpha   90.00000000
_cell_angle_beta   91.21656227
_cell_angle_gamma   90.00000000
_symmetry_Int_Tables_number   1
_chemical_formula_structural   SrVPO6
_chemical_formula_sum   'Sr4 V4 P4 O24'
_cell_volume   474.42582403
_cell_formula_units_Z   4
loop_
 _symmetry_equiv_pos_site_id
 _symmetry_equiv_pos_as_xyz
  1  'x, y, z'
loop_
 _atom_site_type_symbol
 _atom_site_label
 _atom_site_symmetry_multiplicity
 _atom_site_fract_x
 _atom_site_fract_y
 _atom_site_fract_z
 _atom_site_occupancy
  Sr  Sr0  1  0.14268143  0.68687476  0.92698584  1.0
  Sr  Sr1  1  0.14268143  0.81312524  0.42698584  1.0
  Sr  Sr2  1  0.85731857  0.18687476  0.57301416  1.0
  Sr  Sr3  1  0.85731857  0.31312524  0.07301416  1.0
  V  V4  1  0.33983216  0.08958144  0.91164536  1.0
  V  V5  1  0.33983216  0.41041856  0.41164536  1.0
  V  V6  1  0.66016784  0.58958144  0.58835464  1.0
  V  V7  1  0.66016784  0.91041856  0.08835464  1.0
  P  P8  1  0.33677976  0.39303361  0.78517482  1.0
  P  P9  1  0.33677976  0.10696639  0.28517482  1.0
  P  P10  1  0.66322024  0.89303361  0.71482518  1.0
  P  P11  1  0.66322024  0.60696639  0.21482518  1.0
  O  O12  1  0.08834132  0.13453553  0.82675152  1.0
  O  O13  1  0.08834132  0.36546447  0.32675152  1.0
  O  O14  1  0.91165868  0.63453553  0.67324848  1.0
  O  O15  1  0.91165868  0.86546447  0.17324848  1.0
  O  O16  1  0.12094181  0.42271781  0.88587245  1.0
  O  O17  1  0.12094181  0.07728219  0.38587245  1.0
  O  O18  1  0.87905819  0.92271781  0.61412755  1.0
  O  O19  1  0.87905819  0.57728219  0.11412755  1.0
  O  O20  1  0.25620241  0.33948856  0.61756371  1.0
  O  O21  1  0.25620241  0.16051144  0.11756371  1.0
  O  O22  1  0.74379759  0.83948856  0.88243629  1.0
  O  O23  1  0.74379759  0.66051144  0.38243629  1.0
  O  O24  1  0.31228191  0.57401648  0.46501001  1.0
  O  O25  1  0.31228191  0.92598352  0.96501001  1.0
  O  O26  1  0.68771809  0.07401648  0.03498999  1.0
  O  O27  1  0.68771809  0.42598352  0.53498999  1.0
  O  O28  1  0.50838588  0.28506339  0.85964034  1.0
  O  O29  1  0.50838588  0.21493661  0.35964034  1.0
  O  O30  1  0.49161412  0.78506339  0.64035966  1.0
  O  O31  1  0.49161412  0.71493661  0.14035966  1.0
  O  O32  1  0.52982693  0.03328361  0.73081491  1.0
  O  O33  1  0.52982693  0.46671639  0.23081491  1.0
  O  O34  1  0.47017307  0.53328361  0.76918509  1.0
  O  O35  1  0.47017307  0.96671639  0.26918509  1.0
