# generated using pymatgen
data_Cs2MgP4(HO2)8
_symmetry_space_group_name_H-M   'P 1'
_cell_length_a   7.58294551
_cell_length_b   7.19260136
_cell_length_c   8.03184381
_cell_angle_alpha   109.42846514
_cell_angle_beta   96.05792234
_cell_angle_gamma   89.23656505
_symmetry_Int_Tables_number   1
_chemical_formula_structural   Cs2MgP4(HO2)8
_chemical_formula_sum   'Cs2 Mg1 P4 H8 O16'
_cell_volume   410.70329497
_cell_formula_units_Z   1
loop_
 _symmetry_equiv_pos_site_id
 _symmetry_equiv_pos_as_xyz
  1  'x, y, z'
loop_
 _atom_site_type_symbol
 _atom_site_label
 _atom_site_symmetry_multiplicity
 _atom_site_fract_x
 _atom_site_fract_y
 _atom_site_fract_z
 _atom_site_occupancy
  Cs  Cs0  1  0.20437436  0.59452427  -0.77941850  1.0
  Cs  Cs1  1  0.79562564  0.40547573  -0.22058150  1.0
  Mg  Mg2  1  0.00000000  0.00000000  0.00000000  1.0
  P  P3  1  0.74930331  0.86101828  -0.74397408  1.0
  P  P4  1  0.25069669  0.13898172  -0.25602592  1.0
  P  P5  1  0.69904175  0.26050783  -0.75572970  1.0
  P  P6  1  0.30095825  0.73949217  -0.24427030  1.0
  H  H7  1  0.67991791  0.86794389  -0.20589264  1.0
  H  H8  1  0.32008209  0.13205611  -0.79410736  1.0
  H  H9  1  0.80668996  0.87626702  -0.34888142  1.0
  H  H10  1  0.19331004  0.12373298  -0.65111858  1.0
  H  H11  1  0.52918731  0.77110339  -0.96312179  1.0
  H  H12  1  0.47081269  0.22889661  -0.03687821  1.0
  H  H13  1  0.75315881  0.58377215  -0.60036373  1.0
  H  H14  1  0.24684119  0.41622785  -0.39963627  1.0
  O  O15  1  0.79802345  0.91410350  -0.22017199  1.0
  O  O16  1  0.20197655  0.08589650  -0.77982801  1.0
  O  O17  1  0.27837108  0.90259810  -0.34690733  1.0
  O  O18  1  0.72162892  0.09740190  -0.65309267  1.0
  O  O19  1  0.87899082  0.82849660  -0.88235118  1.0
  O  O20  1  0.12100918  0.17150340  -0.11764882  1.0
  O  O21  1  0.80392058  0.78765169  -0.58952467  1.0
  O  O22  1  0.19607942  0.21234831  -0.41047533  1.0
  O  O23  1  0.56074907  0.76760832  -0.83481033  1.0
  O  O24  1  0.43925093  0.23239168  -0.16518967  1.0
  O  O25  1  0.72280917  0.45061931  -0.58502368  1.0
  O  O26  1  0.27719083  0.54938069  -0.41497632  1.0
  O  O27  1  0.50944723  0.23910501  -0.84735641  1.0
  O  O28  1  0.49055277  0.76089499  -0.15264359  1.0
  O  O29  1  0.84509354  0.24122863  -0.87531588  1.0
  O  O30  1  0.15490646  0.75877137  -0.12468412  1.0
