# generated using pymatgen
data_LiLa2TaO6
_symmetry_space_group_name_H-M   'P 1'
_cell_length_a   5.65428278
_cell_length_b   5.86322124
_cell_length_c   9.76788501
_cell_angle_alpha   90.00000000
_cell_angle_beta   124.84294140
_cell_angle_gamma   90.00000000
_symmetry_Int_Tables_number   1
_chemical_formula_structural   LiLa2TaO6
_chemical_formula_sum   'Li2 La4 Ta2 O12'
_cell_volume   265.77248736
_cell_formula_units_Z   2
loop_
 _symmetry_equiv_pos_site_id
 _symmetry_equiv_pos_as_xyz
  1  'x, y, z'
loop_
 _atom_site_type_symbol
 _atom_site_label
 _atom_site_symmetry_multiplicity
 _atom_site_fract_x
 _atom_site_fract_y
 _atom_site_fract_z
 _atom_site_occupancy
  Li  Li0  1  0.50000000  0.50000000  -0.00000000  1.0
  Li  Li1  1  0.50000000  0.00000000  0.50000000  1.0
  La  La2  1  0.73514722  0.05516013  0.24758243  1.0
  La  La3  1  0.73514722  0.44483987  0.74758243  1.0
  La  La4  1  0.26485278  0.55516013  0.25241757  1.0
  La  La5  1  0.26485278  0.94483987  0.75241757  1.0
  Ta  Ta6  1  -0.00000000  0.50000000  0.50000000  1.0
  Ta  Ta7  1  0.00000000  0.00000000  0.00000000  1.0
  O  O8  1  0.86078523  0.46345633  0.26108745  1.0
  O  O9  1  0.86078523  0.03654367  0.76108745  1.0
  O  O10  1  0.13921477  0.96345633  0.23891255  1.0
  O  O11  1  0.13921477  0.53654367  0.73891255  1.0
  O  O12  1  0.76064074  0.78369345  0.44380917  1.0
  O  O13  1  0.76064074  0.71630655  0.94380917  1.0
  O  O14  1  0.23935926  0.28369345  0.05619083  1.0
  O  O15  1  0.23935926  0.21630655  0.55619083  1.0
  O  O16  1  0.66472753  0.31370764  0.45242115  1.0
  O  O17  1  0.66472753  0.18629236  0.95242115  1.0
  O  O18  1  0.33527247  0.81370764  0.04757885  1.0
  O  O19  1  0.33527247  0.68629236  0.54757885  1.0
