# generated using pymatgen
data_Be12Au
_symmetry_space_group_name_H-M   'P 1'
_cell_length_a   5.60776217
_cell_length_b   5.60776217
_cell_length_c   5.60776217
_cell_angle_alpha   98.36565038
_cell_angle_beta   98.36565038
_cell_angle_gamma   135.15524872
_symmetry_Int_Tables_number   1
_chemical_formula_structural   Be12Au
_chemical_formula_sum   'Be12 Au1'
_cell_volume   114.95619934
_cell_formula_units_Z   1
loop_
 _symmetry_equiv_pos_site_id
 _symmetry_equiv_pos_as_xyz
  1  'x, y, z'
loop_
 _atom_site_type_symbol
 _atom_site_label
 _atom_site_symmetry_multiplicity
 _atom_site_fract_x
 _atom_site_fract_y
 _atom_site_fract_z
 _atom_site_occupancy
  Be  Be0  1  0.50000000  0.73487646  0.23487646  1.0
  Be  Be1  1  0.73487646  0.50000000  1.23487646  1.0
  Be  Be2  1  0.26512354  0.50000000  0.76512354  1.0
  Be  Be3  1  0.50000000  1.26512354  0.76512354  1.0
  Be  Be4  1  0.00000000  0.64791250  0.64791250  1.0
  Be  Be5  1  0.64791250  1.00000000  0.64791250  1.0
  Be  Be6  1  1.35208750  1.00000000  1.35208750  1.0
  Be  Be7  1  0.00000000  0.35208750  0.35208750  1.0
  Be  Be8  1  0.50000000  0.50000000  0.50000000  1.0
  Be  Be9  1  1.00000000  1.00000000  0.50000000  1.0
  Be  Be10  1  1.00000000  0.50000000  1.00000000  1.0
  Be  Be11  1  1.50000000  1.00000000  1.00000000  1.0
  Au  Au12  1  0.00000000  0.00000000  0.00000000  1.0
