# generated using pymatgen
data_Si
_symmetry_space_group_name_H-M   'P 1'
_cell_length_a   7.21745557
_cell_length_b   7.21745557
_cell_length_c   6.36358100
_cell_angle_alpha   83.41723080
_cell_angle_beta   96.58276920
_cell_angle_gamma   148.93146831
_symmetry_Int_Tables_number   1
_chemical_formula_structural   Si
_chemical_formula_sum   Si8
_cell_volume   169.85420403
_cell_formula_units_Z   8
loop_
 _symmetry_equiv_pos_site_id
 _symmetry_equiv_pos_as_xyz
  1  'x, y, z'
loop_
 _atom_site_type_symbol
 _atom_site_label
 _atom_site_symmetry_multiplicity
 _atom_site_fract_x
 _atom_site_fract_y
 _atom_site_fract_z
 _atom_site_occupancy
  Si  Si0  1  1.05564924  -0.05564924  0.87407681  1.0
  Si  Si1  1  0.94435076  -0.94435076  0.12592319  1.0
  Si  Si2  1  0.55920794  -0.55920794  0.65360417  1.0
  Si  Si3  1  1.44079206  -0.44079206  0.34639583  1.0
  Si  Si4  1  1.21286333  -0.21286333  0.05706169  1.0
  Si  Si5  1  0.78713667  -0.78713667  0.94293831  1.0
  Si  Si6  1  0.72706053  -0.72706053  0.58565697  1.0
  Si  Si7  1  1.27293947  -0.27293947  0.41434303  1.0
