# generated using pymatgen
data_Y11Ge10
_symmetry_space_group_name_H-M   'P 1'
_cell_length_a   11.30473160
_cell_length_b   11.30473160
_cell_length_c   11.30473160
_cell_angle_alpha   122.11336872
_cell_angle_beta   122.11336872
_cell_angle_gamma   86.37692555
_symmetry_Int_Tables_number   1
_chemical_formula_structural   Y11Ge10
_chemical_formula_sum   'Y22 Ge20'
_cell_volume   986.78399002
_cell_formula_units_Z   2
loop_
 _symmetry_equiv_pos_site_id
 _symmetry_equiv_pos_as_xyz
  1  'x, y, z'
loop_
 _atom_site_type_symbol
 _atom_site_label
 _atom_site_symmetry_multiplicity
 _atom_site_fract_x
 _atom_site_fract_y
 _atom_site_fract_z
 _atom_site_occupancy
  Y  Y0  1  0.43775804  0.68996853  0.74778951  1.0
  Y  Y1  1  1.05782097  0.31003147  0.74778951  1.0
  Y  Y2  1  0.94217903  0.68996853  1.25221049  1.0
  Y  Y3  1  0.56224196  0.31003147  0.25221049  1.0
  Y  Y4  1  0.68996853  0.43775804  0.74778951  1.0
  Y  Y5  1  0.31003147  1.05782097  0.74778951  1.0
  Y  Y6  1  0.68996853  0.94217903  1.25221049  1.0
  Y  Y7  1  0.31003147  0.56224196  0.25221049  1.0
  Y  Y8  1  0.57361996  0.89795416  0.67566580  1.0
  Y  Y9  1  0.77771164  0.10204584  0.67566580  1.0
  Y  Y10  1  1.22228836  0.89795416  1.32433420  1.0
  Y  Y11  1  0.42638004  0.10204584  0.32433420  1.0
  Y  Y12  1  0.89795416  0.57361996  0.67566580  1.0
  Y  Y13  1  0.10204584  0.77771164  0.67566580  1.0
  Y  Y14  1  0.89795416  1.22228836  1.32433420  1.0
  Y  Y15  1  0.10204584  0.42638004  0.32433420  1.0
  Y  Y16  1  0.67650758  0.67650758  1.35301516  1.0
  Y  Y17  1  0.32349242  0.67650758  1.00000000  1.0
  Y  Y18  1  0.67650758  0.32349242  1.00000000  1.0
  Y  Y19  1  0.32349242  0.32349242  0.64698484  1.0
  Y  Y20  1  0.83964831  0.83964831  1.00000000  1.0
  Y  Y21  1  0.16035169  0.16035169  0.00000000  1.0
  Ge  Ge22  1  0.60927048  0.60927048  0.58209972  1.0
  Ge  Ge23  1  0.97282924  0.97282924  1.58209972  1.0
  Ge  Ge24  1  1.02717076  0.60927048  1.00000000  1.0
  Ge  Ge25  1  0.39072952  0.97282924  1.00000000  1.0
  Ge  Ge26  1  0.60927048  1.02717076  1.00000000  1.0
  Ge  Ge27  1  0.97282924  0.39072952  1.00000000  1.0
  Ge  Ge28  1  1.02717076  1.02717076  1.41790028  1.0
  Ge  Ge29  1  0.39072952  0.39072952  0.41790028  1.0
  Ge  Ge30  1  0.50000000  0.85944299  1.35944299  1.0
  Ge  Ge31  1  0.85944299  0.50000000  1.35944299  1.0
  Ge  Ge32  1  0.14055701  0.50000000  0.64055701  1.0
  Ge  Ge33  1  0.50000000  0.14055701  0.64055701  1.0
  Ge  Ge34  1  0.87996865  0.87996865  1.75993730  1.0
  Ge  Ge35  1  0.12003135  0.87996865  1.00000000  1.0
  Ge  Ge36  1  0.87996865  0.12003135  1.00000000  1.0
  Ge  Ge37  1  0.12003135  0.12003135  0.24006270  1.0
  Ge  Ge38  1  0.61312549  0.61312549  1.00000000  1.0
  Ge  Ge39  1  0.38687451  0.38687451  0.00000000  1.0
  Ge  Ge40  1  0.25000000  0.75000000  0.50000000  1.0
  Ge  Ge41  1  0.75000000  0.25000000  0.50000000  1.0
