# generated using pymatgen
data_As2S3
_symmetry_space_group_name_H-M   'P 1'
_cell_length_a   12.54501874
_cell_length_b   3.58347036
_cell_length_c   10.77772670
_cell_angle_alpha   90.00000000
_cell_angle_beta   90.00000000
_cell_angle_gamma   90.00000000
_symmetry_Int_Tables_number   1
_chemical_formula_structural   As2S3
_chemical_formula_sum   'As8 S12'
_cell_volume   484.50950093
_cell_formula_units_Z   4
loop_
 _symmetry_equiv_pos_site_id
 _symmetry_equiv_pos_as_xyz
  1  'x, y, z'
loop_
 _atom_site_type_symbol
 _atom_site_label
 _atom_site_symmetry_multiplicity
 _atom_site_fract_x
 _atom_site_fract_y
 _atom_site_fract_z
 _atom_site_occupancy
  As  As0  1  0.44680422  0.75000000  0.16765621  1.0
  As  As1  1  0.94680422  0.75000000  0.33234379  1.0
  As  As2  1  0.55319578  0.25000000  0.83234379  1.0
  As  As3  1  0.05319578  0.25000000  0.66765621  1.0
  As  As4  1  0.11963389  0.75000000  0.96128799  1.0
  As  As5  1  0.61963389  0.75000000  0.53871201  1.0
  As  As6  1  0.88036611  0.25000000  0.03871201  1.0
  As  As7  1  0.38036611  0.25000000  0.46128799  1.0
  S  S8  1  0.45593572  0.75000000  0.62691359  1.0
  S  S9  1  0.95593572  0.75000000  0.87308641  1.0
  S  S10  1  0.54406428  0.25000000  0.37308641  1.0
  S  S11  1  0.04406428  0.25000000  0.12691359  1.0
  S  S12  1  0.31097570  0.75000000  0.31539383  1.0
  S  S13  1  0.81097570  0.75000000  0.18460617  1.0
  S  S14  1  0.68902430  0.25000000  0.68460617  1.0
  S  S15  1  0.18902430  0.25000000  0.81539383  1.0
  S  S16  1  0.12798250  0.75000000  0.55199052  1.0
  S  S17  1  0.62798250  0.75000000  0.94800948  1.0
  S  S18  1  0.87201750  0.25000000  0.44800948  1.0
  S  S19  1  0.37201750  0.25000000  0.05199052  1.0
