# generated using pymatgen
data_YNiSn
_symmetry_space_group_name_H-M   'P 1'
_cell_length_a   7.29575144
_cell_length_b   7.29575144
_cell_length_c   3.94085415
_cell_angle_alpha   90.00000000
_cell_angle_beta   90.00000000
_cell_angle_gamma   120.00000000
_symmetry_Int_Tables_number   1
_chemical_formula_structural   YNiSn
_chemical_formula_sum   'Y3 Ni3 Sn3'
_cell_volume   181.66072920
_cell_formula_units_Z   3
loop_
 _symmetry_equiv_pos_site_id
 _symmetry_equiv_pos_as_xyz
  1  'x, y, z'
loop_
 _atom_site_type_symbol
 _atom_site_label
 _atom_site_symmetry_multiplicity
 _atom_site_fract_x
 _atom_site_fract_y
 _atom_site_fract_z
 _atom_site_occupancy
  Y  Y0  1  0.40747516  0.40747516  0.00000000  1.0
  Y  Y1  1  0.00000000  0.59252484  0.00000000  1.0
  Y  Y2  1  0.59252484  0.00000000  0.00000000  1.0
  Ni  Ni3  1  0.33333333  0.66666667  0.50000000  1.0
  Ni  Ni4  1  0.66666667  0.33333333  0.50000000  1.0
  Ni  Ni5  1  -0.00000000  -0.00000000  0.00000000  1.0
  Sn  Sn6  1  0.74345391  0.74345391  0.50000000  1.0
  Sn  Sn7  1  -0.00000000  0.25654609  0.50000000  1.0
  Sn  Sn8  1  0.25654609  -0.00000000  0.50000000  1.0
