# generated using pymatgen
data_Na2SiF6
_symmetry_space_group_name_H-M   'P 1'
_cell_length_a   5.43553886
_cell_length_b   5.43553886
_cell_length_c   5.43553886
_cell_angle_alpha   60.00000000
_cell_angle_beta   60.00000000
_cell_angle_gamma   60.00000000
_symmetry_Int_Tables_number   1
_chemical_formula_structural   Na2SiF6
_chemical_formula_sum   'Na2 Si1 F6'
_cell_volume   113.55671397
_cell_formula_units_Z   1
loop_
 _symmetry_equiv_pos_site_id
 _symmetry_equiv_pos_as_xyz
  1  'x, y, z'
loop_
 _atom_site_type_symbol
 _atom_site_label
 _atom_site_symmetry_multiplicity
 _atom_site_fract_x
 _atom_site_fract_y
 _atom_site_fract_z
 _atom_site_occupancy
  Na  Na0  1  0.75000000  0.75000000  -0.25000000  1.0
  Na  Na1  1  1.25000000  0.25000000  0.25000000  1.0
  Si  Si2  1  0.00000000  0.00000000  0.00000000  1.0
  F  F3  1  -0.77713551  0.77713551  0.77713551  1.0
  F  F4  1  -0.22286449  0.22286449  0.77713551  1.0
  F  F5  1  0.77713551  0.77713551  -0.77713551  1.0
  F  F6  1  0.22286449  1.22286449  -0.22286449  1.0
  F  F7  1  0.22286449  -0.22286449  1.22286449  1.0
  F  F8  1  -0.22286449  0.22286449  0.22286449  1.0
