# generated using pymatgen
data_HSO3F
_symmetry_space_group_name_H-M   'P 1'
_cell_length_a   5.26706920
_cell_length_b   7.47822491
_cell_length_c   9.39789247
_cell_angle_alpha   90.00000000
_cell_angle_beta   90.00000000
_cell_angle_gamma   90.00000000
_symmetry_Int_Tables_number   1
_chemical_formula_structural   HSO3F
_chemical_formula_sum   'H4 S4 O12 F4'
_cell_volume   370.16727204
_cell_formula_units_Z   4
loop_
 _symmetry_equiv_pos_site_id
 _symmetry_equiv_pos_as_xyz
  1  'x, y, z'
loop_
 _atom_site_type_symbol
 _atom_site_label
 _atom_site_symmetry_multiplicity
 _atom_site_fract_x
 _atom_site_fract_y
 _atom_site_fract_z
 _atom_site_occupancy
  H  H0  1  0.29221668  0.95950373  0.29650317  1.0
  H  H1  1  0.79221668  0.54049627  0.70349683  1.0
  H  H2  1  0.70778332  0.45950373  0.20349683  1.0
  H  H3  1  0.20778332  0.04049627  0.79650317  1.0
  S  S4  1  0.34206700  0.96958636  0.58801486  1.0
  S  S5  1  0.84206700  0.53041364  0.41198514  1.0
  S  S6  1  0.65793300  0.46958636  0.91198514  1.0
  S  S7  1  0.15793300  0.03041364  0.08801486  1.0
  O  O8  1  0.28561123  0.90481934  0.19703249  1.0
  O  O9  1  0.78561123  0.59518066  0.80296751  1.0
  O  O10  1  0.71438877  0.40481934  0.30296751  1.0
  O  O11  1  0.21438877  0.09518066  0.69703249  1.0
  O  O12  1  0.29662421  0.78383503  0.61388648  1.0
  O  O13  1  0.79662421  0.71616497  0.38611352  1.0
  O  O14  1  0.70337579  0.28383503  0.88611352  1.0
  O  O15  1  0.20337579  0.21616497  0.11388648  1.0
  O  O16  1  0.19967081  0.95110069  0.94968539  1.0
  O  O17  1  0.69967081  0.54889931  0.05031461  1.0
  O  O18  1  0.80032919  0.45110069  0.55031461  1.0
  O  O19  1  0.30032919  0.04889931  0.44968539  1.0
  F  F20  1  0.36612035  0.50410489  0.87785727  1.0
  F  F21  1  0.86612035  -0.00410489  0.12214273  1.0
  F  F22  1  0.63387965  1.00410489  0.62214273  1.0
  F  F23  1  0.13387965  0.49589511  0.37785727  1.0
