# generated using pymatgen
data_BaCu2Ge3(HO5)2
_symmetry_space_group_name_H-M   'P 1'
_cell_length_a   6.30476204
_cell_length_b   6.30476204
_cell_length_c   13.74512866
_cell_angle_alpha   90.00000000
_cell_angle_beta   90.00000000
_cell_angle_gamma   126.66082148
_symmetry_Int_Tables_number   1
_chemical_formula_structural   BaCu2Ge3(HO5)2
_chemical_formula_sum   'Ba2 Cu4 Ge6 H4 O20'
_cell_volume   438.28868940
_cell_formula_units_Z   2
loop_
 _symmetry_equiv_pos_site_id
 _symmetry_equiv_pos_as_xyz
  1  'x, y, z'
loop_
 _atom_site_type_symbol
 _atom_site_label
 _atom_site_symmetry_multiplicity
 _atom_site_fract_x
 _atom_site_fract_y
 _atom_site_fract_z
 _atom_site_occupancy
  O  O0  1  -0.19049066  0.70736446  0.90464038  1.0
  O  O1  1  -0.19049066  0.70736446  0.59535962  1.0
  O  O2  1  0.70736446  0.80950934  0.40464038  1.0
  O  O3  1  0.70736446  0.80950934  0.09535962  1.0
  O  O4  1  0.29263554  1.19049066  0.90464038  1.0
  O  O5  1  0.29263554  1.19049066  0.59535962  1.0
  O  O6  1  0.19049066  0.29263554  0.40464038  1.0
  O  O7  1  0.19049066  0.29263554  0.09535962  1.0
  O  O8  1  0.43736290  0.56263710  0.75000000  1.0
  O  O9  1  -0.43736290  0.43736290  0.25000000  1.0
  O  O10  1  -0.24111996  0.24111996  0.75000000  1.0
  O  O11  1  0.24111996  0.75888004  0.25000000  1.0
  O  O12  1  0.15216431  0.84783569  0.44494876  1.0
  O  O13  1  0.15216431  0.84783569  0.05505124  1.0
  O  O14  1  -0.15216431  0.15216431  0.94494876  1.0
  O  O15  1  -0.15216431  0.15216431  0.55505124  1.0
  O  O16  1  0.31752818  0.68247182  0.91573045  1.0
  O  O17  1  0.31752818  0.68247182  0.58426955  1.0
  O  O18  1  -0.31752818  0.31752818  0.41573045  1.0
  O  O19  1  -0.31752818  0.31752818  0.08426955  1.0
  Cu  Cu20  1  -0.00000000  0.50000000  0.00000000  1.0
  Cu  Cu21  1  -0.00000000  0.50000000  0.50000000  1.0
  Cu  Cu22  1  0.50000000  1.00000000  0.50000000  1.0
  Cu  Cu23  1  0.50000000  1.00000000  0.00000000  1.0
  Ba  Ba24  1  0.16925833  0.83074167  0.75000000  1.0
  Ba  Ba25  1  -0.16925833  0.16925833  0.25000000  1.0
  H  H26  1  0.19045816  0.80954184  0.30917269  1.0
  H  H27  1  0.19045816  0.80954184  0.19082731  1.0
  H  H28  1  -0.19045816  0.19045816  0.80917269  1.0
  H  H29  1  -0.19045816  0.19045816  0.69082731  1.0
  Ge  Ge30  1  0.46868824  0.53131176  0.87682885  1.0
  Ge  Ge31  1  0.46868824  0.53131176  0.62317115  1.0
  Ge  Ge32  1  -0.46868824  0.46868824  0.37682885  1.0
  Ge  Ge33  1  -0.46868824  0.46868824  0.12317115  1.0
  Ge  Ge34  1  0.00000000  0.00000000  0.00000000  1.0
  Ge  Ge35  1  0.00000000  0.00000000  0.50000000  1.0
