# generated using pymatgen
data_K(GeAs)3
_symmetry_space_group_name_H-M   'P 1'
_cell_length_a   10.13406358
_cell_length_b   3.86672812
_cell_length_c   19.77094310
_cell_angle_alpha   90.00000000
_cell_angle_beta   90.00000000
_cell_angle_gamma   90.00000000
_symmetry_Int_Tables_number   1
_chemical_formula_structural   K(GeAs)3
_chemical_formula_sum   'K4 Ge12 As12'
_cell_volume   774.73762401
_cell_formula_units_Z   4
loop_
 _symmetry_equiv_pos_site_id
 _symmetry_equiv_pos_as_xyz
  1  'x, y, z'
loop_
 _atom_site_type_symbol
 _atom_site_label
 _atom_site_symmetry_multiplicity
 _atom_site_fract_x
 _atom_site_fract_y
 _atom_site_fract_z
 _atom_site_occupancy
  K  K0  1  0.72900976  0.75000000  0.44717343  1.0
  K  K1  1  0.22900976  0.75000000  0.05282657  1.0
  K  K2  1  0.27099024  0.25000000  0.55282657  1.0
  K  K3  1  0.77099024  0.25000000  0.94717343  1.0
  Ge  Ge4  1  0.63733402  0.75000000  0.15860699  1.0
  Ge  Ge5  1  0.13733402  0.75000000  0.34139301  1.0
  Ge  Ge6  1  0.36266598  0.25000000  0.84139301  1.0
  Ge  Ge7  1  0.86266598  0.25000000  0.65860699  1.0
  Ge  Ge8  1  0.63579056  0.75000000  0.75321353  1.0
  Ge  Ge9  1  0.13579056  0.75000000  0.74678647  1.0
  Ge  Ge10  1  0.36420944  0.25000000  0.24678647  1.0
  Ge  Ge11  1  0.86420944  0.25000000  0.25321353  1.0
  Ge  Ge12  1  0.53116170  0.75000000  0.63363145  1.0
  Ge  Ge13  1  1.03116170  0.75000000  0.86636855  1.0
  Ge  Ge14  1  0.46883830  0.25000000  0.36636855  1.0
  Ge  Ge15  1  -0.03116170  0.25000000  0.13363145  1.0
  As  As16  1  1.01201929  0.75000000  0.63679378  1.0
  As  As17  1  0.51201929  0.75000000  0.86320622  1.0
  As  As18  1  -0.01201929  0.25000000  0.36320622  1.0
  As  As19  1  0.48798071  0.25000000  0.13679378  1.0
  As  As20  1  0.83301249  0.75000000  0.08518661  1.0
  As  As21  1  0.33301249  0.75000000  0.41481339  1.0
  As  As22  1  0.16698751  0.25000000  0.91481339  1.0
  As  As23  1  0.66698751  0.25000000  0.58518661  1.0
  As  As24  1  0.71185974  0.75000000  0.27656659  1.0
  As  As25  1  0.21185974  0.75000000  0.22343341  1.0
  As  As26  1  0.28814026  0.25000000  0.72343341  1.0
  As  As27  1  0.78814026  0.25000000  0.77656659  1.0
