# generated using pymatgen
data_H16PtC4(NCl3)2
_symmetry_space_group_name_H-M   'P 1'
_cell_length_a   8.54545808
_cell_length_b   8.54545808
_cell_length_c   8.54545808
_cell_angle_alpha   129.53814763
_cell_angle_beta   106.63946882
_cell_angle_gamma   94.41957823
_symmetry_Int_Tables_number   1
_chemical_formula_structural   H16PtC4(NCl3)2
_chemical_formula_sum   'H16 Pt1 C4 N2 Cl6'
_cell_volume   431.76585356
_cell_formula_units_Z   1
loop_
 _symmetry_equiv_pos_site_id
 _symmetry_equiv_pos_as_xyz
  1  'x, y, z'
loop_
 _atom_site_type_symbol
 _atom_site_label
 _atom_site_symmetry_multiplicity
 _atom_site_fract_x
 _atom_site_fract_y
 _atom_site_fract_z
 _atom_site_occupancy
  H  H0  1  0.35395083  0.46698896  0.11303813  1.0
  H  H1  1  0.35395083  1.24091270  0.88696187  1.0
  H  H2  1  0.64604917  1.53301104  0.88696187  1.0
  H  H3  1  0.64604917  0.75908730  0.11303813  1.0
  H  H4  1  0.49417329  0.28750694  0.20666635  1.0
  H  H5  1  1.08084058  0.28750694  0.79333365  1.0
  H  H6  1  0.91915942  0.71249306  0.20666635  1.0
  H  H7  1  1.50582671  0.71249306  0.79333365  1.0
  H  H8  1  0.29963240  0.29914359  0.24699811  1.0
  H  H9  1  1.05214548  1.05263429  1.75300189  1.0
  H  H10  1  0.94785452  1.70085641  1.00048881  1.0
  H  H11  1  1.70036760  0.94736571  0.99951119  1.0
  H  H12  1  1.70036760  1.70085641  1.75300189  1.0
  H  H13  1  0.94785452  0.94736571  0.24699811  1.0
  H  H14  1  1.05214548  0.29914359  0.99951119  1.0
  H  H15  1  0.29963240  1.05263429  1.00048881  1.0
  Pt  Pt16  1  0.50000000  1.00000000  0.50000000  1.0
  C  C17  1  0.35186500  0.22967741  0.12218759  1.0
  C  C18  1  1.10748982  0.22967741  0.87781241  1.0
  C  C19  1  0.89251018  0.77032259  0.12218759  1.0
  C  C20  1  1.64813500  0.77032259  0.87781241  1.0
  N  N21  1  0.29976228  0.29976228  -0.00000000  1.0
  N  N22  1  0.70023772  0.70023772  -0.00000000  1.0
  Cl  Cl23  1  0.66067021  0.76900810  0.42967831  1.0
  Cl  Cl24  1  1.33932979  1.23099190  1.57032169  1.0
  Cl  Cl25  1  0.66067021  1.23099190  0.89166211  1.0
  Cl  Cl26  1  1.33932979  0.76900810  1.10833789  1.0
  Cl  Cl27  1  0.29712362  0.79712362  0.50000000  1.0
  Cl  Cl28  1  0.70287638  1.20287638  0.50000000  1.0
