# generated using pymatgen
data_Al21Pd8
_symmetry_space_group_name_H-M   'P 1'
_cell_length_a   10.69297195
_cell_length_b   10.69297195
_cell_length_c   10.69297195
_cell_angle_alpha   104.67448782
_cell_angle_beta   104.67448782
_cell_angle_gamma   119.56071339
_symmetry_Int_Tables_number   1
_chemical_formula_structural   Al21Pd8
_chemical_formula_sum   'Al42 Pd16'
_cell_volume   918.95982856
_cell_formula_units_Z   2
loop_
 _symmetry_equiv_pos_site_id
 _symmetry_equiv_pos_as_xyz
  1  'x, y, z'
loop_
 _atom_site_type_symbol
 _atom_site_label
 _atom_site_symmetry_multiplicity
 _atom_site_fract_x
 _atom_site_fract_y
 _atom_site_fract_z
 _atom_site_occupancy
  Al  Al0  1  0.50000000  0.50000000  0.00000000  1.0
  Al  Al1  1  1.25000000  0.75000000  0.50000000  1.0
  Al  Al2  1  1.15435522  1.01145416  0.96466360  1.0
  Al  Al3  1  1.04679056  1.18969163  1.03533640  1.0
  Al  Al4  1  0.70320944  1.06030837  1.46466360  1.0
  Al  Al5  1  1.59564478  1.23854584  1.53533640  1.0
  Al  Al6  1  0.81030837  0.84564478  0.85709894  1.0
  Al  Al7  1  0.98854584  0.95320944  1.14290106  1.0
  Al  Al8  1  1.76145416  1.29679056  1.35709894  1.0
  Al  Al9  1  0.93969163  0.40435522  0.64290106  1.0
  Al  Al10  1  0.79931465  0.96468364  0.66126562  1.0
  Al  Al11  1  1.30341803  1.13804904  1.33873438  1.0
  Al  Al12  1  0.44658197  1.11195096  1.16126562  1.0
  Al  Al13  1  0.95068535  1.28531636  0.83873438  1.0
  Al  Al14  1  0.86195096  1.20068535  1.16536899  1.0
  Al  Al15  1  1.03531636  0.69658197  0.83463101  1.0
  Al  Al16  1  1.71468364  1.55341803  1.66536899  1.0
  Al  Al17  1  0.88804904  1.04931465  1.33463101  1.0
  Al  Al18  1  0.69275294  0.68577902  0.42796651  1.0
  Al  Al19  1  1.25781251  1.26478643  1.57203349  1.0
  Al  Al20  1  1.49218749  0.98521357  0.92796651  1.0
  Al  Al21  1  1.05724706  0.56422098  1.07203349  1.0
  Al  Al22  1  0.73521357  1.30724706  0.99302608  1.0
  Al  Al23  1  1.31422098  0.74218749  1.00697392  1.0
  Al  Al24  1  1.43577902  1.50781251  1.49302608  1.0
  Al  Al25  1  1.01478643  0.94275294  1.50697392  1.0
  Al  Al26  1  0.69779355  1.47085684  1.20881123  1.0
  Al  Al27  1  1.26204561  0.48898232  0.79118877  1.0
  Al  Al28  1  1.48795439  1.76101768  1.70881123  1.0
  Al  Al29  1  1.05220645  0.77914316  1.29118877  1.0
  Al  Al30  1  1.51101768  1.30220645  1.77306329  1.0
  Al  Al31  1  0.52914316  0.73795439  0.22693671  1.0
  Al  Al32  1  1.22085684  1.51204561  1.27306329  1.0
  Al  Al33  1  0.23898232  0.94779355  0.72693671  1.0
  Al  Al34  1  1.36706434  1.34579857  1.16596810  1.0
  Al  Al35  1  1.17983047  1.20109624  1.83403190  1.0
  Al  Al36  1  1.57016953  1.04890376  0.66596810  1.0
  Al  Al37  1  1.38293566  0.90420143  1.33403190  1.0
  Al  Al38  1  0.79890376  0.63293566  0.97873424  1.0
  Al  Al39  1  1.65420143  0.82016953  1.02126576  1.0
  Al  Al40  1  1.09579857  1.42983047  1.47873424  1.0
  Al  Al41  1  0.95109624  0.61706434  1.52126576  1.0
  Pd  Pd42  1  1.49833400  1.77482489  1.46261175  1.0
  Pd  Pd43  1  1.31221314  1.03572225  1.53738825  1.0
  Pd  Pd44  1  0.43778686  1.21427775  0.96261175  1.0
  Pd  Pd45  1  1.25166600  1.47517511  1.03738825  1.0
  Pd  Pd46  1  0.96427775  0.50166600  1.27649089  1.0
  Pd  Pd47  1  1.22517511  0.68778686  0.72350911  1.0
  Pd  Pd48  1  1.52482489  1.56221314  1.77649089  1.0
  Pd  Pd49  1  0.78572225  0.74833400  1.22350911  1.0
  Pd  Pd50  1  0.80668561  0.42059226  0.81366326  1.0
  Pd  Pd51  1  1.60692900  0.99302234  1.18633674  1.0
  Pd  Pd52  1  1.14307100  1.25697766  1.31366326  1.0
  Pd  Pd53  1  0.94331439  0.82940774  1.68633674  1.0
  Pd  Pd54  1  1.00697766  1.19331439  1.61390666  1.0
  Pd  Pd55  1  1.57940774  1.39307100  1.38609334  1.0
  Pd  Pd56  1  1.17059226  0.85692900  1.11390666  1.0
  Pd  Pd57  1  1.74302234  1.05668561  0.88609334  1.0
