# generated using pymatgen
data_KGd2F7
_symmetry_space_group_name_H-M   'P 1'
_cell_length_a   8.45439831
_cell_length_b   8.45439831
_cell_length_c   12.32547124
_cell_angle_alpha   59.61031688
_cell_angle_beta   120.38968312
_cell_angle_gamma   121.49808568
_symmetry_Int_Tables_number   1
_chemical_formula_structural   KGd2F7
_chemical_formula_sum   'K4 Gd8 F28'
_cell_volume   612.02385892
_cell_formula_units_Z   4
loop_
 _symmetry_equiv_pos_site_id
 _symmetry_equiv_pos_as_xyz
  1  'x, y, z'
loop_
 _atom_site_type_symbol
 _atom_site_label
 _atom_site_symmetry_multiplicity
 _atom_site_fract_x
 _atom_site_fract_y
 _atom_site_fract_z
 _atom_site_occupancy
  K  K0  1  0.26587752  -0.26587752  0.84516651  1.0
  K  K1  1  0.73412248  -0.73412248  0.15483349  1.0
  K  K2  1  0.76160412  -0.76160412  0.51944697  1.0
  K  K3  1  0.23839588  -0.23839588  0.48055303  1.0
  Gd  Gd4  1  1.73496176  -0.26044143  0.81838995  1.0
  Gd  Gd5  1  1.26044143  -0.73496176  0.81838995  1.0
  Gd  Gd6  1  0.73955857  0.73496176  0.18161005  1.0
  Gd  Gd7  1  0.26503824  0.26044143  0.18161005  1.0
  Gd  Gd8  1  0.75943455  0.75943455  0.50000000  1.0
  Gd  Gd9  1  0.24056545  0.24056545  0.50000000  1.0
  Gd  Gd10  1  0.74076186  0.25923814  0.82143902  1.0
  Gd  Gd11  1  1.25923814  -0.25923814  0.17856098  1.0
  F  F12  1  0.99524384  -0.99524384  0.76556757  1.0
  F  F13  1  0.00475616  -0.00475616  0.23443243  1.0
  F  F14  1  0.38092167  0.14668965  0.73672695  1.0
  F  F15  1  0.85331035  0.61907833  0.73672695  1.0
  F  F16  1  1.14668965  -0.61907833  0.26327305  1.0
  F  F17  1  1.61907833  -0.14668965  0.26327305  1.0
  F  F18  1  0.32984752  0.00481128  1.00097234  1.0
  F  F19  1  0.99518872  0.67015248  1.00097234  1.0
  F  F20  1  1.00481128  -0.67015248  -0.00097234  1.0
  F  F21  1  1.67015248  -0.00481128  -0.00097234  1.0
  F  F22  1  0.65717689  0.00348827  0.76051349  1.0
  F  F23  1  0.99651173  0.34282311  0.76051349  1.0
  F  F24  1  1.00348827  -0.34282311  0.23948651  1.0
  F  F25  1  1.34282311  -0.00348827  0.23948651  1.0
  F  F26  1  1.63303962  -0.16106763  0.58272923  1.0
  F  F27  1  1.16106763  -0.63303962  0.58272923  1.0
  F  F28  1  0.83893237  0.63303962  0.41727077  1.0
  F  F29  1  0.36696038  0.16106763  0.41727077  1.0
  F  F30  1  0.67763163  0.67763163  0.00000000  1.0
  F  F31  1  0.32236837  0.32236837  0.00000000  1.0
  F  F32  1  1.39468252  -0.39468252  0.74870722  1.0
  F  F33  1  0.60531748  0.39468252  0.25129278  1.0
  F  F34  1  0.60520950  0.39479050  0.58714205  1.0
  F  F35  1  1.39479050  -0.39479050  0.41285795  1.0
  F  F36  1  0.61341244  0.38658756  0.88269234  1.0
  F  F37  1  1.38658756  -0.38658756  0.11730766  1.0
  F  F38  1  0.89478548  -0.89478548  0.42554900  1.0
  F  F39  1  0.10521452  -0.10521452  0.57445100  1.0
