# generated using pymatgen
data_Lu4Ir
_symmetry_space_group_name_H-M   'P 1'
_cell_length_a   7.53225050
_cell_length_b   7.53225050
_cell_length_c   7.53225050
_cell_angle_alpha   60.00000000
_cell_angle_beta   60.00000000
_cell_angle_gamma   60.00000000
_symmetry_Int_Tables_number   1
_chemical_formula_structural   Lu4Ir
_chemical_formula_sum   'Lu8 Ir2'
_cell_volume   302.17551201
_cell_formula_units_Z   2
loop_
 _symmetry_equiv_pos_site_id
 _symmetry_equiv_pos_as_xyz
  1  'x, y, z'
loop_
 _atom_site_type_symbol
 _atom_site_label
 _atom_site_symmetry_multiplicity
 _atom_site_fract_x
 _atom_site_fract_y
 _atom_site_fract_z
 _atom_site_occupancy
  Lu  Lu0  1  -0.11106952  0.88893048  0.33320856  1.0
  Lu  Lu1  1  0.88893048  -0.66679144  0.88893048  1.0
  Lu  Lu2  1  0.36106952  0.36106952  0.36106952  1.0
  Lu  Lu3  1  -0.08320856  0.36106952  0.36106952  1.0
  Lu  Lu4  1  -0.66679144  0.88893048  0.88893048  1.0
  Lu  Lu5  1  0.88893048  -0.11106952  0.88893048  1.0
  Lu  Lu6  1  0.36106952  -0.08320856  0.36106952  1.0
  Lu  Lu7  1  0.36106952  0.36106952  -0.08320856  1.0
  Ir  Ir8  1  0.50000000  0.50000000  -0.50000000  1.0
  Ir  Ir9  1  0.75000000  -0.25000000  0.75000000  1.0
