# generated using pymatgen
data_Na2PdSe2
_symmetry_space_group_name_H-M   'P 1'
_cell_length_a   5.72785871
_cell_length_b   5.72785871
_cell_length_c   11.41092110
_cell_angle_alpha   90.00000000
_cell_angle_beta   90.00000000
_cell_angle_gamma   141.76575944
_symmetry_Int_Tables_number   1
_chemical_formula_structural   Na2PdSe2
_chemical_formula_sum   'Na4 Pd2 Se4'
_cell_volume   231.69159799
_cell_formula_units_Z   2
loop_
 _symmetry_equiv_pos_site_id
 _symmetry_equiv_pos_as_xyz
  1  'x, y, z'
loop_
 _atom_site_type_symbol
 _atom_site_label
 _atom_site_symmetry_multiplicity
 _atom_site_fract_x
 _atom_site_fract_y
 _atom_site_fract_z
 _atom_site_occupancy
  Na  Na0  1  0.06596951  0.93403049  0.76326184  1.0
  Na  Na1  1  -0.06596951  0.06596951  0.26326184  1.0
  Na  Na2  1  0.32615454  0.67384546  0.53979853  1.0
  Na  Na3  1  -0.32615454  0.32615454  0.03979853  1.0
  Pd  Pd4  1  0.36515455  0.63484545  0.88302217  1.0
  Pd  Pd5  1  -0.36515455  0.36515455  0.38302217  1.0
  Se  Se6  1  0.04975189  0.95024811  0.50313303  1.0
  Se  Se7  1  -0.04975189  0.04975189  0.00313303  1.0
  Se  Se8  1  0.21897028  0.78102972  0.26178444  1.0
  Se  Se9  1  -0.21897028  0.21897028  0.76178444  1.0
