# generated using pymatgen
data_K2RbLuV2O8
_symmetry_space_group_name_H-M   'P 1'
_cell_length_a   5.94579309
_cell_length_b   5.94579309
_cell_length_c   7.74092310
_cell_angle_alpha   90.00000000
_cell_angle_beta   90.00000000
_cell_angle_gamma   120.00000000
_symmetry_Int_Tables_number   1
_chemical_formula_structural   K2RbLuV2O8
_chemical_formula_sum   'K2 Rb1 Lu1 V2 O8'
_cell_volume   236.99706547
_cell_formula_units_Z   1
loop_
 _symmetry_equiv_pos_site_id
 _symmetry_equiv_pos_as_xyz
  1  'x, y, z'
loop_
 _atom_site_type_symbol
 _atom_site_label
 _atom_site_symmetry_multiplicity
 _atom_site_fract_x
 _atom_site_fract_y
 _atom_site_fract_z
 _atom_site_occupancy
  K  K0  1  0.33333333  0.66666667  0.69783377  1.0
  K  K1  1  0.66666667  0.33333333  0.30216623  1.0
  Rb  Rb2  1  0.00000000  0.00000000  0.00000000  1.0
  Lu  Lu3  1  0.00000000  0.00000000  0.50000000  1.0
  V  V4  1  0.33333333  0.66666667  0.25296782  1.0
  V  V5  1  0.66666667  0.33333333  0.74703218  1.0
  O  O6  1  0.65145961  0.82572981  0.33055342  1.0
  O  O7  1  0.82572981  0.65145961  0.66944658  1.0
  O  O8  1  0.82572981  0.17427019  0.66944658  1.0
  O  O9  1  0.17427019  0.82572981  0.33055342  1.0
  O  O10  1  0.17427019  0.34854039  0.33055342  1.0
  O  O11  1  0.34854039  0.17427019  0.66944658  1.0
  O  O12  1  0.33333333  0.66666667  0.03797926  1.0
  O  O13  1  0.66666667  0.33333333  0.96202074  1.0
