# generated using pymatgen
data_HC2N4O3
_symmetry_space_group_name_H-M   'P 1'
_cell_length_a   5.69471835
_cell_length_b   13.00380101
_cell_length_c   7.66087075
_cell_angle_alpha   90.00000000
_cell_angle_beta   115.77429902
_cell_angle_gamma   90.00000000
_symmetry_Int_Tables_number   1
_chemical_formula_structural   HC2N4O3
_chemical_formula_sum   'H4 C8 N16 O12'
_cell_volume   510.87085370
_cell_formula_units_Z   4
loop_
 _symmetry_equiv_pos_site_id
 _symmetry_equiv_pos_as_xyz
  1  'x, y, z'
loop_
 _atom_site_type_symbol
 _atom_site_label
 _atom_site_symmetry_multiplicity
 _atom_site_fract_x
 _atom_site_fract_y
 _atom_site_fract_z
 _atom_site_occupancy
  H  H0  1  0.89608502  0.24204303  -0.06180799  1.0
  H  H1  1  0.89608502  0.25795697  0.43819201  1.0
  H  H2  1  0.10391498  0.74204303  0.56180799  1.0
  H  H3  1  0.10391498  0.75795697  1.06180799  1.0
  C  C4  1  0.98099332  0.97378199  0.41145115  1.0
  C  C5  1  0.98099332  0.52621801  0.91145115  1.0
  C  C6  1  0.01900668  0.47378199  0.08854885  1.0
  C  C7  1  0.01900668  0.02621801  0.58854885  1.0
  C  C8  1  0.93298369  0.37390606  0.11522254  1.0
  C  C9  1  0.93298369  0.12609394  0.61522254  1.0
  C  C10  1  0.06701631  0.87390606  0.38477746  1.0
  C  C11  1  0.06701631  0.62609394  0.88477746  1.0
  N  N12  1  0.98870030  0.85895218  0.19818074  1.0
  N  N13  1  0.98870030  0.64104782  0.69818074  1.0
  N  N14  1  0.01129970  0.35895218  0.30181926  1.0
  N  N15  1  0.01129970  0.14104782  0.80181926  1.0
  N  N16  1  0.85042654  0.01604257  0.23986957  1.0
  N  N17  1  0.85042654  0.48395743  0.73986957  1.0
  N  N18  1  0.14957346  0.51604257  0.26013043  1.0
  N  N19  1  0.14957346  0.98395743  0.76013043  1.0
  N  N20  1  0.80115137  0.29715619  -0.01825428  1.0
  N  N21  1  0.80115137  0.20284381  0.48174572  1.0
  N  N22  1  0.19884863  0.79715619  0.51825428  1.0
  N  N23  1  0.19884863  0.70284381  1.01825428  1.0
  N  N24  1  0.54718680  0.18389112  0.34825665  1.0
  N  N25  1  0.54718680  0.31610888  0.84825665  1.0
  N  N26  1  0.45281320  0.68389112  0.15174335  1.0
  N  N27  1  0.45281320  0.81610888  0.65174335  1.0
  O  O28  1  0.85360094  0.94520912  0.10833746  1.0
  O  O29  1  0.85360094  0.55479088  0.60833746  1.0
  O  O30  1  0.14639906  0.44520912  0.39166254  1.0
  O  O31  1  0.14639906  0.05479088  0.89166254  1.0
  O  O32  1  0.45060997  0.24706663  0.21641968  1.0
  O  O33  1  0.45060997  0.25293337  0.71641968  1.0
  O  O34  1  0.54939003  0.74706663  0.28358032  1.0
  O  O35  1  0.54939003  0.75293337  0.78358032  1.0
  O  O36  1  0.43976874  0.10764948  0.37545042  1.0
  O  O37  1  0.43976874  0.39235052  0.87545042  1.0
  O  O38  1  0.56023126  0.60764948  0.12454958  1.0
  O  O39  1  0.56023126  0.89235052  0.62454958  1.0
