# generated using pymatgen
data_SbH3OF6
_symmetry_space_group_name_H-M   'P 1'
_cell_length_a   8.98907538
_cell_length_b   8.98907538
_cell_length_c   8.98907538
_cell_angle_alpha   109.47122063
_cell_angle_beta   109.47122063
_cell_angle_gamma   109.47122063
_symmetry_Int_Tables_number   1
_chemical_formula_structural   SbH3OF6
_chemical_formula_sum   'Sb4 H12 O4 F24'
_cell_volume   559.14336470
_cell_formula_units_Z   4
loop_
 _symmetry_equiv_pos_site_id
 _symmetry_equiv_pos_as_xyz
  1  'x, y, z'
loop_
 _atom_site_type_symbol
 _atom_site_label
 _atom_site_symmetry_multiplicity
 _atom_site_fract_x
 _atom_site_fract_y
 _atom_site_fract_z
 _atom_site_occupancy
  F  F0  1  0.93172708  0.96378969  0.76109340  1.0
  F  F1  1  0.70269629  1.17063367  0.73890660  1.0
  F  F2  1  0.76109340  0.93172708  0.96378969  1.0
  F  F3  1  0.46793739  0.79730371  0.53621031  1.0
  F  F4  1  0.96378969  0.76109340  0.93172708  1.0
  F  F5  1  1.32936633  1.03206261  1.56827292  1.0
  F  F6  1  0.79730371  0.53621031  0.46793739  1.0
  F  F7  1  1.56827292  1.32936633  1.03206261  1.0
  F  F8  1  1.03206261  0.56827292  1.32936633  1.0
  F  F9  1  0.73890660  0.70269629  0.17063367  1.0
  F  F10  1  0.17063367  0.73890660  0.70269629  1.0
  F  F11  1  1.53621031  1.46793739  1.79730371  1.0
  F  F12  1  1.43920124  1.52592717  1.19412185  1.0
  F  F13  1  1.83180533  1.24507939  1.30587815  1.0
  F  F14  1  1.19412185  1.43920124  1.52592717  1.0
  F  F15  1  1.41327406  0.66819467  0.97407283  1.0
  F  F16  1  1.52592717  1.19412185  1.43920124  1.0
  F  F17  1  1.25492061  1.08672594  1.06079876  1.0
  F  F18  1  0.66819467  0.97407283  0.41327406  1.0
  F  F19  1  1.06079876  0.25492061  1.08672594  1.0
  F  F20  1  1.08672594  1.06079876  0.25492061  1.0
  F  F21  1  1.30587815  0.83180533  1.24507939  1.0
  F  F22  1  1.24507939  1.30587815  1.83180533  1.0
  F  F23  1  0.97407283  1.41327406  0.66819467  1.0
  H  H24  1  1.04200422  1.40137683  1.02579089  1.0
  H  H25  1  0.87558595  1.01621333  0.47420911  1.0
  H  H26  1  1.02579089  1.04200422  1.40137683  1.0
  H  H27  1  1.14062738  0.62441405  1.09862317  1.0
  H  H28  1  1.40137683  1.02579089  1.04200422  1.0
  H  H29  1  1.48378667  1.35937262  1.45799578  1.0
  H  H30  1  1.62441405  1.09862317  1.14062738  1.0
  H  H31  1  1.45799578  1.48378667  1.35937262  1.0
  H  H32  1  1.35937262  1.45799578  1.48378667  1.0
  H  H33  1  1.47420911  0.87558595  1.01621333  1.0
  H  H34  1  1.01621333  0.47420911  0.87558595  1.0
  H  H35  1  1.09862317  1.14062738  1.62441405  1.0
  O  O36  1  1.46509050  1.46509050  1.46509050  1.0
  O  O37  1  1.50000000  1.00000000  1.03490950  1.0
  O  O38  1  1.00000000  1.03490950  1.50000000  1.0
  O  O39  1  1.03490950  0.50000000  1.00000000  1.0
  Sb  Sb40  1  1.00036486  1.00036486  1.00036486  1.0
  Sb  Sb41  1  0.50000000  1.00000000  0.49963514  1.0
  Sb  Sb42  1  1.00000000  0.49963514  1.50000000  1.0
  Sb  Sb43  1  0.49963514  1.50000000  1.00000000  1.0
