# generated using pymatgen
data_BaIrO3
_symmetry_space_group_name_H-M   'P 1'
_cell_length_a   8.11473201
_cell_length_b   8.11473201
_cell_length_c   8.11473201
_cell_angle_alpha   42.03922177
_cell_angle_beta   42.03922177
_cell_angle_gamma   42.03922177
_symmetry_Int_Tables_number   1
_chemical_formula_structural   BaIrO3
_chemical_formula_sum   'Ba3 Ir3 O9'
_cell_volume   216.76080582
_cell_formula_units_Z   3
loop_
 _symmetry_equiv_pos_site_id
 _symmetry_equiv_pos_as_xyz
  1  'x, y, z'
loop_
 _atom_site_type_symbol
 _atom_site_label
 _atom_site_symmetry_multiplicity
 _atom_site_fract_x
 _atom_site_fract_y
 _atom_site_fract_z
 _atom_site_occupancy
  Ba  Ba0  1  0.77834745  0.77834745  0.77834745  1.0
  Ba  Ba1  1  1.22165255  1.22165255  0.22165255  1.0
  Ba  Ba2  1  0.00000000  0.00000000  0.00000000  1.0
  Ir  Ir3  1  1.61554378  0.61554378  0.61554378  1.0
  Ir  Ir4  1  1.38445622  0.38445622  0.38445622  1.0
  Ir  Ir5  1  1.50000000  0.50000000  0.50000000  1.0
  O  O6  1  1.28405366  0.28405366  0.75612965  1.0
  O  O7  1  1.28405366  0.75612965  0.28405366  1.0
  O  O8  1  1.24387035  0.71594634  0.71594634  1.0
  O  O9  1  1.71594634  0.24387035  0.71594634  1.0
  O  O10  1  1.71594634  0.71594634  0.24387035  1.0
  O  O11  1  1.75612965  0.28405366  0.28405366  1.0
  O  O12  1  0.50000000  -0.00000000  -0.50000000  1.0
  O  O13  1  0.50000000  -0.50000000  -0.00000000  1.0
  O  O14  1  -0.00000000  0.50000000  -0.50000000  1.0
