# generated using pymatgen
data_Cu2HgGeTe4
_symmetry_space_group_name_H-M   'P 1'
_cell_length_a   7.50859969
_cell_length_b   7.50859969
_cell_length_c   7.50859969
_cell_angle_alpha   130.67918045
_cell_angle_beta   130.67918045
_cell_angle_gamma   72.32329214
_symmetry_Int_Tables_number   1
_chemical_formula_structural   Cu2HgGeTe4
_chemical_formula_sum   'Cu2 Hg1 Ge1 Te4'
_cell_volume   237.99721799
_cell_formula_units_Z   1
loop_
 _symmetry_equiv_pos_site_id
 _symmetry_equiv_pos_as_xyz
  1  'x, y, z'
loop_
 _atom_site_type_symbol
 _atom_site_label
 _atom_site_symmetry_multiplicity
 _atom_site_fract_x
 _atom_site_fract_y
 _atom_site_fract_z
 _atom_site_occupancy
  Cu  Cu0  1  0.25000000  0.75000000  0.50000000  1.0
  Cu  Cu1  1  0.75000000  0.25000000  0.50000000  1.0
  Hg  Hg2  1  0.00000000  0.00000000  0.00000000  1.0
  Ge  Ge3  1  0.50000000  0.50000000  1.00000000  1.0
  Te  Te4  1  0.40261387  0.87467869  1.00000000  1.0
  Te  Te5  1  1.12532131  1.12532131  1.52793518  1.0
  Te  Te6  1  0.59738613  0.59738613  0.47206482  1.0
  Te  Te7  1  0.87467869  0.40261387  1.00000000  1.0
