# generated using pymatgen
data_BaAl2Sb2O7
_symmetry_space_group_name_H-M   'P 1'
_cell_length_a   8.76711782
_cell_length_b   8.76711782
_cell_length_c   8.76711782
_cell_angle_alpha   36.64909037
_cell_angle_beta   36.64909037
_cell_angle_gamma   36.64909037
_symmetry_Int_Tables_number   1
_chemical_formula_structural   BaAl2Sb2O7
_chemical_formula_sum   'Ba1 Al2 Sb2 O7'
_cell_volume   214.99820893
_cell_formula_units_Z   1
loop_
 _symmetry_equiv_pos_site_id
 _symmetry_equiv_pos_as_xyz
  1  'x, y, z'
loop_
 _atom_site_type_symbol
 _atom_site_label
 _atom_site_symmetry_multiplicity
 _atom_site_fract_x
 _atom_site_fract_y
 _atom_site_fract_z
 _atom_site_occupancy
  Ba  Ba0  1  1.50000000  0.50000000  0.50000000  1.0
  Al  Al1  1  0.92914492  0.92914492  0.92914492  1.0
  Al  Al2  1  1.07085508  1.07085508  0.07085508  1.0
  Sb  Sb3  1  0.72093431  0.72093431  0.72093431  1.0
  Sb  Sb4  1  1.27906569  1.27906569  0.27906569  1.0
  O  O5  1  1.57119846  0.97305810  0.16385995  1.0
  O  O6  1  0.83614005  1.02694190  0.42880154  1.0
  O  O7  1  1.02694190  1.42880154  -0.16385995  1.0
  O  O8  1  1.42880154  0.83614005  0.02694190  1.0
  O  O9  1  1.16385995  1.57119846  -0.02694190  1.0
  O  O10  1  0.97305810  1.16385995  0.57119846  1.0
  O  O11  1  -0.00000000  0.00000000  0.00000000  1.0
