# generated using pymatgen
data_CoSi
_symmetry_space_group_name_H-M   'P 1'
_cell_length_a   5.31291182
_cell_length_b   2.91791660
_cell_length_c   6.00592463
_cell_angle_alpha   90.00000000
_cell_angle_beta   90.00000000
_cell_angle_gamma   90.00000000
_symmetry_Int_Tables_number   1
_chemical_formula_structural   CoSi
_chemical_formula_sum   'Co4 Si4'
_cell_volume   93.10764897
_cell_formula_units_Z   4
loop_
 _symmetry_equiv_pos_site_id
 _symmetry_equiv_pos_as_xyz
  1  'x, y, z'
loop_
 _atom_site_type_symbol
 _atom_site_label
 _atom_site_symmetry_multiplicity
 _atom_site_fract_x
 _atom_site_fract_y
 _atom_site_fract_z
 _atom_site_occupancy
  Co  Co0  1  0.99620301  0.75000000  0.19848276  1.0
  Co  Co1  1  0.49620301  0.75000000  0.30151724  1.0
  Co  Co2  1  0.00379699  0.25000000  0.80151724  1.0
  Co  Co3  1  0.50379699  0.25000000  0.69848276  1.0
  Si  Si4  1  0.81173788  0.75000000  0.55886016  1.0
  Si  Si5  1  0.31173788  0.75000000  0.94113984  1.0
  Si  Si6  1  0.18826212  0.25000000  0.44113984  1.0
  Si  Si7  1  0.68826212  0.25000000  0.05886016  1.0
