# generated using pymatgen
data_Ba2P7Br
_symmetry_space_group_name_H-M   'P 1'
_cell_length_a   6.39080939
_cell_length_b   6.95880892
_cell_length_c   12.03581356
_cell_angle_alpha   90.00000000
_cell_angle_beta   95.58945467
_cell_angle_gamma   90.00000000
_symmetry_Int_Tables_number   1
_chemical_formula_structural   Ba2P7Br
_chemical_formula_sum   'Ba4 P14 Br2'
_cell_volume   532.71678645
_cell_formula_units_Z   2
loop_
 _symmetry_equiv_pos_site_id
 _symmetry_equiv_pos_as_xyz
  1  'x, y, z'
loop_
 _atom_site_type_symbol
 _atom_site_label
 _atom_site_symmetry_multiplicity
 _atom_site_fract_x
 _atom_site_fract_y
 _atom_site_fract_z
 _atom_site_occupancy
  Ba  Ba0  1  0.71365975  0.25000000  0.04601806  1.0
  Ba  Ba1  1  0.28634025  0.75000000  0.95398194  1.0
  Ba  Ba2  1  0.92922051  0.25000000  0.64786237  1.0
  Ba  Ba3  1  0.07077949  0.75000000  0.35213763  1.0
  P  P4  1  0.50687212  0.25000000  0.44637087  1.0
  P  P5  1  0.49312788  0.75000000  0.55362913  1.0
  P  P6  1  0.16877579  0.25000000  0.22225486  1.0
  P  P7  1  0.83122421  0.75000000  0.77774514  1.0
  P  P8  1  0.16935340  0.25000000  0.40501112  1.0
  P  P9  1  0.83064660  0.75000000  0.59498888  1.0
  P  P10  1  0.37400597  0.49412479  0.19551545  1.0
  P  P11  1  0.62599403  0.99412479  0.80448455  1.0
  P  P12  1  0.62599403  0.50587521  0.80448455  1.0
  P  P13  1  0.37400597  0.00587521  0.19551545  1.0
  P  P14  1  0.64112681  0.41925065  0.31090782  1.0
  P  P15  1  0.35887319  0.91925065  0.68909218  1.0
  P  P16  1  0.35887319  0.58074935  0.68909218  1.0
  P  P17  1  0.64112681  0.08074935  0.31090782  1.0
  Br  Br18  1  0.14976890  0.25000000  0.91296530  1.0
  Br  Br19  1  0.85023110  0.75000000  0.08703470  1.0
