# generated using pymatgen
data_CeSi2Rh
_symmetry_space_group_name_H-M   'P 1'
_cell_length_a   8.66433362
_cell_length_b   8.66433362
_cell_length_c   4.16643471
_cell_angle_alpha   90.00000000
_cell_angle_beta   90.00000000
_cell_angle_gamma   151.93587210
_symmetry_Int_Tables_number   1
_chemical_formula_structural   CeSi2Rh
_chemical_formula_sum   'Ce2 Si4 Rh2'
_cell_volume   147.14894652
_cell_formula_units_Z   2
loop_
 _symmetry_equiv_pos_site_id
 _symmetry_equiv_pos_as_xyz
  1  'x, y, z'
loop_
 _atom_site_type_symbol
 _atom_site_label
 _atom_site_symmetry_multiplicity
 _atom_site_fract_x
 _atom_site_fract_y
 _atom_site_fract_z
 _atom_site_occupancy
  Ce  Ce0  1  0.39425765  0.60574235  0.75000000  1.0
  Ce  Ce1  1  -0.39425765  0.39425765  0.25000000  1.0
  Si  Si2  1  0.03717512  0.96282488  0.75000000  1.0
  Si  Si3  1  -0.03717512  0.03717512  0.25000000  1.0
  Si  Si4  1  -0.25053173  0.25053173  0.75000000  1.0
  Si  Si5  1  0.25053173  0.74946827  0.25000000  1.0
  Rh  Rh6  1  0.17807719  0.82192281  0.75000000  1.0
  Rh  Rh7  1  -0.17807719  0.17807719  0.25000000  1.0
