# generated using pymatgen
data_P4S3I2
_symmetry_space_group_name_H-M   'P 1'
_cell_length_a   12.64341316
_cell_length_b   12.64341316
_cell_length_c   12.64341316
_cell_angle_alpha   120.42292920
_cell_angle_beta   120.42292920
_cell_angle_gamma   89.26901288
_symmetry_Int_Tables_number   1
_chemical_formula_structural   P4S3I2
_chemical_formula_sum   'P16 S12 I8'
_cell_volume   1419.88935930
_cell_formula_units_Z   4
loop_
 _symmetry_equiv_pos_site_id
 _symmetry_equiv_pos_as_xyz
  1  'x, y, z'
loop_
 _atom_site_type_symbol
 _atom_site_label
 _atom_site_symmetry_multiplicity
 _atom_site_fract_x
 _atom_site_fract_y
 _atom_site_fract_z
 _atom_site_occupancy
  P  P0  1  1.25641955  1.13938562  0.86054277  1.0
  P  P1  1  0.49358045  0.85412322  0.38296607  1.0
  P  P2  1  0.88938562  1.50641955  1.36054277  1.0
  P  P3  1  0.86061438  1.72115715  1.11703393  1.0
  P  P4  1  1.47115715  1.11061438  0.61703393  1.0
  P  P5  1  0.27884285  0.39587678  0.13945723  1.0
  P  P6  1  0.60412322  0.74358045  0.88296607  1.0
  P  P7  1  0.14587678  0.52884285  0.63945723  1.0
  P  P8  1  0.99922677  0.71873475  0.52577577  1.0
  P  P9  1  0.75077323  0.77654900  0.21950798  1.0
  P  P10  1  0.46873475  1.24922677  1.02577577  1.0
  P  P11  1  1.28126525  1.80704102  1.28049202  1.0
  P  P12  1  0.55704102  0.53126525  0.78049202  1.0
  P  P13  1  1.19295898  1.47345100  1.47422423  1.0
  P  P14  1  1.52654900  1.00077323  0.71950798  1.0
  P  P15  1  1.22345100  1.44295898  0.97422423  1.0
  S  S16  1  1.21997302  1.27330566  0.79962278  1.0
  S  S17  1  1.53002698  1.82964976  1.55333264  1.0
  S  S18  1  1.02330566  1.46997302  1.29962278  1.0
  S  S19  1  0.72669434  0.52631712  0.94666736  1.0
  S  S20  1  1.27631712  0.97669434  0.44666736  1.0
  S  S21  1  0.47368288  0.42035024  0.20037722  1.0
  S  S22  1  1.57964976  0.78002698  1.05333264  1.0
  S  S23  1  1.17035024  0.72368288  0.70037722  1.0
  S  S24  1  0.19229422  0.19229422  -0.00000000  1.0
  S  S25  1  0.55770578  1.05770578  0.50000000  1.0
  S  S26  1  0.94229422  1.44229422  0.50000000  1.0
  S  S27  1  0.80770578  0.80770578  -0.00000000  1.0
  I  I28  1  0.86546591  0.78748104  0.62634719  1.0
  I  I29  1  0.88453409  1.01088129  0.42201513  1.0
  I  I30  1  1.53748104  1.11546591  1.12634719  1.0
  I  I31  1  1.21251896  0.83886615  1.07798487  1.0
  I  I32  1  1.58886615  1.46251896  1.57798487  1.0
  I  I33  1  0.16113385  0.23911871  0.37365281  1.0
  I  I34  1  1.76088129  1.13453409  0.92201513  1.0
  I  I35  1  0.98911871  1.41113385  0.87365281  1.0
