# generated using pymatgen
data_Y(Ti3Sn2)2
_symmetry_space_group_name_H-M   'P 1'
_cell_length_a   8.33999332
_cell_length_b   8.33999332
_cell_length_c   8.33999332
_cell_angle_alpha   40.55220381
_cell_angle_beta   40.55220381
_cell_angle_gamma   40.55220381
_symmetry_Int_Tables_number   1
_chemical_formula_structural   Y(Ti3Sn2)2
_chemical_formula_sum   'Y1 Ti6 Sn4'
_cell_volume   221.16334152
_cell_formula_units_Z   1
loop_
 _symmetry_equiv_pos_site_id
 _symmetry_equiv_pos_as_xyz
  1  'x, y, z'
loop_
 _atom_site_type_symbol
 _atom_site_label
 _atom_site_symmetry_multiplicity
 _atom_site_fract_x
 _atom_site_fract_y
 _atom_site_fract_z
 _atom_site_occupancy
  Y  Y0  1  0.00000000  0.00000000  0.00000000  1.0
  Ti  Ti1  1  1.39748540  1.39748540  -0.11386036  1.0
  Ti  Ti2  1  1.39748540  0.88613964  0.39748540  1.0
  Ti  Ti3  1  1.11386036  0.60251460  0.60251460  1.0
  Ti  Ti4  1  1.60251460  0.11386036  0.60251460  1.0
  Ti  Ti5  1  1.60251460  0.60251460  0.11386036  1.0
  Ti  Ti6  1  0.88613964  1.39748540  0.39748540  1.0
  Sn  Sn7  1  0.87314854  0.87314854  0.87314854  1.0
  Sn  Sn8  1  1.12685146  1.12685146  0.12685146  1.0
  Sn  Sn9  1  0.66773723  0.66773723  0.66773723  1.0
  Sn  Sn10  1  1.33226277  1.33226277  0.33226277  1.0
