# generated using pymatgen
data_Al2CO
_symmetry_space_group_name_H-M   'P 1'
_cell_length_a   5.87125090
_cell_length_b   5.87125090
_cell_length_c   5.87125090
_cell_angle_alpha   51.81522945
_cell_angle_beta   51.81522945
_cell_angle_gamma   51.81522945
_symmetry_Int_Tables_number   1
_chemical_formula_structural   Al2CO
_chemical_formula_sum   'Al6 C3 O3'
_cell_volume   115.55881131
_cell_formula_units_Z   3
loop_
 _symmetry_equiv_pos_site_id
 _symmetry_equiv_pos_as_xyz
  1  'x, y, z'
loop_
 _atom_site_type_symbol
 _atom_site_label
 _atom_site_symmetry_multiplicity
 _atom_site_fract_x
 _atom_site_fract_y
 _atom_site_fract_z
 _atom_site_occupancy
  Al  Al0  1  -0.01357514  -0.01357514  -0.01357514  1.0
  Al  Al1  1  0.83615562  -0.16384438  -0.16384438  1.0
  Al  Al2  1  0.65309092  -0.34690908  -0.34690908  1.0
  Al  Al3  1  0.50281698  0.50281698  -0.49718302  1.0
  Al  Al4  1  0.31975592  0.31975592  -0.68024407  1.0
  Al  Al5  1  0.16948751  0.16948751  0.16948751  1.0
  C  C6  1  0.57796357  -0.08871654  0.24462777  1.0
  C  C7  1  1.24462777  -0.42203643  -0.08871654  1.0
  C  C8  1  0.91128346  0.24462777  -0.42203643  1.0
  O  O9  1  0.74461383  -0.58868214  0.07796171  1.0
  O  O10  1  1.07796171  -0.25538617  -0.58868214  1.0
  O  O11  1  0.41131786  0.07796171  -0.25538617  1.0
