# generated using pymatgen
data_Cs(BH)6
_symmetry_space_group_name_H-M   'P 1'
_cell_length_a   8.05177041
_cell_length_b   8.05177041
_cell_length_c   8.05177041
_cell_angle_alpha   60.00000000
_cell_angle_beta   60.00000000
_cell_angle_gamma   60.00000000
_symmetry_Int_Tables_number   1
_chemical_formula_structural   Cs(BH)6
_chemical_formula_sum   'Cs2 B12 H12'
_cell_volume   369.11283769
_cell_formula_units_Z   2
loop_
 _symmetry_equiv_pos_site_id
 _symmetry_equiv_pos_as_xyz
  1  'x, y, z'
loop_
 _atom_site_type_symbol
 _atom_site_label
 _atom_site_symmetry_multiplicity
 _atom_site_fract_x
 _atom_site_fract_y
 _atom_site_fract_z
 _atom_site_occupancy
  Cs  Cs0  1  0.25000000  0.25000000  0.25000000  1.0
  Cs  Cs1  1  0.75000000  0.75000000  -0.25000000  1.0
  B  B2  1  1.04746108  0.79516780  -0.79516780  1.0
  B  B3  1  0.79516780  1.04746108  -0.04746108  1.0
  B  B4  1  0.20483220  -0.04746108  0.04746108  1.0
  B  B5  1  -0.04746108  0.20483220  0.79516780  1.0
  B  B6  1  -0.04746108  0.79516780  0.04746108  1.0
  B  B7  1  0.20483220  1.04746108  -0.20483220  1.0
  B  B8  1  -0.79516780  0.79516780  0.95253892  1.0
  B  B9  1  0.04746108  -0.04746108  0.79516780  1.0
  B  B10  1  -0.20483220  0.95253892  0.20483220  1.0
  B  B11  1  0.04746108  1.20483220  -0.04746108  1.0
  B  B12  1  -0.04746108  0.04746108  0.20483220  1.0
  B  B13  1  -0.20483220  0.20483220  1.04746108  1.0
  H  H14  1  1.08342681  0.65015136  -0.65015136  1.0
  H  H15  1  0.65015136  1.08342681  -0.08342681  1.0
  H  H16  1  0.34984864  -0.08342681  0.08342681  1.0
  H  H17  1  -0.08342681  0.34984864  0.65015136  1.0
  H  H18  1  -0.08342681  0.65015136  0.08342681  1.0
  H  H19  1  0.34984864  1.08342681  -0.34984864  1.0
  H  H20  1  -0.65015136  0.65015136  0.91657319  1.0
  H  H21  1  0.08342681  -0.08342681  0.65015136  1.0
  H  H22  1  -0.34984864  0.91657319  0.34984864  1.0
  H  H23  1  0.08342681  1.34984864  -0.08342681  1.0
  H  H24  1  -0.08342681  0.08342681  0.34984864  1.0
  H  H25  1  -0.34984864  0.34984864  1.08342681  1.0
