# generated using pymatgen
data_LuCoGe2
_symmetry_space_group_name_H-M   'P 1'
_cell_length_a   8.60364838
_cell_length_b   8.60364838
_cell_length_c   4.09422272
_cell_angle_alpha   90.00000000
_cell_angle_beta   90.00000000
_cell_angle_gamma   152.79883329
_symmetry_Int_Tables_number   1
_chemical_formula_structural   LuCoGe2
_chemical_formula_sum   'Lu2 Co2 Ge4'
_cell_volume   138.53618643
_cell_formula_units_Z   2
loop_
 _symmetry_equiv_pos_site_id
 _symmetry_equiv_pos_as_xyz
  1  'x, y, z'
loop_
 _atom_site_type_symbol
 _atom_site_label
 _atom_site_symmetry_multiplicity
 _atom_site_fract_x
 _atom_site_fract_y
 _atom_site_fract_z
 _atom_site_occupancy
  Lu  Lu0  1  -0.11114835  0.11114835  0.25000000  1.0
  Lu  Lu1  1  0.11114835  0.88885165  0.75000000  1.0
  Co  Co2  1  -0.32184797  0.32184797  0.25000000  1.0
  Co  Co3  1  0.32184797  0.67815203  0.75000000  1.0
  Ge  Ge4  1  -0.45592526  0.45592526  0.25000000  1.0
  Ge  Ge5  1  0.45592526  0.54407474  0.75000000  1.0
  Ge  Ge6  1  0.25098978  0.74901022  0.25000000  1.0
  Ge  Ge7  1  -0.25098978  0.25098978  0.75000000  1.0
