# generated using pymatgen
data_Al2O3
_symmetry_space_group_name_H-M   'P 1'
_cell_length_a   9.11987683
_cell_length_b   3.79678546
_cell_length_c   2.97466711
_cell_angle_alpha   89.99991349
_cell_angle_beta   90.00171473
_cell_angle_gamma   89.98791826
_symmetry_Int_Tables_number   1
_chemical_formula_structural   Al2O3
_chemical_formula_sum   'Al4 O6'
_cell_volume   103.00146269
_cell_formula_units_Z   2
loop_
 _symmetry_equiv_pos_site_id
 _symmetry_equiv_pos_as_xyz
  1  'x, y, z'
loop_
 _atom_site_type_symbol
 _atom_site_label
 _atom_site_symmetry_multiplicity
 _atom_site_fract_x
 _atom_site_fract_y
 _atom_site_fract_z
 _atom_site_occupancy
  Al  Al0  1  -0.89860607  -0.72320626  -0.74313448  1.0
  Al  Al1  1  -0.59535213  -0.50049313  -0.24314892  1.0
  Al  Al2  1  -0.38237944  -1.00058597  -0.74312473  1.0
  Al  Al3  1  -0.07900288  -0.22311929  -0.24314602  1.0
  O  O4  1  -0.93657761  -0.22088129  -0.74313278  1.0
  O  O5  1  -0.42671401  -0.76915068  -0.24313082  1.0
  O  O6  1  -0.21614715  -0.21456783  0.25683736  1.0
  O  O7  1  -0.04101867  -0.72083247  -0.24315095  1.0
  O  O8  1  -0.55102762  -0.26908821  -0.74314497  1.0
  O  O9  1  -0.76147443  -0.71477489  -0.24312369  1.0
