# generated using pymatgen
data_Mg7Si4(HO8)2
_symmetry_space_group_name_H-M   'P 1'
_cell_length_a   11.57630729
_cell_length_b   5.81869884
_cell_length_c   8.30493040
_cell_angle_alpha   90.00000000
_cell_angle_beta   90.00000000
_cell_angle_gamma   90.00000000
_symmetry_Int_Tables_number   1
_chemical_formula_structural   Mg7Si4(HO8)2
_chemical_formula_sum   'Mg14 Si8 H4 O32'
_cell_volume   559.41218774
_cell_formula_units_Z   2
loop_
 _symmetry_equiv_pos_site_id
 _symmetry_equiv_pos_as_xyz
  1  'x, y, z'
loop_
 _atom_site_type_symbol
 _atom_site_label
 _atom_site_symmetry_multiplicity
 _atom_site_fract_x
 _atom_site_fract_y
 _atom_site_fract_z
 _atom_site_occupancy
  Mg  Mg0  1  0.50000000  0.00000000  -0.00000000  1.0
  Mg  Mg1  1  0.00000000  0.00000000  -0.00000000  1.0
  Mg  Mg2  1  0.00000000  0.50000000  0.50000000  1.0
  Mg  Mg3  1  0.50000000  0.50000000  0.50000000  1.0
  Mg  Mg4  1  0.75000000  0.00000000  0.04922200  1.0
  Mg  Mg5  1  0.25000000  0.00000000  0.95077800  1.0
  Mg  Mg6  1  0.61414689  0.25344077  0.74840970  1.0
  Mg  Mg7  1  0.38585311  0.25344077  0.25159030  1.0
  Mg  Mg8  1  0.88585311  0.25344077  0.74840970  1.0
  Mg  Mg9  1  0.11414689  0.25344077  0.25159030  1.0
  Mg  Mg10  1  0.38585311  0.74655923  0.25159030  1.0
  Mg  Mg11  1  0.61414689  0.74655923  0.74840970  1.0
  Mg  Mg12  1  0.11414689  0.74655923  0.25159030  1.0
  Mg  Mg13  1  0.88585311  0.74655923  0.74840970  1.0
  Si  Si14  1  0.61880062  0.00000000  0.39279086  1.0
  Si  Si15  1  0.38119938  0.00000000  0.60720914  1.0
  Si  Si16  1  0.88119938  0.00000000  0.39279086  1.0
  Si  Si17  1  0.11880062  0.00000000  0.60720914  1.0
  Si  Si18  1  0.12371868  0.50000000  0.88940849  1.0
  Si  Si19  1  0.87628132  0.50000000  0.11059151  1.0
  Si  Si20  1  0.37628132  0.50000000  0.88940849  1.0
  Si  Si21  1  0.62371868  0.50000000  0.11059151  1.0
  H  H22  1  0.75000000  0.00000000  0.64201753  1.0
  H  H23  1  0.25000000  0.00000000  0.35798247  1.0
  H  H24  1  0.25000000  0.50000000  0.40085548  1.0
  H  H25  1  0.75000000  0.50000000  0.59914452  1.0
  O  O26  1  0.75000000  0.00000000  0.76087251  1.0
  O  O27  1  0.25000000  0.00000000  0.23912749  1.0
  O  O28  1  0.25000000  0.50000000  0.28186590  1.0
  O  O29  1  0.75000000  0.50000000  0.71813410  1.0
  O  O30  1  0.75000000  0.00000000  0.29267035  1.0
  O  O31  1  0.25000000  0.00000000  0.70732965  1.0
  O  O32  1  0.25000000  0.50000000  0.79652408  1.0
  O  O33  1  0.75000000  0.50000000  0.20347592  1.0
  O  O34  1  0.48433482  0.00000000  0.75062451  1.0
  O  O35  1  0.51566518  0.00000000  0.24937549  1.0
  O  O36  1  0.01566518  0.00000000  0.75062451  1.0
  O  O37  1  0.98433482  0.00000000  0.24937549  1.0
  O  O38  1  0.98684695  0.50000000  0.23776029  1.0
  O  O39  1  0.01315305  0.50000000  0.76223971  1.0
  O  O40  1  0.51315305  0.50000000  0.23776029  1.0
  O  O41  1  0.48684695  0.50000000  0.76223971  1.0
  O  O42  1  0.62461062  0.25906037  -0.00140676  1.0
  O  O43  1  0.37538938  0.25906037  1.00140676  1.0
  O  O44  1  0.87538938  0.25906037  -0.00140676  1.0
  O  O45  1  0.12461062  0.25906037  1.00140676  1.0
  O  O46  1  0.37538938  0.74093963  1.00140676  1.0
  O  O47  1  0.62461062  0.74093963  -0.00140676  1.0
  O  O48  1  0.12461062  0.74093963  1.00140676  1.0
  O  O49  1  0.87538938  0.74093963  -0.00140676  1.0
  O  O50  1  0.11732348  0.77008822  0.49441472  1.0
  O  O51  1  0.88267652  0.77008822  0.50558528  1.0
  O  O52  1  0.38267652  0.77008822  0.49441472  1.0
  O  O53  1  0.61732348  0.77008822  0.50558528  1.0
  O  O54  1  0.88267652  0.22991178  0.50558528  1.0
  O  O55  1  0.11732348  0.22991178  0.49441472  1.0
  O  O56  1  0.61732348  0.22991178  0.50558528  1.0
  O  O57  1  0.38267652  0.22991178  0.49441472  1.0
