# generated using pymatgen
data_LaAgAs2
_symmetry_space_group_name_H-M   'P 1'
_cell_length_a   5.88948334
_cell_length_b   21.43902731
_cell_length_c   5.86456027
_cell_angle_alpha   90.00000000
_cell_angle_beta   90.00000000
_cell_angle_gamma   90.00000000
_symmetry_Int_Tables_number   1
_chemical_formula_structural   LaAgAs2
_chemical_formula_sum   'La8 Ag8 As16'
_cell_volume   740.48749591
_cell_formula_units_Z   8
loop_
 _symmetry_equiv_pos_site_id
 _symmetry_equiv_pos_as_xyz
  1  'x, y, z'
loop_
 _atom_site_type_symbol
 _atom_site_label
 _atom_site_symmetry_multiplicity
 _atom_site_fract_x
 _atom_site_fract_y
 _atom_site_fract_z
 _atom_site_occupancy
  La  La0  1  0.98873804  0.61484718  0.75000000  1.0
  La  La1  1  0.98873804  0.88515282  0.25000000  1.0
  La  La2  1  0.01126196  0.11484718  0.75000000  1.0
  La  La3  1  0.01126196  0.38515282  0.25000000  1.0
  La  La4  1  0.48709220  0.88067799  0.75000000  1.0
  La  La5  1  0.48709220  0.61932201  0.25000000  1.0
  La  La6  1  0.51290780  0.38067799  0.75000000  1.0
  La  La7  1  0.51290780  0.11932201  0.25000000  1.0
  Ag  Ag8  1  0.73790314  0.75000000  0.00000000  1.0
  Ag  Ag9  1  0.73790314  0.75000000  0.50000000  1.0
  Ag  Ag10  1  0.26209686  0.25000000  0.00000000  1.0
  Ag  Ag11  1  0.26209686  0.25000000  0.50000000  1.0
  Ag  Ag12  1  0.23485528  0.75000000  0.00000000  1.0
  Ag  Ag13  1  0.23485528  0.75000000  0.50000000  1.0
  Ag  Ag14  1  0.76514472  0.25000000  0.00000000  1.0
  Ag  Ag15  1  0.76514472  0.25000000  0.50000000  1.0
  As  As16  1  0.71792174  0.99883416  0.96820200  1.0
  As  As17  1  0.71792174  0.99883416  0.53179800  1.0
  As  As18  1  0.71792174  0.50116584  0.46820200  1.0
  As  As19  1  0.71792174  0.50116584  0.03179800  1.0
  As  As20  1  0.28207826  0.49883416  0.96820200  1.0
  As  As21  1  0.28207826  0.49883416  0.53179800  1.0
  As  As22  1  0.28207826  0.00116584  0.46820200  1.0
  As  As23  1  0.28207826  0.00116584  0.03179800  1.0
  As  As24  1  0.98662558  0.83715462  0.75000000  1.0
  As  As25  1  0.98662558  0.66284538  0.25000000  1.0
  As  As26  1  0.01337442  0.33715462  0.75000000  1.0
  As  As27  1  0.01337442  0.16284538  0.25000000  1.0
  As  As28  1  0.48718599  0.66380795  0.75000000  1.0
  As  As29  1  0.48718599  0.83619205  0.25000000  1.0
  As  As30  1  0.51281401  0.16380795  0.75000000  1.0
  As  As31  1  0.51281401  0.33619205  0.25000000  1.0
