# generated using pymatgen
data_Ti2Ni(PO5)2
_symmetry_space_group_name_H-M   'P 1'
_cell_length_a   7.41652400
_cell_length_b   7.41064253
_cell_length_c   7.43336374
_cell_angle_alpha   90.00000000
_cell_angle_beta   119.40267332
_cell_angle_gamma   90.00000000
_symmetry_Int_Tables_number   1
_chemical_formula_structural   Ti2Ni(PO5)2
_chemical_formula_sum   'Ti4 Ni2 P4 O20'
_cell_volume   355.92212746
_cell_formula_units_Z   2
loop_
 _symmetry_equiv_pos_site_id
 _symmetry_equiv_pos_as_xyz
  1  'x, y, z'
loop_
 _atom_site_type_symbol
 _atom_site_label
 _atom_site_symmetry_multiplicity
 _atom_site_fract_x
 _atom_site_fract_y
 _atom_site_fract_z
 _atom_site_occupancy
  Ti  Ti0  1  0.73876518  0.22294607  0.20879839  1.0
  Ti  Ti1  1  0.73876518  0.27705393  0.70879839  1.0
  Ti  Ti2  1  0.26123482  0.72294607  0.29120161  1.0
  Ti  Ti3  1  0.26123482  0.77705393  0.79120161  1.0
  Ni  Ni4  1  0.00000000  0.50000000  0.50000000  1.0
  Ni  Ni5  1  0.00000000  0.00000000  0.00000000  1.0
  P  P6  1  0.75275727  0.87707016  0.50527607  1.0
  P  P7  1  0.75275727  0.62292984  0.00527607  1.0
  P  P8  1  0.24724273  0.37707016  0.99472393  1.0
  P  P9  1  0.24724273  0.12292984  0.49472393  1.0
  O  O10  1  0.93999122  0.75399242  0.08911647  1.0
  O  O11  1  0.93999122  0.74600758  0.58911647  1.0
  O  O12  1  0.06000878  0.25399242  0.41088353  1.0
  O  O13  1  0.06000878  0.24600758  0.91088353  1.0
  O  O14  1  0.78370675  0.49686223  0.18690008  1.0
  O  O15  1  0.78370675  0.00313777  0.68690008  1.0
  O  O16  1  0.21629325  0.99686223  0.31309992  1.0
  O  O17  1  0.21629325  0.50313777  0.81309992  1.0
  O  O18  1  0.77541536  0.34407717  0.50419355  1.0
  O  O19  1  0.77541536  0.15592283  1.00419355  1.0
  O  O20  1  0.22458464  0.84407717  -0.00419355  1.0
  O  O21  1  0.22458464  0.65592283  0.49580645  1.0
  O  O22  1  0.74042631  0.99295399  0.32629696  1.0
  O  O23  1  0.74042631  0.50704601  0.82629696  1.0
  O  O24  1  0.25957369  0.49295399  0.17370304  1.0
  O  O25  1  0.25957369  0.00704601  0.67370304  1.0
  O  O26  1  0.44666773  0.26482748  0.07266702  1.0
  O  O27  1  0.44666773  0.23517252  0.57266702  1.0
  O  O28  1  0.55333227  0.76482748  0.42733298  1.0
  O  O29  1  0.55333227  0.73517252  0.92733298  1.0
