# generated using pymatgen
data_Sc3Co2Si3
_symmetry_space_group_name_H-M   'P 1'
_cell_length_a   5.34592980
_cell_length_b   5.34592980
_cell_length_c   12.81267577
_cell_angle_alpha   90.00000000
_cell_angle_beta   90.00000000
_cell_angle_gamma   136.92128671
_symmetry_Int_Tables_number   1
_chemical_formula_structural   Sc3Co2Si3
_chemical_formula_sum   'Sc6 Co4 Si6'
_cell_volume   250.09706954
_cell_formula_units_Z   2
loop_
 _symmetry_equiv_pos_site_id
 _symmetry_equiv_pos_as_xyz
  1  'x, y, z'
loop_
 _atom_site_type_symbol
 _atom_site_label
 _atom_site_symmetry_multiplicity
 _atom_site_fract_x
 _atom_site_fract_y
 _atom_site_fract_z
 _atom_site_occupancy
  Sc  Sc0  1  0.07958304  0.92041696  0.88676399  1.0
  Sc  Sc1  1  0.07958304  0.92041696  0.61323601  1.0
  Sc  Sc2  1  -0.07958304  0.07958304  0.38676399  1.0
  Sc  Sc3  1  -0.07958304  0.07958304  0.11323601  1.0
  Sc  Sc4  1  0.35735941  0.64264059  0.75000000  1.0
  Sc  Sc5  1  -0.35735941  0.35735941  0.25000000  1.0
  Co  Co6  1  0.21564899  0.78435101  0.41747737  1.0
  Co  Co7  1  0.21564899  0.78435101  0.08252263  1.0
  Co  Co8  1  -0.21564899  0.21564899  0.91747737  1.0
  Co  Co9  1  -0.21564899  0.21564899  0.58252263  1.0
  Si  Si10  1  0.38649402  0.61350598  0.95896172  1.0
  Si  Si11  1  0.38649402  0.61350598  0.54103828  1.0
  Si  Si12  1  -0.38649402  0.38649402  0.45896172  1.0
  Si  Si13  1  -0.38649402  0.38649402  0.04103828  1.0
  Si  Si14  1  -0.33596129  0.33596129  0.75000000  1.0
  Si  Si15  1  0.33596129  0.66403871  0.25000000  1.0
