# generated using pymatgen
data_MgH8C6S2(NO4)2
_symmetry_space_group_name_H-M   'P 1'
_cell_length_a   8.58329907
_cell_length_b   7.47213185
_cell_length_c   5.16955112
_cell_angle_alpha   70.82055338
_cell_angle_beta   79.91954500
_cell_angle_gamma   81.99934303
_symmetry_Int_Tables_number   1
_chemical_formula_structural   MgH8C6S2(NO4)2
_chemical_formula_sum   'Mg1 H8 C6 S2 N2 O8'
_cell_volume   307.12312638
_cell_formula_units_Z   1
loop_
 _symmetry_equiv_pos_site_id
 _symmetry_equiv_pos_as_xyz
  1  'x, y, z'
loop_
 _atom_site_type_symbol
 _atom_site_label
 _atom_site_symmetry_multiplicity
 _atom_site_fract_x
 _atom_site_fract_y
 _atom_site_fract_z
 _atom_site_occupancy
  Mg  Mg0  1  0.00000000  0.00000000  0.00000000  1.0
  H  H1  1  -0.90231180  -0.37240146  -0.76343700  1.0
  H  H2  1  -0.09768820  -0.62759854  -0.23656300  1.0
  H  H3  1  -0.21951971  -0.79147617  -0.73456948  1.0
  H  H4  1  -0.78048029  -0.20852383  -0.26543052  1.0
  H  H5  1  -1.01302698  -0.29889322  -0.53320811  1.0
  H  H6  1  0.01302698  -0.70110678  -0.46679189  1.0
  H  H7  1  -0.83172472  -1.01817792  -0.49557425  1.0
  H  H8  1  -0.16827528  0.01817792  -0.50442575  1.0
  C  C9  1  -0.79974939  -0.70835956  -0.90781101  1.0
  C  C10  1  -0.20025061  -0.29164044  -0.09218899  1.0
  C  C11  1  -0.31979801  -0.37724861  -0.84860854  1.0
  C  C12  1  -0.68020199  -0.62275139  -0.15139146  1.0
  C  C13  1  -0.46276304  -0.58271081  -0.52777904  1.0
  C  C14  1  -0.53723696  -0.41728919  -0.47222096  1.0
  S  S15  1  -0.55336734  -0.77764577  -0.30050632  1.0
  S  S16  1  -0.44663266  -0.22235423  -0.69949368  1.0
  N  N17  1  -0.34153980  -0.56024443  -0.73909764  1.0
  N  N18  1  -0.65846020  -0.43975557  -0.26090236  1.0
  O  O19  1  -0.81888880  -0.88293870  -0.86147033  1.0
  O  O20  1  -0.18111120  -0.11706130  -0.13852967  1.0
  O  O21  1  -0.86822183  -0.60555428  -0.76396709  1.0
  O  O22  1  -0.13177817  -0.39444572  -0.23603291  1.0
  O  O23  1  -0.17039431  -0.92338536  -0.70582445  1.0
  O  O24  1  -0.82960569  -0.07661464  -0.29417555  1.0
  O  O25  1  -0.94600499  -0.25512189  -0.71715995  1.0
  O  O26  1  -0.05399501  -0.74487811  -0.28284005  1.0
