# generated using pymatgen
data_Ba3FeN3
_symmetry_space_group_name_H-M   'P 1'
_cell_length_a   8.16020889
_cell_length_b   8.16020889
_cell_length_c   5.59924105
_cell_angle_alpha   90.00000000
_cell_angle_beta   90.00000000
_cell_angle_gamma   120.00000000
_symmetry_Int_Tables_number   1
_chemical_formula_structural   Ba3FeN3
_chemical_formula_sum   'Ba6 Fe2 N6'
_cell_volume   322.89576512
_cell_formula_units_Z   2
loop_
 _symmetry_equiv_pos_site_id
 _symmetry_equiv_pos_as_xyz
  1  'x, y, z'
loop_
 _atom_site_type_symbol
 _atom_site_label
 _atom_site_symmetry_multiplicity
 _atom_site_fract_x
 _atom_site_fract_y
 _atom_site_fract_z
 _atom_site_occupancy
  Ba  Ba0  1  0.91797982  0.63632983  0.25000000  1.0
  Ba  Ba1  1  0.63632983  0.71835001  0.75000000  1.0
  Ba  Ba2  1  0.71835001  0.08202018  0.25000000  1.0
  Ba  Ba3  1  0.36367017  0.28164999  0.25000000  1.0
  Ba  Ba4  1  0.08202018  0.36367017  0.75000000  1.0
  Ba  Ba5  1  0.28164999  0.91797982  0.75000000  1.0
  Fe  Fe6  1  0.33333333  0.66666667  0.25000000  1.0
  Fe  Fe7  1  0.66666667  0.33333333  0.75000000  1.0
  N  N8  1  0.31735178  0.87069164  0.25000000  1.0
  N  N9  1  0.87069164  0.55333986  0.75000000  1.0
  N  N10  1  0.55333986  0.68264822  0.25000000  1.0
  N  N11  1  0.12930836  0.44666014  0.25000000  1.0
  N  N12  1  0.68264822  0.12930836  0.75000000  1.0
  N  N13  1  0.44666014  0.31735178  0.75000000  1.0
