# generated using pymatgen
data_Ta5Ge3
_symmetry_space_group_name_H-M   'P 1'
_cell_length_a   7.65775849
_cell_length_b   7.65775849
_cell_length_c   7.65775849
_cell_angle_alpha   128.47696730
_cell_angle_beta   128.47696730
_cell_angle_gamma   75.85362391
_symmetry_Int_Tables_number   1
_chemical_formula_structural   Ta5Ge3
_chemical_formula_sum   'Ta10 Ge6'
_cell_volume   267.64674378
_cell_formula_units_Z   2
loop_
 _symmetry_equiv_pos_site_id
 _symmetry_equiv_pos_as_xyz
  1  'x, y, z'
loop_
 _atom_site_type_symbol
 _atom_site_label
 _atom_site_symmetry_multiplicity
 _atom_site_fract_x
 _atom_site_fract_y
 _atom_site_fract_z
 _atom_site_occupancy
  Ta  Ta0  1  0.00000000  0.00000000  0.00000000  1.0
  Ta  Ta1  1  0.50000000  0.50000000  1.00000000  1.0
  Ta  Ta2  1  1.18528161  0.68528161  1.17920990  1.0
  Ta  Ta3  1  0.49392829  0.99392829  1.17920990  1.0
  Ta  Ta4  1  1.00607171  1.18528161  1.50000000  1.0
  Ta  Ta5  1  0.31471839  0.49392829  0.50000000  1.0
  Ta  Ta6  1  0.68528161  0.50607171  0.50000000  1.0
  Ta  Ta7  1  0.99392829  0.81471839  1.50000000  1.0
  Ta  Ta8  1  0.50607171  1.00607171  0.82079010  1.0
  Ta  Ta9  1  0.81471839  0.31471839  0.82079010  1.0
  Ge  Ge10  1  0.86343942  0.36343942  1.22687884  1.0
  Ge  Ge11  1  0.63656058  0.86343942  1.50000000  1.0
  Ge  Ge12  1  0.36343942  0.13656058  0.50000000  1.0
  Ge  Ge13  1  0.13656058  0.63656058  0.77312116  1.0
  Ge  Ge14  1  0.75000000  0.75000000  1.00000000  1.0
  Ge  Ge15  1  0.25000000  0.25000000  0.00000000  1.0
