# generated using pymatgen
data_LaMo5O8
_symmetry_space_group_name_H-M   'P 1'
_cell_length_a   7.61990724
_cell_length_b   9.18471638
_cell_length_c   9.98442439
_cell_angle_alpha   90.00000000
_cell_angle_beta   109.22398195
_cell_angle_gamma   90.00000000
_symmetry_Int_Tables_number   1
_chemical_formula_structural   LaMo5O8
_chemical_formula_sum   'La4 Mo20 O32'
_cell_volume   659.81203581
_cell_formula_units_Z   4
loop_
 _symmetry_equiv_pos_site_id
 _symmetry_equiv_pos_as_xyz
  1  'x, y, z'
loop_
 _atom_site_type_symbol
 _atom_site_label
 _atom_site_symmetry_multiplicity
 _atom_site_fract_x
 _atom_site_fract_y
 _atom_site_fract_z
 _atom_site_occupancy
  O  O0  1  0.99911301  0.72305065  0.93456763  1.0
  O  O1  1  0.99911301  0.77694935  0.43456763  1.0
  O  O2  1  0.00088699  0.22305065  0.56543237  1.0
  O  O3  1  0.00088699  0.27694935  0.06543237  1.0
  O  O4  1  0.98681911  1.00081473  0.73291975  1.0
  O  O5  1  0.98681911  0.49918527  0.23291975  1.0
  O  O6  1  0.01318089  0.50081473  0.76708025  1.0
  O  O7  1  0.01318089  -0.00081473  0.26708025  1.0
  O  O8  1  0.80082340  0.25530139  0.78841693  1.0
  O  O9  1  0.80082340  0.24469861  0.28841693  1.0
  O  O10  1  0.19917660  0.75530139  0.71158307  1.0
  O  O11  1  0.19917660  0.74469861  0.21158307  1.0
  O  O12  1  0.79533458  0.75499922  0.61656319  1.0
  O  O13  1  0.79533458  0.74500078  0.11656319  1.0
  O  O14  1  0.20466542  0.25499922  0.88343681  1.0
  O  O15  1  0.20466542  0.24500078  0.38343681  1.0
  O  O16  1  0.60266561  0.99356430  0.65242278  1.0
  O  O17  1  0.60266561  0.50643570  0.15242278  1.0
  O  O18  1  0.39733439  0.49356430  0.84757722  1.0
  O  O19  1  0.39733439  0.00643570  0.34757722  1.0
  O  O20  1  0.60506310  0.73647987  0.82966967  1.0
  O  O21  1  0.60506310  0.76352013  0.32966967  1.0
  O  O22  1  0.39493690  0.23647987  0.67033033  1.0
  O  O23  1  0.39493690  0.26352013  0.17033033  1.0
  O  O24  1  0.39178396  0.75222323  0.51329213  1.0
  O  O25  1  0.39178396  0.74777677  0.01329213  1.0
  O  O26  1  0.60821604  0.25222323  0.98670787  1.0
  O  O27  1  0.60821604  0.24777677  0.48670787  1.0
  O  O28  1  0.38291280  0.99220020  0.82800602  1.0
  O  O29  1  0.38291280  0.50779980  0.32800602  1.0
  O  O30  1  0.61708720  0.49220020  0.67199398  1.0
  O  O31  1  0.61708720  0.00779980  0.17199398  1.0
  La  La32  1  0.73538284  0.49737616  0.96339290  1.0
  La  La33  1  0.73538284  1.00262384  0.46339290  1.0
  La  La34  1  0.26461716  -0.00262384  0.53660710  1.0
  La  La35  1  0.26461716  0.50262384  0.03660710  1.0
  Mo  Mo36  1  0.99717139  0.62121624  0.58572248  1.0
  Mo  Mo37  1  0.99717139  0.87878376  0.08572248  1.0
  Mo  Mo38  1  0.00282861  0.12121624  0.91427752  1.0
  Mo  Mo39  1  0.00282861  0.37878376  0.41427752  1.0
  Mo  Mo40  1  0.82764880  0.37219828  0.61587819  1.0
  Mo  Mo41  1  0.82764880  0.12780172  0.11587819  1.0
  Mo  Mo42  1  0.17235120  0.87219828  0.88412181  1.0
  Mo  Mo43  1  0.17235120  0.62780172  0.38412181  1.0
  Mo  Mo44  1  0.80898217  0.86987938  0.79982100  1.0
  Mo  Mo45  1  0.80898217  0.63012062  0.29982100  1.0
  Mo  Mo46  1  0.19101783  0.36987938  0.70017900  1.0
  Mo  Mo47  1  0.19101783  0.13012062  0.20017900  1.0
  Mo  Mo48  1  0.60493429  0.88641085  0.98694429  1.0
  Mo  Mo49  1  0.60493429  0.61358915  0.48694429  1.0
  Mo  Mo50  1  0.39506571  0.38641085  0.51305571  1.0
  Mo  Mo51  1  0.39506571  0.11358915  0.01305571  1.0
  Mo  Mo52  1  0.38297471  0.61742439  0.67598356  1.0
  Mo  Mo53  1  0.38297471  0.88257561  0.17598356  1.0
  Mo  Mo54  1  0.61702529  0.11742439  0.82401644  1.0
  Mo  Mo55  1  0.61702529  0.38257561  0.32401644  1.0
