# generated using pymatgen
data_Hg3S2O11
_symmetry_space_group_name_H-M   'P 1'
_cell_length_a   6.13795036
_cell_length_b   6.13795036
_cell_length_c   15.36248262
_cell_angle_alpha   78.40333816
_cell_angle_beta   101.59666184
_cell_angle_gamma   90.49994886
_symmetry_Int_Tables_number   1
_chemical_formula_structural   Hg3S2O11
_chemical_formula_sum   'Hg6 S4 O22'
_cell_volume   555.08217512
_cell_formula_units_Z   2
loop_
 _symmetry_equiv_pos_site_id
 _symmetry_equiv_pos_as_xyz
  1  'x, y, z'
loop_
 _atom_site_type_symbol
 _atom_site_label
 _atom_site_symmetry_multiplicity
 _atom_site_fract_x
 _atom_site_fract_y
 _atom_site_fract_z
 _atom_site_occupancy
  O  O0  1  0.74077210  -0.07878180  0.46004787  1.0
  O  O1  1  1.07878180  0.25922790  0.96004787  1.0
  O  O2  1  0.92121820  -0.25922790  0.03995213  1.0
  O  O3  1  1.25922790  0.07878180  0.53995213  1.0
  O  O4  1  1.89728890  0.21481894  0.35388291  1.0
  O  O5  1  0.78518106  -0.89728890  0.85388291  1.0
  O  O6  1  1.21481894  0.89728890  0.14611709  1.0
  O  O7  1  0.10271110  -0.21481894  0.64611709  1.0
  O  O8  1  0.82114815  -0.17885185  0.25000000  1.0
  O  O9  1  1.17885185  0.17885185  0.75000000  1.0
  O  O10  1  1.72221209  0.02461970  0.16797684  1.0
  O  O11  1  0.97538030  -0.72221209  0.66797684  1.0
  O  O12  1  1.02461970  0.72221209  0.33202316  1.0
  O  O13  1  0.27778791  -0.02461970  0.83202316  1.0
  O  O14  1  1.49402806  0.19255287  0.34202358  1.0
  O  O15  1  0.80744713  -0.49402806  0.84202358  1.0
  O  O16  1  1.19255287  0.49402806  0.15797642  1.0
  O  O17  1  0.50597194  -0.19255287  0.65797642  1.0
  O  O18  1  0.68477364  -0.71830429  0.97093019  1.0
  O  O19  1  1.71830429  0.31522636  0.47093019  1.0
  O  O20  1  0.28169571  -0.31522636  0.52906981  1.0
  O  O21  1  1.31522636  0.71830429  0.02906981  1.0
  S  S22  1  1.72503898  0.14860249  0.40647911  1.0
  S  S23  1  0.85139751  -0.72503898  0.90647911  1.0
  S  S24  1  1.14860249  0.72503898  0.09352089  1.0
  S  S25  1  0.27496102  -0.14860249  0.59352089  1.0
  Hg  Hg26  1  0.26578027  -0.05380372  0.34400396  1.0
  Hg  Hg27  1  1.05380372  0.73421973  0.84400396  1.0
  Hg  Hg28  1  0.94619628  -0.73421973  0.15599604  1.0
  Hg  Hg29  1  1.73421973  0.05380372  0.65599604  1.0
  Hg  Hg30  1  1.50000000  0.00000000  -0.00000000  1.0
  Hg  Hg31  1  1.00000000  -0.50000000  0.50000000  1.0
