# generated using pymatgen
data_Y2Co17
_symmetry_space_group_name_H-M   'P 1'
_cell_length_a   6.26172092
_cell_length_b   6.26172092
_cell_length_c   6.26172092
_cell_angle_alpha   82.94668378
_cell_angle_beta   82.94668378
_cell_angle_gamma   82.94668378
_symmetry_Int_Tables_number   1
_chemical_formula_structural   Y2Co17
_chemical_formula_sum   'Y2 Co17'
_cell_volume   240.36436705
_cell_formula_units_Z   1
loop_
 _symmetry_equiv_pos_site_id
 _symmetry_equiv_pos_as_xyz
  1  'x, y, z'
loop_
 _atom_site_type_symbol
 _atom_site_label
 _atom_site_symmetry_multiplicity
 _atom_site_fract_x
 _atom_site_fract_y
 _atom_site_fract_z
 _atom_site_occupancy
  Y  Y0  1  0.65584579  0.65584579  -0.34415421  1.0
  Y  Y1  1  1.34415421  1.34415421  0.34415421  1.0
  Co  Co2  1  0.34517145  0.34517145  -0.15105249  1.0
  Co  Co3  1  0.34517145  0.84894751  -0.65482855  1.0
  Co  Co4  1  0.15105249  0.65482855  -0.34517145  1.0
  Co  Co5  1  0.65482855  0.15105249  -0.34517145  1.0
  Co  Co6  1  0.65482855  -0.34517145  0.15105249  1.0
  Co  Co7  1  0.84894751  0.34517145  -0.65482855  1.0
  Co  Co8  1  0.71107103  -0.00000000  0.28892897  1.0
  Co  Co9  1  0.71107103  -0.71107103  0.00000000  1.0
  Co  Co10  1  -0.00000000  0.71107103  -0.71107103  1.0
  Co  Co11  1  -0.00000000  0.28892897  -0.28892897  1.0
  Co  Co12  1  1.28892897  -0.00000000  -0.28892897  1.0
  Co  Co13  1  0.28892897  -0.28892897  0.00000000  1.0
  Co  Co14  1  1.00000000  1.50000000  0.00000000  1.0
  Co  Co15  1  1.00000000  0.00000000  -0.50000000  1.0
  Co  Co16  1  0.50000000  0.00000000  -0.00000000  1.0
  Co  Co17  1  0.90388951  0.90388951  -0.09611049  1.0
  Co  Co18  1  1.09611049  1.09611049  0.09611049  1.0
