# generated using pymatgen
data_RbAgO
_symmetry_space_group_name_H-M   'P 1'
_cell_length_a   7.79748115
_cell_length_b   7.79748115
_cell_length_c   7.79748115
_cell_angle_alpha   98.21064513
_cell_angle_beta   98.21064513
_cell_angle_gamma   135.59194842
_symmetry_Int_Tables_number   1
_chemical_formula_structural   RbAgO
_chemical_formula_sum   'Rb4 Ag4 O4'
_cell_volume   307.15123517
_cell_formula_units_Z   4
loop_
 _symmetry_equiv_pos_site_id
 _symmetry_equiv_pos_as_xyz
  1  'x, y, z'
loop_
 _atom_site_type_symbol
 _atom_site_label
 _atom_site_symmetry_multiplicity
 _atom_site_fract_x
 _atom_site_fract_y
 _atom_site_fract_z
 _atom_site_occupancy
  Rb  Rb0  1  0.50000000  0.81438644  0.31438644  1.0
  Rb  Rb1  1  0.81438644  0.50000000  1.31438644  1.0
  Rb  Rb2  1  0.18561356  0.50000000  0.68561356  1.0
  Rb  Rb3  1  0.50000000  1.18561356  0.68561356  1.0
  Ag  Ag4  1  0.85588933  0.85588933  0.71177865  1.0
  Ag  Ag5  1  1.14411067  0.85588933  1.00000000  1.0
  Ag  Ag6  1  0.85588933  0.14411067  1.00000000  1.0
  Ag  Ag7  1  0.14411067  0.14411067  0.28822135  1.0
  O  O8  1  0.00000000  0.71244724  0.71244724  1.0
  O  O9  1  0.71244724  1.00000000  0.71244724  1.0
  O  O10  1  1.28755276  1.00000000  1.28755276  1.0
  O  O11  1  -0.00000000  0.28755276  0.28755276  1.0
