# generated using pymatgen
data_Ca2SiO4
_symmetry_space_group_name_H-M   'P 1'
_cell_length_a   5.57156539
_cell_length_b   6.80682828
_cell_length_c   10.51603005
_cell_angle_alpha   90.00000000
_cell_angle_beta   117.33779556
_cell_angle_gamma   90.00000000
_symmetry_Int_Tables_number   1
_chemical_formula_structural   Ca2SiO4
_chemical_formula_sum   'Ca8 Si4 O16'
_cell_volume   354.27506794
_cell_formula_units_Z   4
loop_
 _symmetry_equiv_pos_site_id
 _symmetry_equiv_pos_as_xyz
  1  'x, y, z'
loop_
 _atom_site_type_symbol
 _atom_site_label
 _atom_site_symmetry_multiplicity
 _atom_site_fract_x
 _atom_site_fract_y
 _atom_site_fract_z
 _atom_site_occupancy
  Ca  Ca0  1  0.98076458  0.49654605  0.20264501  1.0
  Ca  Ca1  1  0.98076458  0.00345395  0.70264501  1.0
  Ca  Ca2  1  0.01923542  -0.00345395  0.29735499  1.0
  Ca  Ca3  1  0.01923542  0.50345395  0.79735499  1.0
  Ca  Ca4  1  0.29544685  0.15902174  0.06870068  1.0
  Ca  Ca5  1  0.29544685  0.34097826  0.56870068  1.0
  Ca  Ca6  1  0.70455315  0.65902174  0.43129932  1.0
  Ca  Ca7  1  0.70455315  0.84097826  0.93129932  1.0
  Si  Si8  1  0.65016499  0.21876574  0.41831971  1.0
  Si  Si9  1  0.65016499  0.28123426  0.91831971  1.0
  Si  Si10  1  0.34983501  0.71876574  0.08168029  1.0
  Si  Si11  1  0.34983501  0.78123426  0.58168029  1.0
  O  O12  1  0.85133660  0.33155109  0.36370330  1.0
  O  O13  1  0.85133660  0.16844891  0.86370330  1.0
  O  O14  1  0.14866340  0.83155109  0.13629670  1.0
  O  O15  1  0.14866340  0.66844891  0.63629670  1.0
  O  O16  1  0.72059802  0.16872400  0.07203575  1.0
  O  O17  1  0.72059802  0.33127600  0.57203575  1.0
  O  O18  1  0.27940198  0.66872400  0.42796425  1.0
  O  O19  1  0.27940198  0.83127600  0.92796425  1.0
  O  O20  1  0.72525379  0.98687965  0.44472991  1.0
  O  O21  1  0.72525379  0.51312035  0.94472991  1.0
  O  O22  1  0.27474621  0.48687965  0.05527009  1.0
  O  O23  1  0.27474621  0.01312035  0.55527009  1.0
  O  O24  1  0.32790059  0.24830032  0.30365233  1.0
  O  O25  1  0.32790059  0.25169968  0.80365233  1.0
  O  O26  1  0.67209941  0.74830032  0.19634767  1.0
  O  O27  1  0.67209941  0.75169968  0.69634767  1.0
