# generated using pymatgen
data_Zr2Ni
_symmetry_space_group_name_H-M   'P 1'
_cell_length_a   5.80716064
_cell_length_b   5.80716064
_cell_length_c   5.80716064
_cell_angle_alpha   147.62679182
_cell_angle_beta   147.62679182
_cell_angle_gamma   46.43660249
_symmetry_Int_Tables_number   1
_chemical_formula_structural   Zr2Ni
_chemical_formula_sum   'Zr2 Ni1'
_cell_volume   55.94392138
_cell_formula_units_Z   1
loop_
 _symmetry_equiv_pos_site_id
 _symmetry_equiv_pos_as_xyz
  1  'x, y, z'
loop_
 _atom_site_type_symbol
 _atom_site_label
 _atom_site_symmetry_multiplicity
 _atom_site_fract_x
 _atom_site_fract_y
 _atom_site_fract_z
 _atom_site_occupancy
  Zr  Zr0  1  0.65096259  0.65096259  1.00000000  1.0
  Zr  Zr1  1  0.34903741  0.34903741  0.00000000  1.0
  Ni  Ni2  1  0.00000000  0.00000000  0.00000000  1.0
