# generated using pymatgen
data_V2Ni2O7
_symmetry_space_group_name_H-M   'P 1'
_cell_length_a   6.59446998
_cell_length_b   8.31284878
_cell_length_c   9.01819130
_cell_angle_alpha   90.00000000
_cell_angle_beta   97.72277421
_cell_angle_gamma   90.00000000
_symmetry_Int_Tables_number   1
_chemical_formula_structural   V2Ni2O7
_chemical_formula_sum   'V8 Ni8 O28'
_cell_volume   489.88273825
_cell_formula_units_Z   4
loop_
 _symmetry_equiv_pos_site_id
 _symmetry_equiv_pos_as_xyz
  1  'x, y, z'
loop_
 _atom_site_type_symbol
 _atom_site_label
 _atom_site_symmetry_multiplicity
 _atom_site_fract_x
 _atom_site_fract_y
 _atom_site_fract_z
 _atom_site_occupancy
  V  V0  1  0.79658471  0.91118358  0.68663880  1.0
  V  V1  1  0.79658471  0.58881642  0.18663880  1.0
  V  V2  1  0.20341529  0.41118358  0.81336120  1.0
  V  V3  1  0.20341529  0.08881642  0.31336120  1.0
  V  V4  1  0.63631700  0.85283053  0.97857291  1.0
  V  V5  1  0.63631700  0.64716947  0.47857291  1.0
  V  V6  1  0.36368300  0.35283053  0.52142709  1.0
  V  V7  1  0.36368300  0.14716947  0.02142709  1.0
  Ni  Ni8  1  0.86611085  0.26711924  0.52145756  1.0
  Ni  Ni9  1  0.86611085  0.23288076  0.02145756  1.0
  Ni  Ni10  1  0.13388915  0.76711924  0.97854244  1.0
  Ni  Ni11  1  0.13388915  0.73288076  0.47854244  1.0
  Ni  Ni12  1  0.70657494  0.48920989  0.81725194  1.0
  Ni  Ni13  1  0.70657494  1.01079011  0.31725194  1.0
  Ni  Ni14  1  0.29342506  -0.01079011  0.68274806  1.0
  Ni  Ni15  1  0.29342506  0.51079011  0.18274806  1.0
  O  O16  1  0.89114655  0.87935694  0.88803152  1.0
  O  O17  1  0.89114655  0.62064306  0.38803152  1.0
  O  O18  1  0.10885345  0.37935694  0.61196848  1.0
  O  O19  1  0.10885345  0.12064306  0.11196848  1.0
  O  O20  1  0.94377293  0.36862949  0.87320447  1.0
  O  O21  1  0.94377293  0.13137051  0.37320447  1.0
  O  O22  1  0.05622707  0.86862949  0.62679553  1.0
  O  O23  1  0.05622707  0.63137051  0.12679553  1.0
  O  O24  1  0.75829110  0.64076114  0.66310261  1.0
  O  O25  1  0.75829110  0.85923886  0.16310261  1.0
  O  O26  1  0.24170890  0.14076114  0.83689739  1.0
  O  O27  1  0.24170890  0.35923886  0.33689739  1.0
  O  O28  1  0.65962767  0.63689172  0.97622275  1.0
  O  O29  1  0.65962767  0.86310828  0.47622275  1.0
  O  O30  1  0.34037233  0.13689172  0.52377725  1.0
  O  O31  1  0.34037233  0.36310828  0.02377725  1.0
  O  O32  1  0.62520183  0.38927555  0.49340972  1.0
  O  O33  1  0.62520183  0.11072445  0.99340972  1.0
  O  O34  1  0.37479817  0.88927555  0.00659028  1.0
  O  O35  1  0.37479817  0.61072445  0.50659028  1.0
  O  O36  1  0.54302385  0.89223188  0.75807414  1.0
  O  O37  1  0.54302385  0.60776812  0.25807414  1.0
  O  O38  1  0.45697615  0.39223188  0.74192586  1.0
  O  O39  1  0.45697615  0.10776812  0.24192586  1.0
  O  O40  1  0.19794462  0.60922205  0.84022772  1.0
  O  O41  1  0.19794462  0.89077795  0.34022772  1.0
  O  O42  1  0.80205538  0.10922205  0.65977228  1.0
  O  O43  1  0.80205538  0.39077795  0.15977228  1.0
