# generated using pymatgen
data_Ba2V3HO9
_symmetry_space_group_name_H-M   'P 1'
_cell_length_a   7.95509468
_cell_length_b   6.13515115
_cell_length_c   9.26534076
_cell_angle_alpha   90.00000000
_cell_angle_beta   112.54549131
_cell_angle_gamma   90.00000000
_symmetry_Int_Tables_number   1
_chemical_formula_structural   Ba2V3HO9
_chemical_formula_sum   'Ba4 V6 H2 O18'
_cell_volume   417.64219817
_cell_formula_units_Z   2
loop_
 _symmetry_equiv_pos_site_id
 _symmetry_equiv_pos_as_xyz
  1  'x, y, z'
loop_
 _atom_site_type_symbol
 _atom_site_label
 _atom_site_symmetry_multiplicity
 _atom_site_fract_x
 _atom_site_fract_y
 _atom_site_fract_z
 _atom_site_occupancy
  V  V0  1  0.95218991  0.25000000  0.66693945  1.0
  V  V1  1  0.04781009  0.75000000  0.33306055  1.0
  V  V2  1  0.56626947  0.25000000  0.83011468  1.0
  V  V3  1  0.43373053  0.75000000  0.16988532  1.0
  V  V4  1  0.00000000  0.50000000  0.00000000  1.0
  V  V5  1  0.00000000  0.00000000  0.00000000  1.0
  H  H6  1  0.27576112  0.25000000  0.02151891  1.0
  H  H7  1  0.72423888  0.75000000  0.97848109  1.0
  O  O8  1  0.00920776  0.98936261  0.21896812  1.0
  O  O9  1  0.00920776  0.51063739  0.21896812  1.0
  O  O10  1  0.99079224  0.48936261  0.78103188  1.0
  O  O11  1  0.99079224  0.01063739  0.78103188  1.0
  O  O12  1  0.50397770  0.47140229  0.71101812  1.0
  O  O13  1  0.50397770  0.02859771  0.71101812  1.0
  O  O14  1  0.49602230  0.97140229  0.28898188  1.0
  O  O15  1  0.49602230  0.52859771  0.28898188  1.0
  O  O16  1  0.81036977  0.25000000  0.95217427  1.0
  O  O17  1  0.18963023  0.75000000  0.04782573  1.0
  O  O18  1  0.73210717  0.25000000  0.54082432  1.0
  O  O19  1  0.26789283  0.75000000  0.45917568  1.0
  O  O20  1  0.45129487  0.25000000  0.95078837  1.0
  O  O21  1  0.54870513  0.75000000  0.04921163  1.0
  O  O22  1  0.17569768  0.25000000  0.06183091  1.0
  O  O23  1  0.82430232  0.75000000  0.93816909  1.0
  O  O24  1  0.08131623  0.25000000  0.55906388  1.0
  O  O25  1  0.91868376  0.75000000  0.44093612  1.0
  Ba  Ba26  1  0.73915407  0.25000000  0.24694276  1.0
  Ba  Ba27  1  0.26084593  0.75000000  0.75305724  1.0
  Ba  Ba28  1  0.32088223  0.25000000  0.41305656  1.0
  Ba  Ba29  1  0.67911777  0.75000000  0.58694344  1.0
