# generated using pymatgen
data_Na2PbO2
_symmetry_space_group_name_H-M   'P 1'
_cell_length_a   17.21538788
_cell_length_b   7.02004306
_cell_length_c   6.06937977
_cell_angle_alpha   90.00000000
_cell_angle_beta   90.00000000
_cell_angle_gamma   90.00000000
_symmetry_Int_Tables_number   1
_chemical_formula_structural   Na2PbO2
_chemical_formula_sum   'Na16 Pb8 O16'
_cell_volume   733.50132250
_cell_formula_units_Z   8
loop_
 _symmetry_equiv_pos_site_id
 _symmetry_equiv_pos_as_xyz
  1  'x, y, z'
loop_
 _atom_site_type_symbol
 _atom_site_label
 _atom_site_symmetry_multiplicity
 _atom_site_fract_x
 _atom_site_fract_y
 _atom_site_fract_z
 _atom_site_occupancy
  Na  Na0  1  0.86627808  0.87290736  0.58429656  1.0
  Na  Na1  1  0.86627808  0.12709264  0.08429656  1.0
  Na  Na2  1  0.36627808  0.37290736  0.91570344  1.0
  Na  Na3  1  0.36627808  0.62709264  0.41570344  1.0
  Na  Na4  1  0.13372192  0.87290736  0.91570344  1.0
  Na  Na5  1  0.13372192  0.12709264  0.41570344  1.0
  Na  Na6  1  0.63372192  0.37290736  0.58429656  1.0
  Na  Na7  1  0.63372192  0.62709264  0.08429656  1.0
  Na  Na8  1  0.00000000  0.62103996  0.75000000  1.0
  Na  Na9  1  -0.00000000  0.37896004  0.25000000  1.0
  Na  Na10  1  0.50000000  0.12103996  0.75000000  1.0
  Na  Na11  1  0.50000000  0.87896004  0.25000000  1.0
  Na  Na12  1  -0.00000000  0.12975414  0.75000000  1.0
  Na  Na13  1  -0.00000000  0.87024586  0.25000000  1.0
  Na  Na14  1  0.50000000  0.62975414  0.75000000  1.0
  Na  Na15  1  0.50000000  0.37024586  0.25000000  1.0
  Pb  Pb16  1  0.66136743  0.86331310  0.56712153  1.0
  Pb  Pb17  1  0.66136743  0.13668690  0.06712153  1.0
  Pb  Pb18  1  0.16136743  0.36331310  0.93287847  1.0
  Pb  Pb19  1  0.16136743  0.63668690  0.43287847  1.0
  Pb  Pb20  1  0.33863257  0.86331310  0.93287847  1.0
  Pb  Pb21  1  0.33863257  0.13668690  0.43287847  1.0
  Pb  Pb22  1  0.83863257  0.36331310  0.56712153  1.0
  Pb  Pb23  1  0.83863257  0.63668690  0.06712153  1.0
  O  O24  1  0.91457955  0.85374777  0.93646139  1.0
  O  O25  1  0.91457955  0.14625223  0.43646139  1.0
  O  O26  1  0.41457955  0.35374777  0.56353861  1.0
  O  O27  1  0.41457955  0.64625223  0.06353861  1.0
  O  O28  1  0.08542045  0.85374777  0.56353861  1.0
  O  O29  1  0.08542045  0.14625223  0.06353861  1.0
  O  O30  1  0.58542045  0.35374777  0.93646139  1.0
  O  O31  1  0.58542045  0.64625223  0.43646139  1.0
  O  O32  1  0.59709763  0.89745329  0.88997903  1.0
  O  O33  1  0.59709763  0.10254671  0.38997903  1.0
  O  O34  1  0.09709763  0.39745329  0.61002097  1.0
  O  O35  1  0.09709763  0.60254671  0.11002097  1.0
  O  O36  1  0.40290237  0.89745329  0.61002097  1.0
  O  O37  1  0.40290237  0.10254671  0.11002097  1.0
  O  O38  1  0.90290237  0.39745329  0.88997903  1.0
  O  O39  1  0.90290237  0.60254671  0.38997903  1.0
