# generated using pymatgen
data_PPd3
_symmetry_space_group_name_H-M   'P 1'
_cell_length_a   6.02127055
_cell_length_b   7.53431501
_cell_length_c   5.25231695
_cell_angle_alpha   90.00000000
_cell_angle_beta   90.00000000
_cell_angle_gamma   90.00000000
_symmetry_Int_Tables_number   1
_chemical_formula_structural   PPd3
_chemical_formula_sum   'P4 Pd12'
_cell_volume   238.27739398
_cell_formula_units_Z   4
loop_
 _symmetry_equiv_pos_site_id
 _symmetry_equiv_pos_as_xyz
  1  'x, y, z'
loop_
 _atom_site_type_symbol
 _atom_site_label
 _atom_site_symmetry_multiplicity
 _atom_site_fract_x
 _atom_site_fract_y
 _atom_site_fract_z
 _atom_site_occupancy
  P  P0  1  0.11882963  0.75000000  0.95780018  1.0
  P  P1  1  0.61882963  0.75000000  0.54219982  1.0
  P  P2  1  0.88117037  0.25000000  0.04219982  1.0
  P  P3  1  0.38117037  0.25000000  0.45780018  1.0
  Pd  Pd4  1  0.32584038  0.93689451  0.66431098  1.0
  Pd  Pd5  1  0.32584038  0.56310549  0.66431098  1.0
  Pd  Pd6  1  0.82584038  0.93689451  0.83568902  1.0
  Pd  Pd7  1  0.82584038  0.56310549  0.83568902  1.0
  Pd  Pd8  1  0.67415962  0.43689451  0.33568902  1.0
  Pd  Pd9  1  0.67415962  0.06310549  0.33568902  1.0
  Pd  Pd10  1  0.17415962  0.43689451  0.16431098  1.0
  Pd  Pd11  1  0.17415962  0.06310549  0.16431098  1.0
  Pd  Pd12  1  0.47314901  0.75000000  0.13166242  1.0
  Pd  Pd13  1  0.97314901  0.75000000  0.36833758  1.0
  Pd  Pd14  1  0.52685099  0.25000000  0.86833758  1.0
  Pd  Pd15  1  0.02685099  0.25000000  0.63166242  1.0
