# generated using pymatgen
data_MoBr3
_symmetry_space_group_name_H-M   'P 1'
_cell_length_a   6.11658847
_cell_length_b   12.62647055
_cell_length_c   7.29644845
_cell_angle_alpha   90.00000000
_cell_angle_beta   90.00000000
_cell_angle_gamma   90.00000000
_symmetry_Int_Tables_number   1
_chemical_formula_structural   MoBr3
_chemical_formula_sum   'Mo4 Br12'
_cell_volume   563.51145682
_cell_formula_units_Z   4
loop_
 _symmetry_equiv_pos_site_id
 _symmetry_equiv_pos_as_xyz
  1  'x, y, z'
loop_
 _atom_site_type_symbol
 _atom_site_label
 _atom_site_symmetry_multiplicity
 _atom_site_fract_x
 _atom_site_fract_y
 _atom_site_fract_z
 _atom_site_occupancy
  Mo  Mo0  1  0.27129536  0.50000000  0.25390572  1.0
  Mo  Mo1  1  0.72870464  0.50000000  0.25390572  1.0
  Mo  Mo2  1  0.22870464  0.00000000  0.74609428  1.0
  Mo  Mo3  1  0.77129536  0.00000000  0.74609428  1.0
  Br  Br4  1  0.00000000  0.63965591  0.39347144  1.0
  Br  Br5  1  0.00000000  0.36034409  0.39347144  1.0
  Br  Br6  1  0.50000000  0.86034409  0.60652856  1.0
  Br  Br7  1  0.50000000  0.13965591  0.60652856  1.0
  Br  Br8  1  0.50000000  0.64756931  0.10645549  1.0
  Br  Br9  1  0.50000000  0.35243069  0.10645549  1.0
  Br  Br10  1  0.00000000  0.85243069  0.89354451  1.0
  Br  Br11  1  0.00000000  0.14756931  0.89354451  1.0
  Br  Br12  1  0.50000000  0.50000000  0.54864152  1.0
  Br  Br13  1  0.00000000  0.00000000  0.45135848  1.0
  Br  Br14  1  0.00000000  0.50000000  0.97467583  1.0
  Br  Br15  1  0.50000000  0.00000000  0.02532417  1.0
