# generated using pymatgen
data_Mn7Pd9
_symmetry_space_group_name_H-M   'P 1'
_cell_length_a   6.85175833
_cell_length_b   6.85175833
_cell_length_c   6.85175833
_cell_angle_alpha   104.96231506
_cell_angle_beta   104.96231506
_cell_angle_gamma   118.92292622
_symmetry_Int_Tables_number   1
_chemical_formula_structural   Mn7Pd9
_chemical_formula_sum   'Mn7 Pd9'
_cell_volume   242.49170184
_cell_formula_units_Z   1
loop_
 _symmetry_equiv_pos_site_id
 _symmetry_equiv_pos_as_xyz
  1  'x, y, z'
loop_
 _atom_site_type_symbol
 _atom_site_label
 _atom_site_symmetry_multiplicity
 _atom_site_fract_x
 _atom_site_fract_y
 _atom_site_fract_z
 _atom_site_occupancy
  Mn  Mn0  1  0.50000000  0.50000000  -0.00000000  1.0
  Mn  Mn1  1  0.76480050  0.76480050  0.52960100  1.0
  Mn  Mn2  1  1.23519950  0.76480050  1.00000000  1.0
  Mn  Mn3  1  0.76480050  1.23519950  1.00000000  1.0
  Mn  Mn4  1  0.23519950  0.23519950  0.47039900  1.0
  Mn  Mn5  1  0.50000000  0.00000000  0.50000000  1.0
  Mn  Mn6  1  0.00000000  0.50000000  0.50000000  1.0
  Pd  Pd7  1  0.00000000  0.00000000  0.00000000  1.0
  Pd  Pd8  1  0.48075687  0.73286382  0.74789305  1.0
  Pd  Pd9  1  1.01502923  1.26713618  0.74789305  1.0
  Pd  Pd10  1  0.98497077  0.73286382  0.25210695  1.0
  Pd  Pd11  1  1.51924313  1.26713618  1.25210695  1.0
  Pd  Pd12  1  0.73286382  0.48075687  0.74789305  1.0
  Pd  Pd13  1  1.26713618  1.01502923  0.74789305  1.0
  Pd  Pd14  1  0.73286382  0.98497077  0.25210695  1.0
  Pd  Pd15  1  1.26713618  1.51924313  1.25210695  1.0
