# generated using pymatgen
data_Lu5Ge4
_symmetry_space_group_name_H-M   'P 1'
_cell_length_a   7.48934051
_cell_length_b   14.36407161
_cell_length_c   7.53838444
_cell_angle_alpha   90.00000000
_cell_angle_beta   90.00000000
_cell_angle_gamma   90.00000000
_symmetry_Int_Tables_number   1
_chemical_formula_structural   Lu5Ge4
_chemical_formula_sum   'Lu20 Ge16'
_cell_volume   810.95997532
_cell_formula_units_Z   4
loop_
 _symmetry_equiv_pos_site_id
 _symmetry_equiv_pos_as_xyz
  1  'x, y, z'
loop_
 _atom_site_type_symbol
 _atom_site_label
 _atom_site_symmetry_multiplicity
 _atom_site_fract_x
 _atom_site_fract_y
 _atom_site_fract_z
 _atom_site_occupancy
  Lu  Lu0  1  0.46698451  0.39908036  0.17533063  1.0
  Lu  Lu1  1  0.46698451  0.10091964  0.17533063  1.0
  Lu  Lu2  1  0.96698451  0.39908036  0.32466937  1.0
  Lu  Lu3  1  0.96698451  0.10091964  0.32466937  1.0
  Lu  Lu4  1  0.53301549  0.89908036  0.82466937  1.0
  Lu  Lu5  1  0.53301549  0.60091964  0.82466937  1.0
  Lu  Lu6  1  0.03301549  0.89908036  0.67533063  1.0
  Lu  Lu7  1  0.03301549  0.60091964  0.67533063  1.0
  Lu  Lu8  1  0.12008566  0.38154379  0.83961503  1.0
  Lu  Lu9  1  0.12008566  0.11845621  0.83961503  1.0
  Lu  Lu10  1  0.62008566  0.38154379  0.66038497  1.0
  Lu  Lu11  1  0.62008566  0.11845621  0.66038497  1.0
  Lu  Lu12  1  0.87991434  0.88154379  0.16038497  1.0
  Lu  Lu13  1  0.87991434  0.61845621  0.16038497  1.0
  Lu  Lu14  1  0.37991434  0.88154379  0.33961503  1.0
  Lu  Lu15  1  0.37991434  0.61845621  0.33961503  1.0
  Lu  Lu16  1  0.28465212  0.25000000  0.50168606  1.0
  Lu  Lu17  1  0.78465212  0.25000000  0.99831394  1.0
  Lu  Lu18  1  0.71534788  0.75000000  0.49831394  1.0
  Lu  Lu19  1  0.21534788  0.75000000  0.00168606  1.0
  Ge  Ge20  1  0.28022484  0.45645001  0.53216048  1.0
  Ge  Ge21  1  0.28022484  0.04354999  0.53216048  1.0
  Ge  Ge22  1  0.78022484  0.45645001  0.96783952  1.0
  Ge  Ge23  1  0.78022484  0.04354999  0.96783952  1.0
  Ge  Ge24  1  0.71977516  0.95645001  0.46783952  1.0
  Ge  Ge25  1  0.71977516  0.54354999  0.46783952  1.0
  Ge  Ge26  1  0.21977516  0.95645001  0.03216048  1.0
  Ge  Ge27  1  0.21977516  0.54354999  0.03216048  1.0
  Ge  Ge28  1  0.41866085  0.25000000  0.87970386  1.0
  Ge  Ge29  1  0.91866085  0.25000000  0.62029614  1.0
  Ge  Ge30  1  0.58133915  0.75000000  0.12029614  1.0
  Ge  Ge31  1  0.08133915  0.75000000  0.37970386  1.0
  Ge  Ge32  1  0.15858648  0.25000000  0.14151112  1.0
  Ge  Ge33  1  0.65858648  0.25000000  0.35848888  1.0
  Ge  Ge34  1  0.84141352  0.75000000  0.85848888  1.0
  Ge  Ge35  1  0.34141352  0.75000000  0.64151112  1.0
