# generated using pymatgen
data_LiOsF6
_symmetry_space_group_name_H-M   'P 1'
_cell_length_a   5.54379930
_cell_length_b   5.54379930
_cell_length_c   5.54379930
_cell_angle_alpha   58.42714997
_cell_angle_beta   58.42714997
_cell_angle_gamma   58.42714997
_symmetry_Int_Tables_number   1
_chemical_formula_structural   LiOsF6
_chemical_formula_sum   'Li1 Os1 F6'
_cell_volume   116.14133195
_cell_formula_units_Z   1
loop_
 _symmetry_equiv_pos_site_id
 _symmetry_equiv_pos_as_xyz
  1  'x, y, z'
loop_
 _atom_site_type_symbol
 _atom_site_label
 _atom_site_symmetry_multiplicity
 _atom_site_fract_x
 _atom_site_fract_y
 _atom_site_fract_z
 _atom_site_occupancy
  Li  Li0  1  0.50000000  0.50000000  -0.50000000  1.0
  Os  Os1  1  0.00000000  0.00000000  0.00000000  1.0
  F  F2  1  0.16055390  0.76102925  -0.68109906  1.0
  F  F3  1  0.68109906  -0.16055390  0.23897075  1.0
  F  F4  1  1.23897075  -0.31890094  -0.16055390  1.0
  F  F5  1  0.83944610  0.23897075  -0.31890094  1.0
  F  F6  1  0.31890094  0.16055390  -0.23897075  1.0
  F  F7  1  0.76102925  0.31890094  -0.83944610  1.0
