# generated using pymatgen
data_RbSnI3
_symmetry_space_group_name_H-M   'P 1'
_cell_length_a   10.73415410
_cell_length_b   4.75516149
_cell_length_c   17.51027705
_cell_angle_alpha   90.00000000
_cell_angle_beta   90.00000000
_cell_angle_gamma   90.00000000
_symmetry_Int_Tables_number   1
_chemical_formula_structural   RbSnI3
_chemical_formula_sum   'Rb4 Sn4 I12'
_cell_volume   893.77070156
_cell_formula_units_Z   4
loop_
 _symmetry_equiv_pos_site_id
 _symmetry_equiv_pos_as_xyz
  1  'x, y, z'
loop_
 _atom_site_type_symbol
 _atom_site_label
 _atom_site_symmetry_multiplicity
 _atom_site_fract_x
 _atom_site_fract_y
 _atom_site_fract_z
 _atom_site_occupancy
  Rb  Rb0  1  0.57109438  0.75000000  0.67363971  1.0
  Rb  Rb1  1  0.07109438  0.75000000  0.82636029  1.0
  Rb  Rb2  1  0.42890562  0.25000000  0.32636029  1.0
  Rb  Rb3  1  0.92890562  0.25000000  0.17363971  1.0
  Sn  Sn4  1  0.83606882  0.75000000  0.44079410  1.0
  Sn  Sn5  1  0.33606882  0.75000000  0.05920590  1.0
  Sn  Sn6  1  0.16393118  0.25000000  0.55920590  1.0
  Sn  Sn7  1  0.66393118  0.25000000  0.94079410  1.0
  I  I8  1  0.97923334  0.75000000  0.61344139  1.0
  I  I9  1  0.47923334  0.75000000  0.88655861  1.0
  I  I10  1  0.02076666  0.25000000  0.38655861  1.0
  I  I11  1  0.52076666  0.25000000  0.11344139  1.0
  I  I12  1  0.83921513  0.75000000  0.00511502  1.0
  I  I13  1  0.33921513  0.75000000  0.49488498  1.0
  I  I14  1  0.16078487  0.25000000  0.99488498  1.0
  I  I15  1  0.66078487  0.25000000  0.50511502  1.0
  I  I16  1  0.70740193  0.75000000  0.28568072  1.0
  I  I17  1  0.20740193  0.75000000  0.21431928  1.0
  I  I18  1  0.29259807  0.25000000  0.71431928  1.0
  I  I19  1  0.79259807  0.25000000  0.78568072  1.0
