# generated using pymatgen
data_Cu10Sb3
_symmetry_space_group_name_H-M   'P 1'
_cell_length_a   10.13035403
_cell_length_b   10.13035403
_cell_length_c   4.31252068
_cell_angle_alpha   90.00000000
_cell_angle_beta   90.00000000
_cell_angle_gamma   120.00000000
_symmetry_Int_Tables_number   1
_chemical_formula_structural   Cu10Sb3
_chemical_formula_sum   'Cu20 Sb6'
_cell_volume   383.27550840
_cell_formula_units_Z   2
loop_
 _symmetry_equiv_pos_site_id
 _symmetry_equiv_pos_as_xyz
  1  'x, y, z'
loop_
 _atom_site_type_symbol
 _atom_site_label
 _atom_site_symmetry_multiplicity
 _atom_site_fract_x
 _atom_site_fract_y
 _atom_site_fract_z
 _atom_site_occupancy
  Cu  Cu0  1  0.41772220  0.97626324  0.25000000  1.0
  Cu  Cu1  1  0.97626324  0.55854104  0.75000000  1.0
  Cu  Cu2  1  0.55854104  0.58227780  0.25000000  1.0
  Cu  Cu3  1  0.02373676  0.44145896  0.25000000  1.0
  Cu  Cu4  1  0.58227780  0.02373676  0.75000000  1.0
  Cu  Cu5  1  0.44145896  0.41772220  0.75000000  1.0
  Cu  Cu6  1  0.88403622  0.83466885  0.25000000  1.0
  Cu  Cu7  1  0.83466885  0.95063263  0.75000000  1.0
  Cu  Cu8  1  0.95063263  0.11596378  0.25000000  1.0
  Cu  Cu9  1  0.16533115  0.04936737  0.25000000  1.0
  Cu  Cu10  1  0.11596378  0.16533115  0.75000000  1.0
  Cu  Cu11  1  0.04936737  0.88403622  0.75000000  1.0
  Cu  Cu12  1  0.79185981  0.49461777  0.25000000  1.0
  Cu  Cu13  1  0.49461777  0.70275796  0.75000000  1.0
  Cu  Cu14  1  0.70275796  0.20814019  0.25000000  1.0
  Cu  Cu15  1  0.50538223  0.29724204  0.25000000  1.0
  Cu  Cu16  1  0.20814019  0.50538223  0.75000000  1.0
  Cu  Cu17  1  0.29724204  0.79185981  0.75000000  1.0
  Cu  Cu18  1  0.33333333  0.66666667  0.25000000  1.0
  Cu  Cu19  1  0.66666667  0.33333333  0.75000000  1.0
  Sb  Sb20  1  0.10660941  0.74416756  0.25000000  1.0
  Sb  Sb21  1  0.74416756  0.63755815  0.75000000  1.0
  Sb  Sb22  1  0.63755815  0.89339059  0.25000000  1.0
  Sb  Sb23  1  0.25583244  0.36244185  0.25000000  1.0
  Sb  Sb24  1  0.89339059  0.25583244  0.75000000  1.0
  Sb  Sb25  1  0.36244185  0.10660941  0.75000000  1.0
