# generated using pymatgen
data_Nb4Si2Ni7
_symmetry_space_group_name_H-M   'P 1'
_cell_length_a   9.07616515
_cell_length_b   9.07616515
_cell_length_c   9.07616515
_cell_angle_alpha   30.39587626
_cell_angle_beta   30.39587626
_cell_angle_gamma   30.39587626
_symmetry_Int_Tables_number   1
_chemical_formula_structural   Nb4Si2Ni7
_chemical_formula_sum   'Nb4 Si2 Ni7'
_cell_volume   169.64570629
_cell_formula_units_Z   1
loop_
 _symmetry_equiv_pos_site_id
 _symmetry_equiv_pos_as_xyz
  1  'x, y, z'
loop_
 _atom_site_type_symbol
 _atom_site_label
 _atom_site_symmetry_multiplicity
 _atom_site_fract_x
 _atom_site_fract_y
 _atom_site_fract_z
 _atom_site_occupancy
  Nb  Nb0  1  0.64945855  0.64945855  -0.35054145  1.0
  Nb  Nb1  1  0.35054145  0.35054145  -0.64945855  1.0
  Nb  Nb2  1  0.83136631  -0.16863369  -0.16863369  1.0
  Nb  Nb3  1  0.16863369  0.16863369  0.16863369  1.0
  Si  Si4  1  0.54696493  0.54696493  -0.45303507  1.0
  Si  Si5  1  0.45303507  0.45303507  -0.54696493  1.0
  Ni  Ni6  1  -0.00000000  -0.00000000  0.00000000  1.0
  Ni  Ni7  1  0.41099299  -0.08949237  -0.08949237  1.0
  Ni  Ni8  1  0.91050763  -0.08949237  -0.58900701  1.0
  Ni  Ni9  1  0.91050763  -0.58900701  -0.08949237  1.0
  Ni  Ni10  1  0.58900701  0.08949237  0.08949237  1.0
  Ni  Ni11  1  1.08949237  0.08949237  -0.41099299  1.0
  Ni  Ni12  1  1.08949237  -0.41099299  0.08949237  1.0
