# generated using pymatgen
data_YAl2Pt5
_symmetry_space_group_name_H-M   'P 1'
_cell_length_a   8.11449462
_cell_length_b   8.11449462
_cell_length_c   8.11449462
_cell_angle_alpha   150.56859911
_cell_angle_beta   150.56859911
_cell_angle_gamma   42.10739694
_symmetry_Int_Tables_number   1
_chemical_formula_structural   YAl2Pt5
_chemical_formula_sum   'Y1 Al2 Pt5'
_cell_volume   128.70213295
_cell_formula_units_Z   1
loop_
 _symmetry_equiv_pos_site_id
 _symmetry_equiv_pos_as_xyz
  1  'x, y, z'
loop_
 _atom_site_type_symbol
 _atom_site_label
 _atom_site_symmetry_multiplicity
 _atom_site_fract_x
 _atom_site_fract_y
 _atom_site_fract_z
 _atom_site_occupancy
  Y  Y0  1  0.00000000  0.00000000  0.00000000  1.0
  Al  Al1  1  0.74770623  0.74770623  1.00000000  1.0
  Al  Al2  1  0.25229377  0.25229377  -0.00000000  1.0
  Pt  Pt3  1  0.35604306  0.85604306  0.50000000  1.0
  Pt  Pt4  1  0.64395694  0.14395694  0.50000000  1.0
  Pt  Pt5  1  0.85604306  0.35604306  0.50000000  1.0
  Pt  Pt6  1  0.14395694  0.64395694  0.50000000  1.0
  Pt  Pt7  1  0.50000000  0.50000000  1.00000000  1.0
