# generated using pymatgen
data_Zr5AlPb2
_symmetry_space_group_name_H-M   'P 1'
_cell_length_a   8.50332650
_cell_length_b   8.50332650
_cell_length_c   8.50332650
_cell_angle_alpha   96.15546287
_cell_angle_beta   96.15546287
_cell_angle_gamma   141.77128812
_symmetry_Int_Tables_number   1
_chemical_formula_structural   Zr5AlPb2
_chemical_formula_sum   'Zr10 Al2 Pb4'
_cell_volume   359.49180435
_cell_formula_units_Z   2
loop_
 _symmetry_equiv_pos_site_id
 _symmetry_equiv_pos_as_xyz
  1  'x, y, z'
loop_
 _atom_site_type_symbol
 _atom_site_label
 _atom_site_symmetry_multiplicity
 _atom_site_fract_x
 _atom_site_fract_y
 _atom_site_fract_z
 _atom_site_occupancy
  Zr  Zr0  1  0.28778903  0.42496581  0.71275483  1.0
  Zr  Zr1  1  1.21221097  0.92496581  1.13717678  1.0
  Zr  Zr2  1  0.92496581  0.78778903  1.71275483  1.0
  Zr  Zr3  1  0.57503419  1.28778903  0.86282322  1.0
  Zr  Zr4  1  0.78778903  1.07503419  0.86282322  1.0
  Zr  Zr5  1  0.71221097  0.57503419  1.28724517  1.0
  Zr  Zr6  1  1.42496581  0.71221097  1.13717678  1.0
  Zr  Zr7  1  0.07503419  0.21221097  0.28724517  1.0
  Zr  Zr8  1  0.75000000  1.25000000  0.50000000  1.0
  Zr  Zr9  1  0.25000000  0.75000000  0.50000000  1.0
  Al  Al10  1  0.25000000  0.25000000  -0.00000000  1.0
  Al  Al11  1  0.75000000  0.75000000  -0.00000000  1.0
  Pb  Pb12  1  0.83497487  0.33497487  1.16994973  1.0
  Pb  Pb13  1  0.66502513  0.83497487  0.50000000  1.0
  Pb  Pb14  1  1.33497487  1.16502513  1.50000000  1.0
  Pb  Pb15  1  0.16502513  0.66502513  0.83005027  1.0
