# generated using pymatgen
data_H3CBrClF
_symmetry_space_group_name_H-M   'P 1'
_cell_length_a   10.32912703
_cell_length_b   7.07207686
_cell_length_c   6.89035892
_cell_angle_alpha   90.00000000
_cell_angle_beta   90.00000000
_cell_angle_gamma   90.00000000
_symmetry_Int_Tables_number   1
_chemical_formula_structural   H3CBrClF
_chemical_formula_sum   'H12 C4 Br4 Cl4 F4'
_cell_volume   503.32955839
_cell_formula_units_Z   4
loop_
 _symmetry_equiv_pos_site_id
 _symmetry_equiv_pos_as_xyz
  1  'x, y, z'
loop_
 _atom_site_type_symbol
 _atom_site_label
 _atom_site_symmetry_multiplicity
 _atom_site_fract_x
 _atom_site_fract_y
 _atom_site_fract_z
 _atom_site_occupancy
  H  H0  1  0.76183286  0.25000000  0.51446078  1.0
  H  H1  1  0.26183286  0.25000000  -0.01446078  1.0
  H  H2  1  0.23816714  0.75000000  0.48553922  1.0
  H  H3  1  0.73816714  0.75000000  1.01446078  1.0
  H  H4  1  0.62707505  0.12154730  0.61874819  1.0
  H  H5  1  0.12707505  0.37845270  0.88125181  1.0
  H  H6  1  0.37292495  0.62154730  0.38125181  1.0
  H  H7  1  0.87292495  0.87845270  0.11874819  1.0
  H  H8  1  0.37292495  0.87845270  0.38125181  1.0
  H  H9  1  0.87292495  0.62154730  0.11874819  1.0
  H  H10  1  0.62707505  0.37845270  0.61874819  1.0
  H  H11  1  0.12707505  0.12154730  0.88125181  1.0
  C  C12  1  0.68570667  0.25000000  0.62494313  1.0
  C  C13  1  0.18570667  0.25000000  0.87505687  1.0
  C  C14  1  0.31429333  0.75000000  0.37505687  1.0
  C  C15  1  0.81429333  0.75000000  0.12494313  1.0
  Br  Br16  1  0.57663734  0.25000000  0.08898755  1.0
  Br  Br17  1  0.07663734  0.25000000  0.41101245  1.0
  Br  Br18  1  0.42336266  0.75000000  0.91101245  1.0
  Br  Br19  1  0.92336266  0.75000000  0.58898755  1.0
  Cl  Cl20  1  0.76758629  0.25000000  0.85657126  1.0
  Cl  Cl21  1  0.26758629  0.25000000  0.64342874  1.0
  Cl  Cl22  1  0.23241371  0.75000000  0.14342874  1.0
  Cl  Cl23  1  0.73241371  0.75000000  0.35657126  1.0
  F  F24  1  0.43068573  0.25000000  0.25823467  1.0
  F  F25  1  0.93068573  0.25000000  0.24176533  1.0
  F  F26  1  0.56931427  0.75000000  0.74176533  1.0
  F  F27  1  0.06931427  0.75000000  0.75823467  1.0
