# generated using pymatgen
data_PNClF
_symmetry_space_group_name_H-M   'P 1'
_cell_length_a   8.41220786
_cell_length_b   8.41220786
_cell_length_c   8.29447303
_cell_angle_alpha   90.00000000
_cell_angle_beta   90.00000000
_cell_angle_gamma   76.14711614
_symmetry_Int_Tables_number   1
_chemical_formula_structural   PNClF
_chemical_formula_sum   'P6 N6 Cl6 F6'
_cell_volume   569.88787779
_cell_formula_units_Z   6
loop_
 _symmetry_equiv_pos_site_id
 _symmetry_equiv_pos_as_xyz
  1  'x, y, z'
loop_
 _atom_site_type_symbol
 _atom_site_label
 _atom_site_symmetry_multiplicity
 _atom_site_fract_x
 _atom_site_fract_y
 _atom_site_fract_z
 _atom_site_occupancy
  P  P0  1  -0.19529194  1.40422806  0.25362572  1.0
  P  P1  1  0.40422806  0.80470806  0.75362572  1.0
  P  P2  1  -0.40422806  1.19529194  0.25362572  1.0
  P  P3  1  0.19529194  0.59577194  0.75362572  1.0
  P  P4  1  0.17100001  0.82899999  -0.00695640  1.0
  P  P5  1  -0.17100001  1.17100001  0.49304360  1.0
  N  N6  1  -0.10452399  1.31195472  0.40788675  1.0
  N  N7  1  0.31195472  0.89547601  0.90788675  1.0
  N  N8  1  -0.31195472  1.10452399  0.40788675  1.0
  N  N9  1  0.10452399  0.68804528  0.90788675  1.0
  N  N10  1  -0.34136820  1.34136820  0.17366525  1.0
  N  N11  1  0.34136820  0.65863180  0.67366525  1.0
  Cl  Cl12  1  -0.26443139  1.64586281  0.29436371  1.0
  Cl  Cl13  1  0.64586281  0.73556861  0.79436371  1.0
  Cl  Cl14  1  -0.64586281  1.26443139  0.29436371  1.0
  Cl  Cl15  1  0.26443139  0.35413719  0.79436371  1.0
  Cl  Cl16  1  0.22908547  0.77091453  0.22378506  1.0
  Cl  Cl17  1  -0.22908547  1.22908547  0.72378506  1.0
  F  F18  1  -0.06164363  1.40066812  0.11984508  1.0
  F  F19  1  0.40066812  0.93835637  0.61984508  1.0
  F  F20  1  -0.40066812  1.06164363  0.11984508  1.0
  F  F21  1  0.06164363  0.59933188  0.61984508  1.0
  F  F22  1  0.02047841  0.97952159  0.01906354  1.0
  F  F23  1  -0.02047841  1.02047841  0.51906354  1.0
