# generated using pymatgen
data_LiH4SNO4
_symmetry_space_group_name_H-M   'P 1'
_cell_length_a   8.96997515
_cell_length_b   9.36934988
_cell_length_c   5.26831487
_cell_angle_alpha   90.00000000
_cell_angle_beta   90.00000000
_cell_angle_gamma   90.00000000
_symmetry_Int_Tables_number   1
_chemical_formula_structural   LiH4SNO4
_chemical_formula_sum   'Li4 H16 S4 N4 O16'
_cell_volume   442.76412069
_cell_formula_units_Z   4
loop_
 _symmetry_equiv_pos_site_id
 _symmetry_equiv_pos_as_xyz
  1  'x, y, z'
loop_
 _atom_site_type_symbol
 _atom_site_label
 _atom_site_symmetry_multiplicity
 _atom_site_fract_x
 _atom_site_fract_y
 _atom_site_fract_z
 _atom_site_occupancy
  Li  Li0  1  0.17155500  0.90758764  0.51848041  1.0
  Li  Li1  1  0.67155500  0.59241236  0.51848041  1.0
  Li  Li2  1  0.82844500  0.09241236  0.01848041  1.0
  Li  Li3  1  0.32844500  0.40758764  0.01848041  1.0
  H  H4  1  0.48983486  0.70626823  0.87301818  1.0
  H  H5  1  0.98983486  0.79373177  0.87301818  1.0
  H  H6  1  0.51016514  0.29373177  0.37301818  1.0
  H  H7  1  0.01016514  0.20626823  0.37301818  1.0
  H  H8  1  0.48070733  0.22915282  0.66965100  1.0
  H  H9  1  0.98070733  0.27084718  0.66965100  1.0
  H  H10  1  0.51929267  0.77084718  0.16965100  1.0
  H  H11  1  0.01929267  0.72915282  0.16965100  1.0
  H  H12  1  0.40249602  0.85691266  0.96217983  1.0
  H  H13  1  0.90249602  0.64308734  0.96217983  1.0
  H  H14  1  0.59750398  0.14308734  0.46217983  1.0
  H  H15  1  0.09750398  0.35691266  0.46217983  1.0
  H  H16  1  0.09179778  0.64475769  0.91448202  1.0
  H  H17  1  0.59179778  0.85524231  0.91448202  1.0
  H  H18  1  0.90820222  0.35524231  0.41448202  1.0
  H  H19  1  0.40820222  0.14475769  0.41448202  1.0
  S  S20  1  0.29247241  0.58174677  0.52238367  1.0
  S  S21  1  0.79247241  0.91825323  0.52238367  1.0
  S  S22  1  0.70752759  0.41825323  0.02238367  1.0
  S  S23  1  0.20752759  0.08174677  0.02238367  1.0
  N  N24  1  0.50023601  0.79702120  0.98272143  1.0
  N  N25  1  0.00023601  0.70297880  0.98272143  1.0
  N  N26  1  0.49976399  0.20297880  0.48272143  1.0
  N  N27  1  0.99976399  0.29702120  0.48272143  1.0
  O  O28  1  0.45616142  0.60872294  0.52314680  1.0
  O  O29  1  0.95616142  0.89127706  0.52314680  1.0
  O  O30  1  0.54383858  0.39127706  1.02314680  1.0
  O  O31  1  0.04383858  0.10872294  1.02314680  1.0
  O  O32  1  0.28822793  0.20972089  0.92810773  1.0
  O  O33  1  0.78822793  0.29027911  0.92810773  1.0
  O  O34  1  0.71177207  0.79027911  0.42810773  1.0
  O  O35  1  0.21177207  0.70972089  0.42810773  1.0
  O  O36  1  0.24264884  0.95521105  0.85758580  1.0
  O  O37  1  0.74264884  0.54478895  0.85758580  1.0
  O  O38  1  0.75735116  0.04478895  0.35758580  1.0
  O  O39  1  0.25735116  0.45521105  0.35758580  1.0
  O  O40  1  0.24244543  0.54821370  0.78894314  1.0
  O  O41  1  0.74244543  0.95178630  0.78894314  1.0
  O  O42  1  0.75755457  0.45178630  0.28894314  1.0
  O  O43  1  0.25755457  0.04821370  0.28894314  1.0
