# generated using pymatgen
data_RbCuO
_symmetry_space_group_name_H-M   'P 1'
_cell_length_a   7.41023465
_cell_length_b   7.41023465
_cell_length_c   7.41023465
_cell_angle_alpha   99.12065908
_cell_angle_beta   99.12065908
_cell_angle_gamma   133.07631066
_symmetry_Int_Tables_number   1
_chemical_formula_structural   RbCuO
_chemical_formula_sum   'Rb4 Cu4 O4'
_cell_volume   272.65072711
_cell_formula_units_Z   4
loop_
 _symmetry_equiv_pos_site_id
 _symmetry_equiv_pos_as_xyz
  1  'x, y, z'
loop_
 _atom_site_type_symbol
 _atom_site_label
 _atom_site_symmetry_multiplicity
 _atom_site_fract_x
 _atom_site_fract_y
 _atom_site_fract_z
 _atom_site_occupancy
  Rb  Rb0  1  0.50002041  1.19578996  0.69576955  1.0
  Rb  Rb1  1  1.19574914  1.49997959  0.69576955  1.0
  Rb  Rb2  1  1.80421004  1.49997959  1.30423045  1.0
  Rb  Rb3  1  0.50002041  0.80425086  0.30423045  1.0
  Cu  Cu4  1  0.86463512  0.86463512  0.72927023  1.0
  Cu  Cu5  1  1.13536488  0.86463512  1.00000000  1.0
  Cu  Cu6  1  0.86463512  0.13536488  1.00000000  1.0
  Cu  Cu7  1  0.13536488  0.13536488  0.27072977  1.0
  O  O8  1  0.99991364  1.72878684  0.72887320  1.0
  O  O9  1  0.72895956  1.00008636  0.72887320  1.0
  O  O10  1  1.27121316  1.00008636  1.27112680  1.0
  O  O11  1  0.99991364  1.27104044  0.27112680  1.0
