# generated using pymatgen
data_Cs2MgH4
_symmetry_space_group_name_H-M   'P 1'
_cell_length_a   8.64689033
_cell_length_b   6.62972529
_cell_length_c   11.70410098
_cell_angle_alpha   90.00000000
_cell_angle_beta   90.00000000
_cell_angle_gamma   90.00000000
_symmetry_Int_Tables_number   1
_chemical_formula_structural   Cs2MgH4
_chemical_formula_sum   'Cs8 Mg4 H16'
_cell_volume   670.95523221
_cell_formula_units_Z   4
loop_
 _symmetry_equiv_pos_site_id
 _symmetry_equiv_pos_as_xyz
  1  'x, y, z'
loop_
 _atom_site_type_symbol
 _atom_site_label
 _atom_site_symmetry_multiplicity
 _atom_site_fract_x
 _atom_site_fract_y
 _atom_site_fract_z
 _atom_site_occupancy
  Cs  Cs0  1  0.84135642  0.75000000  0.41332154  1.0
  Cs  Cs1  1  0.34135642  0.75000000  0.08667846  1.0
  Cs  Cs2  1  0.15864358  0.25000000  0.58667846  1.0
  Cs  Cs3  1  0.65864358  0.25000000  0.91332154  1.0
  Cs  Cs4  1  0.50943740  0.75000000  0.69490258  1.0
  Cs  Cs5  1  0.00943740  0.75000000  0.80509742  1.0
  Cs  Cs6  1  0.49056260  0.25000000  0.30509742  1.0
  Cs  Cs7  1  0.99056260  0.25000000  0.19490258  1.0
  Mg  Mg8  1  0.76959842  0.75000000  0.08140110  1.0
  Mg  Mg9  1  0.26959842  0.75000000  0.41859890  1.0
  Mg  Mg10  1  0.23040158  0.25000000  0.91859890  1.0
  Mg  Mg11  1  0.73040158  0.25000000  0.58140110  1.0
  H  H12  1  0.69180848  0.97993101  0.15157653  1.0
  H  H13  1  0.69180848  0.52006899  0.15157653  1.0
  H  H14  1  0.19180848  0.97993101  0.34842347  1.0
  H  H15  1  0.19180848  0.52006899  0.34842347  1.0
  H  H16  1  0.30819152  0.47993101  0.84842347  1.0
  H  H17  1  0.30819152  0.02006899  0.84842347  1.0
  H  H18  1  0.80819152  0.47993101  0.65157653  1.0
  H  H19  1  0.80819152  0.02006899  0.65157653  1.0
  H  H20  1  0.98377958  0.75000000  0.08515229  1.0
  H  H21  1  0.48377958  0.75000000  0.41484771  1.0
  H  H22  1  0.01622042  0.25000000  0.91484771  1.0
  H  H23  1  0.51622042  0.25000000  0.58515229  1.0
  H  H24  1  0.19110125  0.75000000  0.56752772  1.0
  H  H25  1  0.69110125  0.75000000  0.93247228  1.0
  H  H26  1  0.80889875  0.25000000  0.43247228  1.0
  H  H27  1  0.30889875  0.25000000  0.06752772  1.0
