# generated using pymatgen
data_CsReCl4
_symmetry_space_group_name_H-M   'P 1'
_cell_length_a   10.16351167
_cell_length_b   10.16351167
_cell_length_c   11.08729329
_cell_angle_alpha   90.00000000
_cell_angle_beta   90.00000000
_cell_angle_gamma   89.16564000
_symmetry_Int_Tables_number   1
_chemical_formula_structural   CsReCl4
_chemical_formula_sum   'Cs6 Re6 Cl24'
_cell_volume   1145.16236356
_cell_formula_units_Z   6
loop_
 _symmetry_equiv_pos_site_id
 _symmetry_equiv_pos_as_xyz
  1  'x, y, z'
loop_
 _atom_site_type_symbol
 _atom_site_label
 _atom_site_symmetry_multiplicity
 _atom_site_fract_x
 _atom_site_fract_y
 _atom_site_fract_z
 _atom_site_occupancy
  Cs  Cs0  1  -0.47863472  1.29875692  0.25000000  1.0
  Cs  Cs1  1  -0.29875692  1.47863472  0.75000000  1.0
  Cs  Cs2  1  0.55626834  0.80650095  0.25000000  1.0
  Cs  Cs3  1  0.19349905  0.44373166  0.75000000  1.0
  Cs  Cs4  1  -0.00251395  0.00251395  0.50000000  1.0
  Cs  Cs5  1  -0.00251395  0.00251395  0.00000000  1.0
  Re  Re6  1  -0.01158633  1.45114076  0.36093506  1.0
  Re  Re7  1  -0.45114076  1.01158633  0.86093506  1.0
  Re  Re8  1  -0.45114076  1.01158633  0.63906494  1.0
  Re  Re9  1  -0.01158633  1.45114076  0.13906494  1.0
  Re  Re10  1  0.08279459  0.63722239  0.25000000  1.0
  Re  Re11  1  0.36277761  0.91720541  0.75000000  1.0
  Cl  Cl12  1  0.08138268  0.63555256  0.46868183  1.0
  Cl  Cl13  1  0.36444744  0.91861732  0.96868183  1.0
  Cl  Cl14  1  0.36444744  0.91861732  0.53131817  1.0
  Cl  Cl15  1  0.08138268  0.63555256  0.03131817  1.0
  Cl  Cl16  1  -0.34021523  1.06417751  0.43229350  1.0
  Cl  Cl17  1  -0.06417751  1.34021523  0.93229350  1.0
  Cl  Cl18  1  -0.06417751  1.34021523  0.56770650  1.0
  Cl  Cl19  1  -0.34021523  1.06417751  0.06770650  1.0
  Cl  Cl20  1  -0.22429234  1.53279532  0.39640541  1.0
  Cl  Cl21  1  -0.53279532  1.22429234  0.89640541  1.0
  Cl  Cl22  1  -0.53279532  1.22429234  0.60359459  1.0
  Cl  Cl23  1  -0.22429234  1.53279532  0.10359459  1.0
  Cl  Cl24  1  0.17889141  0.32752887  0.39490738  1.0
  Cl  Cl25  1  0.67247113  0.82110859  0.89490738  1.0
  Cl  Cl26  1  0.67247113  0.82110859  0.60509262  1.0
  Cl  Cl27  1  0.17889141  0.32752887  0.10509262  1.0
  Cl  Cl28  1  0.30360328  0.57155552  0.25000000  1.0
  Cl  Cl29  1  0.42844448  0.69639672  0.75000000  1.0
  Cl  Cl30  1  -0.09979177  1.77917406  0.25000000  1.0
  Cl  Cl31  1  -0.77917406  1.09979177  0.75000000  1.0
  Cl  Cl32  1  -0.10449313  1.26818481  0.25000000  1.0
  Cl  Cl33  1  -0.26818481  1.10449313  0.75000000  1.0
  Cl  Cl34  1  0.19487832  0.86557273  0.25000000  1.0
  Cl  Cl35  1  0.13442727  0.80512168  0.75000000  1.0
