# generated using pymatgen
data_GeAsSe
_symmetry_space_group_name_H-M   'P 1'
_cell_length_a   5.13739664
_cell_length_b   10.38063628
_cell_length_c   12.93957545
_cell_angle_alpha   90.00000000
_cell_angle_beta   90.00000000
_cell_angle_gamma   90.00000000
_symmetry_Int_Tables_number   1
_chemical_formula_structural   GeAsSe
_chemical_formula_sum   'Ge8 As8 Se8'
_cell_volume   690.06038989
_cell_formula_units_Z   8
loop_
 _symmetry_equiv_pos_site_id
 _symmetry_equiv_pos_as_xyz
  1  'x, y, z'
loop_
 _atom_site_type_symbol
 _atom_site_label
 _atom_site_symmetry_multiplicity
 _atom_site_fract_x
 _atom_site_fract_y
 _atom_site_fract_z
 _atom_site_occupancy
  Ge  Ge0  1  0.20152323  0.75000000  0.25000000  1.0
  Ge  Ge1  1  0.70152323  0.75000000  0.75000000  1.0
  Ge  Ge2  1  0.79847677  0.25000000  0.75000000  1.0
  Ge  Ge3  1  0.29847677  0.25000000  0.25000000  1.0
  Ge  Ge4  1  0.25000000  0.00000000  0.73164699  1.0
  Ge  Ge5  1  0.25000000  0.50000000  0.76835301  1.0
  Ge  Ge6  1  0.75000000  0.00000000  0.26835301  1.0
  Ge  Ge7  1  0.75000000  0.50000000  0.23164699  1.0
  As  As8  1  0.42157966  0.91566131  0.14136154  1.0
  As  As9  1  0.42157966  0.58433869  0.35863846  1.0
  As  As10  1  0.92157966  0.91566131  0.85863846  1.0
  As  As11  1  0.92157966  0.58433869  0.64136154  1.0
  As  As12  1  0.57842034  0.41566131  0.64136154  1.0
  As  As13  1  0.57842034  0.08433869  0.85863846  1.0
  As  As14  1  0.07842034  0.41566131  0.35863846  1.0
  As  As15  1  0.07842034  0.08433869  0.14136154  1.0
  Se  Se16  1  0.42741874  0.84171730  0.61778623  1.0
  Se  Se17  1  0.42741874  0.65828270  0.88221377  1.0
  Se  Se18  1  0.92741874  0.84171730  0.38221377  1.0
  Se  Se19  1  0.92741874  0.65828270  0.11778623  1.0
  Se  Se20  1  0.57258126  0.34171730  0.11778623  1.0
  Se  Se21  1  0.57258126  0.15828270  0.38221377  1.0
  Se  Se22  1  0.07258126  0.34171730  0.88221377  1.0
  Se  Se23  1  0.07258126  0.15828270  0.61778623  1.0
