# generated using pymatgen
data_In2Si(AgS3)2
_symmetry_space_group_name_H-M   'P 1'
_cell_length_a   7.18450279
_cell_length_b   7.18450279
_cell_length_c   12.35954767
_cell_angle_alpha   73.41720436
_cell_angle_beta   106.58279564
_cell_angle_gamma   119.18787872
_symmetry_Int_Tables_number   1
_chemical_formula_structural   In2Si(AgS3)2
_chemical_formula_sum   'In4 Si2 Ag4 S12'
_cell_volume   525.57985068
_cell_formula_units_Z   2
loop_
 _symmetry_equiv_pos_site_id
 _symmetry_equiv_pos_as_xyz
  1  'x, y, z'
loop_
 _atom_site_type_symbol
 _atom_site_label
 _atom_site_symmetry_multiplicity
 _atom_site_fract_x
 _atom_site_fract_y
 _atom_site_fract_z
 _atom_site_occupancy
  In  In0  1  1.07428835  -0.19829624  0.69869629  1.0
  In  In1  1  1.19829624  -0.07428835  0.19869629  1.0
  In  In2  1  1.21466094  -0.40894666  0.50009373  1.0
  In  In3  1  1.40894666  -0.21466094  0.00009373  1.0
  Si  Si4  1  0.83961534  0.70586153  0.94259943  1.0
  Si  Si5  1  0.29413847  0.16038466  0.44259943  1.0
  Ag  Ag6  1  0.70496019  0.11329940  0.69705335  1.0
  Ag  Ag7  1  0.88670060  0.29503981  0.19705335  1.0
  Ag  Ag8  1  1.29318012  -0.70006775  0.85038568  1.0
  Ag  Ag9  1  1.70006775  -0.29318012  0.35038568  1.0
  S  S10  1  -0.01135598  -0.00860201  0.49758937  1.0
  S  S11  1  1.00860201  1.01135598  -0.00241063  1.0
  S  S12  1  1.74617998  -0.24951050  0.76014346  1.0
  S  S13  1  1.24951050  -0.74617998  0.26014346  1.0
  S  S14  1  0.48450104  0.45363266  0.51368614  1.0
  S  S15  1  0.54636734  0.51549896  0.01368614  1.0
  S  S16  1  1.01080338  -0.48722120  0.99516769  1.0
  S  S17  1  1.48722120  -0.01080338  0.49516769  1.0
  S  S18  1  1.06601628  -0.54542570  0.68341811  1.0
  S  S19  1  1.54542570  -0.06601628  0.18341811  1.0
  S  S20  1  0.41834613  0.04347225  0.81266676  1.0
  S  S21  1  0.95652775  0.58165387  0.31266676  1.0
