# generated using pymatgen
data_CsGa3S5
_symmetry_space_group_name_H-M   'P 1'
_cell_length_a   11.03792278
_cell_length_b   12.95482523
_cell_length_c   7.07488153
_cell_angle_alpha   90.00000000
_cell_angle_beta   90.98277816
_cell_angle_gamma   90.00000000
_symmetry_Int_Tables_number   1
_chemical_formula_structural   CsGa3S5
_chemical_formula_sum   'Cs4 Ga12 S20'
_cell_volume   1011.51933992
_cell_formula_units_Z   4
loop_
 _symmetry_equiv_pos_site_id
 _symmetry_equiv_pos_as_xyz
  1  'x, y, z'
loop_
 _atom_site_type_symbol
 _atom_site_label
 _atom_site_symmetry_multiplicity
 _atom_site_fract_x
 _atom_site_fract_y
 _atom_site_fract_z
 _atom_site_occupancy
  Cs  Cs0  1  0.64276204  0.41466917  0.86900479  1.0
  Cs  Cs1  1  0.64276204  0.08533083  0.36900479  1.0
  Cs  Cs2  1  0.35723796  0.91466917  0.63099521  1.0
  Cs  Cs3  1  0.35723796  0.58533083  0.13099521  1.0
  Ga  Ga4  1  0.98391440  0.77378746  0.76534351  1.0
  Ga  Ga5  1  0.98391440  0.72621254  0.26534351  1.0
  Ga  Ga6  1  0.01608560  0.27378746  0.73465649  1.0
  Ga  Ga7  1  0.01608560  0.22621254  0.23465649  1.0
  Ga  Ga8  1  0.87240230  0.46270213  0.39832431  1.0
  Ga  Ga9  1  0.87240230  0.03729787  0.89832431  1.0
  Ga  Ga10  1  0.12759770  0.96270213  0.10167569  1.0
  Ga  Ga11  1  0.12759770  0.53729787  0.60167569  1.0
  Ga  Ga12  1  0.67374937  0.80076120  0.98640441  1.0
  Ga  Ga13  1  0.67374937  0.69923880  0.48640441  1.0
  Ga  Ga14  1  0.32625063  0.30076120  0.51359559  1.0
  Ga  Ga15  1  0.32625063  0.19923880  0.01359559  1.0
  S  S16  1  0.95690844  0.44612540  0.70752011  1.0
  S  S17  1  0.95690844  0.05387460  0.20752011  1.0
  S  S18  1  0.04309156  0.94612540  0.79247989  1.0
  S  S19  1  0.04309156  0.55387460  0.29247989  1.0
  S  S20  1  0.86087070  0.70975435  0.99828212  1.0
  S  S21  1  0.86087070  0.79024565  0.49828212  1.0
  S  S22  1  0.13912930  0.20975435  0.50171788  1.0
  S  S23  1  0.13912930  0.29024565  0.00171788  1.0
  S  S24  1  0.84005605  0.18816777  0.74608610  1.0
  S  S25  1  0.84005605  0.31183223  0.24608610  1.0
  S  S26  1  0.15994395  0.68816777  0.75391390  1.0
  S  S27  1  0.15994395  0.81183223  0.25391390  1.0
  S  S28  1  0.68598984  0.96790189  0.88343297  1.0
  S  S29  1  0.68598984  0.53209811  0.38343297  1.0
  S  S30  1  0.31401016  0.46790189  0.61656703  1.0
  S  S31  1  0.31401016  0.03209811  0.11656703  1.0
  S  S32  1  0.57069718  0.70335259  0.76547130  1.0
  S  S33  1  0.57069718  0.79664741  0.26547130  1.0
  S  S34  1  0.42930282  0.20335259  0.73452870  1.0
  S  S35  1  0.42930282  0.29664741  0.23452870  1.0
