# generated using pymatgen
data_Ba3Ga3Ge2SbO14
_symmetry_space_group_name_H-M   'P 1'
_cell_length_a   8.71210829
_cell_length_b   8.71210829
_cell_length_c   5.28762409
_cell_angle_alpha   90.00000000
_cell_angle_beta   90.00000000
_cell_angle_gamma   120.00000000
_symmetry_Int_Tables_number   1
_chemical_formula_structural   Ba3Ga3Ge2SbO14
_chemical_formula_sum   'Ba3 Ga3 Ge2 Sb1 O14'
_cell_volume   347.56635817
_cell_formula_units_Z   1
loop_
 _symmetry_equiv_pos_site_id
 _symmetry_equiv_pos_as_xyz
  1  'x, y, z'
loop_
 _atom_site_type_symbol
 _atom_site_label
 _atom_site_symmetry_multiplicity
 _atom_site_fract_x
 _atom_site_fract_y
 _atom_site_fract_z
 _atom_site_occupancy
  Ba  Ba0  1  0.43048129  0.43048129  -0.00000000  1.0
  Ba  Ba1  1  0.00000000  0.56951871  -0.00000000  1.0
  Ba  Ba2  1  0.56951871  -0.00000000  -0.00000000  1.0
  Ga  Ga3  1  0.75427076  0.75427076  0.50000000  1.0
  Ga  Ga4  1  0.00000000  0.24572924  0.50000000  1.0
  Ga  Ga5  1  0.24572924  -0.00000000  0.50000000  1.0
  Ge  Ge6  1  0.33333333  0.66666667  0.51510143  1.0
  Ge  Ge7  1  0.66666667  0.33333333  0.48489857  1.0
  Sb  Sb8  1  0.00000000  0.00000000  0.00000000  1.0
  O  O9  1  0.09874651  0.88282650  0.22689336  1.0
  O  O10  1  0.88282650  0.09874651  0.77310664  1.0
  O  O11  1  0.78407999  0.90125349  0.22689336  1.0
  O  O12  1  0.11717350  0.21592001  0.22689336  1.0
  O  O13  1  0.90125349  0.78407999  0.77310664  1.0
  O  O14  1  0.21592001  0.11717350  0.77310664  1.0
  O  O15  1  0.70598087  0.53730307  0.34429969  1.0
  O  O16  1  0.53730307  0.70598087  0.65570031  1.0
  O  O17  1  0.83132220  0.29401913  0.34429969  1.0
  O  O18  1  0.46269693  0.16867780  0.34429969  1.0
  O  O19  1  0.29401913  0.83132220  0.65570031  1.0
  O  O20  1  0.16867780  0.46269693  0.65570031  1.0
  O  O21  1  0.33333333  0.66666667  0.18768604  1.0
  O  O22  1  0.66666667  0.33333333  0.81231396  1.0
