# generated using pymatgen
data_Ca2Al2O5
_symmetry_space_group_name_H-M   'P 1'
_cell_length_a   8.17585627
_cell_length_b   8.17585627
_cell_length_c   8.17585627
_cell_angle_alpha   55.41593039
_cell_angle_beta   140.95150505
_cell_angle_gamma   142.27923301
_symmetry_Int_Tables_number   1
_chemical_formula_structural   Ca2Al2O5
_chemical_formula_sum   'Ca4 Al4 O10'
_cell_volume   209.09063820
_cell_formula_units_Z   2
loop_
 _symmetry_equiv_pos_site_id
 _symmetry_equiv_pos_as_xyz
  1  'x, y, z'
loop_
 _atom_site_type_symbol
 _atom_site_label
 _atom_site_symmetry_multiplicity
 _atom_site_fract_x
 _atom_site_fract_y
 _atom_site_fract_z
 _atom_site_occupancy
  Ca  Ca0  1  0.47912402  0.89759369  1.36657603  1.0
  Ca  Ca1  1  0.53101766  1.39759369  0.91846967  1.0
  Ca  Ca2  1  0.47912402  0.61254798  1.08153033  1.0
  Ca  Ca3  1  0.53101766  1.11254798  0.63342397  1.0
  Al  Al4  1  0.97223704  0.79691749  1.67531955  1.0
  Al  Al5  1  1.12159794  1.29691749  1.32468045  1.0
  Al  Al6  1  -0.00191875  -0.00191875  -0.00000000  1.0
  Al  Al7  1  0.99808125  0.49808125  0.50000000  1.0
  O  O8  1  1.00156922  1.23827496  1.74163659  1.0
  O  O9  1  1.49663837  1.73827496  1.73670574  1.0
  O  O10  1  1.00156922  0.75993263  1.26329426  1.0
  O  O11  1  1.49663837  1.25993263  1.25836341  1.0
  O  O12  1  0.92384259  1.34080843  1.30026794  1.0
  O  O13  1  1.04054048  1.84080843  0.91696584  1.0
  O  O14  1  0.92384259  1.12357464  1.08303416  1.0
  O  O15  1  1.04054048  1.62357464  0.69973206  1.0
  O  O16  1  1.24773193  1.13376891  1.61396302  1.0
  O  O17  1  1.51980589  1.63376891  1.38603698  1.0
