# generated using pymatgen
data_K2MnS2
_symmetry_space_group_name_H-M   'P 1'
_cell_length_a   7.89053323
_cell_length_b   7.89053323
_cell_length_c   7.89053323
_cell_angle_alpha   127.72111529
_cell_angle_beta   72.98436479
_cell_angle_gamma   132.90728988
_symmetry_Int_Tables_number   1
_chemical_formula_structural   K2MnS2
_chemical_formula_sum   'K4 Mn2 S4'
_cell_volume   278.04229062
_cell_formula_units_Z   2
loop_
 _symmetry_equiv_pos_site_id
 _symmetry_equiv_pos_as_xyz
  1  'x, y, z'
loop_
 _atom_site_type_symbol
 _atom_site_label
 _atom_site_symmetry_multiplicity
 _atom_site_fract_x
 _atom_site_fract_y
 _atom_site_fract_z
 _atom_site_occupancy
  K  K0  1  0.14701625  0.34152090  0.48853715  1.0
  K  K1  1  0.35298375  0.84152090  1.19450466  1.0
  K  K2  1  0.64701625  1.15847910  0.80549534  1.0
  K  K3  1  0.85298375  0.65847910  0.51146285  1.0
  Mn  Mn4  1  0.25000000  0.25000000  0.00000000  1.0
  Mn  Mn5  1  0.75000000  0.75000000  0.00000000  1.0
  S  S6  1  0.39834457  0.30684744  0.70519201  1.0
  S  S7  1  0.10165543  0.80684744  0.90850288  1.0
  S  S8  1  0.89834457  1.19315256  1.09149712  1.0
  S  S9  1  0.60165543  0.69315256  0.29480799  1.0
