# generated using pymatgen
data_Sr4As2O
_symmetry_space_group_name_H-M   'P 1'
_cell_length_a   8.91930800
_cell_length_b   8.91930800
_cell_length_c   8.91930800
_cell_angle_alpha   148.30400543
_cell_angle_beta   148.30400543
_cell_angle_gamma   45.43679222
_symmetry_Int_Tables_number   1
_chemical_formula_structural   Sr4As2O
_chemical_formula_sum   'Sr4 As2 O1'
_cell_volume   195.24457327
_cell_formula_units_Z   1
loop_
 _symmetry_equiv_pos_site_id
 _symmetry_equiv_pos_as_xyz
  1  'x, y, z'
loop_
 _atom_site_type_symbol
 _atom_site_label
 _atom_site_symmetry_multiplicity
 _atom_site_fract_x
 _atom_site_fract_y
 _atom_site_fract_z
 _atom_site_occupancy
  Sr  Sr0  1  0.82622086  0.82622086  1.00000000  1.0
  Sr  Sr1  1  0.17377914  0.17377914  -0.00000000  1.0
  Sr  Sr2  1  0.50000000  0.00000000  0.50000000  1.0
  Sr  Sr3  1  0.00000000  0.50000000  0.50000000  1.0
  As  As4  1  0.63611231  0.63611231  1.00000000  1.0
  As  As5  1  0.36388769  0.36388769  -0.00000000  1.0
  O  O6  1  0.00000000  0.00000000  0.00000000  1.0
