# generated using pymatgen
data_K3B3O10
_symmetry_space_group_name_H-M   'P 1'
_cell_length_a   7.45834011
_cell_length_b   14.70269570
_cell_length_c   8.97197734
_cell_angle_alpha   90.00000000
_cell_angle_beta   90.00000000
_cell_angle_gamma   90.00000000
_symmetry_Int_Tables_number   1
_chemical_formula_structural   K3B3O10
_chemical_formula_sum   'K12 B12 O40'
_cell_volume   983.84644522
_cell_formula_units_Z   4
loop_
 _symmetry_equiv_pos_site_id
 _symmetry_equiv_pos_as_xyz
  1  'x, y, z'
loop_
 _atom_site_type_symbol
 _atom_site_label
 _atom_site_symmetry_multiplicity
 _atom_site_fract_x
 _atom_site_fract_y
 _atom_site_fract_z
 _atom_site_occupancy
  O  O0  1  0.95814125  0.85071588  0.47868560  1.0
  O  O1  1  0.45814125  0.64928412  0.47868560  1.0
  O  O2  1  0.04185875  0.14928412  0.97868560  1.0
  O  O3  1  0.54185875  0.35071588  0.97868560  1.0
  O  O4  1  0.54255270  0.64921801  -0.02121585  1.0
  O  O5  1  0.04255270  0.85078199  -0.02121585  1.0
  O  O6  1  0.45744730  0.35078199  0.47878415  1.0
  O  O7  1  0.95744730  0.14921801  0.47878415  1.0
  O  O8  1  0.71343008  0.64756957  0.35881565  1.0
  O  O9  1  0.21343008  0.85243043  0.35881565  1.0
  O  O10  1  0.28656992  0.35243043  0.85881565  1.0
  O  O11  1  0.78656992  0.14756957  0.85881565  1.0
  O  O12  1  0.78700871  0.85251771  0.85897047  1.0
  O  O13  1  0.28700871  0.64748229  0.85897047  1.0
  O  O14  1  0.21299129  0.14748229  0.35897047  1.0
  O  O15  1  0.71299129  0.35251771  0.35897047  1.0
  O  O16  1  0.78636962  0.14753437  0.09838931  1.0
  O  O17  1  0.28636962  0.35246563  0.09838931  1.0
  O  O18  1  0.21363038  0.85246563  0.59838931  1.0
  O  O19  1  0.71363038  0.64753437  0.59838931  1.0
  O  O20  1  0.78682144  0.85262121  0.09846259  1.0
  O  O21  1  0.28682144  0.64737879  0.09846259  1.0
  O  O22  1  0.21317856  0.14737879  0.59846259  1.0
  O  O23  1  0.71317856  0.35262121  0.59846259  1.0
  O  O24  1  0.75147461  1.00009498  0.47826050  1.0
  O  O25  1  0.25147461  0.49990502  0.47826050  1.0
  O  O26  1  0.24852539  -0.00009498  0.97826050  1.0
  O  O27  1  0.74852539  0.50009498  0.97826050  1.0
  O  O28  1  0.69460960  0.50009009  0.47853970  1.0
  O  O29  1  0.19460960  0.99990991  0.47853970  1.0
  O  O30  1  0.30539040  0.49990991  0.97853970  1.0
  O  O31  1  0.80539040  0.00009009  0.97853970  1.0
  O  O32  1  0.52335190  0.91711156  0.97851355  1.0
  O  O33  1  0.02335190  0.58288844  0.97851355  1.0
  O  O34  1  0.47664810  0.08288844  0.47851355  1.0
  O  O35  1  0.97664810  0.41711156  0.47851355  1.0
  O  O36  1  0.97690741  0.58284475  0.47843754  1.0
  O  O37  1  0.47690741  0.91715525  0.47843754  1.0
  O  O38  1  0.02309259  0.41715525  0.97843754  1.0
  O  O39  1  0.52309259  0.08284475  0.97843754  1.0
  K  K40  1  0.50028093  0.77864215  0.72870160  1.0
  K  K41  1  0.00028093  0.72135785  0.72870160  1.0
  K  K42  1  0.49971907  0.22135785  0.22870160  1.0
  K  K43  1  0.99971907  0.27864215  0.22870160  1.0
  K  K44  1  0.50030422  0.49997086  0.22841176  1.0
  K  K45  1  0.00030422  1.00002914  0.22841176  1.0
  K  K46  1  0.49969578  0.50002914  0.72841176  1.0
  K  K47  1  0.99969578  -0.00002914  0.72841176  1.0
  K  K48  1  1.00006898  0.72137263  0.22847145  1.0
  K  K49  1  0.50006898  0.77862737  0.22847145  1.0
  K  K50  1  -0.00006898  0.27862737  0.72847145  1.0
  K  K51  1  0.49993102  0.22137263  0.72847145  1.0
  B  B52  1  0.56854733  1.00006079  0.47839087  1.0
  B  B53  1  0.06854733  0.49993921  0.47839087  1.0
  B  B54  1  0.43145267  -0.00006079  0.97839087  1.0
  B  B55  1  0.93145267  0.50006079  0.97839087  1.0
  B  B56  1  0.72155862  0.91222402  0.97861959  1.0
  B  B57  1  0.22155862  0.58777598  0.97861959  1.0
  B  B58  1  0.27844138  0.08777598  0.47861959  1.0
  B  B59  1  0.77844138  0.41222402  0.47861959  1.0
  B  B60  1  0.77873980  0.58788269  0.47854568  1.0
  B  B61  1  0.27873980  0.91211731  0.47854568  1.0
  B  B62  1  0.22126020  0.41211731  -0.02145432  1.0
  B  B63  1  0.72126020  0.08788269  -0.02145432  1.0
