# generated using pymatgen
data_CsP7
_symmetry_space_group_name_H-M   'P 1'
_cell_length_a   9.55777693
_cell_length_b   9.79743142
_cell_length_c   9.81206634
_cell_angle_alpha   90.00000000
_cell_angle_beta   90.00000000
_cell_angle_gamma   90.00000000
_symmetry_Int_Tables_number   1
_chemical_formula_structural   CsP7
_chemical_formula_sum   'Cs4 P28'
_cell_volume   918.81821953
_cell_formula_units_Z   4
loop_
 _symmetry_equiv_pos_site_id
 _symmetry_equiv_pos_as_xyz
  1  'x, y, z'
loop_
 _atom_site_type_symbol
 _atom_site_label
 _atom_site_symmetry_multiplicity
 _atom_site_fract_x
 _atom_site_fract_y
 _atom_site_fract_z
 _atom_site_occupancy
  Cs  Cs0  1  0.28941615  0.75000000  0.00000000  1.0
  Cs  Cs1  1  0.28941615  0.75000000  0.50000000  1.0
  Cs  Cs2  1  0.71058385  0.25000000  0.00000000  1.0
  Cs  Cs3  1  0.71058385  0.25000000  0.50000000  1.0
  P  P4  1  0.89047550  0.68378969  0.90714538  1.0
  P  P5  1  0.89047550  0.68378969  0.59285462  1.0
  P  P6  1  0.89047550  0.81621031  0.40714538  1.0
  P  P7  1  0.89047550  0.81621031  0.09285462  1.0
  P  P8  1  0.10952450  0.18378969  0.90714538  1.0
  P  P9  1  0.10952450  0.18378969  0.59285462  1.0
  P  P10  1  0.10952450  0.31621031  0.40714538  1.0
  P  P11  1  0.10952450  0.31621031  0.09285462  1.0
  P  P12  1  0.66812755  0.63272671  0.86473470  1.0
  P  P13  1  0.66812755  0.63272671  0.63526530  1.0
  P  P14  1  0.66812755  0.86727329  0.36473470  1.0
  P  P15  1  0.66812755  0.86727329  0.13526530  1.0
  P  P16  1  0.33187245  0.13272671  0.86473470  1.0
  P  P17  1  0.33187245  0.13272671  0.63526530  1.0
  P  P18  1  0.33187245  0.36727329  0.36473470  1.0
  P  P19  1  0.33187245  0.36727329  0.13526530  1.0
  P  P20  1  0.93093589  0.84378674  0.75000000  1.0
  P  P21  1  0.93093589  0.65621326  0.25000000  1.0
  P  P22  1  0.06906411  0.34378674  0.75000000  1.0
  P  P23  1  0.06906411  0.15621326  0.25000000  1.0
  P  P24  1  0.74750798  0.97195272  0.75000000  1.0
  P  P25  1  0.74750798  0.52804728  0.25000000  1.0
  P  P26  1  0.25249202  0.47195272  0.75000000  1.0
  P  P27  1  0.25249202  0.02804728  0.25000000  1.0
  P  P28  1  0.58849665  0.81673655  0.75000000  1.0
  P  P29  1  0.58849665  0.68326345  0.25000000  1.0
  P  P30  1  0.41150335  0.31673655  0.75000000  1.0
  P  P31  1  0.41150335  0.18326345  0.25000000  1.0
