# generated using pymatgen
data_Fe3O7
_symmetry_space_group_name_H-M   'P 1'
_cell_length_a   5.93972106
_cell_length_b   5.93972106
_cell_length_c   5.93972106
_cell_angle_alpha   109.47122063
_cell_angle_beta   109.47122063
_cell_angle_gamma   109.47122063
_symmetry_Int_Tables_number   1
_chemical_formula_structural   Fe3O7
_chemical_formula_sum   'Fe6 O14'
_cell_volume   161.31556026
_cell_formula_units_Z   2
loop_
 _symmetry_equiv_pos_site_id
 _symmetry_equiv_pos_as_xyz
  1  'x, y, z'
loop_
 _atom_site_type_symbol
 _atom_site_label
 _atom_site_symmetry_multiplicity
 _atom_site_fract_x
 _atom_site_fract_y
 _atom_site_fract_z
 _atom_site_occupancy
  Fe  Fe0  1  0.87500000  0.25000000  1.12500000  1.0
  Fe  Fe1  1  0.62500000  0.75000000  0.37500000  1.0
  Fe  Fe2  1  0.75000000  1.37500000  0.62500000  1.0
  Fe  Fe3  1  0.25000000  1.12500000  0.87500000  1.0
  Fe  Fe4  1  1.12500000  0.87500000  1.25000000  1.0
  Fe  Fe5  1  0.37500000  0.62500000  0.75000000  1.0
  O  O6  1  0.75000000  0.87500000  0.12500000  1.0
  O  O7  1  0.25000000  0.62500000  0.37500000  1.0
  O  O8  1  0.87500000  1.12500000  0.75000000  1.0
  O  O9  1  1.62500000  1.37500000  1.25000000  1.0
  O  O10  1  0.12500000  0.75000000  0.87500000  1.0
  O  O11  1  1.37500000  1.25000000  1.62500000  1.0
  O  O12  1  0.50000000  1.00000000  0.84932980  1.0
  O  O13  1  0.84932980  1.50000000  1.00000000  1.0
  O  O14  1  0.65067020  0.65067020  0.65067020  1.0
  O  O15  1  1.00000000  0.84932980  1.50000000  1.0
  O  O16  1  1.50000000  1.00000000  1.34932980  1.0
  O  O17  1  1.34932980  0.50000000  1.00000000  1.0
  O  O18  1  1.00000000  1.34932980  1.50000000  1.0
  O  O19  1  1.15067020  1.15067020  1.15067020  1.0
