# generated using pymatgen
data_CoB
_symmetry_space_group_name_H-M   'P 1'
_cell_length_a   5.15493804
_cell_length_b   3.06142997
_cell_length_c   3.91151668
_cell_angle_alpha   90.00000000
_cell_angle_beta   90.00000000
_cell_angle_gamma   90.00000000
_symmetry_Int_Tables_number   1
_chemical_formula_structural   CoB
_chemical_formula_sum   'Co4 B4'
_cell_volume   61.72952928
_cell_formula_units_Z   4
loop_
 _symmetry_equiv_pos_site_id
 _symmetry_equiv_pos_as_xyz
  1  'x, y, z'
loop_
 _atom_site_type_symbol
 _atom_site_label
 _atom_site_symmetry_multiplicity
 _atom_site_fract_x
 _atom_site_fract_y
 _atom_site_fract_z
 _atom_site_occupancy
  Co  Co0  1  0.32317322  0.75000000  0.12742203  1.0
  Co  Co1  1  0.82317322  0.75000000  0.37257797  1.0
  Co  Co2  1  0.67682678  0.25000000  0.87257797  1.0
  Co  Co3  1  0.17682678  0.25000000  0.62742203  1.0
  B  B4  1  0.46815762  0.75000000  0.62391749  1.0
  B  B5  1  0.96815762  0.75000000  0.87608251  1.0
  B  B6  1  0.53184238  0.25000000  0.37608251  1.0
  B  B7  1  0.03184238  0.25000000  0.12391749  1.0
