# generated using pymatgen
data_Na2Mo2Se2O11
_symmetry_space_group_name_H-M   'P 1'
_cell_length_a   9.01299539
_cell_length_b   9.01299539
_cell_length_c   9.53395428
_cell_angle_alpha   67.72556240
_cell_angle_beta   112.27443760
_cell_angle_gamma   136.61597235
_symmetry_Int_Tables_number   1
_chemical_formula_structural   Na2Mo2Se2O11
_chemical_formula_sum   'Na4 Mo4 Se4 O22'
_cell_volume   485.70449626
_cell_formula_units_Z   2
loop_
 _symmetry_equiv_pos_site_id
 _symmetry_equiv_pos_as_xyz
  1  'x, y, z'
loop_
 _atom_site_type_symbol
 _atom_site_label
 _atom_site_symmetry_multiplicity
 _atom_site_fract_x
 _atom_site_fract_y
 _atom_site_fract_z
 _atom_site_occupancy
  Na  Na0  1  0.23836427  0.23836427  0.25000000  1.0
  Na  Na1  1  0.76163573  0.76163573  0.75000000  1.0
  Na  Na2  1  0.50000000  0.00000000  0.50000000  1.0
  Na  Na3  1  1.00000000  0.50000000  -0.00000000  1.0
  Mo  Mo4  1  0.61231377  -0.18323126  0.27327021  1.0
  Mo  Mo5  1  1.18323126  0.38768623  0.77327021  1.0
  Mo  Mo6  1  0.81676874  0.61231377  0.22672979  1.0
  Mo  Mo7  1  0.38768623  0.18323126  0.72672979  1.0
  Se  Se8  1  0.41681362  0.08047914  0.11120582  1.0
  Se  Se9  1  0.91952086  0.58318638  0.61120582  1.0
  Se  Se10  1  1.08047914  0.41681362  0.38879418  1.0
  Se  Se11  1  0.58318638  -0.08047914  0.88879418  1.0
  O  O12  1  0.69724657  -0.18492206  0.46818664  1.0
  O  O13  1  1.18492206  0.30275343  0.96818664  1.0
  O  O14  1  0.81507794  0.69724657  0.03181336  1.0
  O  O15  1  0.30275343  0.18492206  0.53181336  1.0
  O  O16  1  0.84651395  0.05529687  0.19454594  1.0
  O  O17  1  0.94470313  0.15348605  0.69454594  1.0
  O  O18  1  1.05529687  0.84651395  0.30545406  1.0
  O  O19  1  0.15348605  -0.05529687  0.80545406  1.0
  O  O20  1  0.51369738  -0.03481125  0.26233304  1.0
  O  O21  1  1.03481125  0.48630262  0.76233304  1.0
  O  O22  1  0.96518875  0.51369738  0.23766696  1.0
  O  O23  1  0.48630262  0.03481125  0.73766696  1.0
  O  O24  1  0.58200473  0.22645197  0.97639232  1.0
  O  O25  1  0.77354803  0.41799527  0.47639232  1.0
  O  O26  1  1.22645197  0.58200473  0.52360768  1.0
  O  O27  1  0.41799527  -0.22645197  0.02360768  1.0
  O  O28  1  0.51604803  0.26908179  0.21093094  1.0
  O  O29  1  0.73091821  0.48395197  0.71093094  1.0
  O  O30  1  1.26908179  0.51604803  0.28906906  1.0
  O  O31  1  0.48395197  -0.26908179  0.78906906  1.0
  O  O32  1  0.61704820  0.61704820  0.25000000  1.0
  O  O33  1  0.38295180  0.38295180  0.75000000  1.0
