# generated using pymatgen
data_Cs4CaMg3F12
_symmetry_space_group_name_H-M   'P 1'
_cell_length_a   10.76556899
_cell_length_b   10.76556899
_cell_length_c   10.76556899
_cell_angle_alpha   34.19500846
_cell_angle_beta   34.19500846
_cell_angle_gamma   34.19500846
_symmetry_Int_Tables_number   1
_chemical_formula_structural   Cs4CaMg3F12
_chemical_formula_sum   'Cs4 Ca1 Mg3 F12'
_cell_volume   351.40133821
_cell_formula_units_Z   1
loop_
 _symmetry_equiv_pos_site_id
 _symmetry_equiv_pos_as_xyz
  1  'x, y, z'
loop_
 _atom_site_type_symbol
 _atom_site_label
 _atom_site_symmetry_multiplicity
 _atom_site_fract_x
 _atom_site_fract_y
 _atom_site_fract_z
 _atom_site_occupancy
  Cs  Cs0  1  0.86854429  -0.13145571  -0.13145571  1.0
  Cs  Cs1  1  0.13145571  0.13145571  0.13145571  1.0
  Cs  Cs2  1  0.28294067  0.28294067  0.28294067  1.0
  Cs  Cs3  1  0.71705933  -0.28294067  -0.28294067  1.0
  Ca  Ca4  1  0.00000000  0.00000000  0.00000000  1.0
  Mg  Mg5  1  0.50000000  0.50000000  -0.50000000  1.0
  Mg  Mg6  1  0.59123067  0.59123067  -0.40876933  1.0
  Mg  Mg7  1  0.40876933  0.40876933  -0.59123067  1.0
  F  F8  1  0.78232949  0.78232949  -0.69041170  1.0
  F  F9  1  0.78232949  0.30958830  -0.21767051  1.0
  F  F10  1  0.30958830  0.78232949  -0.21767051  1.0
  F  F11  1  0.21767051  0.21767051  -0.30958830  1.0
  F  F12  1  0.21767051  0.69041170  -0.78232949  1.0
  F  F13  1  0.69041170  0.21767051  -0.78232949  1.0
  F  F14  1  0.40575146  0.81915537  -0.59424854  1.0
  F  F15  1  0.81915537  0.40575146  -0.59424854  1.0
  F  F16  1  0.40575146  0.40575146  -0.18084463  1.0
  F  F17  1  0.59424854  0.18084463  -0.40575146  1.0
  F  F18  1  0.18084463  0.59424854  -0.40575146  1.0
  F  F19  1  0.59424854  0.59424854  -0.81915537  1.0
