# generated using pymatgen
data_TlGaTe2
_symmetry_space_group_name_H-M   'P 1'
_cell_length_a   7.01126653
_cell_length_b   7.01126653
_cell_length_c   7.01126653
_cell_angle_alpha   104.12508353
_cell_angle_beta   104.12508353
_cell_angle_gamma   120.79185965
_symmetry_Int_Tables_number   1
_chemical_formula_structural   TlGaTe2
_chemical_formula_sum   'Tl2 Ga2 Te4'
_cell_volume   257.42375505
_cell_formula_units_Z   2
loop_
 _symmetry_equiv_pos_site_id
 _symmetry_equiv_pos_as_xyz
  1  'x, y, z'
loop_
 _atom_site_type_symbol
 _atom_site_label
 _atom_site_symmetry_multiplicity
 _atom_site_fract_x
 _atom_site_fract_y
 _atom_site_fract_z
 _atom_site_occupancy
  Tl  Tl0  1  0.25000000  0.25000000  0.00000000  1.0
  Tl  Tl1  1  0.75000000  0.75000000  0.00000000  1.0
  Ga  Ga2  1  0.75000000  1.25000000  0.50000000  1.0
  Ga  Ga3  1  0.25000000  0.75000000  0.50000000  1.0
  Te  Te4  1  0.83149834  0.33149834  1.16299668  1.0
  Te  Te5  1  0.66850166  0.83149834  0.50000000  1.0
  Te  Te6  1  1.33149834  1.16850166  1.50000000  1.0
  Te  Te7  1  0.16850166  0.66850166  0.83700332  1.0
