# generated using pymatgen
data_NaBiO3
_symmetry_space_group_name_H-M   'P 1'
_cell_length_a   6.34527752
_cell_length_b   6.34527752
_cell_length_c   6.34527752
_cell_angle_alpha   53.11038650
_cell_angle_beta   53.11038650
_cell_angle_gamma   53.11038650
_symmetry_Int_Tables_number   1
_chemical_formula_structural   NaBiO3
_chemical_formula_sum   'Na2 Bi2 O6'
_cell_volume   151.48811924
_cell_formula_units_Z   2
loop_
 _symmetry_equiv_pos_site_id
 _symmetry_equiv_pos_as_xyz
  1  'x, y, z'
loop_
 _atom_site_type_symbol
 _atom_site_label
 _atom_site_symmetry_multiplicity
 _atom_site_fract_x
 _atom_site_fract_y
 _atom_site_fract_z
 _atom_site_occupancy
  Na  Na0  1  0.36277763  0.36277763  -0.63722237  1.0
  Na  Na1  1  0.63722237  0.63722237  -0.36277763  1.0
  Bi  Bi2  1  0.15744004  0.15744004  0.15744004  1.0
  Bi  Bi3  1  0.84255996  -0.15744004  -0.15744004  1.0
  O  O4  1  0.44209638  0.03794683  -0.20228233  1.0
  O  O5  1  1.20228233  -0.44209638  -0.03794683  1.0
  O  O6  1  0.96205317  0.20228233  -0.44209638  1.0
  O  O7  1  0.55790362  -0.03794683  0.20228233  1.0
  O  O8  1  0.79771767  -0.55790362  0.03794683  1.0
  O  O9  1  1.03794683  -0.20228233  -0.55790362  1.0
