# generated using pymatgen
data_CaBe13
_symmetry_space_group_name_H-M   'P 1'
_cell_length_a   7.23642511
_cell_length_b   7.23642511
_cell_length_c   7.23642511
_cell_angle_alpha   60.00000000
_cell_angle_beta   60.00000000
_cell_angle_gamma   60.00000000
_symmetry_Int_Tables_number   1
_chemical_formula_structural   CaBe13
_chemical_formula_sum   'Ca2 Be26'
_cell_volume   267.95213297
_cell_formula_units_Z   2
loop_
 _symmetry_equiv_pos_site_id
 _symmetry_equiv_pos_as_xyz
  1  'x, y, z'
loop_
 _atom_site_type_symbol
 _atom_site_label
 _atom_site_symmetry_multiplicity
 _atom_site_fract_x
 _atom_site_fract_y
 _atom_site_fract_z
 _atom_site_occupancy
  Ca  Ca0  1  0.25000000  0.25000000  0.25000000  1.0
  Ca  Ca1  1  0.75000000  -0.25000000  0.75000000  1.0
  Be  Be2  1  1.21124555  -0.56466118  0.56466118  1.0
  Be  Be3  1  0.56466118  -0.21124555  1.21124555  1.0
  Be  Be4  1  0.71124555  0.06466118  0.93533882  1.0
  Be  Be5  1  0.93533882  -0.71124555  0.71124555  1.0
  Be  Be6  1  0.43533882  0.21124555  -0.21124555  1.0
  Be  Be7  1  -0.21124555  0.56466118  0.43533882  1.0
  Be  Be8  1  0.06466118  0.71124555  0.28875445  1.0
  Be  Be9  1  0.28875445  -0.06466118  0.06466118  1.0
  Be  Be10  1  -0.06466118  0.71124555  0.06466118  1.0
  Be  Be11  1  -0.71124555  1.06466118  0.71124555  1.0
  Be  Be12  1  0.43533882  0.56466118  0.21124555  1.0
  Be  Be13  1  0.78875445  0.21124555  0.56466118  1.0
  Be  Be14  1  -0.43533882  1.21124555  0.43533882  1.0
  Be  Be15  1  -0.21124555  0.43533882  0.21124555  1.0
  Be  Be16  1  1.06466118  -0.06466118  0.71124555  1.0
  Be  Be17  1  0.28875445  0.71124555  -0.06466118  1.0
  Be  Be18  1  -0.28875445  0.93533882  0.28875445  1.0
  Be  Be19  1  0.06466118  0.28875445  -0.06466118  1.0
  Be  Be20  1  0.21124555  0.78875445  0.43533882  1.0
  Be  Be21  1  0.56466118  0.43533882  0.78875445  1.0
  Be  Be22  1  0.21124555  0.56466118  -0.21124555  1.0
  Be  Be23  1  -0.56466118  0.78875445  0.56466118  1.0
  Be  Be24  1  0.71124555  0.28875445  1.06466118  1.0
  Be  Be25  1  -0.06466118  1.06466118  0.28875445  1.0
  Be  Be26  1  0.50000000  0.50000000  -0.50000000  1.0
  Be  Be27  1  -0.00000000  1.00000000  0.00000000  1.0
