# generated using pymatgen
data_KY2CuS4
_symmetry_space_group_name_H-M   'P 1'
_cell_length_a   7.05255847
_cell_length_b   7.05255847
_cell_length_c   13.74160695
_cell_angle_alpha   90.00000000
_cell_angle_beta   90.00000000
_cell_angle_gamma   147.43975359
_symmetry_Int_Tables_number   1
_chemical_formula_structural   KY2CuS4
_chemical_formula_sum   'K2 Y4 Cu2 S8'
_cell_volume   367.84378220
_cell_formula_units_Z   2
loop_
 _symmetry_equiv_pos_site_id
 _symmetry_equiv_pos_as_xyz
  1  'x, y, z'
loop_
 _atom_site_type_symbol
 _atom_site_label
 _atom_site_symmetry_multiplicity
 _atom_site_fract_x
 _atom_site_fract_y
 _atom_site_fract_z
 _atom_site_occupancy
  K  K0  1  0.10922698  0.89077302  0.75000000  1.0
  K  K1  1  -0.10922698  0.10922698  0.25000000  1.0
  Y  Y2  1  0.36571264  0.63428736  0.93697683  1.0
  Y  Y3  1  0.36571264  0.63428736  0.56302317  1.0
  Y  Y4  1  -0.36571264  0.36571264  0.43697683  1.0
  Y  Y5  1  -0.36571264  0.36571264  0.06302317  1.0
  Cu  Cu6  1  -0.16290779  0.16290779  0.75000000  1.0
  Cu  Cu7  1  0.16290779  0.83709221  0.25000000  1.0
  S  S8  1  0.26267733  0.73732267  0.38915791  1.0
  S  S9  1  0.26267733  0.73732267  0.11084209  1.0
  S  S10  1  -0.26267733  0.26267733  0.88915791  1.0
  S  S11  1  -0.26267733  0.26267733  0.61084209  1.0
  S  S12  1  0.43100527  0.56899473  0.75000000  1.0
  S  S13  1  -0.43100527  0.43100527  0.25000000  1.0
  S  S14  1  0.00000000  0.00000000  0.00000000  1.0
  S  S15  1  0.00000000  0.00000000  0.50000000  1.0
