# generated using pymatgen
data_KCe(ClO)4
_symmetry_space_group_name_H-M   'P 1'
_cell_length_a   7.18682706
_cell_length_b   9.92108015
_cell_length_c   6.23145679
_cell_angle_alpha   90.00000000
_cell_angle_beta   90.00000000
_cell_angle_gamma   90.00000000
_symmetry_Int_Tables_number   1
_chemical_formula_structural   KCe(ClO)4
_chemical_formula_sum   'K2 Ce2 Cl8 O8'
_cell_volume   444.30964435
_cell_formula_units_Z   2
loop_
 _symmetry_equiv_pos_site_id
 _symmetry_equiv_pos_as_xyz
  1  'x, y, z'
loop_
 _atom_site_type_symbol
 _atom_site_label
 _atom_site_symmetry_multiplicity
 _atom_site_fract_x
 _atom_site_fract_y
 _atom_site_fract_z
 _atom_site_occupancy
  K  K0  1  0.50000000  0.50000000  0.89502483  1.0
  K  K1  1  0.00000000  0.00000000  0.10497517  1.0
  Ce  Ce2  1  0.50000000  0.00000000  0.50951423  1.0
  Ce  Ce3  1  0.00000000  0.50000000  0.49048577  1.0
  Cl  Cl4  1  0.37983219  0.83717497  0.86713168  1.0
  Cl  Cl5  1  0.87983219  0.66282503  0.13286832  1.0
  Cl  Cl6  1  0.62016781  0.16282503  0.86713168  1.0
  Cl  Cl7  1  0.12016781  0.33717497  0.13286832  1.0
  Cl  Cl8  1  0.33466361  0.63469457  0.39842541  1.0
  Cl  Cl9  1  0.83466361  0.86530543  0.60157459  1.0
  Cl  Cl10  1  0.66533639  0.36530543  0.39842541  1.0
  Cl  Cl11  1  0.16533639  0.13469457  0.60157459  1.0
  O  O12  1  0.28586979  0.86557839  0.37724362  1.0
  O  O13  1  0.78586979  0.63442161  0.62275638  1.0
  O  O14  1  0.71413021  0.13442161  0.37724362  1.0
  O  O15  1  0.21413021  0.36557839  0.62275638  1.0
  O  O16  1  0.03585146  0.60600492  0.82406860  1.0
  O  O17  1  0.53585146  0.89399508  0.17593140  1.0
  O  O18  1  0.96414854  0.39399508  0.82406860  1.0
  O  O19  1  0.46414854  0.10600492  0.17593140  1.0
