# generated using pymatgen
data_SbICl8
_symmetry_space_group_name_H-M   'P 1'
_cell_length_a   7.69839033
_cell_length_b   7.69839033
_cell_length_c   25.08890441
_cell_angle_alpha   90.00000000
_cell_angle_beta   90.00000000
_cell_angle_gamma   90.00000000
_symmetry_Int_Tables_number   1
_chemical_formula_structural   SbICl8
_chemical_formula_sum   'Sb4 I4 Cl32'
_cell_volume   1486.89927918
_cell_formula_units_Z   4
loop_
 _symmetry_equiv_pos_site_id
 _symmetry_equiv_pos_as_xyz
  1  'x, y, z'
loop_
 _atom_site_type_symbol
 _atom_site_label
 _atom_site_symmetry_multiplicity
 _atom_site_fract_x
 _atom_site_fract_y
 _atom_site_fract_z
 _atom_site_occupancy
  Sb  Sb0  1  1.02465946  0.78755929  0.70307329  1.0
  Sb  Sb1  1  0.78755929  -0.02465946  0.45307329  1.0
  Sb  Sb2  1  -0.02465946  0.21244071  0.20307329  1.0
  Sb  Sb3  1  0.21244071  1.02465946  0.95307329  1.0
  I  I4  1  0.86003219  0.77580327  0.08124538  1.0
  I  I5  1  0.77580327  0.13996781  0.83124538  1.0
  I  I6  1  0.13996781  0.22419673  0.58124538  1.0
  I  I7  1  0.22419673  0.86003219  0.33124538  1.0
  Cl  Cl8  1  0.96683802  0.80101794  0.50831108  1.0
  Cl  Cl9  1  0.80101794  0.03316198  0.25831108  1.0
  Cl  Cl10  1  0.03316198  0.19898206  0.00831108  1.0
  Cl  Cl11  1  0.19898206  0.96683802  0.75831108  1.0
  Cl  Cl12  1  0.93107335  0.92427918  0.90708517  1.0
  Cl  Cl13  1  0.92427918  0.06892665  0.65708517  1.0
  Cl  Cl14  1  0.06892665  0.07572082  0.40708517  1.0
  Cl  Cl15  1  0.07572082  0.93107335  0.15708517  1.0
  Cl  Cl16  1  0.80856071  0.64288912  0.65189716  1.0
  Cl  Cl17  1  0.64288912  0.19143929  0.40189716  1.0
  Cl  Cl18  1  0.19143929  0.35711088  0.15189716  1.0
  Cl  Cl19  1  0.35711088  0.80856071  0.90189716  1.0
  Cl  Cl20  1  0.76937770  0.37904417  0.89220917  1.0
  Cl  Cl21  1  0.37904417  0.23062230  0.64220917  1.0
  Cl  Cl22  1  0.23062230  0.62095583  0.39220917  1.0
  Cl  Cl23  1  0.62095583  0.76937770  0.14220917  1.0
  Cl  Cl24  1  0.76690852  0.85154215  0.76642568  1.0
  Cl  Cl25  1  0.85154215  0.23309148  0.51642568  1.0
  Cl  Cl26  1  0.23309148  0.14845785  0.26642568  1.0
  Cl  Cl27  1  0.14845785  0.76690852  0.01642568  1.0
  Cl  Cl28  1  0.70454227  0.61759742  0.01427784  1.0
  Cl  Cl29  1  0.61759742  0.29545773  0.76427784  1.0
  Cl  Cl30  1  0.29545773  0.38240258  0.51427784  1.0
  Cl  Cl31  1  0.38240258  0.70454227  0.26427784  1.0
  Cl  Cl32  1  0.53562285  0.90844678  0.50281652  1.0
  Cl  Cl33  1  0.90844678  0.46437715  0.25281652  1.0
  Cl  Cl34  1  0.46437715  0.09155322  0.00281652  1.0
  Cl  Cl35  1  0.09155322  0.53562285  0.75281652  1.0
  Cl  Cl36  1  0.24365618  0.74695109  0.63815872  1.0
  Cl  Cl37  1  0.74695109  0.75634382  0.38815872  1.0
  Cl  Cl38  1  0.75634382  0.25304891  0.13815872  1.0
  Cl  Cl39  1  0.25304891  0.24365618  0.88815872  1.0
