# generated using pymatgen
data_Sc4Co7Ge6
_symmetry_space_group_name_H-M   'P 1'
_cell_length_a   6.78860840
_cell_length_b   6.78860840
_cell_length_c   6.78860840
_cell_angle_alpha   109.47122063
_cell_angle_beta   109.47122063
_cell_angle_gamma   109.47122063
_symmetry_Int_Tables_number   1
_chemical_formula_structural   Sc4Co7Ge6
_chemical_formula_sum   'Sc4 Co7 Ge6'
_cell_volume   240.83543209
_cell_formula_units_Z   1
loop_
 _symmetry_equiv_pos_site_id
 _symmetry_equiv_pos_as_xyz
  1  'x, y, z'
loop_
 _atom_site_type_symbol
 _atom_site_label
 _atom_site_symmetry_multiplicity
 _atom_site_fract_x
 _atom_site_fract_y
 _atom_site_fract_z
 _atom_site_occupancy
  Ge  Ge0  1  0.00000000  0.68317341  0.68317341  1.0
  Ge  Ge1  1  0.68317341  -0.00000000  0.68317341  1.0
  Ge  Ge2  1  0.68317341  0.68317341  0.00000000  1.0
  Ge  Ge3  1  0.31682659  0.31682659  0.00000000  1.0
  Ge  Ge4  1  0.31682659  -0.00000000  0.31682659  1.0
  Ge  Ge5  1  0.00000000  0.31682659  0.31682659  1.0
  Sc  Sc6  1  0.50000000  0.50000000  0.50000000  1.0
  Sc  Sc7  1  1.00000000  1.00000000  0.50000000  1.0
  Sc  Sc8  1  1.00000000  1.50000000  1.00000000  1.0
  Sc  Sc9  1  1.50000000  1.00000000  1.00000000  1.0
  Co  Co10  1  0.00000000  0.00000000  0.00000000  1.0
  Co  Co11  1  0.50000000  0.25000000  0.75000000  1.0
  Co  Co12  1  0.50000000  0.75000000  0.25000000  1.0
  Co  Co13  1  0.25000000  0.50000000  0.75000000  1.0
  Co  Co14  1  1.25000000  0.75000000  0.50000000  1.0
  Co  Co15  1  0.75000000  1.25000000  0.50000000  1.0
  Co  Co16  1  0.75000000  0.50000000  0.25000000  1.0
