# generated using pymatgen
data_Lu2AlNi2
_symmetry_space_group_name_H-M   'P 1'
_cell_length_a   5.29245149
_cell_length_b   5.29245149
_cell_length_c   5.29245149
_cell_angle_alpha   134.18346552
_cell_angle_beta   119.67383171
_cell_angle_gamma   78.92930272
_symmetry_Int_Tables_number   1
_chemical_formula_structural   Lu2AlNi2
_chemical_formula_sum   'Lu2 Al1 Ni2'
_cell_volume   89.53602175
_cell_formula_units_Z   1
loop_
 _symmetry_equiv_pos_site_id
 _symmetry_equiv_pos_as_xyz
  1  'x, y, z'
loop_
 _atom_site_type_symbol
 _atom_site_label
 _atom_site_symmetry_multiplicity
 _atom_site_fract_x
 _atom_site_fract_y
 _atom_site_fract_z
 _atom_site_occupancy
  Lu  Lu0  1  0.70190177  0.20190177  0.50000000  1.0
  Lu  Lu1  1  0.29809823  0.79809823  0.50000000  1.0
  Al  Al2  1  0.00000000  0.00000000  0.00000000  1.0
  Ni  Ni3  1  0.26709736  0.50000000  0.76709736  1.0
  Ni  Ni4  1  0.73290264  0.50000000  1.23290264  1.0
