# generated using pymatgen
data_EuSbPt
_symmetry_space_group_name_H-M   'P 1'
_cell_length_a   7.54205585
_cell_length_b   4.67904945
_cell_length_c   7.99304561
_cell_angle_alpha   90.00000000
_cell_angle_beta   90.00000000
_cell_angle_gamma   90.00000000
_symmetry_Int_Tables_number   1
_chemical_formula_structural   EuSbPt
_chemical_formula_sum   'Eu4 Sb4 Pt4'
_cell_volume   282.07180008
_cell_formula_units_Z   4
loop_
 _symmetry_equiv_pos_site_id
 _symmetry_equiv_pos_as_xyz
  1  'x, y, z'
loop_
 _atom_site_type_symbol
 _atom_site_label
 _atom_site_symmetry_multiplicity
 _atom_site_fract_x
 _atom_site_fract_y
 _atom_site_fract_z
 _atom_site_occupancy
  Eu  Eu0  1  1.00797579  0.75000000  0.69834164  1.0
  Eu  Eu1  1  0.50797579  0.75000000  0.80165836  1.0
  Eu  Eu2  1  -0.00797579  0.25000000  0.30165836  1.0
  Eu  Eu3  1  0.49202421  0.25000000  0.19834164  1.0
  Sb  Sb4  1  0.68647768  0.75000000  0.40906096  1.0
  Sb  Sb5  1  0.18647768  0.75000000  0.09093904  1.0
  Sb  Sb6  1  0.31352232  0.25000000  0.59093904  1.0
  Sb  Sb7  1  0.81352232  0.25000000  0.90906096  1.0
  Pt  Pt8  1  0.80143960  0.75000000  0.08359480  1.0
  Pt  Pt9  1  0.30143960  0.75000000  0.41640520  1.0
  Pt  Pt10  1  0.19856040  0.25000000  0.91640520  1.0
  Pt  Pt11  1  0.69856040  0.25000000  0.58359480  1.0
