# generated using pymatgen
data_RbInTe3O8
_symmetry_space_group_name_H-M   'P 1'
_cell_length_a   5.91514421
_cell_length_b   11.29876388
_cell_length_c   7.72340085
_cell_angle_alpha   100.72764729
_cell_angle_beta   108.14737082
_cell_angle_gamma   90.05747228
_symmetry_Int_Tables_number   1
_chemical_formula_structural   RbInTe3O8
_chemical_formula_sum   'Rb2 In2 Te6 O16'
_cell_volume   480.97349361
_cell_formula_units_Z   2
loop_
 _symmetry_equiv_pos_site_id
 _symmetry_equiv_pos_as_xyz
  1  'x, y, z'
loop_
 _atom_site_type_symbol
 _atom_site_label
 _atom_site_symmetry_multiplicity
 _atom_site_fract_x
 _atom_site_fract_y
 _atom_site_fract_z
 _atom_site_occupancy
  Rb  Rb0  1  0.84466330  0.16903718  -0.88239188  1.0
  Rb  Rb1  1  0.15533670  0.83096282  -0.11760812  1.0
  In  In2  1  0.00000000  0.50000000  -0.50000000  1.0
  In  In3  1  0.50000000  -0.00000000  -0.50000000  1.0
  Te  Te4  1  0.94525555  0.85572223  -0.65980145  1.0
  Te  Te5  1  0.05474445  0.14427777  -0.34019855  1.0
  Te  Te6  1  0.77842604  0.58479638  -0.98906931  1.0
  Te  Te7  1  0.22157396  0.41520362  -0.01093069  1.0
  Te  Te8  1  0.48310195  0.65741462  -0.54006664  1.0
  Te  Te9  1  0.51689805  0.34258538  -0.45993336  1.0
  O  O10  1  0.79254687  0.57793169  -0.73458574  1.0
  O  O11  1  0.20745313  0.42206831  -0.26541426  1.0
  O  O12  1  0.76025968  0.77437779  -0.92217470  1.0
  O  O13  1  0.23974032  0.22562221  -0.07782530  1.0
  O  O14  1  0.74071590  0.58307914  -0.36825253  1.0
  O  O15  1  0.25928410  0.41692086  -0.63174747  1.0
  O  O16  1  0.75853118  0.99943089  -0.65818972  1.0
  O  O17  1  0.24146882  0.00056911  -0.34181028  1.0
  O  O18  1  0.74840118  0.33706834  -0.59457473  1.0
  O  O19  1  0.25159882  0.66293166  -0.40542527  1.0
  O  O20  1  0.63089510  0.82175008  -0.45182562  1.0
  O  O21  1  0.36910490  0.17824992  -0.54817438  1.0
  O  O22  1  0.19648970  0.92035917  -0.73690387  1.0
  O  O23  1  0.80351030  0.07964083  -0.26309613  1.0
  O  O24  1  0.12062365  0.60597172  -0.96023051  1.0
  O  O25  1  0.87937635  0.39402828  -0.03976949  1.0
