# generated using pymatgen
data_C2S2I
_symmetry_space_group_name_H-M   'P 1'
_cell_length_a   6.30678771
_cell_length_b   6.30678771
_cell_length_c   30.26662525
_cell_angle_alpha   90.00000000
_cell_angle_beta   90.00000000
_cell_angle_gamma   90.00000000
_symmetry_Int_Tables_number   1
_chemical_formula_structural   C2S2I
_chemical_formula_sum   'C16 S16 I8'
_cell_volume   1203.87230866
_cell_formula_units_Z   8
loop_
 _symmetry_equiv_pos_site_id
 _symmetry_equiv_pos_as_xyz
  1  'x, y, z'
loop_
 _atom_site_type_symbol
 _atom_site_label
 _atom_site_symmetry_multiplicity
 _atom_site_fract_x
 _atom_site_fract_y
 _atom_site_fract_z
 _atom_site_occupancy
  C  C0  1  0.93445102  0.64480056  0.17846945  1.0
  C  C1  1  0.06554898  0.35519944  0.67846945  1.0
  C  C2  1  0.85519944  0.43445102  0.42846945  1.0
  C  C3  1  0.56554898  0.14480056  0.07153055  1.0
  C  C4  1  0.14480056  0.56554898  0.92846945  1.0
  C  C5  1  0.43445102  0.85519944  0.57153055  1.0
  C  C6  1  0.64480056  0.93445102  0.82153055  1.0
  C  C7  1  0.35519944  0.06554898  0.32153055  1.0
  C  C8  1  1.08606287  0.52395520  0.18358905  1.0
  C  C9  1  -0.08606287  0.47604480  0.68358905  1.0
  C  C10  1  -0.02395520  0.58606287  0.43358905  1.0
  C  C11  1  0.41393713  1.02395520  0.06641095  1.0
  C  C12  1  1.02395520  0.41393713  0.93358905  1.0
  C  C13  1  0.58606287  -0.02395520  0.56641095  1.0
  C  C14  1  0.52395520  1.08606287  0.81641095  1.0
  C  C15  1  0.47604480  -0.08606287  0.31641095  1.0
  S  S16  1  0.78920141  0.28024211  0.08052321  1.0
  S  S17  1  0.21079859  0.71975789  0.58052321  1.0
  S  S18  1  0.21975789  0.28920141  0.33052321  1.0
  S  S19  1  0.71079859  0.78024211  0.16947679  1.0
  S  S20  1  0.78024211  0.71079859  0.83052321  1.0
  S  S21  1  0.28920141  0.21975789  0.66947679  1.0
  S  S22  1  0.28024211  0.78920141  0.91947679  1.0
  S  S23  1  0.71975789  0.21079859  0.41947679  1.0
  S  S24  1  0.72569768  0.58942459  0.07452490  1.0
  S  S25  1  0.27430232  0.41057541  0.57452490  1.0
  S  S26  1  -0.08942459  0.22569768  0.32452490  1.0
  S  S27  1  0.77430232  1.08942459  0.17547510  1.0
  S  S28  1  1.08942459  0.77430232  0.82452490  1.0
  S  S29  1  0.22569768  -0.08942459  0.67547510  1.0
  S  S30  1  0.58942459  0.72569768  0.92547510  1.0
  S  S31  1  0.41057541  0.27430232  0.42547510  1.0
  I  I32  1  0.82866864  0.15875405  0.93452378  1.0
  I  I33  1  0.17133136  0.84124595  0.43452378  1.0
  I  I34  1  0.34124595  0.32866864  0.18452378  1.0
  I  I35  1  0.67133136  0.65875405  0.31547622  1.0
  I  I36  1  0.65875405  0.67133136  0.68452378  1.0
  I  I37  1  0.32866864  0.34124595  0.81547622  1.0
  I  I38  1  0.15875405  0.82866864  0.06547622  1.0
  I  I39  1  0.84124595  0.17133136  0.56547622  1.0
