# generated using pymatgen
data_Ba(TeMo)3
_symmetry_space_group_name_H-M   'P 1'
_cell_length_a   9.66926527
_cell_length_b   9.66926527
_cell_length_c   4.60302080
_cell_angle_alpha   90.00000000
_cell_angle_beta   90.00000000
_cell_angle_gamma   120.00000000
_symmetry_Int_Tables_number   1
_chemical_formula_structural   Ba(TeMo)3
_chemical_formula_sum   'Ba2 Te6 Mo6'
_cell_volume   372.70096669
_cell_formula_units_Z   2
loop_
 _symmetry_equiv_pos_site_id
 _symmetry_equiv_pos_as_xyz
  1  'x, y, z'
loop_
 _atom_site_type_symbol
 _atom_site_label
 _atom_site_symmetry_multiplicity
 _atom_site_fract_x
 _atom_site_fract_y
 _atom_site_fract_z
 _atom_site_occupancy
  Ba  Ba0  1  0.33333333  0.66666667  0.25000000  1.0
  Ba  Ba1  1  0.66666667  0.33333333  0.75000000  1.0
  Te  Te2  1  0.69191528  0.62771462  0.25000000  1.0
  Te  Te3  1  0.62771462  0.93579934  0.75000000  1.0
  Te  Te4  1  0.93579934  0.30808472  0.25000000  1.0
  Te  Te5  1  0.37228538  0.06420066  0.25000000  1.0
  Te  Te6  1  0.30808472  0.37228538  0.75000000  1.0
  Te  Te7  1  0.06420066  0.69191528  0.75000000  1.0
  Mo  Mo8  1  0.03116703  0.85931522  0.25000000  1.0
  Mo  Mo9  1  0.85931522  0.82814819  0.75000000  1.0
  Mo  Mo10  1  0.82814819  0.96883297  0.25000000  1.0
  Mo  Mo11  1  0.14068478  0.17185181  0.25000000  1.0
  Mo  Mo12  1  0.96883297  0.14068478  0.75000000  1.0
  Mo  Mo13  1  0.17185181  0.03116703  0.75000000  1.0
