# generated using pymatgen
data_HCS(OF)3
_symmetry_space_group_name_H-M   'P 1'
_cell_length_a   5.40231197
_cell_length_b   11.87884418
_cell_length_c   9.13151891
_cell_angle_alpha   90.00000000
_cell_angle_beta   110.10441280
_cell_angle_gamma   90.00000000
_symmetry_Int_Tables_number   1
_chemical_formula_structural   HCS(OF)3
_chemical_formula_sum   'H4 C4 S4 O12 F12'
_cell_volume   550.29277244
_cell_formula_units_Z   4
loop_
 _symmetry_equiv_pos_site_id
 _symmetry_equiv_pos_as_xyz
  1  'x, y, z'
loop_
 _atom_site_type_symbol
 _atom_site_label
 _atom_site_symmetry_multiplicity
 _atom_site_fract_x
 _atom_site_fract_y
 _atom_site_fract_z
 _atom_site_occupancy
  H  H0  1  0.51228275  0.24728483  0.01554550  1.0
  H  H1  1  0.51228275  0.25271517  0.51554550  1.0
  H  H2  1  0.48771725  0.74728483  0.48445450  1.0
  H  H3  1  0.48771725  0.75271517  0.98445450  1.0
  C  C4  1  0.83441197  0.43556381  0.23039490  1.0
  C  C5  1  0.83441197  0.06443619  0.73039490  1.0
  C  C6  1  0.16558803  0.93556381  0.26960510  1.0
  C  C7  1  0.16558803  0.56443619  0.76960510  1.0
  S  S8  1  0.69060210  0.29620384  0.25786415  1.0
  S  S9  1  0.69060210  0.20379616  0.75786415  1.0
  S  S10  1  0.30939790  0.79620384  0.24213585  1.0
  S  S11  1  0.30939790  0.70379616  0.74213585  1.0
  O  O12  1  0.89060926  0.21182886  0.27871834  1.0
  O  O13  1  0.89060926  0.28817114  0.77871834  1.0
  O  O14  1  0.10939074  0.71182886  0.22128166  1.0
  O  O15  1  0.10939074  0.78817114  0.72128166  1.0
  O  O16  1  0.57329703  0.31741127  0.37644929  1.0
  O  O17  1  0.57329703  0.18258873  0.87644929  1.0
  O  O18  1  0.42670297  0.81741127  0.12355071  1.0
  O  O19  1  0.42670297  0.68258873  0.62355071  1.0
  O  O20  1  0.45686317  0.28386032  0.09997203  1.0
  O  O21  1  0.45686317  0.21613968  0.59997203  1.0
  O  O22  1  0.54313683  0.78386032  0.40002797  1.0
  O  O23  1  0.54313683  0.71613968  0.90002797  1.0
  F  F24  1  0.95315884  0.95689660  0.14309875  1.0
  F  F25  1  0.95315884  0.54310340  0.64309875  1.0
  F  F26  1  0.04684116  0.45689660  0.35690125  1.0
  F  F27  1  0.04684116  0.04310340  0.85690125  1.0
  F  F28  1  0.90569618  0.42983721  0.10316655  1.0
  F  F29  1  0.90569618  0.07016279  0.60316655  1.0
  F  F30  1  0.09430382  0.92983721  0.39683345  1.0
  F  F31  1  0.09430382  0.57016279  0.89683345  1.0
  F  F32  1  0.34521862  0.01780714  0.28829638  1.0
  F  F33  1  0.34521862  0.48219286  0.78829638  1.0
  F  F34  1  0.65478138  0.51780714  0.21170362  1.0
  F  F35  1  0.65478138  0.98219286  0.71170362  1.0
