# generated using pymatgen
data_CsNaGe2
_symmetry_space_group_name_H-M   'P 1'
_cell_length_a   8.59927194
_cell_length_b   9.85950946
_cell_length_c   13.50311087
_cell_angle_alpha   90.00000000
_cell_angle_beta   111.26099700
_cell_angle_gamma   90.00000000
_symmetry_Int_Tables_number   1
_chemical_formula_structural   CsNaGe2
_chemical_formula_sum   'Cs8 Na8 Ge16'
_cell_volume   1066.93504333
_cell_formula_units_Z   8
loop_
 _symmetry_equiv_pos_site_id
 _symmetry_equiv_pos_as_xyz
  1  'x, y, z'
loop_
 _atom_site_type_symbol
 _atom_site_label
 _atom_site_symmetry_multiplicity
 _atom_site_fract_x
 _atom_site_fract_y
 _atom_site_fract_z
 _atom_site_occupancy
  Cs  Cs0  1  0.48943302  0.47916398  0.22103523  1.0
  Cs  Cs1  1  0.48943302  0.02083602  0.72103523  1.0
  Cs  Cs2  1  0.51056698  0.97916398  0.27896477  1.0
  Cs  Cs3  1  0.51056698  0.52083602  0.77896477  1.0
  Cs  Cs4  1  0.34796861  0.29729659  0.46624577  1.0
  Cs  Cs5  1  0.34796861  0.20270341  0.96624577  1.0
  Cs  Cs6  1  0.65203139  0.79729659  0.03375423  1.0
  Cs  Cs7  1  0.65203139  0.70270341  0.53375423  1.0
  Na  Na8  1  0.95134963  0.46660732  0.31213190  1.0
  Na  Na9  1  0.95134963  0.03339268  0.81213190  1.0
  Na  Na10  1  0.04865037  0.96660732  0.18786810  1.0
  Na  Na11  1  0.04865037  0.53339268  0.68786810  1.0
  Na  Na12  1  0.94808683  0.10235949  0.39806128  1.0
  Na  Na13  1  0.94808683  0.39764051  0.89806128  1.0
  Na  Na14  1  0.05191317  0.60235949  0.10193872  1.0
  Na  Na15  1  0.05191317  0.89764051  0.60193872  1.0
  Ge  Ge16  1  0.94365944  0.77882558  0.35366445  1.0
  Ge  Ge17  1  0.94365944  0.72117442  0.85366445  1.0
  Ge  Ge18  1  0.05634056  0.27882558  0.14633555  1.0
  Ge  Ge19  1  0.05634056  0.22117442  0.64633555  1.0
  Ge  Ge20  1  0.81521429  0.33708531  0.49069883  1.0
  Ge  Ge21  1  0.81521429  0.16291469  0.99069883  1.0
  Ge  Ge22  1  0.18478571  0.83708531  0.00930117  1.0
  Ge  Ge23  1  0.18478571  0.66291469  0.50930117  1.0
  Ge  Ge24  1  0.78180028  0.19232443  0.17252928  1.0
  Ge  Ge25  1  0.78180028  0.30767557  0.67252928  1.0
  Ge  Ge26  1  0.21819972  0.69232443  0.32747072  1.0
  Ge  Ge27  1  0.21819972  0.80767557  0.82747072  1.0
  Ge  Ge28  1  0.76234523  0.40183154  0.05790460  1.0
  Ge  Ge29  1  0.76234523  0.09816846  0.55790460  1.0
  Ge  Ge30  1  0.23765477  0.90183154  0.44209540  1.0
  Ge  Ge31  1  0.23765477  0.59816846  0.94209540  1.0
