# generated using pymatgen
data_MgGeO3
_symmetry_space_group_name_H-M   'P 1'
_cell_length_a   5.46277700
_cell_length_b   5.46277700
_cell_length_c   5.46277700
_cell_angle_alpha   54.55976879
_cell_angle_beta   54.55976879
_cell_angle_gamma   54.55976879
_symmetry_Int_Tables_number   1
_chemical_formula_structural   MgGeO3
_chemical_formula_sum   'Mg2 Ge2 O6'
_cell_volume   100.65577129
_cell_formula_units_Z   2
loop_
 _symmetry_equiv_pos_site_id
 _symmetry_equiv_pos_as_xyz
  1  'x, y, z'
loop_
 _atom_site_type_symbol
 _atom_site_label
 _atom_site_symmetry_multiplicity
 _atom_site_fract_x
 _atom_site_fract_y
 _atom_site_fract_z
 _atom_site_occupancy
  Mg  Mg0  1  0.35902912  0.35902912  -0.64097088  1.0
  Mg  Mg1  1  0.64097088  0.64097088  -0.35902912  1.0
  Ge  Ge2  1  0.15338208  0.15338208  0.15338208  1.0
  Ge  Ge3  1  0.84661792  -0.15338208  -0.15338208  1.0
  O  O4  1  0.44053970  0.04605493  -0.21964149  1.0
  O  O5  1  1.21964149  -0.44053970  -0.04605493  1.0
  O  O6  1  0.95394507  0.21964149  -0.44053970  1.0
  O  O7  1  0.55946030  -0.04605493  0.21964149  1.0
  O  O8  1  0.78035851  -0.55946030  0.04605493  1.0
  O  O9  1  1.04605493  -0.21964149  -0.55946030  1.0
