# generated using pymatgen
data_KLaCr2O8
_symmetry_space_group_name_H-M   'P 1'
_cell_length_a   8.90293513
_cell_length_b   7.58821795
_cell_length_c   11.14793243
_cell_angle_alpha   90.00000000
_cell_angle_beta   92.69281034
_cell_angle_gamma   90.00000000
_symmetry_Int_Tables_number   1
_chemical_formula_structural   KLaCr2O8
_chemical_formula_sum   'K4 La4 Cr8 O32'
_cell_volume   752.29384863
_cell_formula_units_Z   4
loop_
 _symmetry_equiv_pos_site_id
 _symmetry_equiv_pos_as_xyz
  1  'x, y, z'
loop_
 _atom_site_type_symbol
 _atom_site_label
 _atom_site_symmetry_multiplicity
 _atom_site_fract_x
 _atom_site_fract_y
 _atom_site_fract_z
 _atom_site_occupancy
  K  K0  1  0.43334209  0.34675097  0.15973461  1.0
  K  K1  1  0.43334209  0.15324903  0.65973461  1.0
  K  K2  1  0.56665791  0.84675097  0.34026539  1.0
  K  K3  1  0.56665791  0.65324903  0.84026539  1.0
  La  La4  1  0.94054163  0.16263626  0.15505162  1.0
  La  La5  1  0.94054163  0.33736374  0.65505162  1.0
  La  La6  1  0.05945837  0.66263626  0.34494838  1.0
  La  La7  1  0.05945837  0.83736374  0.84494838  1.0
  Cr  Cr8  1  0.72043489  0.33558613  0.41103393  1.0
  Cr  Cr9  1  0.72043489  0.16441387  0.91103393  1.0
  Cr  Cr10  1  0.27956511  0.83558613  0.08896607  1.0
  Cr  Cr11  1  0.27956511  0.66441387  0.58896607  1.0
  Cr  Cr12  1  0.18876527  0.16331762  0.39362198  1.0
  Cr  Cr13  1  0.18876527  0.33668238  0.89362198  1.0
  Cr  Cr14  1  0.81123473  0.66331762  0.10637802  1.0
  Cr  Cr15  1  0.81123473  0.83668238  0.60637802  1.0
  O  O16  1  0.90632611  0.49843085  0.17685746  1.0
  O  O17  1  0.90632611  0.00156915  0.67685746  1.0
  O  O18  1  0.09367389  0.99843085  0.32314254  1.0
  O  O19  1  0.09367389  0.50156915  0.82314254  1.0
  O  O20  1  0.88303994  0.44252056  0.43820479  1.0
  O  O21  1  0.88303994  0.05747944  0.93820479  1.0
  O  O22  1  0.11696006  0.94252056  0.06179521  1.0
  O  O23  1  0.11696006  0.55747944  0.56179521  1.0
  O  O24  1  0.86471263  0.81189592  0.46800759  1.0
  O  O25  1  0.86471263  0.68810408  0.96800759  1.0
  O  O26  1  0.13528737  0.31189592  0.03199241  1.0
  O  O27  1  0.13528737  0.18810408  0.53199241  1.0
  O  O28  1  0.85699517  0.83944158  0.19085145  1.0
  O  O29  1  0.85699517  0.66055842  0.69085145  1.0
  O  O30  1  0.14300483  0.33944158  0.30914855  1.0
  O  O31  1  0.14300483  0.16055842  0.80914855  1.0
  O  O32  1  0.74404563  0.18086595  0.30742260  1.0
  O  O33  1  0.74404563  0.31913405  0.80742260  1.0
  O  O34  1  0.25595437  0.68086595  0.19257740  1.0
  O  O35  1  0.25595437  0.81913405  0.69257740  1.0
  O  O36  1  0.69359244  0.25143163  0.04450853  1.0
  O  O37  1  0.69359244  0.24856837  0.54450853  1.0
  O  O38  1  0.30640756  0.75143163  0.45549147  1.0
  O  O39  1  0.30640756  0.74856837  0.95549147  1.0
  O  O40  1  0.58789993  0.47027382  0.36814936  1.0
  O  O41  1  0.58789993  0.02972618  0.86814936  1.0
  O  O42  1  0.41210007  0.97027382  0.13185064  1.0
  O  O43  1  0.41210007  0.52972618  0.63185064  1.0
  O  O44  1  0.36830085  0.13212187  0.39586683  1.0
  O  O45  1  0.36830085  0.36787813  0.89586683  1.0
  O  O46  1  0.63169915  0.63212187  0.10413317  1.0
  O  O47  1  0.63169915  0.86787813  0.60413317  1.0
