# generated using pymatgen
data_LaPO4
_symmetry_space_group_name_H-M   'P 1'
_cell_length_a   8.34023816
_cell_length_b   5.35142925
_cell_length_c   6.83899222
_cell_angle_alpha   90.00000000
_cell_angle_beta   90.00000000
_cell_angle_gamma   90.00000000
_symmetry_Int_Tables_number   1
_chemical_formula_structural   LaPO4
_chemical_formula_sum   'La4 P4 O16'
_cell_volume   305.23923084
_cell_formula_units_Z   4
loop_
 _symmetry_equiv_pos_site_id
 _symmetry_equiv_pos_as_xyz
  1  'x, y, z'
loop_
 _atom_site_type_symbol
 _atom_site_label
 _atom_site_symmetry_multiplicity
 _atom_site_fract_x
 _atom_site_fract_y
 _atom_site_fract_z
 _atom_site_occupancy
  La  La0  1  0.31280331  0.75000000  0.15880400  1.0
  La  La1  1  0.81280331  0.75000000  0.34119600  1.0
  La  La2  1  0.68719669  0.25000000  0.84119600  1.0
  La  La3  1  0.18719669  0.25000000  0.65880400  1.0
  P  P4  1  0.44450341  0.75000000  0.68013485  1.0
  P  P5  1  0.94450341  0.75000000  0.81986515  1.0
  P  P6  1  0.55549659  0.25000000  0.31986515  1.0
  P  P7  1  0.05549659  0.25000000  0.18013485  1.0
  O  O8  1  0.42636758  0.98730542  0.81246513  1.0
  O  O9  1  0.42636758  0.51269458  0.81246513  1.0
  O  O10  1  0.92636758  0.98730542  0.68753487  1.0
  O  O11  1  0.92636758  0.51269458  0.68753487  1.0
  O  O12  1  0.57363242  0.48730542  0.18753487  1.0
  O  O13  1  0.57363242  0.01269458  0.18753487  1.0
  O  O14  1  0.07363242  0.48730542  0.31246513  1.0
  O  O15  1  0.07363242  0.01269458  0.31246513  1.0
  O  O16  1  0.30623845  0.75000000  0.52851312  1.0
  O  O17  1  0.80623845  0.75000000  0.97148688  1.0
  O  O18  1  0.69376155  0.25000000  0.47148688  1.0
  O  O19  1  0.19376155  0.25000000  0.02851312  1.0
  O  O20  1  0.11370075  0.75000000  0.90968886  1.0
  O  O21  1  0.61370075  0.75000000  0.59031114  1.0
  O  O22  1  0.88629925  0.25000000  0.09031114  1.0
  O  O23  1  0.38629925  0.25000000  0.40968886  1.0
