# generated using pymatgen
data_EuAsPt
_symmetry_space_group_name_H-M   'P 1'
_cell_length_a   8.14534655
_cell_length_b   8.14534655
_cell_length_c   8.14534655
_cell_angle_alpha   150.03497854
_cell_angle_beta   150.03497854
_cell_angle_gamma   42.89006064
_symmetry_Int_Tables_number   1
_chemical_formula_structural   EuAsPt
_chemical_formula_sum   'Eu2 As2 Pt2'
_cell_volume   134.47230742
_cell_formula_units_Z   2
loop_
 _symmetry_equiv_pos_site_id
 _symmetry_equiv_pos_as_xyz
  1  'x, y, z'
loop_
 _atom_site_type_symbol
 _atom_site_label
 _atom_site_symmetry_multiplicity
 _atom_site_fract_x
 _atom_site_fract_y
 _atom_site_fract_z
 _atom_site_occupancy
  Eu  Eu0  1  0.58245580  0.58245580  1.00000000  1.0
  Eu  Eu1  1  0.33245580  0.83245580  0.50000000  1.0
  As  As2  1  0.00140166  0.00140166  -0.00000000  1.0
  As  As3  1  0.75140166  0.25140166  0.50000000  1.0
  Pt  Pt4  1  0.16564253  0.16564253  -0.00000000  1.0
  Pt  Pt5  1  0.91564253  0.41564253  0.50000000  1.0
