# generated using pymatgen
data_K(AsIr)2
_symmetry_space_group_name_H-M   'P 1'
_cell_length_a   7.30630234
_cell_length_b   7.30630234
_cell_length_c   7.30630234
_cell_angle_alpha   147.72030045
_cell_angle_beta   147.72030045
_cell_angle_gamma   46.29843067
_symmetry_Int_Tables_number   1
_chemical_formula_structural   K(AsIr)2
_chemical_formula_sum   'K1 As2 Ir2'
_cell_volume   110.84932776
_cell_formula_units_Z   1
loop_
 _symmetry_equiv_pos_site_id
 _symmetry_equiv_pos_as_xyz
  1  'x, y, z'
loop_
 _atom_site_type_symbol
 _atom_site_label
 _atom_site_symmetry_multiplicity
 _atom_site_fract_x
 _atom_site_fract_y
 _atom_site_fract_z
 _atom_site_occupancy
  K  K0  1  0.00000000  0.00000000  0.00000000  1.0
  As  As1  1  0.64518726  0.64518726  1.00000000  1.0
  As  As2  1  0.35481274  0.35481274  -0.00000000  1.0
  Ir  Ir3  1  0.25000000  0.75000000  0.50000000  1.0
  Ir  Ir4  1  0.75000000  0.25000000  0.50000000  1.0
