# generated using pymatgen
data_Na3InAs2
_symmetry_space_group_name_H-M   'P 1'
_cell_length_a   9.81390234
_cell_length_b   7.60118195
_cell_length_c   15.87252839
_cell_angle_alpha   90.00000000
_cell_angle_beta   92.83273271
_cell_angle_gamma   90.00000000
_symmetry_Int_Tables_number   1
_chemical_formula_structural   Na3InAs2
_chemical_formula_sum   'Na24 In8 As16'
_cell_volume   1182.60025841
_cell_formula_units_Z   8
loop_
 _symmetry_equiv_pos_site_id
 _symmetry_equiv_pos_as_xyz
  1  'x, y, z'
loop_
 _atom_site_type_symbol
 _atom_site_label
 _atom_site_symmetry_multiplicity
 _atom_site_fract_x
 _atom_site_fract_y
 _atom_site_fract_z
 _atom_site_occupancy
  Na  Na0  1  0.94078731  0.48818721  0.10568105  1.0
  Na  Na1  1  0.94078731  0.01181279  0.60568105  1.0
  Na  Na2  1  0.05921269  0.98818721  0.39431895  1.0
  Na  Na3  1  0.05921269  0.51181279  0.89431895  1.0
  Na  Na4  1  0.88331578  0.34826973  0.45378301  1.0
  Na  Na5  1  0.88331578  0.15173027  0.95378301  1.0
  Na  Na6  1  0.11668422  0.84826973  0.04621699  1.0
  Na  Na7  1  0.11668422  0.65173027  0.54621699  1.0
  Na  Na8  1  0.82119800  0.98842195  0.13927785  1.0
  Na  Na9  1  0.82119800  0.51157805  0.63927785  1.0
  Na  Na10  1  0.17880200  0.48842195  0.36072215  1.0
  Na  Na11  1  0.17880200  0.01157805  0.86072215  1.0
  Na  Na12  1  0.68879382  0.03126546  0.35214923  1.0
  Na  Na13  1  0.68879382  0.46873454  0.85214923  1.0
  Na  Na14  1  0.31120618  0.53126546  0.14785077  1.0
  Na  Na15  1  0.31120618  0.96873454  0.64785077  1.0
  Na  Na16  1  0.62752135  0.34806027  0.20287620  1.0
  Na  Na17  1  0.62752135  0.15193973  0.70287620  1.0
  Na  Na18  1  0.37247865  0.84806027  0.29712380  1.0
  Na  Na19  1  0.37247865  0.65193973  0.79712380  1.0
  Na  Na20  1  0.43388169  0.02750544  0.10556613  1.0
  Na  Na21  1  0.43388169  0.47249456  0.60556613  1.0
  Na  Na22  1  0.56611831  0.52750544  0.39443387  1.0
  Na  Na23  1  0.56611831  0.97249456  0.89443387  1.0
  In  In24  1  0.86165954  0.65237661  0.29125485  1.0
  In  In25  1  0.86165954  0.84762339  0.79125485  1.0
  In  In26  1  0.13834046  0.15237661  0.20874515  1.0
  In  In27  1  0.13834046  0.34762339  0.70874515  1.0
  In  In28  1  0.37544904  0.14033755  0.45769555  1.0
  In  In29  1  0.37544904  0.35966245  0.95769555  1.0
  In  In30  1  0.62455096  0.64033755  0.04230445  1.0
  In  In31  1  0.62455096  0.85966245  0.54230445  1.0
  As  As32  1  0.90755500  0.28822255  0.27406661  1.0
  As  As33  1  0.90755500  0.21177745  0.77406661  1.0
  As  As34  1  0.09244500  0.78822255  0.22593339  1.0
  As  As35  1  0.09244500  0.71177745  0.72593339  1.0
  As  As36  1  0.84833309  0.73745391  0.46092034  1.0
  As  As37  1  0.84833309  0.76254609  0.96092034  1.0
  As  As38  1  0.15166691  0.23745391  0.03907966  1.0
  As  As39  1  0.15166691  0.26254609  0.53907966  1.0
  As  As40  1  0.62831792  0.27791482  0.02262962  1.0
  As  As41  1  0.62831792  0.22208518  0.52262962  1.0
  As  As42  1  0.37168208  0.77791482  0.47737038  1.0
  As  As43  1  0.37168208  0.72208518  0.97737038  1.0
  As  As44  1  0.37842666  0.24082287  0.29164060  1.0
  As  As45  1  0.37842666  0.25917713  0.79164060  1.0
  As  As46  1  0.62157334  0.74082287  0.20835940  1.0
  As  As47  1  0.62157334  0.75917713  0.70835940  1.0
