# generated using pymatgen
data_Sr2Ni(SeO3)3
_symmetry_space_group_name_H-M   'P 1'
_cell_length_a   7.73232067
_cell_length_b   7.41092000
_cell_length_c   8.83866817
_cell_angle_alpha   105.41778075
_cell_angle_beta   103.08875931
_cell_angle_gamma   95.46233719
_symmetry_Int_Tables_number   1
_chemical_formula_structural   Sr2Ni(SeO3)3
_chemical_formula_sum   'Sr4 Ni2 Se6 O18'
_cell_volume   469.01768504
_cell_formula_units_Z   2
loop_
 _symmetry_equiv_pos_site_id
 _symmetry_equiv_pos_as_xyz
  1  'x, y, z'
loop_
 _atom_site_type_symbol
 _atom_site_label
 _atom_site_symmetry_multiplicity
 _atom_site_fract_x
 _atom_site_fract_y
 _atom_site_fract_z
 _atom_site_occupancy
  Sr  Sr0  1  -0.91284046  -0.75374229  -0.11151131  1.0
  Sr  Sr1  1  -0.08715954  -0.24625771  -0.88848869  1.0
  Sr  Sr2  1  -0.51787611  -0.37196345  -0.69369093  1.0
  Sr  Sr3  1  -0.48212389  -0.62803655  -0.30630907  1.0
  Ni  Ni4  1  -0.66276370  -0.90664590  -0.74737635  1.0
  Ni  Ni5  1  -0.33723630  -0.09335410  -0.25262365  1.0
  Se  Se6  1  -0.21458147  -0.90669599  -0.54478705  1.0
  Se  Se7  1  -0.78541853  -0.09330401  -0.45521295  1.0
  Se  Se8  1  -0.36439653  -0.76599434  -0.91316625  1.0
  Se  Se9  1  -0.63560347  -0.23400566  -0.08683375  1.0
  Se  Se10  1  -0.91489337  -0.64236524  -0.70677738  1.0
  Se  Se11  1  -0.08510663  -0.35763476  -0.29322262  1.0
  O  O12  1  -0.75058377  -0.86848517  -0.32781498  1.0
  O  O13  1  -0.24941623  -0.13151483  -0.67218502  1.0
  O  O14  1  -0.94149812  -0.86041173  -0.85153573  1.0
  O  O15  1  -0.05850188  -0.13958827  -0.14846427  1.0
  O  O16  1  -0.42504645  -0.83766849  -0.57476649  1.0
  O  O17  1  -0.57495355  -0.16233151  -0.42523351  1.0
  O  O18  1  -0.59148931  -0.77484914  -0.91157783  1.0
  O  O19  1  -0.40851069  -0.22515086  -0.08842217  1.0
  O  O20  1  -0.69542186  -0.63745683  -0.60029025  1.0
  O  O21  1  -0.30457814  -0.36254317  -0.39970975  1.0
  O  O22  1  -0.29995084  -0.52482025  -0.85265430  1.0
  O  O23  1  -0.70004916  -0.47517975  -0.14734570  1.0
  O  O24  1  -0.87810913  -0.49323034  -0.82009925  1.0
  O  O25  1  -0.12189087  -0.50676966  -0.17990075  1.0
  O  O26  1  -0.63856123  -0.17569813  -0.88453865  1.0
  O  O27  1  -0.36143877  -0.82430187  -0.11546135  1.0
  O  O28  1  -0.81181421  -0.06470240  -0.64576038  1.0
  O  O29  1  -0.18818579  -0.93529760  -0.35423962  1.0
