# generated using pymatgen
data_Ba4Cl6O
_symmetry_space_group_name_H-M   'P 1'
_cell_length_a   10.08849705
_cell_length_b   10.08849705
_cell_length_c   7.70105824
_cell_angle_alpha   90.00000000
_cell_angle_beta   90.00000000
_cell_angle_gamma   120.00000000
_symmetry_Int_Tables_number   1
_chemical_formula_structural   Ba4Cl6O
_chemical_formula_sum   'Ba8 Cl12 O2'
_cell_volume   678.78772779
_cell_formula_units_Z   2
loop_
 _symmetry_equiv_pos_site_id
 _symmetry_equiv_pos_as_xyz
  1  'x, y, z'
loop_
 _atom_site_type_symbol
 _atom_site_label
 _atom_site_symmetry_multiplicity
 _atom_site_fract_x
 _atom_site_fract_y
 _atom_site_fract_z
 _atom_site_occupancy
  Ba  Ba0  1  0.60828394  0.80414197  0.44002647  1.0
  Ba  Ba1  1  0.80414197  0.60828394  0.94002647  1.0
  Ba  Ba2  1  0.80414197  0.19585803  0.94002647  1.0
  Ba  Ba3  1  0.19585803  0.80414197  0.44002647  1.0
  Ba  Ba4  1  0.19585803  0.39171606  0.44002647  1.0
  Ba  Ba5  1  0.39171606  0.19585803  0.94002647  1.0
  Ba  Ba6  1  0.33333333  0.66666667  0.00695711  1.0
  Ba  Ba7  1  0.66666667  0.33333333  0.50695711  1.0
  Cl  Cl8  1  0.70911134  0.85455567  0.04658532  1.0
  Cl  Cl9  1  0.85455567  0.70911134  0.54658532  1.0
  Cl  Cl10  1  0.85455567  0.14544433  0.54658532  1.0
  Cl  Cl11  1  0.14544433  0.85455567  0.04658532  1.0
  Cl  Cl12  1  0.14544433  0.29088866  0.04658532  1.0
  Cl  Cl13  1  0.29088866  0.14544433  0.54658532  1.0
  Cl  Cl14  1  0.93634903  0.46817451  0.22468853  1.0
  Cl  Cl15  1  0.46817451  0.93634903  0.72468853  1.0
  Cl  Cl16  1  0.46817451  0.53182549  0.72468853  1.0
  Cl  Cl17  1  0.53182549  0.46817451  0.22468853  1.0
  Cl  Cl18  1  0.53182549  0.06365097  0.22468853  1.0
  Cl  Cl19  1  0.06365097  0.53182549  0.72468853  1.0
  O  O20  1  0.33333333  0.66666667  0.33664193  1.0
  O  O21  1  0.66666667  0.33333333  0.83664193  1.0
