# generated using pymatgen
data_ZnGeO3
_symmetry_space_group_name_H-M   'P 1'
_cell_length_a   4.99948565
_cell_length_b   4.99948565
_cell_length_c   7.13150241
_cell_angle_alpha   90.00000000
_cell_angle_beta   90.00000000
_cell_angle_gamma   146.88036788
_symmetry_Int_Tables_number   1
_chemical_formula_structural   ZnGeO3
_chemical_formula_sum   'Zn2 Ge2 O6'
_cell_volume   97.39431546
_cell_formula_units_Z   2
loop_
 _symmetry_equiv_pos_site_id
 _symmetry_equiv_pos_as_xyz
  1  'x, y, z'
loop_
 _atom_site_type_symbol
 _atom_site_label
 _atom_site_symmetry_multiplicity
 _atom_site_fract_x
 _atom_site_fract_y
 _atom_site_fract_z
 _atom_site_occupancy
  Zn  Zn0  1  -0.26357722  0.26357722  0.75000000  1.0
  Zn  Zn1  1  0.26357722  0.73642278  0.25000000  1.0
  Ge  Ge2  1  0.00000000  0.00000000  0.00000000  1.0
  Ge  Ge3  1  0.00000000  0.00000000  0.50000000  1.0
  O  O4  1  0.37187170  0.62812830  0.94107190  1.0
  O  O5  1  0.37187170  0.62812830  0.55892810  1.0
  O  O6  1  -0.37187170  0.37187170  0.44107190  1.0
  O  O7  1  -0.37187170  0.37187170  0.05892810  1.0
  O  O8  1  0.08336357  0.91663643  0.75000000  1.0
  O  O9  1  -0.08336357  0.08336357  0.25000000  1.0
