# generated using pymatgen
data_Cs2Mg(MoO6)2
_symmetry_space_group_name_H-M   'P 1'
_cell_length_a   6.77249107
_cell_length_b   14.06805988
_cell_length_c   8.62032053
_cell_angle_alpha   90.00000000
_cell_angle_beta   121.02903696
_cell_angle_gamma   90.00000000
_symmetry_Int_Tables_number   1
_chemical_formula_structural   Cs2Mg(MoO6)2
_chemical_formula_sum   'Cs4 Mg2 Mo4 O24'
_cell_volume   703.78391404
_cell_formula_units_Z   2
loop_
 _symmetry_equiv_pos_site_id
 _symmetry_equiv_pos_as_xyz
  1  'x, y, z'
loop_
 _atom_site_type_symbol
 _atom_site_label
 _atom_site_symmetry_multiplicity
 _atom_site_fract_x
 _atom_site_fract_y
 _atom_site_fract_z
 _atom_site_occupancy
  O  O0  1  0.97057047  0.13934654  -0.06206500  1.0
  O  O1  1  0.97057047  0.36065346  0.43793500  1.0
  O  O2  1  0.02942953  0.63934654  0.56206500  1.0
  O  O3  1  0.02942953  0.86065346  1.06206500  1.0
  O  O4  1  0.97563416  0.45214428  0.23493080  1.0
  O  O5  1  0.97563416  0.04785572  0.73493080  1.0
  O  O6  1  0.02436584  0.95214428  0.26506920  1.0
  O  O7  1  0.02436584  0.54785572  0.76506920  1.0
  O  O8  1  0.76928092  0.10917984  0.21498512  1.0
  O  O9  1  0.76928092  0.39082016  0.71498512  1.0
  O  O10  1  0.23071908  0.60917984  0.28501488  1.0
  O  O11  1  0.23071908  0.89082016  0.78501488  1.0
  O  O12  1  0.73999421  0.92058110  0.33622793  1.0
  O  O13  1  0.73999421  0.57941890  0.83622793  1.0
  O  O14  1  0.26000579  0.42058110  0.16377207  1.0
  O  O15  1  0.26000579  0.07941890  0.66377207  1.0
  O  O16  1  0.67417482  0.09356301  0.50476537  1.0
  O  O17  1  0.67417482  0.40643699  1.00476537  1.0
  O  O18  1  0.32582518  0.59356301  -0.00476537  1.0
  O  O19  1  0.32582518  0.90643699  0.49523463  1.0
  O  O20  1  0.32656500  0.04390681  0.14356111  1.0
  O  O21  1  0.32656500  0.45609319  0.64356111  1.0
  O  O22  1  0.67343500  0.54390681  0.35643889  1.0
  O  O23  1  0.67343500  0.95609319  0.85643889  1.0
  Mo  Mo24  1  0.63303066  0.03963519  0.30072388  1.0
  Mo  Mo25  1  0.63303066  0.46036481  0.80072388  1.0
  Mo  Mo26  1  0.36696934  0.53963519  0.19927612  1.0
  Mo  Mo27  1  0.36696934  0.96036481  0.69927612  1.0
  Cs  Cs28  1  0.22178110  0.22303994  0.34548652  1.0
  Cs  Cs29  1  0.22178110  0.27696006  0.84548652  1.0
  Cs  Cs30  1  0.77821890  0.72303994  0.15451348  1.0
  Cs  Cs31  1  0.77821890  0.77696006  0.65451348  1.0
  Mg  Mg32  1  -0.00000000  0.50000000  0.50000000  1.0
  Mg  Mg33  1  0.00000000  0.00000000  0.00000000  1.0
