# generated using pymatgen
data_SnS
_symmetry_space_group_name_H-M   'P 1'
_cell_length_a   11.45543865
_cell_length_b   4.02569025
_cell_length_c   4.44516854
_cell_angle_alpha   90.00000000
_cell_angle_beta   90.00000000
_cell_angle_gamma   90.00000000
_symmetry_Int_Tables_number   1
_chemical_formula_structural   SnS
_chemical_formula_sum   'Sn4 S4'
_cell_volume   204.99360454
_cell_formula_units_Z   4
loop_
 _symmetry_equiv_pos_site_id
 _symmetry_equiv_pos_as_xyz
  1  'x, y, z'
loop_
 _atom_site_type_symbol
 _atom_site_label
 _atom_site_symmetry_multiplicity
 _atom_site_fract_x
 _atom_site_fract_y
 _atom_site_fract_z
 _atom_site_occupancy
  Sn  Sn0  1  0.37837350  0.75000000  0.87133905  1.0
  Sn  Sn1  1  0.87837350  0.75000000  0.62866095  1.0
  Sn  Sn2  1  0.62162650  0.25000000  0.12866095  1.0
  Sn  Sn3  1  0.12162650  0.25000000  0.37133905  1.0
  S  S4  1  0.14998081  0.75000000  -0.02296460  1.0
  S  S5  1  0.64998081  0.75000000  0.52296460  1.0
  S  S6  1  0.85001919  0.25000000  1.02296460  1.0
  S  S7  1  0.35001919  0.25000000  0.47703540  1.0
