# generated using pymatgen
data_BaH2Cl2O
_symmetry_space_group_name_H-M   'P 1'
_cell_length_a   10.97695019
_cell_length_b   4.55979917
_cell_length_c   9.34306416
_cell_angle_alpha   90.00000000
_cell_angle_beta   90.00000000
_cell_angle_gamma   90.00000000
_symmetry_Int_Tables_number   1
_chemical_formula_structural   BaH2Cl2O
_chemical_formula_sum   'Ba4 H8 Cl8 O4'
_cell_volume   467.64547881
_cell_formula_units_Z   4
loop_
 _symmetry_equiv_pos_site_id
 _symmetry_equiv_pos_as_xyz
  1  'x, y, z'
loop_
 _atom_site_type_symbol
 _atom_site_label
 _atom_site_symmetry_multiplicity
 _atom_site_fract_x
 _atom_site_fract_y
 _atom_site_fract_z
 _atom_site_occupancy
  Ba  Ba0  1  0.19244555  0.75000000  0.09828609  1.0
  Ba  Ba1  1  0.69244555  0.75000000  0.40171391  1.0
  Ba  Ba2  1  0.80755445  0.25000000  0.90171391  1.0
  Ba  Ba3  1  0.30755445  0.25000000  0.59828609  1.0
  H  H4  1  0.12251941  0.75000000  0.48438118  1.0
  H  H5  1  0.62251941  0.75000000  0.01561882  1.0
  H  H6  1  0.87748059  0.25000000  0.51561882  1.0
  H  H7  1  0.37748059  0.25000000  0.98438118  1.0
  H  H8  1  0.07140132  0.75000000  0.63840261  1.0
  H  H9  1  0.57140132  0.75000000  0.86159739  1.0
  H  H10  1  0.92859868  0.25000000  0.36159739  1.0
  H  H11  1  0.42859868  0.25000000  0.13840261  1.0
  Cl  Cl12  1  0.37750766  0.75000000  0.82362687  1.0
  Cl  Cl13  1  0.87750766  0.75000000  0.67637313  1.0
  Cl  Cl14  1  0.62249234  0.25000000  0.17637313  1.0
  Cl  Cl15  1  0.12249234  0.25000000  0.32362687  1.0
  Cl  Cl16  1  0.89623375  0.75000000  0.11862349  1.0
  Cl  Cl17  1  0.39623375  0.75000000  0.38137651  1.0
  Cl  Cl18  1  0.10376625  0.25000000  0.88137651  1.0
  Cl  Cl19  1  0.60376625  0.25000000  0.61862349  1.0
  O  O20  1  0.14903859  0.75000000  0.58418882  1.0
  O  O21  1  0.64903859  0.75000000  0.91581118  1.0
  O  O22  1  0.85096141  0.25000000  0.41581118  1.0
  O  O23  1  0.35096141  0.25000000  0.08418882  1.0
