# generated using pymatgen
data_CsAg5Se3
_symmetry_space_group_name_H-M   'P 1'
_cell_length_a   14.29215670
_cell_length_b   14.29215670
_cell_length_c   4.44610447
_cell_angle_alpha   90.00000000
_cell_angle_beta   90.00000000
_cell_angle_gamma   90.00000000
_symmetry_Int_Tables_number   1
_chemical_formula_structural   CsAg5Se3
_chemical_formula_sum   'Cs4 Ag20 Se12'
_cell_volume   908.18683498
_cell_formula_units_Z   4
loop_
 _symmetry_equiv_pos_site_id
 _symmetry_equiv_pos_as_xyz
  1  'x, y, z'
loop_
 _atom_site_type_symbol
 _atom_site_label
 _atom_site_symmetry_multiplicity
 _atom_site_fract_x
 _atom_site_fract_y
 _atom_site_fract_z
 _atom_site_occupancy
  Cs  Cs0  1  0.11467997  0.88532003  0.50000000  1.0
  Cs  Cs1  1  0.61467997  0.61467997  0.00000000  1.0
  Cs  Cs2  1  0.88532003  0.11467997  0.50000000  1.0
  Cs  Cs3  1  0.38532003  0.38532003  0.00000000  1.0
  Ag  Ag4  1  0.42418582  0.78224267  0.50000000  1.0
  Ag  Ag5  1  0.92418582  0.71775733  0.00000000  1.0
  Ag  Ag6  1  0.21775733  0.57581418  0.50000000  1.0
  Ag  Ag7  1  0.71775733  0.92418582  0.00000000  1.0
  Ag  Ag8  1  0.57581418  0.21775733  0.50000000  1.0
  Ag  Ag9  1  0.07581418  0.28224267  0.00000000  1.0
  Ag  Ag10  1  0.78224267  0.42418582  0.50000000  1.0
  Ag  Ag11  1  0.28224267  0.07581418  0.00000000  1.0
  Ag  Ag12  1  0.39207635  0.98342712  0.50000000  1.0
  Ag  Ag13  1  0.89207635  0.51657288  0.00000000  1.0
  Ag  Ag14  1  0.01657288  0.60792365  0.50000000  1.0
  Ag  Ag15  1  0.51657288  0.89207635  0.00000000  1.0
  Ag  Ag16  1  0.60792365  0.01657288  0.50000000  1.0
  Ag  Ag17  1  0.10792365  0.48342712  0.00000000  1.0
  Ag  Ag18  1  0.98342712  0.39207635  0.50000000  1.0
  Ag  Ag19  1  0.48342712  0.10792365  0.00000000  1.0
  Ag  Ag20  1  0.17456379  0.17456379  0.50000000  1.0
  Ag  Ag21  1  0.67456379  0.32543621  0.00000000  1.0
  Ag  Ag22  1  0.82543621  0.82543621  0.50000000  1.0
  Ag  Ag23  1  0.32543621  0.67456379  0.00000000  1.0
  Se  Se24  1  0.38241766  0.16973495  0.50000000  1.0
  Se  Se25  1  0.88241766  0.33026505  0.00000000  1.0
  Se  Se26  1  0.83026505  0.61758234  0.50000000  1.0
  Se  Se27  1  0.33026505  0.88241766  0.00000000  1.0
  Se  Se28  1  0.61758234  0.83026505  0.50000000  1.0
  Se  Se29  1  0.11758234  0.66973495  0.00000000  1.0
  Se  Se30  1  0.16973495  0.38241766  0.50000000  1.0
  Se  Se31  1  0.66973495  0.11758234  0.00000000  1.0
  Se  Se32  1  0.39998919  0.60001081  0.50000000  1.0
  Se  Se33  1  0.89998919  0.89998919  0.00000000  1.0
  Se  Se34  1  0.60001081  0.39998919  0.50000000  1.0
  Se  Se35  1  0.10001081  0.10001081  0.00000000  1.0
