# generated using pymatgen
data_Gd12Ni6Pb
_symmetry_space_group_name_H-M   'P 1'
_cell_length_a   8.53525305
_cell_length_b   8.53525305
_cell_length_c   8.53525305
_cell_angle_alpha   109.47122063
_cell_angle_beta   109.47122063
_cell_angle_gamma   109.47122063
_symmetry_Int_Tables_number   1
_chemical_formula_structural   Gd12Ni6Pb
_chemical_formula_sum   'Gd12 Ni6 Pb1'
_cell_volume   478.66019603
_cell_formula_units_Z   1
loop_
 _symmetry_equiv_pos_site_id
 _symmetry_equiv_pos_as_xyz
  1  'x, y, z'
loop_
 _atom_site_type_symbol
 _atom_site_label
 _atom_site_symmetry_multiplicity
 _atom_site_fract_x
 _atom_site_fract_y
 _atom_site_fract_z
 _atom_site_occupancy
  Gd  Gd0  1  0.81337105  1.30619243  1.11956347  1.0
  Gd  Gd1  1  0.81337105  0.69380757  0.50717862  1.0
  Gd  Gd2  1  0.18662895  0.30619243  0.49282138  1.0
  Gd  Gd3  1  0.18662895  0.69380757  0.88043653  1.0
  Gd  Gd4  1  0.50717862  0.81337105  0.69380757  1.0
  Gd  Gd5  1  1.11956347  0.81337105  1.30619243  1.0
  Gd  Gd6  1  0.69380757  0.88043653  0.18662895  1.0
  Gd  Gd7  1  0.69380757  0.50717862  0.81337105  1.0
  Gd  Gd8  1  0.88043653  0.18662895  0.69380757  1.0
  Gd  Gd9  1  0.49282138  0.18662895  0.30619243  1.0
  Gd  Gd10  1  0.30619243  0.49282138  0.18662895  1.0
  Gd  Gd11  1  1.30619243  1.11956347  0.81337105  1.0
  Ni  Ni12  1  0.87679166  0.37679166  0.50000000  1.0
  Ni  Ni13  1  0.50000000  0.12320834  0.62320834  1.0
  Ni  Ni14  1  0.50000000  0.87679166  0.37679166  1.0
  Ni  Ni15  1  0.37679166  0.50000000  0.87679166  1.0
  Ni  Ni16  1  0.62320834  0.50000000  0.12320834  1.0
  Ni  Ni17  1  0.12320834  0.62320834  0.50000000  1.0
  Pb  Pb18  1  0.00000000  0.00000000  0.00000000  1.0
