# generated using pymatgen
data_NdBrO
_symmetry_space_group_name_H-M   'P 1'
_cell_length_a   3.99016021
_cell_length_b   3.99016021
_cell_length_c   8.90051416
_cell_angle_alpha   90.00000000
_cell_angle_beta   90.00000000
_cell_angle_gamma   90.00000000
_symmetry_Int_Tables_number   1
_chemical_formula_structural   NdBrO
_chemical_formula_sum   'Nd2 Br2 O2'
_cell_volume   141.70845465
_cell_formula_units_Z   2
loop_
 _symmetry_equiv_pos_site_id
 _symmetry_equiv_pos_as_xyz
  1  'x, y, z'
loop_
 _atom_site_type_symbol
 _atom_site_label
 _atom_site_symmetry_multiplicity
 _atom_site_fract_x
 _atom_site_fract_y
 _atom_site_fract_z
 _atom_site_occupancy
  Nd  Nd0  1  0.50000000  0.00000000  0.13365713  1.0
  Nd  Nd1  1  0.00000000  0.50000000  0.86634287  1.0
  Br  Br2  1  0.50000000  0.00000000  0.68361934  1.0
  Br  Br3  1  0.00000000  0.50000000  0.31638066  1.0
  O  O4  1  0.00000000  0.00000000  0.00000000  1.0
  O  O5  1  0.50000000  0.50000000  0.00000000  1.0
