# generated using pymatgen
data_InAs
_symmetry_space_group_name_H-M   'P 1'
_cell_length_a   4.09772238
_cell_length_b   4.09772238
_cell_length_c   17.48629210
_cell_angle_alpha   90.00000000
_cell_angle_beta   90.00000000
_cell_angle_gamma   90.69514827
_symmetry_Int_Tables_number   1
_chemical_formula_structural   InAs
_chemical_formula_sum   'In6 As6'
_cell_volume   293.59646859
_cell_formula_units_Z   6
loop_
 _symmetry_equiv_pos_site_id
 _symmetry_equiv_pos_as_xyz
  1  'x, y, z'
loop_
 _atom_site_type_symbol
 _atom_site_label
 _atom_site_symmetry_multiplicity
 _atom_site_fract_x
 _atom_site_fract_y
 _atom_site_fract_z
 _atom_site_occupancy
  In  In0  1  -0.04100304  1.04100304  0.75000000  1.0
  In  In1  1  0.04100304  0.95899696  0.25000000  1.0
  In  In2  1  -0.45698662  1.45698662  0.90987661  1.0
  In  In3  1  0.45698662  0.54301338  0.09012339  1.0
  In  In4  1  -0.45698662  1.45698662  0.59012339  1.0
  In  In5  1  0.45698662  0.54301338  0.40987661  1.0
  As  As6  1  0.45692827  0.54307173  0.75000000  1.0
  As  As7  1  -0.45692827  1.45692827  0.25000000  1.0
  As  As8  1  0.04090950  0.95909050  0.92964294  1.0
  As  As9  1  -0.04090950  1.04090950  0.07035706  1.0
  As  As10  1  0.04090950  0.95909050  0.57035706  1.0
  As  As11  1  -0.04090950  1.04090950  0.42964294  1.0
