# generated using pymatgen
data_BaLuCo4O7
_symmetry_space_group_name_H-M   'P 1'
_cell_length_a   6.26652817
_cell_length_b   6.26652817
_cell_length_c   10.21672925
_cell_angle_alpha   90.00000000
_cell_angle_beta   90.00000000
_cell_angle_gamma   120.00000000
_symmetry_Int_Tables_number   1
_chemical_formula_structural   BaLuCo4O7
_chemical_formula_sum   'Ba2 Lu2 Co8 O14'
_cell_volume   347.45335414
_cell_formula_units_Z   2
loop_
 _symmetry_equiv_pos_site_id
 _symmetry_equiv_pos_as_xyz
  1  'x, y, z'
loop_
 _atom_site_type_symbol
 _atom_site_label
 _atom_site_symmetry_multiplicity
 _atom_site_fract_x
 _atom_site_fract_y
 _atom_site_fract_z
 _atom_site_occupancy
  Ba  Ba0  1  0.33333333  0.66666667  0.43990126  1.0
  Ba  Ba1  1  0.66666667  0.33333333  0.93990126  1.0
  Lu  Lu2  1  0.33333333  0.66666667  0.05778910  1.0
  Lu  Lu3  1  0.66666667  0.33333333  0.55778910  1.0
  Co  Co4  1  0.32258374  0.16129187  0.23845509  1.0
  Co  Co5  1  0.16129187  0.32258374  0.73845509  1.0
  Co  Co6  1  0.16129187  0.83870813  0.73845509  1.0
  Co  Co7  1  0.83870813  0.16129187  0.23845509  1.0
  Co  Co8  1  0.83870813  0.67741626  0.23845509  1.0
  Co  Co9  1  0.67741626  0.83870813  0.73845509  1.0
  Co  Co10  1  0.00000000  0.00000000  -0.05715685  1.0
  Co  Co11  1  0.00000000  0.00000000  0.44284315  1.0
  O  O12  1  -0.00808668  0.49595666  0.17565125  1.0
  O  O13  1  0.49595666  -0.00808668  0.67565125  1.0
  O  O14  1  0.49595666  0.50404334  0.67565125  1.0
  O  O15  1  0.50404334  0.49595666  0.17565125  1.0
  O  O16  1  0.50404334  1.00808668  0.17565125  1.0
  O  O17  1  1.00808668  0.50404334  0.67565125  1.0
  O  O18  1  0.34347002  0.17173501  0.42537226  1.0
  O  O19  1  0.17173501  0.34347002  0.92537226  1.0
  O  O20  1  0.17173501  0.82826499  0.92537226  1.0
  O  O21  1  0.82826499  0.17173501  0.42537226  1.0
  O  O22  1  0.82826499  0.65652998  0.42537226  1.0
  O  O23  1  0.65652998  0.82826499  0.92537226  1.0
  O  O24  1  0.00000000  0.00000000  0.15123068  1.0
  O  O25  1  0.00000000  0.00000000  0.65123068  1.0
