# generated using pymatgen
data_PH5N2O3
_symmetry_space_group_name_H-M   'P 1'
_cell_length_a   7.79210584
_cell_length_b   7.48750545
_cell_length_c   8.91104963
_cell_angle_alpha   114.40140230
_cell_angle_beta   115.27468317
_cell_angle_gamma   82.37540068
_symmetry_Int_Tables_number   1
_chemical_formula_structural   PH5N2O3
_chemical_formula_sum   'P4 H20 N8 O12'
_cell_volume   427.53315326
_cell_formula_units_Z   4
loop_
 _symmetry_equiv_pos_site_id
 _symmetry_equiv_pos_as_xyz
  1  'x, y, z'
loop_
 _atom_site_type_symbol
 _atom_site_label
 _atom_site_symmetry_multiplicity
 _atom_site_fract_x
 _atom_site_fract_y
 _atom_site_fract_z
 _atom_site_occupancy
  P  P0  1  0.86581088  0.84962877  -0.75872222  1.0
  P  P1  1  0.13418912  0.15037123  -0.24127778  1.0
  P  P2  1  0.77469525  0.22260666  -0.51216461  1.0
  P  P3  1  0.22530475  0.77739334  -0.48783539  1.0
  H  H4  1  0.82925777  0.84527209  -0.37134900  1.0
  H  H5  1  0.17074223  0.15472791  -0.62865100  1.0
  H  H6  1  0.31813381  0.79957114  -0.80952692  1.0
  H  H7  1  0.68186619  0.20042886  -0.19047308  1.0
  H  H8  1  0.75425830  0.87416615  -0.14402337  1.0
  H  H9  1  0.24574170  0.12583385  -0.85597663  1.0
  H  H10  1  0.46217256  0.79251761  -0.90422795  1.0
  H  H11  1  0.53782744  0.20748239  -0.09577205  1.0
  H  H12  1  0.59256291  0.76326217  -0.46113781  1.0
  H  H13  1  0.40743709  0.23673783  -0.53886219  1.0
  H  H14  1  0.75967430  0.59828525  -0.48033818  1.0
  H  H15  1  0.24032570  0.40171475  -0.51966182  1.0
  H  H16  1  0.69652333  0.63454222  -0.23580993  1.0
  H  H17  1  0.30347667  0.36545778  -0.76419007  1.0
  H  H18  1  0.77859890  0.45974534  -0.91456542  1.0
  H  H19  1  0.22140110  0.54025466  -0.08543458  1.0
  H  H20  1  0.77789411  0.30912265  -0.81428499  1.0
  H  H21  1  0.22210589  0.69087735  -0.18571501  1.0
  H  H22  1  0.94281156  0.28271429  -0.89575073  1.0
  H  H23  1  0.05718844  0.71728571  -0.10424927  1.0
  N  N24  1  0.32783015  0.82738972  -0.90977668  1.0
  N  N25  1  0.67216985  0.17261028  -0.09022332  1.0
  N  N26  1  0.73663320  0.73738094  -0.39572140  1.0
  N  N27  1  0.26336680  0.26261906  -0.60427860  1.0
  N  N28  1  0.78521816  0.73682656  -0.21979240  1.0
  N  N29  1  0.21478184  0.26317344  -0.78020760  1.0
  N  N30  1  0.80017333  0.31571861  -0.92003785  1.0
  N  N31  1  0.19982667  0.68428139  -0.07996215  1.0
  O  O32  1  0.75021189  0.98866331  -0.63801841  1.0
  O  O33  1  0.24978811  0.01133669  -0.36198159  1.0
  O  O34  1  0.98409259  0.97308208  -0.77894539  1.0
  O  O35  1  0.01590741  0.02691792  -0.22105461  1.0
  O  O36  1  0.34848720  0.74325317  -0.58859366  1.0
  O  O37  1  0.65151280  0.25674683  -0.41140634  1.0
  O  O38  1  0.72207427  0.69311815  -0.91899663  1.0
  O  O39  1  0.27792573  0.30688185  -0.08100337  1.0
  O  O40  1  0.74505821  0.34411568  -0.62028348  1.0
  O  O41  1  0.25494179  0.65588432  -0.37971652  1.0
  O  O42  1  0.99926862  0.26021566  -0.37455432  1.0
  O  O43  1  0.00073138  0.73978434  -0.62544568  1.0
