# generated using pymatgen
data_MnFeAs
_symmetry_space_group_name_H-M   'P 1'
_cell_length_a   6.38573001
_cell_length_b   6.38573001
_cell_length_c   3.34125619
_cell_angle_alpha   90.00000000
_cell_angle_beta   90.00000000
_cell_angle_gamma   120.00000000
_symmetry_Int_Tables_number   1
_chemical_formula_structural   MnFeAs
_chemical_formula_sum   'Mn3 Fe3 As3'
_cell_volume   117.99443184
_cell_formula_units_Z   3
loop_
 _symmetry_equiv_pos_site_id
 _symmetry_equiv_pos_as_xyz
  1  'x, y, z'
loop_
 _atom_site_type_symbol
 _atom_site_label
 _atom_site_symmetry_multiplicity
 _atom_site_fract_x
 _atom_site_fract_y
 _atom_site_fract_z
 _atom_site_occupancy
  Mn  Mn0  1  0.40018377  0.40018377  0.00000000  1.0
  Mn  Mn1  1  0.00000000  0.59981623  0.00000000  1.0
  Mn  Mn2  1  0.59981623  0.00000000  0.00000000  1.0
  Fe  Fe3  1  0.73952802  0.73952802  0.50000000  1.0
  Fe  Fe4  1  0.00000000  0.26047198  0.50000000  1.0
  Fe  Fe5  1  0.26047198  0.00000000  0.50000000  1.0
  As  As6  1  0.33333333  0.66666667  0.50000000  1.0
  As  As7  1  0.66666667  0.33333333  0.50000000  1.0
  As  As8  1  0.00000000  0.00000000  0.00000000  1.0
