# generated using pymatgen
data_InSb2Se4Br
_symmetry_space_group_name_H-M   'P 1'
_cell_length_a   10.96581699
_cell_length_b   10.96581699
_cell_length_c   12.49248765
_cell_angle_alpha   60.37305934
_cell_angle_beta   119.62694066
_cell_angle_gamma   158.68317560
_symmetry_Int_Tables_number   1
_chemical_formula_structural   InSb2Se4Br
_chemical_formula_sum   'In2 Sb4 Se8 Br2'
_cell_volume   471.96966300
_cell_formula_units_Z   2
loop_
 _symmetry_equiv_pos_site_id
 _symmetry_equiv_pos_as_xyz
  1  'x, y, z'
loop_
 _atom_site_type_symbol
 _atom_site_label
 _atom_site_symmetry_multiplicity
 _atom_site_fract_x
 _atom_site_fract_y
 _atom_site_fract_z
 _atom_site_occupancy
  In  In0  1  0.66421621  0.33578379  0.93553619  1.0
  In  In1  1  1.33578379  -0.33578379  0.06446381  1.0
  Sb  Sb2  1  0.95336265  -0.95336265  0.71965500  1.0
  Sb  Sb3  1  0.04663735  -0.04663735  0.28034500  1.0
  Sb  Sb4  1  0.70635473  0.29364527  0.59093402  1.0
  Sb  Sb5  1  1.29364527  -0.29364527  0.40906598  1.0
  Se  Se6  1  0.89776422  -0.89776422  0.47563489  1.0
  Se  Se7  1  0.10223578  -0.10223578  0.52436511  1.0
  Se  Se8  1  0.67811476  -0.67811476  0.35986484  1.0
  Se  Se9  1  0.32188524  -0.32188524  0.64013516  1.0
  Se  Se10  1  0.53640664  0.46359336  0.71160781  1.0
  Se  Se11  1  1.46359336  -0.46359336  0.28839219  1.0
  Se  Se12  1  0.21216380  -0.21216380  0.84500442  1.0
  Se  Se13  1  0.78783620  -0.78783620  0.15499558  1.0
  Br  Br14  1  0.89617260  0.10382740  0.97802219  1.0
  Br  Br15  1  1.10382740  -0.10382740  0.02197781  1.0
