# generated using pymatgen
data_Sm(BIr)4
_symmetry_space_group_name_H-M   'P 1'
_cell_length_a   7.67883036
_cell_length_b   7.67883036
_cell_length_c   3.97343916
_cell_angle_alpha   90.00000000
_cell_angle_beta   90.00000000
_cell_angle_gamma   90.00000000
_symmetry_Int_Tables_number   1
_chemical_formula_structural   Sm(BIr)4
_chemical_formula_sum   'Sm2 B8 Ir8'
_cell_volume   234.29159823
_cell_formula_units_Z   2
loop_
 _symmetry_equiv_pos_site_id
 _symmetry_equiv_pos_as_xyz
  1  'x, y, z'
loop_
 _atom_site_type_symbol
 _atom_site_label
 _atom_site_symmetry_multiplicity
 _atom_site_fract_x
 _atom_site_fract_y
 _atom_site_fract_z
 _atom_site_occupancy
  Sm  Sm0  1  0.00000000  0.00000000  -0.00000000  1.0
  Sm  Sm1  1  0.50000000  0.50000000  0.50000000  1.0
  B  B2  1  0.65762143  0.77840509  0.10841412  1.0
  B  B3  1  0.34237857  0.22159491  0.10841412  1.0
  B  B4  1  0.27840509  0.84237857  0.60841412  1.0
  B  B5  1  0.72159491  0.15762143  0.60841412  1.0
  B  B6  1  0.84237857  0.72159491  0.39158588  1.0
  B  B7  1  0.15762143  0.27840509  0.39158588  1.0
  B  B8  1  0.22159491  0.65762143  0.89158588  1.0
  B  B9  1  0.77840509  0.34237857  0.89158588  1.0
  Ir  Ir10  1  0.15734150  0.38952188  0.89230715  1.0
  Ir  Ir11  1  0.84265850  0.61047812  0.89230715  1.0
  Ir  Ir12  1  0.88952188  0.34265850  0.39230715  1.0
  Ir  Ir13  1  0.11047812  0.65734150  0.39230715  1.0
  Ir  Ir14  1  0.34265850  0.11047812  0.60769285  1.0
  Ir  Ir15  1  0.65734150  0.88952188  0.60769285  1.0
  Ir  Ir16  1  0.61047812  0.15734150  0.10769285  1.0
  Ir  Ir17  1  0.38952188  0.84265850  0.10769285  1.0
