# generated using pymatgen
data_Sc4C3
_symmetry_space_group_name_H-M   'P 1'
_cell_length_a   6.25509301
_cell_length_b   6.25509301
_cell_length_c   6.25509301
_cell_angle_alpha   109.47122063
_cell_angle_beta   109.47122063
_cell_angle_gamma   109.47122063
_symmetry_Int_Tables_number   1
_chemical_formula_structural   Sc4C3
_chemical_formula_sum   'Sc8 C6'
_cell_volume   188.39936051
_cell_formula_units_Z   2
loop_
 _symmetry_equiv_pos_site_id
 _symmetry_equiv_pos_as_xyz
  1  'x, y, z'
loop_
 _atom_site_type_symbol
 _atom_site_label
 _atom_site_symmetry_multiplicity
 _atom_site_fract_x
 _atom_site_fract_y
 _atom_site_fract_z
 _atom_site_occupancy
  Sc  Sc0  1  1.40164637  1.40164637  1.40164637  1.0
  Sc  Sc1  1  1.50000000  1.00000000  1.09835363  1.0
  Sc  Sc2  1  0.90164637  0.90164637  0.90164637  1.0
  Sc  Sc3  1  0.50000000  1.00000000  0.59835363  1.0
  Sc  Sc4  1  1.00000000  1.09835363  1.50000000  1.0
  Sc  Sc5  1  1.09835363  0.50000000  1.00000000  1.0
  Sc  Sc6  1  1.00000000  0.59835363  1.50000000  1.0
  Sc  Sc7  1  0.59835363  1.50000000  1.00000000  1.0
  C  C8  1  1.12500000  0.87500000  1.25000000  1.0
  C  C9  1  0.37500000  0.62500000  0.75000000  1.0
  C  C10  1  0.25000000  1.12500000  0.87500000  1.0
  C  C11  1  0.75000000  1.37500000  0.62500000  1.0
  C  C12  1  0.62500000  0.75000000  0.37500000  1.0
  C  C13  1  0.87500000  0.25000000  1.12500000  1.0
