# generated using pymatgen
data_H6S(NO2)2
_symmetry_space_group_name_H-M   'P 1'
_cell_length_a   5.74950497
_cell_length_b   8.38439514
_cell_length_c   9.08796854
_cell_angle_alpha   90.00000000
_cell_angle_beta   90.00000000
_cell_angle_gamma   90.00000000
_symmetry_Int_Tables_number   1
_chemical_formula_structural   H6S(NO2)2
_chemical_formula_sum   'H24 S4 N8 O16'
_cell_volume   438.09571595
_cell_formula_units_Z   4
loop_
 _symmetry_equiv_pos_site_id
 _symmetry_equiv_pos_as_xyz
  1  'x, y, z'
loop_
 _atom_site_type_symbol
 _atom_site_label
 _atom_site_symmetry_multiplicity
 _atom_site_fract_x
 _atom_site_fract_y
 _atom_site_fract_z
 _atom_site_occupancy
  H  H0  1  0.85683523  0.91368755  0.85379300  1.0
  H  H1  1  0.35683523  0.58631245  0.14620700  1.0
  H  H2  1  0.14316477  0.41368755  0.64620700  1.0
  H  H3  1  0.64316477  0.08631245  0.35379300  1.0
  H  H4  1  0.59839552  0.98855905  0.92443210  1.0
  H  H5  1  0.09839552  0.51144095  0.07556790  1.0
  H  H6  1  0.40160448  0.48855905  0.57556790  1.0
  H  H7  1  0.90160448  0.01144095  0.42443210  1.0
  H  H8  1  0.63053811  0.96180342  0.73470573  1.0
  H  H9  1  0.13053811  0.53819658  0.26529427  1.0
  H  H10  1  0.36946189  0.46180342  0.76529427  1.0
  H  H11  1  0.86946189  0.03819658  0.23470573  1.0
  H  H12  1  0.90860391  0.16101880  0.72790398  1.0
  H  H13  1  0.40860391  0.33898120  0.27209602  1.0
  H  H14  1  0.09139609  0.66101880  0.77209602  1.0
  H  H15  1  0.59139609  0.83898120  0.22790398  1.0
  H  H16  1  -0.06929360  0.15679544  0.91734470  1.0
  H  H17  1  0.43070640  0.34320456  0.08265530  1.0
  H  H18  1  1.06929360  0.65679544  0.58265530  1.0
  H  H19  1  0.56929360  0.84320456  0.41734470  1.0
  H  H20  1  0.68946198  0.23873946  0.83540290  1.0
  H  H21  1  0.18946198  0.26126054  0.16459710  1.0
  H  H22  1  0.31053802  0.73873946  0.66459710  1.0
  H  H23  1  0.81053802  0.76126054  0.33540290  1.0
  S  S24  1  0.29528336  0.05541801  0.56630492  1.0
  S  S25  1  0.79528336  0.44458199  0.43369508  1.0
  S  S26  1  0.70471664  0.55541801  0.93369508  1.0
  S  S27  1  0.20471664  0.94458199  0.06630492  1.0
  N  N28  1  0.71856936  0.99180384  0.83301448  1.0
  N  N29  1  0.21856936  0.50819616  0.16698552  1.0
  N  N30  1  0.28143064  0.49180384  0.66698552  1.0
  N  N31  1  0.78143064  0.00819616  0.33301448  1.0
  N  N32  1  0.81764369  0.14926992  0.82594598  1.0
  N  N33  1  0.31764369  0.35073008  0.17405402  1.0
  N  N34  1  0.18235631  0.64926992  0.67405402  1.0
  N  N35  1  0.68235631  0.85073008  0.32594598  1.0
  O  O36  1  0.45574903  0.91021096  0.58786883  1.0
  O  O37  1  0.95574903  0.58978904  0.41213117  1.0
  O  O38  1  0.54425097  0.41021096  0.91213117  1.0
  O  O39  1  0.04425097  0.08978904  0.08786883  1.0
  O  O40  1  0.04825026  0.99473436  0.56798363  1.0
  O  O41  1  0.54825026  0.50526564  0.43201637  1.0
  O  O42  1  0.95174974  0.49473436  0.93201637  1.0
  O  O43  1  0.45174974  0.00526564  0.06798363  1.0
  O  O44  1  0.33041123  0.16651581  0.69041884  1.0
  O  O45  1  0.83041123  0.33348419  0.30958116  1.0
  O  O46  1  0.66958877  0.66651581  0.80958116  1.0
  O  O47  1  0.16958877  0.83348419  0.19041884  1.0
  O  O48  1  0.35210539  0.12782727  0.42141735  1.0
  O  O49  1  0.85210539  0.37217273  0.57858265  1.0
  O  O50  1  0.64789461  0.62782727  0.07858265  1.0
  O  O51  1  0.14789461  0.87217273  0.92141735  1.0
