# generated using pymatgen
data_AgBrO2
_symmetry_space_group_name_H-M   'P 1'
_cell_length_a   6.65816571
_cell_length_b   4.56109085
_cell_length_c   4.54142744
_cell_angle_alpha   60.19843988
_cell_angle_beta   86.79354933
_cell_angle_gamma   87.15491147
_symmetry_Int_Tables_number   1
_chemical_formula_structural   AgBrO2
_chemical_formula_sum   'Ag1 Br1 O2'
_cell_volume   119.45184612
_cell_formula_units_Z   1
loop_
 _symmetry_equiv_pos_site_id
 _symmetry_equiv_pos_as_xyz
  1  'x, y, z'
loop_
 _atom_site_type_symbol
 _atom_site_label
 _atom_site_symmetry_multiplicity
 _atom_site_fract_x
 _atom_site_fract_y
 _atom_site_fract_z
 _atom_site_occupancy
  Ag  Ag0  1  0.95956047  -0.32028405  0.90426079  1.0
  Br  Br1  1  0.96261107  -0.65609553  1.57204890  1.0
  O  O2  1  0.46695421  -0.14005567  1.09367455  1.0
  O  O3  1  0.45202425  -0.02325475  0.28502576  1.0
