# generated using pymatgen
data_K(SbSe2)2
_symmetry_space_group_name_H-M   'P 1'
_cell_length_a   6.93527090
_cell_length_b   9.48043849
_cell_length_c   7.03018745
_cell_angle_alpha   79.37283636
_cell_angle_beta   76.00854809
_cell_angle_gamma   82.73440403
_symmetry_Int_Tables_number   1
_chemical_formula_structural   K(SbSe2)2
_chemical_formula_sum   'K2 Sb4 Se8'
_cell_volume   439.19640413
_cell_formula_units_Z   2
loop_
 _symmetry_equiv_pos_site_id
 _symmetry_equiv_pos_as_xyz
  1  'x, y, z'
loop_
 _atom_site_type_symbol
 _atom_site_label
 _atom_site_symmetry_multiplicity
 _atom_site_fract_x
 _atom_site_fract_y
 _atom_site_fract_z
 _atom_site_occupancy
  K  K0  1  -0.79784069  -0.43138455  -0.81262072  1.0
  K  K1  1  -0.20215931  -0.56861545  -0.18737928  1.0
  Sb  Sb2  1  -0.85362348  -0.95429472  -0.81092549  1.0
  Sb  Sb3  1  -0.14637652  -0.04570528  -0.18907451  1.0
  Sb  Sb4  1  -0.58507171  -0.83574038  -0.39429617  1.0
  Sb  Sb5  1  -0.41492829  -0.16425962  -0.60570383  1.0
  Se  Se6  1  -0.91695845  -0.77198530  -0.52009370  1.0
  Se  Se7  1  -0.08304155  -0.22801470  -0.47990630  1.0
  Se  Se8  1  -0.40556300  -0.59398271  -0.58937756  1.0
  Se  Se9  1  -0.59443700  -0.40601729  -0.41062244  1.0
  Se  Se10  1  -0.30124038  -0.27447438  -0.93543770  1.0
  Se  Se11  1  -0.69875962  -0.72552562  -0.06456230  1.0
  Se  Se12  1  -0.21513338  -0.87915049  -0.85378087  1.0
  Se  Se13  1  -0.78486662  -0.12084951  -0.14621913  1.0
