# generated using pymatgen
data_CaH12(ClO3)2
_symmetry_space_group_name_H-M   'P 1'
_cell_length_a   7.88628179
_cell_length_b   7.88628179
_cell_length_c   4.05776899
_cell_angle_alpha   90.00000000
_cell_angle_beta   90.00000000
_cell_angle_gamma   120.00000000
_symmetry_Int_Tables_number   1
_chemical_formula_structural   CaH12(ClO3)2
_chemical_formula_sum   'Ca1 H12 Cl2 O6'
_cell_volume   218.55589904
_cell_formula_units_Z   1
loop_
 _symmetry_equiv_pos_site_id
 _symmetry_equiv_pos_as_xyz
  1  'x, y, z'
loop_
 _atom_site_type_symbol
 _atom_site_label
 _atom_site_symmetry_multiplicity
 _atom_site_fract_x
 _atom_site_fract_y
 _atom_site_fract_z
 _atom_site_occupancy
  Ca  Ca0  1  0.00000000  0.00000000  0.00000000  1.0
  H  H1  1  0.09998911  0.66651523  0.09828037  1.0
  H  H2  1  0.66651523  0.09998911  0.90171963  1.0
  H  H3  1  0.56652611  0.90001089  0.09828037  1.0
  H  H4  1  0.33348477  0.43347389  0.09828037  1.0
  H  H5  1  0.90001089  0.56652611  0.90171963  1.0
  H  H6  1  0.43347389  0.33348477  0.90171963  1.0
  H  H7  1  0.76618904  0.65265871  0.48363449  1.0
  H  H8  1  0.65265871  0.76618904  0.51636551  1.0
  H  H9  1  0.88646966  0.23381096  0.48363449  1.0
  H  H10  1  0.34734129  0.11353034  0.48363449  1.0
  H  H11  1  0.23381096  0.88646966  0.51636551  1.0
  H  H12  1  0.11353034  0.34734129  0.51636551  1.0
  Cl  Cl13  1  0.33333333  0.66666667  0.39285718  1.0
  Cl  Cl14  1  0.66666667  0.33333333  0.60714282  1.0
  O  O15  1  0.78605361  0.78605361  0.50000000  1.0
  O  O16  1  -0.00000000  0.21394639  0.50000000  1.0
  O  O17  1  0.21394639  0.00000000  0.50000000  1.0
  O  O18  1  0.30901524  0.30901524  0.00000000  1.0
  O  O19  1  -0.00000000  0.69098476  0.00000000  1.0
  O  O20  1  0.69098476  0.00000000  0.00000000  1.0
