# generated using pymatgen
data_Ge3(SbTe3)2
_symmetry_space_group_name_H-M   'P 1'
_cell_length_a   21.70313703
_cell_length_b   21.70313703
_cell_length_c   21.70313703
_cell_angle_alpha   11.25070706
_cell_angle_beta   11.25070706
_cell_angle_gamma   11.25070706
_symmetry_Int_Tables_number   1
_chemical_formula_structural   Ge3(SbTe3)2
_chemical_formula_sum   'Ge3 Sb2 Te6'
_cell_volume   338.07782926
_cell_formula_units_Z   1
loop_
 _symmetry_equiv_pos_site_id
 _symmetry_equiv_pos_as_xyz
  1  'x, y, z'
loop_
 _atom_site_type_symbol
 _atom_site_label
 _atom_site_symmetry_multiplicity
 _atom_site_fract_x
 _atom_site_fract_y
 _atom_site_fract_z
 _atom_site_occupancy
  Ge  Ge0  1  0.73464439  -0.26535561  -0.26535561  1.0
  Ge  Ge1  1  0.64304657  0.64304657  -0.35695343  1.0
  Ge  Ge2  1  0.45828831  0.45828831  -0.54171169  1.0
  Sb  Sb3  1  0.18595750  0.18595750  0.18595750  1.0
  Sb  Sb4  1  0.91529752  -0.08470248  -0.08470248  1.0
  Te  Te5  1  -0.00168316  -0.00168316  -0.00168316  1.0
  Te  Te6  1  0.82528479  -0.17471521  -0.17471521  1.0
  Te  Te7  1  0.55033834  0.55033834  -0.44966166  1.0
  Te  Te8  1  0.37945176  0.37945176  -0.62054824  1.0
  Te  Te9  1  0.27562502  0.27562502  0.27562502  1.0
  Te  Te10  1  0.10274896  0.10274896  0.10274896  1.0
