# generated using pymatgen
data_Li4GeO4
_symmetry_space_group_name_H-M   'P 1'
_cell_length_a   5.39358450
_cell_length_b   5.39358450
_cell_length_c   6.10989214
_cell_angle_alpha   90.00000000
_cell_angle_beta   90.00000000
_cell_angle_gamma   86.55359501
_symmetry_Int_Tables_number   1
_chemical_formula_structural   Li4GeO4
_chemical_formula_sum   'Li8 Ge2 O8'
_cell_volume   177.41991624
_cell_formula_units_Z   2
loop_
 _symmetry_equiv_pos_site_id
 _symmetry_equiv_pos_as_xyz
  1  'x, y, z'
loop_
 _atom_site_type_symbol
 _atom_site_label
 _atom_site_symmetry_multiplicity
 _atom_site_fract_x
 _atom_site_fract_y
 _atom_site_fract_z
 _atom_site_occupancy
  Li  Li0  1  -0.07949761  1.37374510  0.25000000  1.0
  Li  Li1  1  0.37374510  0.92050239  0.75000000  1.0
  Li  Li2  1  -0.37374510  1.07949761  0.25000000  1.0
  Li  Li3  1  0.07949761  0.62625490  0.75000000  1.0
  Li  Li4  1  0.66185390  0.66185390  0.50000000  1.0
  Li  Li5  1  0.66185390  0.66185390  0.00000000  1.0
  Li  Li6  1  0.33814610  0.33814610  0.50000000  1.0
  Li  Li7  1  0.33814610  0.33814610  0.00000000  1.0
  Ge  Ge8  1  0.16093980  0.83906020  0.25000000  1.0
  Ge  Ge9  1  -0.16093980  1.16093980  0.75000000  1.0
  O  O10  1  0.29649850  0.70350150  0.49380283  1.0
  O  O11  1  0.29649850  0.70350150  0.00619717  1.0
  O  O12  1  -0.29649850  1.29649850  0.99380283  1.0
  O  O13  1  -0.29649850  1.29649850  0.50619717  1.0
  O  O14  1  -0.15766830  1.76718421  0.25000000  1.0
  O  O15  1  0.76718421  0.84233170  0.75000000  1.0
  O  O16  1  -0.76718421  1.15766830  0.25000000  1.0
  O  O17  1  0.15766830  0.23281579  0.75000000  1.0
