# generated using pymatgen
data_GdGaIr
_symmetry_space_group_name_H-M   'P 1'
_cell_length_a   6.93011899
_cell_length_b   4.31619587
_cell_length_c   7.87112163
_cell_angle_alpha   90.00000000
_cell_angle_beta   90.00000000
_cell_angle_gamma   90.00000000
_symmetry_Int_Tables_number   1
_chemical_formula_structural   GdGaIr
_chemical_formula_sum   'Gd4 Ga4 Ir4'
_cell_volume   235.43902979
_cell_formula_units_Z   4
loop_
 _symmetry_equiv_pos_site_id
 _symmetry_equiv_pos_as_xyz
  1  'x, y, z'
loop_
 _atom_site_type_symbol
 _atom_site_label
 _atom_site_symmetry_multiplicity
 _atom_site_fract_x
 _atom_site_fract_y
 _atom_site_fract_z
 _atom_site_occupancy
  Gd  Gd0  1  0.97345799  0.75000000  0.68820765  1.0
  Gd  Gd1  1  0.47345799  0.75000000  0.81179235  1.0
  Gd  Gd2  1  0.02654201  0.25000000  0.31179235  1.0
  Gd  Gd3  1  0.52654201  0.25000000  0.18820765  1.0
  Ga  Ga4  1  0.84557574  0.75000000  0.06873951  1.0
  Ga  Ga5  1  0.34557574  0.75000000  0.43126049  1.0
  Ga  Ga6  1  0.15442426  0.25000000  0.93126049  1.0
  Ga  Ga7  1  0.65442426  0.25000000  0.56873951  1.0
  Ir  Ir8  1  0.72868947  0.75000000  0.38861540  1.0
  Ir  Ir9  1  0.22868947  0.75000000  0.11138460  1.0
  Ir  Ir10  1  0.27131053  0.25000000  0.61138460  1.0
  Ir  Ir11  1  0.77131053  0.25000000  0.88861540  1.0
