# generated using pymatgen
data_Sr2V(PO4)3
_symmetry_space_group_name_H-M   'P 1'
_cell_length_a   8.27194163
_cell_length_b   8.27194163
_cell_length_c   9.14210444
_cell_angle_alpha   66.43994215
_cell_angle_beta   113.56005785
_cell_angle_gamma   83.14199810
_symmetry_Int_Tables_number   1
_chemical_formula_structural   Sr2V(PO4)3
_chemical_formula_sum   'Sr4 V2 P6 O24'
_cell_volume   495.74467351
_cell_formula_units_Z   2
loop_
 _symmetry_equiv_pos_site_id
 _symmetry_equiv_pos_as_xyz
  1  'x, y, z'
loop_
 _atom_site_type_symbol
 _atom_site_label
 _atom_site_symmetry_multiplicity
 _atom_site_fract_x
 _atom_site_fract_y
 _atom_site_fract_z
 _atom_site_occupancy
  Sr  Sr0  1  1.66571599  0.23718900  0.81903890  1.0
  Sr  Sr1  1  0.76281100  -0.66571599  0.31903890  1.0
  Sr  Sr2  1  1.23718900  0.66571599  0.68096110  1.0
  Sr  Sr3  1  0.33428401  -0.23718900  0.18096110  1.0
  V  V4  1  1.50000000  -0.00000000  0.50000000  1.0
  V  V5  1  1.00000000  -0.50000000  0.00000000  1.0
  P  P6  1  0.62479307  -0.24392278  0.94286507  1.0
  P  P7  1  1.24392278  0.37520693  0.44286507  1.0
  P  P8  1  0.75607722  -0.37520693  0.55713493  1.0
  P  P9  1  1.37520693  0.24392278  0.05713493  1.0
  P  P10  1  0.94961958  -0.05038042  0.75000000  1.0
  P  P11  1  1.05038042  0.05038042  0.25000000  1.0
  O  O12  1  1.91072445  0.06251903  0.31449955  1.0
  O  O13  1  0.93748097  -0.91072445  0.81449955  1.0
  O  O14  1  1.06251903  0.91072445  0.18550045  1.0
  O  O15  1  0.08927555  -0.06251903  0.68550045  1.0
  O  O16  1  0.67388714  -0.08348756  0.96582937  1.0
  O  O17  1  1.08348756  0.32611286  0.46582937  1.0
  O  O18  1  0.91651244  -0.32611286  0.53417063  1.0
  O  O19  1  1.32611286  0.08348756  0.03417063  1.0
  O  O20  1  1.74122415  -0.00355499  0.59727173  1.0
  O  O21  1  1.00355499  -0.74122415  0.09727173  1.0
  O  O22  1  0.99644501  0.74122415  0.90272827  1.0
  O  O23  1  0.25877585  0.00355499  0.40272827  1.0
  O  O24  1  0.53199898  -0.18791469  0.73052411  1.0
  O  O25  1  1.18791469  0.46800102  0.23052411  1.0
  O  O26  1  0.81208531  -0.46800102  0.76947589  1.0
  O  O27  1  1.46800102  0.18791469  0.26947589  1.0
  O  O28  1  1.42786128  0.19573165  0.54487661  1.0
  O  O29  1  0.80426835  -0.42786128  0.04487661  1.0
  O  O30  1  1.19573165  0.42786128  0.95512339  1.0
  O  O31  1  0.57213872  -0.19573165  0.45512339  1.0
  O  O32  1  1.50090812  0.32327202  0.98024024  1.0
  O  O33  1  0.67672798  -0.50090812  0.48024024  1.0
  O  O34  1  1.32327202  0.50090812  0.51975976  1.0
  O  O35  1  0.49909188  -0.32327202  0.01975976  1.0
