# generated using pymatgen
data_Si2Ag6O7
_symmetry_space_group_name_H-M   'P 1'
_cell_length_a   5.45342347
_cell_length_b   9.93655103
_cell_length_c   16.09160719
_cell_angle_alpha   90.00000000
_cell_angle_beta   89.44440478
_cell_angle_gamma   90.00000000
_symmetry_Int_Tables_number   1
_chemical_formula_structural   Si2Ag6O7
_chemical_formula_sum   'Si8 Ag24 O28'
_cell_volume   871.93456391
_cell_formula_units_Z   4
loop_
 _symmetry_equiv_pos_site_id
 _symmetry_equiv_pos_as_xyz
  1  'x, y, z'
loop_
 _atom_site_type_symbol
 _atom_site_label
 _atom_site_symmetry_multiplicity
 _atom_site_fract_x
 _atom_site_fract_y
 _atom_site_fract_z
 _atom_site_occupancy
  Si  Si0  1  0.78045762  0.79373300  0.70134588  1.0
  Si  Si1  1  0.21954238  0.29373300  0.29865412  1.0
  Si  Si2  1  0.74262885  0.00574029  0.56870007  1.0
  Si  Si3  1  0.25737115  0.50574029  0.43129993  1.0
  Si  Si4  1  0.73290298  0.80922707  0.19398683  1.0
  Si  Si5  1  0.26709702  0.30922707  0.80601317  1.0
  Si  Si6  1  0.26283432  0.48708202  0.96582066  1.0
  Si  Si7  1  0.73716568  -0.01291798  0.03417934  1.0
  Ag  Ag8  1  0.77490246  0.71582244  0.92872217  1.0
  Ag  Ag9  1  0.22509754  0.21582244  0.07127783  1.0
  Ag  Ag10  1  0.74780530  0.77164786  0.40859247  1.0
  Ag  Ag11  1  0.25219470  0.27164786  0.59140753  1.0
  Ag  Ag12  1  0.75436675  0.05047944  0.82690064  1.0
  Ag  Ag13  1  0.24563325  0.55047944  0.17309936  1.0
  Ag  Ag14  1  0.80836399  0.25445835  0.69334157  1.0
  Ag  Ag15  1  0.19163601  0.75445835  0.30665843  1.0
  Ag  Ag16  1  0.80246975  0.26900183  0.95125388  1.0
  Ag  Ag17  1  0.19753025  0.76900183  0.04874612  1.0
  Ag  Ag18  1  0.77748871  0.52292687  0.79267404  1.0
  Ag  Ag19  1  0.22251129  0.02292687  0.20732596  1.0
  Ag  Ag20  1  0.79349912  0.54328986  0.30793028  1.0
  Ag  Ag21  1  0.20650088  0.04328986  0.69206972  1.0
  Ag  Ag22  1  0.67121951  0.57769375  0.56791238  1.0
  Ag  Ag23  1  0.32878049  0.07769375  0.43208762  1.0
  Ag  Ag24  1  0.17940040  0.81036102  0.50527143  1.0
  Ag  Ag25  1  0.82059960  0.31036102  0.49472857  1.0
  Ag  Ag26  1  0.21018802  0.74743554  0.83810950  1.0
  Ag  Ag27  1  0.78981198  0.24743554  0.16189050  1.0
  Ag  Ag28  1  0.20795359  0.04966705  0.92090860  1.0
  Ag  Ag29  1  0.79204641  0.54966705  0.07909140  1.0
  Ag  Ag30  1  0.19938816  0.55737311  0.67785243  1.0
  Ag  Ag31  1  0.80061184  0.05737311  0.32214757  1.0
  O  O32  1  0.97506748  0.87219969  0.76290204  1.0
  O  O33  1  0.02493252  0.37219969  0.23709796  1.0
  O  O34  1  0.93293349  0.70182536  0.63106804  1.0
  O  O35  1  0.06706651  0.20182536  0.36893196  1.0
  O  O36  1  0.96193683  0.32223976  0.80915359  1.0
  O  O37  1  0.03806317  0.82223976  0.19084641  1.0
  O  O38  1  0.95642506  0.49478050  0.43382746  1.0
  O  O39  1  0.04357494  -0.00521950  0.56617254  1.0
  O  O40  1  0.95814680  0.48769596  0.96278816  1.0
  O  O41  1  0.04185320  -0.01230404  0.03721184  1.0
  O  O42  1  0.62853385  0.93106452  0.94628559  1.0
  O  O43  1  0.37146615  0.43106452  0.05371441  1.0
  O  O44  1  0.61427341  0.95448989  0.48275622  1.0
  O  O45  1  0.38572659  0.45448989  0.51724378  1.0
  O  O46  1  0.63023980  0.88489986  0.10901693  1.0
  O  O47  1  0.36976020  0.38489986  0.89098307  1.0
  O  O48  1  0.60860986  0.87931137  0.27630570  1.0
  O  O49  1  0.39139014  0.37931137  0.72369430  1.0
  O  O50  1  0.64909470  0.64832816  0.18994832  1.0
  O  O51  1  0.35090530  0.14832816  0.81005168  1.0
  O  O52  1  0.63226175  0.91497324  0.64870309  1.0
  O  O53  1  0.36773825  0.41497324  0.35129691  1.0
  O  O54  1  0.65774883  0.16519688  0.58396344  1.0
  O  O55  1  0.34225117  0.66519688  0.41603656  1.0
  O  O56  1  0.58074236  0.70314705  0.75342007  1.0
  O  O57  1  0.41925764  0.20314705  0.24657993  1.0
  O  O58  1  0.36425359  0.64060828  0.94556491  1.0
  O  O59  1  0.63574641  0.14060828  0.05443509  1.0
