# generated using pymatgen
data_Cs3V2Cl9
_symmetry_space_group_name_H-M   'P 1'
_cell_length_a   7.44540362
_cell_length_b   7.44540362
_cell_length_c   18.52617313
_cell_angle_alpha   90.00000000
_cell_angle_beta   90.00000000
_cell_angle_gamma   120.00000000
_symmetry_Int_Tables_number   1
_chemical_formula_structural   Cs3V2Cl9
_chemical_formula_sum   'Cs6 V4 Cl18'
_cell_volume   889.39122771
_cell_formula_units_Z   2
loop_
 _symmetry_equiv_pos_site_id
 _symmetry_equiv_pos_as_xyz
  1  'x, y, z'
loop_
 _atom_site_type_symbol
 _atom_site_label
 _atom_site_symmetry_multiplicity
 _atom_site_fract_x
 _atom_site_fract_y
 _atom_site_fract_z
 _atom_site_occupancy
  Cs  Cs0  1  0.00000000  0.00000000  0.25000000  1.0
  Cs  Cs1  1  0.00000000  0.00000000  0.75000000  1.0
  Cs  Cs2  1  0.33333333  0.66666667  0.43029925  1.0
  Cs  Cs3  1  0.33333333  0.66666667  0.06970075  1.0
  Cs  Cs4  1  0.66666667  0.33333333  0.93029925  1.0
  Cs  Cs5  1  0.66666667  0.33333333  0.56970075  1.0
  V  V6  1  0.33333333  0.66666667  0.83390788  1.0
  V  V7  1  0.33333333  0.66666667  0.66609212  1.0
  V  V8  1  0.66666667  0.33333333  0.33390788  1.0
  V  V9  1  0.66666667  0.33333333  0.16609212  1.0
  Cl  Cl10  1  0.51945833  0.48054167  0.25000000  1.0
  Cl  Cl11  1  0.51945833  0.03891665  0.25000000  1.0
  Cl  Cl12  1  0.48054167  0.51945833  0.75000000  1.0
  Cl  Cl13  1  0.48054167  0.96108335  0.75000000  1.0
  Cl  Cl14  1  0.96108335  0.48054167  0.25000000  1.0
  Cl  Cl15  1  0.03891665  0.51945833  0.75000000  1.0
  Cl  Cl16  1  0.18192751  0.81807249  0.90270343  1.0
  Cl  Cl17  1  0.18192751  0.81807249  0.59729657  1.0
  Cl  Cl18  1  0.18192751  0.36385502  0.90270343  1.0
  Cl  Cl19  1  0.18192751  0.36385502  0.59729657  1.0
  Cl  Cl20  1  0.81807249  0.18192751  0.40270343  1.0
  Cl  Cl21  1  0.81807249  0.18192751  0.09729657  1.0
  Cl  Cl22  1  0.81807249  0.63614498  0.40270343  1.0
  Cl  Cl23  1  0.81807249  0.63614498  0.09729657  1.0
  Cl  Cl24  1  0.63614498  0.81807249  0.90270343  1.0
  Cl  Cl25  1  0.63614498  0.81807249  0.59729657  1.0
  Cl  Cl26  1  0.36385502  0.18192751  0.40270343  1.0
  Cl  Cl27  1  0.36385502  0.18192751  0.09729657  1.0
