# generated using pymatgen
data_ReNF6
_symmetry_space_group_name_H-M   'P 1'
_cell_length_a   5.58275831
_cell_length_b   9.90514032
_cell_length_c   10.60897936
_cell_angle_alpha   90.00000000
_cell_angle_beta   110.25771782
_cell_angle_gamma   90.00000000
_symmetry_Int_Tables_number   1
_chemical_formula_structural   ReNF6
_chemical_formula_sum   'Re4 N4 F24'
_cell_volume   550.36764565
_cell_formula_units_Z   4
loop_
 _symmetry_equiv_pos_site_id
 _symmetry_equiv_pos_as_xyz
  1  'x, y, z'
loop_
 _atom_site_type_symbol
 _atom_site_label
 _atom_site_symmetry_multiplicity
 _atom_site_fract_x
 _atom_site_fract_y
 _atom_site_fract_z
 _atom_site_occupancy
  Re  Re0  1  0.68200065  0.11297807  0.28093366  1.0
  Re  Re1  1  0.68200065  0.38702193  0.78093366  1.0
  Re  Re2  1  0.31799935  0.61297807  0.21906634  1.0
  Re  Re3  1  0.31799935  0.88702193  0.71906634  1.0
  N  N4  1  0.89669566  0.22328658  0.39033501  1.0
  N  N5  1  0.89669566  0.27671342  0.89033501  1.0
  N  N6  1  0.10330434  0.72328658  0.10966499  1.0
  N  N7  1  0.10330434  0.77671342  0.60966499  1.0
  F  F8  1  0.92771937  1.00481674  0.24692676  1.0
  F  F9  1  0.92771937  0.49518326  0.74692676  1.0
  F  F10  1  0.07228063  0.50481674  0.25307324  1.0
  F  F11  1  0.07228063  -0.00481674  0.75307324  1.0
  F  F12  1  0.95147131  0.80882689  0.02898319  1.0
  F  F13  1  0.95147131  0.69117311  0.52898319  1.0
  F  F14  1  0.04852869  0.30882689  0.47101681  1.0
  F  F15  1  0.04852869  0.19117311  0.97101681  1.0
  F  F16  1  0.67759359  0.98923128  0.41367916  1.0
  F  F17  1  0.67759359  0.51076872  0.91367916  1.0
  F  F18  1  0.32240641  0.48923128  0.08632084  1.0
  F  F19  1  0.32240641  0.01076872  0.58632084  1.0
  F  F20  1  0.65114973  0.21299033  0.12616812  1.0
  F  F21  1  0.65114973  0.28700967  0.62616812  1.0
  F  F22  1  0.34885027  0.71299033  0.37383188  1.0
  F  F23  1  0.34885027  0.78700967  0.87383188  1.0
  F  F24  1  0.55923918  0.49620768  0.33943009  1.0
  F  F25  1  0.55923918  0.00379232  0.83943009  1.0
  F  F26  1  0.44076082  0.99620768  0.16056991  1.0
  F  F27  1  0.44076082  0.50379232  0.66056991  1.0
  F  F28  1  0.39179997  0.19786213  0.29402161  1.0
  F  F29  1  0.39179997  0.30213787  0.79402161  1.0
  F  F30  1  0.60820003  0.69786213  0.20597839  1.0
  F  F31  1  0.60820003  0.80213787  0.70597839  1.0
