# generated using pymatgen
data_Mn2V2O7
_symmetry_space_group_name_H-M   'P 1'
_cell_length_a   5.41963211
_cell_length_b   5.41963211
_cell_length_c   5.05023725
_cell_angle_alpha   82.68593913
_cell_angle_beta   97.31406087
_cell_angle_gamma   72.60258374
_symmetry_Int_Tables_number   1
_chemical_formula_structural   Mn2V2O7
_chemical_formula_sum   'Mn2 V2 O7'
_cell_volume   138.24032505
_cell_formula_units_Z   1
loop_
 _symmetry_equiv_pos_site_id
 _symmetry_equiv_pos_as_xyz
  1  'x, y, z'
loop_
 _atom_site_type_symbol
 _atom_site_label
 _atom_site_symmetry_multiplicity
 _atom_site_fract_x
 _atom_site_fract_y
 _atom_site_fract_z
 _atom_site_occupancy
  Mn  Mn0  1  0.68639910  -0.31360090  0.00000000  1.0
  Mn  Mn1  1  1.31360090  0.31360090  0.00000000  1.0
  V  V2  1  0.75556109  -0.75556109  0.60470494  1.0
  V  V3  1  0.24443891  -0.24443891  0.39529506  1.0
  O  O4  1  1.60906972  0.06028952  0.79804277  1.0
  O  O5  1  0.93971048  -0.60906972  0.79804277  1.0
  O  O6  1  1.06028952  0.60906972  0.20195723  1.0
  O  O7  1  0.39093028  -0.06028952  0.20195723  1.0
  O  O8  1  0.42173641  -0.42173641  0.72166433  1.0
  O  O9  1  0.57826359  -0.57826359  0.27833567  1.0
  O  O10  1  -0.00000000  0.00000000  0.50000000  1.0
