# generated using pymatgen
data_CsLi(B3O5)2
_symmetry_space_group_name_H-M   'P 1'
_cell_length_a   8.76245434
_cell_length_b   8.76245434
_cell_length_c   8.76245434
_cell_angle_alpha   105.66740013
_cell_angle_beta   105.66740013
_cell_angle_gamma   117.38031230
_symmetry_Int_Tables_number   1
_chemical_formula_structural   CsLi(B3O5)2
_chemical_formula_sum   'Cs2 Li2 B12 O20'
_cell_volume   510.41456496
_cell_formula_units_Z   2
loop_
 _symmetry_equiv_pos_site_id
 _symmetry_equiv_pos_as_xyz
  1  'x, y, z'
loop_
 _atom_site_type_symbol
 _atom_site_label
 _atom_site_symmetry_multiplicity
 _atom_site_fract_x
 _atom_site_fract_y
 _atom_site_fract_z
 _atom_site_occupancy
  Cs  Cs0  1  0.50000000  0.50000000  -0.00000000  1.0
  Cs  Cs1  1  1.25000000  0.75000000  0.50000000  1.0
  Li  Li2  1  0.00000000  0.00000000  0.00000000  1.0
  Li  Li3  1  0.75000000  1.25000000  0.50000000  1.0
  B  B4  1  0.91150418  0.83051612  0.61995237  1.0
  B  B5  1  0.83849582  0.95844819  0.41901193  1.0
  B  B6  1  0.58051612  1.16150418  1.11995237  1.0
  B  B7  1  1.16948388  0.78943625  1.08098807  1.0
  B  B8  1  0.53943625  0.41948388  0.58098807  1.0
  B  B9  1  0.21056375  0.29155181  0.38004763  1.0
  B  B10  1  1.70844819  1.08849582  0.91901193  1.0
  B  B11  1  1.04155181  1.46056375  0.88004763  1.0
  B  B12  1  0.87500000  1.10245042  0.72745042  1.0
  B  B13  1  1.85245042  1.12500000  1.22745042  1.0
  B  B14  1  0.89754958  1.62500000  0.77254958  1.0
  B  B15  1  1.37500000  1.14754958  1.27254958  1.0
  O  O16  1  0.92764170  0.97026416  0.75441980  1.0
  O  O17  1  0.82235830  1.07677810  0.54262246  1.0
  O  O18  1  1.72026416  1.17764170  1.25441980  1.0
  O  O19  1  1.02973584  1.78415564  0.95737754  1.0
  O  O20  1  1.53415564  1.27973584  1.45737754  1.0
  O  O21  1  0.21584436  0.17322190  0.24558020  1.0
  O  O22  1  0.82677810  1.07235830  1.04262246  1.0
  O  O23  1  0.92322190  1.46584436  0.74558020  1.0
  O  O24  1  0.81415335  0.95577134  0.25799102  1.0
  O  O25  1  0.93584665  0.69383767  0.64161800  1.0
  O  O26  1  0.70577134  0.06415335  0.75799102  1.0
  O  O27  1  1.04422866  1.30221967  0.85838200  1.0
  O  O28  1  1.05221967  1.29422866  0.35838200  1.0
  O  O29  1  0.69778033  0.55616233  0.74200898  1.0
  O  O30  1  0.44383767  1.18584665  1.14161800  1.0
  O  O31  1  1.30616233  0.94778033  1.24200898  1.0
  O  O32  1  0.87500000  0.82808672  0.45308672  1.0
  O  O33  1  1.57808672  1.12500000  0.95308672  1.0
  O  O34  1  1.17191328  0.62500000  1.04691328  1.0
  O  O35  1  0.37500000  0.42191328  0.54691328  1.0
