# generated using pymatgen
data_LaGa2Rh3
_symmetry_space_group_name_H-M   'P 1'
_cell_length_a   6.85064274
_cell_length_b   6.85064274
_cell_length_c   6.85064274
_cell_angle_alpha   88.29889327
_cell_angle_beta   111.93253416
_cell_angle_gamma   131.00849943
_symmetry_Int_Tables_number   1
_chemical_formula_structural   LaGa2Rh3
_chemical_formula_sum   'La2 Ga4 Rh6'
_cell_volume   214.13517836
_cell_formula_units_Z   2
loop_
 _symmetry_equiv_pos_site_id
 _symmetry_equiv_pos_as_xyz
  1  'x, y, z'
loop_
 _atom_site_type_symbol
 _atom_site_label
 _atom_site_symmetry_multiplicity
 _atom_site_fract_x
 _atom_site_fract_y
 _atom_site_fract_z
 _atom_site_occupancy
  La  La0  1  1.72353041  1.47353041  1.25000000  1.0
  La  La1  1  1.27646959  0.52646959  0.75000000  1.0
  Ga  Ga2  1  1.22502905  0.80802304  1.08299398  1.0
  Ga  Ga3  1  0.77497095  0.19197696  0.91700602  1.0
  Ga  Ga4  1  0.77497095  0.85796493  1.58299398  1.0
  Ga  Ga5  1  1.22502905  1.14203507  1.41700602  1.0
  Rh  Rh6  1  0.73648377  0.50000000  0.73648377  1.0
  Rh  Rh7  1  1.73648377  1.00000000  1.23648377  1.0
  Rh  Rh8  1  0.26351623  0.50000000  0.26351623  1.0
  Rh  Rh9  1  1.26351623  1.00000000  0.76351623  1.0
  Rh  Rh10  1  1.00000000  1.00000000  1.00000000  1.0
  Rh  Rh11  1  0.50000000  0.00000000  0.50000000  1.0
