# generated using pymatgen
data_La3In7Au4
_symmetry_space_group_name_H-M   'P 1'
_cell_length_a   9.06523028
_cell_length_b   9.06523028
_cell_length_c   10.58132210
_cell_angle_alpha   55.14266288
_cell_angle_beta   124.85733712
_cell_angle_gamma   150.12355190
_symmetry_Int_Tables_number   1
_chemical_formula_structural   La3In7Au4
_chemical_formula_sum   'La3 In7 Au4'
_cell_volume   349.24528587
_cell_formula_units_Z   1
loop_
 _symmetry_equiv_pos_site_id
 _symmetry_equiv_pos_as_xyz
  1  'x, y, z'
loop_
 _atom_site_type_symbol
 _atom_site_label
 _atom_site_symmetry_multiplicity
 _atom_site_fract_x
 _atom_site_fract_y
 _atom_site_fract_z
 _atom_site_occupancy
  La  La0  1  0.81176460  -0.81176460  0.30582042  1.0
  La  La1  1  0.18823540  -0.18823540  0.69417958  1.0
  La  La2  1  0.50000000  0.50000000  -0.00000000  1.0
  In  In3  1  0.99638060  -0.99638060  0.70707061  1.0
  In  In4  1  0.00361940  -0.00361940  0.29292939  1.0
  In  In5  1  0.82433216  0.17566784  0.96782973  1.0
  In  In6  1  1.17566784  -0.17566784  0.03217027  1.0
  In  In7  1  0.66171911  0.33828089  0.43076931  1.0
  In  In8  1  1.33828089  -0.33828089  0.56923069  1.0
  In  In9  1  0.50000000  0.50000000  0.50000000  1.0
  Au  Au10  1  0.84791902  0.15208098  0.73406775  1.0
  Au  Au11  1  1.15208098  -0.15208098  0.26593225  1.0
  Au  Au12  1  0.62865479  0.37134521  0.85104207  1.0
  Au  Au13  1  1.37134521  -0.37134521  0.14895793  1.0
