# generated using pymatgen
data_V3W3C
_symmetry_space_group_name_H-M   'P 1'
_cell_length_a   8.07289201
_cell_length_b   8.07289201
_cell_length_c   8.07289201
_cell_angle_alpha   60.00000000
_cell_angle_beta   60.00000000
_cell_angle_gamma   60.00000000
_symmetry_Int_Tables_number   1
_chemical_formula_structural   V3W3C
_chemical_formula_sum   'V12 W12 C4'
_cell_volume   372.02526231
_cell_formula_units_Z   4
loop_
 _symmetry_equiv_pos_site_id
 _symmetry_equiv_pos_as_xyz
  1  'x, y, z'
loop_
 _atom_site_type_symbol
 _atom_site_label
 _atom_site_symmetry_multiplicity
 _atom_site_fract_x
 _atom_site_fract_y
 _atom_site_fract_z
 _atom_site_occupancy
  V  V0  1  0.62500000  1.12500000  0.12500000  1.0
  V  V1  1  0.12500000  1.62500000  0.12500000  1.0
  V  V2  1  0.12500000  0.12500000  1.62500000  1.0
  V  V3  1  0.12500000  0.12500000  0.12500000  1.0
  V  V4  1  -0.75005516  0.91668505  0.91668505  1.0
  V  V5  1  0.91668505  -0.75005516  0.91668505  1.0
  V  V6  1  0.91668505  0.91668505  -0.75005516  1.0
  V  V7  1  0.91668505  0.91668505  0.91668505  1.0
  V  V8  1  0.00005516  1.33331495  0.33331495  1.0
  V  V9  1  0.33331495  1.00005516  0.33331495  1.0
  V  V10  1  0.33331495  1.33331495  0.00005516  1.0
  V  V11  1  0.33331495  1.33331495  0.33331495  1.0
  W  W12  1  0.69231178  0.69231178  -0.69231178  1.0
  W  W13  1  0.30768822  1.30768822  -0.30768822  1.0
  W  W14  1  0.69231178  -0.69231178  0.69231178  1.0
  W  W15  1  0.30768822  -0.30768822  0.30768822  1.0
  W  W16  1  -0.69231178  0.69231178  0.69231178  1.0
  W  W17  1  -0.30768822  0.30768822  0.30768822  1.0
  W  W18  1  -0.44231178  0.55768822  0.94231178  1.0
  W  W19  1  0.94231178  0.94231178  -0.44231178  1.0
  W  W20  1  0.55768822  0.94231178  0.55768822  1.0
  W  W21  1  0.94231178  0.55768822  0.94231178  1.0
  W  W22  1  0.94231178  0.55768822  -0.44231178  1.0
  W  W23  1  0.55768822  0.94231178  -0.05768822  1.0
  C  C24  1  1.12500000  0.62500000  0.62500000  1.0
  C  C25  1  0.62500000  1.12500000  -0.37500000  1.0
  C  C26  1  -0.37500000  0.62500000  1.12500000  1.0
  C  C27  1  -0.37500000  0.62500000  0.62500000  1.0
