# generated using pymatgen
data_Hf3AlN
_symmetry_space_group_name_H-M   'P 1'
_cell_length_a   5.94035798
_cell_length_b   5.94035798
_cell_length_c   8.89916728
_cell_angle_alpha   90.00000000
_cell_angle_beta   90.00000000
_cell_angle_gamma   147.55936928
_symmetry_Int_Tables_number   1
_chemical_formula_structural   Hf3AlN
_chemical_formula_sum   'Hf6 Al2 N2'
_cell_volume   168.45501514
_cell_formula_units_Z   2
loop_
 _symmetry_equiv_pos_site_id
 _symmetry_equiv_pos_as_xyz
  1  'x, y, z'
loop_
 _atom_site_type_symbol
 _atom_site_label
 _atom_site_symmetry_multiplicity
 _atom_site_fract_x
 _atom_site_fract_y
 _atom_site_fract_z
 _atom_site_occupancy
  Hf  Hf0  1  0.37171017  0.62828983  0.95810725  1.0
  Hf  Hf1  1  0.37171017  0.62828983  0.54189275  1.0
  Hf  Hf2  1  -0.37171017  0.37171017  0.45810725  1.0
  Hf  Hf3  1  -0.37171017  0.37171017  0.04189275  1.0
  Hf  Hf4  1  0.04264483  0.95735517  0.75000000  1.0
  Hf  Hf5  1  -0.04264483  0.04264483  0.25000000  1.0
  Al  Al6  1  -0.25310823  0.25310823  0.75000000  1.0
  Al  Al7  1  0.25310823  0.74689177  0.25000000  1.0
  N  N8  1  0.00000000  0.00000000  0.00000000  1.0
  N  N9  1  0.00000000  0.00000000  0.50000000  1.0
