# generated using pymatgen
data_GdBC
_symmetry_space_group_name_H-M   'P 1'
_cell_length_a   9.91148409
_cell_length_b   9.91148409
_cell_length_c   3.56982633
_cell_angle_alpha   90.00000000
_cell_angle_beta   90.00000000
_cell_angle_gamma   160.10055057
_symmetry_Int_Tables_number   1
_chemical_formula_structural   GdBC
_chemical_formula_sum   'Gd2 B2 C2'
_cell_volume   119.36483323
_cell_formula_units_Z   2
loop_
 _symmetry_equiv_pos_site_id
 _symmetry_equiv_pos_as_xyz
  1  'x, y, z'
loop_
 _atom_site_type_symbol
 _atom_site_label
 _atom_site_symmetry_multiplicity
 _atom_site_fract_x
 _atom_site_fract_y
 _atom_site_fract_z
 _atom_site_occupancy
  Gd  Gd0  1  -0.65659175  0.65659175  0.50000000  1.0
  Gd  Gd1  1  -0.34340825  1.34340825  0.50000000  1.0
  B  B2  1  -0.77554753  0.77554753  0.00000000  1.0
  B  B3  1  -0.22445247  1.22445247  0.00000000  1.0
  C  C4  1  -0.85184192  0.85184192  0.00000000  1.0
  C  C5  1  -0.14815808  1.14815808  0.00000000  1.0
