# generated using pymatgen
data_TeS7Br2
_symmetry_space_group_name_H-M   'P 1'
_cell_length_a   10.31343022
_cell_length_b   9.59793917
_cell_length_c   14.04792264
_cell_angle_alpha   90.00000000
_cell_angle_beta   90.00000000
_cell_angle_gamma   90.00000000
_symmetry_Int_Tables_number   1
_chemical_formula_structural   TeS7Br2
_chemical_formula_sum   'Te4 S28 Br8'
_cell_volume   1390.57121366
_cell_formula_units_Z   4
loop_
 _symmetry_equiv_pos_site_id
 _symmetry_equiv_pos_as_xyz
  1  'x, y, z'
loop_
 _atom_site_type_symbol
 _atom_site_label
 _atom_site_symmetry_multiplicity
 _atom_site_fract_x
 _atom_site_fract_y
 _atom_site_fract_z
 _atom_site_occupancy
  Te  Te0  1  0.79634446  0.75000000  0.10049071  1.0
  Te  Te1  1  0.29634446  0.75000000  0.39950929  1.0
  Te  Te2  1  0.20365554  0.25000000  0.89950929  1.0
  Te  Te3  1  0.70365554  0.25000000  0.60049071  1.0
  S  S4  1  0.85645041  0.42521315  0.29580174  1.0
  S  S5  1  0.85645041  0.07478685  0.29580174  1.0
  S  S6  1  0.35645041  0.42521315  0.20419826  1.0
  S  S7  1  0.35645041  0.07478685  0.20419826  1.0
  S  S8  1  0.14354959  0.92521315  0.70419826  1.0
  S  S9  1  0.14354959  0.57478685  0.70419826  1.0
  S  S10  1  0.64354959  0.92521315  0.79580174  1.0
  S  S11  1  0.64354959  0.57478685  0.79580174  1.0
  S  S12  1  0.74786307  0.98458514  0.40621961  1.0
  S  S13  1  0.74786307  0.51541486  0.40621961  1.0
  S  S14  1  0.24786307  0.98458514  0.09378039  1.0
  S  S15  1  0.24786307  0.51541486  0.09378039  1.0
  S  S16  1  0.25213693  0.48458514  0.59378039  1.0
  S  S17  1  0.25213693  0.01541486  0.59378039  1.0
  S  S18  1  0.75213693  0.48458514  0.90621961  1.0
  S  S19  1  0.75213693  0.01541486  0.90621961  1.0
  S  S20  1  0.67440568  0.95634765  0.03114642  1.0
  S  S21  1  0.67440568  0.54365235  0.03114642  1.0
  S  S22  1  0.17440568  0.95634765  0.46885358  1.0
  S  S23  1  0.17440568  0.54365235  0.46885358  1.0
  S  S24  1  0.32559432  0.45634765  0.96885358  1.0
  S  S25  1  0.32559432  0.04365235  0.96885358  1.0
  S  S26  1  0.82559432  0.45634765  0.53114642  1.0
  S  S27  1  0.82559432  0.04365235  0.53114642  1.0
  S  S28  1  0.73497956  0.75000000  0.74357172  1.0
  S  S29  1  0.23497956  0.75000000  0.75642828  1.0
  S  S30  1  0.26502044  0.25000000  0.25642828  1.0
  S  S31  1  0.76502044  0.25000000  0.24357172  1.0
  Br  Br32  1  0.58653435  0.75000000  0.21701533  1.0
  Br  Br33  1  0.08653435  0.75000000  0.28298467  1.0
  Br  Br34  1  0.41346565  0.25000000  0.78298467  1.0
  Br  Br35  1  0.91346565  0.25000000  0.71701533  1.0
  Br  Br36  1  0.47343127  0.75000000  0.53260381  1.0
  Br  Br37  1  0.97343127  0.75000000  0.96739619  1.0
  Br  Br38  1  0.52656873  0.25000000  0.46739619  1.0
  Br  Br39  1  0.02656873  0.25000000  0.03260381  1.0
