# generated using pymatgen
data_Te2MoO7
_symmetry_space_group_name_H-M   'P 1'
_cell_length_a   4.42395335
_cell_length_b   9.37820438
_cell_length_c   15.86729231
_cell_angle_alpha   90.00000000
_cell_angle_beta   96.21423709
_cell_angle_gamma   90.00000000
_symmetry_Int_Tables_number   1
_chemical_formula_structural   Te2MoO7
_chemical_formula_sum   'Te8 Mo4 O28'
_cell_volume   654.44575631
_cell_formula_units_Z   4
loop_
 _symmetry_equiv_pos_site_id
 _symmetry_equiv_pos_as_xyz
  1  'x, y, z'
loop_
 _atom_site_type_symbol
 _atom_site_label
 _atom_site_symmetry_multiplicity
 _atom_site_fract_x
 _atom_site_fract_y
 _atom_site_fract_z
 _atom_site_occupancy
  Te  Te0  1  0.79082780  0.78369376  0.61017243  1.0
  Te  Te1  1  0.79082780  0.71630624  0.11017243  1.0
  Te  Te2  1  0.20917220  0.28369376  0.88982757  1.0
  Te  Te3  1  0.20917220  0.21630624  0.38982757  1.0
  Te  Te4  1  0.66899360  0.52878583  0.78399240  1.0
  Te  Te5  1  0.66899360  0.97121417  0.28399240  1.0
  Te  Te6  1  0.33100640  0.02878583  0.71600760  1.0
  Te  Te7  1  0.33100640  0.47121417  0.21600760  1.0
  Mo  Mo8  1  0.38281067  0.87084534  0.93064272  1.0
  Mo  Mo9  1  0.38281067  0.62915466  0.43064272  1.0
  Mo  Mo10  1  0.61718933  0.37084534  0.56935728  1.0
  Mo  Mo11  1  0.61718933  0.12915466  0.06935728  1.0
  O  O12  1  0.99475843  0.87476456  0.93121427  1.0
  O  O13  1  0.99475843  0.62523544  0.43121427  1.0
  O  O14  1  0.00524157  0.37476456  0.56878573  1.0
  O  O15  1  0.00524157  0.12523544  0.06878573  1.0
  O  O16  1  0.90511412  0.96975694  0.68299641  1.0
  O  O17  1  0.90511412  0.53024306  0.18299641  1.0
  O  O18  1  0.09488588  0.46975694  0.81700359  1.0
  O  O19  1  0.09488588  0.03024306  0.31700359  1.0
  O  O20  1  0.91623372  0.66147715  0.70649769  1.0
  O  O21  1  0.91623372  0.83852285  0.20649769  1.0
  O  O22  1  0.08376628  0.16147715  0.79350231  1.0
  O  O23  1  0.08376628  0.33852285  0.29350231  1.0
  O  O24  1  0.53599235  0.59739192  0.55070517  1.0
  O  O25  1  0.53599235  0.90260808  0.05070517  1.0
  O  O26  1  0.46400765  0.09739192  0.94929483  1.0
  O  O27  1  0.46400765  0.40260808  0.44929483  1.0
  O  O28  1  0.48412244  0.69178024  0.93774965  1.0
  O  O29  1  0.48412244  0.80821976  0.43774965  1.0
  O  O30  1  0.51587756  0.19178024  0.56225035  1.0
  O  O31  1  0.51587756  0.30821976  0.06225035  1.0
  O  O32  1  0.44464341  0.90277279  0.81482059  1.0
  O  O33  1  0.44464341  0.59722721  0.31482059  1.0
  O  O34  1  0.55535659  0.40277279  0.68517941  1.0
  O  O35  1  0.55535659  0.09722721  0.18517941  1.0
  O  O36  1  0.38315867  0.84620911  0.63761598  1.0
  O  O37  1  0.38315867  0.65379089  0.13761598  1.0
  O  O38  1  0.61684133  0.34620911  0.86238402  1.0
  O  O39  1  0.61684133  0.15379089  0.36238402  1.0
