# generated using pymatgen
data_Na2LiAlH6
_symmetry_space_group_name_H-M   'P 1'
_cell_length_a   5.19662620
_cell_length_b   5.21377309
_cell_length_c   9.02050094
_cell_angle_alpha   90.00000000
_cell_angle_beta   125.23309123
_cell_angle_gamma   90.00000000
_symmetry_Int_Tables_number   1
_chemical_formula_structural   Na2LiAlH6
_chemical_formula_sum   'Na4 Li2 Al2 H12'
_cell_volume   199.63022058
_cell_formula_units_Z   2
loop_
 _symmetry_equiv_pos_site_id
 _symmetry_equiv_pos_as_xyz
  1  'x, y, z'
loop_
 _atom_site_type_symbol
 _atom_site_label
 _atom_site_symmetry_multiplicity
 _atom_site_fract_x
 _atom_site_fract_y
 _atom_site_fract_z
 _atom_site_occupancy
  Na  Na0  1  0.25236439  0.01726188  0.74973275  1.0
  Na  Na1  1  0.25236439  0.48273812  0.24973275  1.0
  Na  Na2  1  0.74763561  0.98273812  0.25026725  1.0
  Na  Na3  1  0.74763561  0.51726188  0.75026725  1.0
  Li  Li4  1  0.50000000  0.50000000  0.00000000  1.0
  Li  Li5  1  0.50000000  0.00000000  0.50000000  1.0
  Al  Al6  1  -0.00000000  0.50000000  0.50000000  1.0
  Al  Al7  1  0.00000000  0.00000000  0.00000000  1.0
  H  H8  1  0.17936715  0.48984693  0.73584150  1.0
  H  H9  1  0.17936715  0.01015307  0.23584150  1.0
  H  H10  1  0.82063285  0.51015307  0.26415850  1.0
  H  H11  1  0.82063285  0.98984693  0.76415850  1.0
  H  H12  1  0.29453030  0.20626739  0.02855236  1.0
  H  H13  1  0.29453030  0.29373261  0.52855236  1.0
  H  H14  1  0.70546970  0.79373261  0.97144764  1.0
  H  H15  1  0.70546970  0.70626739  0.47144764  1.0
  H  H16  1  0.76642261  0.23299662  0.47042609  1.0
  H  H17  1  0.76642261  0.26700338  0.97042609  1.0
  H  H18  1  0.23357739  0.76700338  0.52957391  1.0
  H  H19  1  0.23357739  0.73299662  0.02957391  1.0
