# generated using pymatgen
data_Cs2Se3
_symmetry_space_group_name_H-M   'P 1'
_cell_length_a   7.13337566
_cell_length_b   7.13337566
_cell_length_c   8.51715626
_cell_angle_alpha   90.00000000
_cell_angle_beta   90.00000000
_cell_angle_gamma   110.96046000
_symmetry_Int_Tables_number   1
_chemical_formula_structural   Cs2Se3
_chemical_formula_sum   'Cs4 Se6'
_cell_volume   404.71702375
_cell_formula_units_Z   2
loop_
 _symmetry_equiv_pos_site_id
 _symmetry_equiv_pos_as_xyz
  1  'x, y, z'
loop_
 _atom_site_type_symbol
 _atom_site_label
 _atom_site_symmetry_multiplicity
 _atom_site_fract_x
 _atom_site_fract_y
 _atom_site_fract_z
 _atom_site_occupancy
  Cs  Cs0  1  0.09825985  0.90174015  0.53958059  1.0
  Cs  Cs1  1  -0.09825985  1.09825985  0.03958059  1.0
  Cs  Cs2  1  0.41615321  0.58384679  0.31936494  1.0
  Cs  Cs3  1  -0.41615321  1.41615321  0.81936494  1.0
  Se  Se4  1  -0.07569507  1.60074073  0.16569789  1.0
  Se  Se5  1  0.60074073  0.92430493  0.66569789  1.0
  Se  Se6  1  -0.60074073  1.07569507  0.16569789  1.0
  Se  Se7  1  0.07569507  0.39925927  0.66569789  1.0
  Se  Se8  1  0.20684486  0.79315514  0.00765869  1.0
  Se  Se9  1  -0.20684486  1.20684486  0.50765869  1.0
