# generated using pymatgen
data_Al7Cu2Rh
_symmetry_space_group_name_H-M   'P 1'
_cell_length_a   6.42163303
_cell_length_b   6.42163303
_cell_length_c   14.89171437
_cell_angle_alpha   90.00000000
_cell_angle_beta   90.00000000
_cell_angle_gamma   90.00000000
_symmetry_Int_Tables_number   1
_chemical_formula_structural   Al7Cu2Rh
_chemical_formula_sum   'Al28 Cu8 Rh4'
_cell_volume   614.09514779
_cell_formula_units_Z   4
loop_
 _symmetry_equiv_pos_site_id
 _symmetry_equiv_pos_as_xyz
  1  'x, y, z'
loop_
 _atom_site_type_symbol
 _atom_site_label
 _atom_site_symmetry_multiplicity
 _atom_site_fract_x
 _atom_site_fract_y
 _atom_site_fract_z
 _atom_site_occupancy
  Al  Al0  1  0.30060410  0.91425832  0.40276533  1.0
  Al  Al1  1  0.30060410  0.91425832  0.59723467  1.0
  Al  Al2  1  0.80060410  0.58574168  0.90276533  1.0
  Al  Al3  1  0.80060410  0.58574168  0.09723467  1.0
  Al  Al4  1  0.08574168  0.30060410  0.40276533  1.0
  Al  Al5  1  0.08574168  0.30060410  0.59723467  1.0
  Al  Al6  1  0.58574168  0.19939590  0.90276533  1.0
  Al  Al7  1  0.58574168  0.19939590  0.09723467  1.0
  Al  Al8  1  0.69939590  0.08574168  0.40276533  1.0
  Al  Al9  1  0.69939590  0.08574168  0.59723467  1.0
  Al  Al10  1  0.19939590  0.41425832  0.90276533  1.0
  Al  Al11  1  0.19939590  0.41425832  0.09723467  1.0
  Al  Al12  1  0.91425832  0.69939590  0.40276533  1.0
  Al  Al13  1  0.91425832  0.69939590  0.59723467  1.0
  Al  Al14  1  0.41425832  0.80060410  0.90276533  1.0
  Al  Al15  1  0.41425832  0.80060410  0.09723467  1.0
  Al  Al16  1  0.35155232  0.14844768  0.25000000  1.0
  Al  Al17  1  0.35155232  0.14844768  0.75000000  1.0
  Al  Al18  1  0.85155232  0.35155232  0.75000000  1.0
  Al  Al19  1  0.85155232  0.35155232  0.25000000  1.0
  Al  Al20  1  0.64844768  0.85155232  0.25000000  1.0
  Al  Al21  1  0.64844768  0.85155232  0.75000000  1.0
  Al  Al22  1  0.14844768  0.64844768  0.75000000  1.0
  Al  Al23  1  0.14844768  0.64844768  0.25000000  1.0
  Al  Al24  1  0.50000000  0.50000000  0.37244698  1.0
  Al  Al25  1  0.50000000  0.50000000  0.62755302  1.0
  Al  Al26  1  0.00000000  0.00000000  0.87244698  1.0
  Al  Al27  1  0.00000000  0.00000000  0.12755302  1.0
  Cu  Cu28  1  0.23142302  0.59516963  0.50000000  1.0
  Cu  Cu29  1  0.73142302  0.90483037  0.00000000  1.0
  Cu  Cu30  1  0.40483037  0.23142302  0.50000000  1.0
  Cu  Cu31  1  0.90483037  0.26857698  0.00000000  1.0
  Cu  Cu32  1  0.76857698  0.40483037  0.50000000  1.0
  Cu  Cu33  1  0.26857698  0.09516963  -0.00000000  1.0
  Cu  Cu34  1  0.59516963  0.76857698  0.50000000  1.0
  Cu  Cu35  1  0.09516963  0.73142302  0.00000000  1.0
  Rh  Rh36  1  0.50000000  0.50000000  0.20271724  1.0
  Rh  Rh37  1  0.50000000  0.50000000  0.79728276  1.0
  Rh  Rh38  1  0.00000000  0.00000000  0.70271724  1.0
  Rh  Rh39  1  0.00000000  0.00000000  0.29728276  1.0
