# generated using pymatgen
data_TaNO
_symmetry_space_group_name_H-M   'P 1'
_cell_length_a   5.56868488
_cell_length_b   5.55186407
_cell_length_c   5.80615224
_cell_angle_alpha   90.00000000
_cell_angle_beta   117.57810093
_cell_angle_gamma   90.00000000
_symmetry_Int_Tables_number   1
_chemical_formula_structural   TaNO
_chemical_formula_sum   'Ta4 N4 O4'
_cell_volume   159.11097041
_cell_formula_units_Z   4
loop_
 _symmetry_equiv_pos_site_id
 _symmetry_equiv_pos_as_xyz
  1  'x, y, z'
loop_
 _atom_site_type_symbol
 _atom_site_label
 _atom_site_symmetry_multiplicity
 _atom_site_fract_x
 _atom_site_fract_y
 _atom_site_fract_z
 _atom_site_occupancy
  Ta  Ta0  1  0.76492784  0.88452050  0.76333273  1.0
  Ta  Ta1  1  0.76492784  0.61547950  0.26333273  1.0
  Ta  Ta2  1  0.23507216  0.38452050  0.73666727  1.0
  Ta  Ta3  1  0.23507216  0.11547950  0.23666727  1.0
  N  N4  1  0.94839981  0.62783950  0.65904648  1.0
  N  N5  1  0.94839981  0.87216050  0.15904648  1.0
  N  N6  1  0.05160019  0.12783950  0.84095352  1.0
  N  N7  1  0.05160019  0.37216050  0.34095352  1.0
  O  O8  1  0.53493068  0.63161605  0.84490468  1.0
  O  O9  1  0.53493068  0.86838395  0.34490468  1.0
  O  O10  1  0.46506932  0.13161605  0.65509532  1.0
  O  O11  1  0.46506932  0.36838395  0.15509532  1.0
