# generated using pymatgen
data_Zr6NiCl15
_symmetry_space_group_name_H-M   'P 1'
_cell_length_a   8.98455425
_cell_length_b   8.98455425
_cell_length_c   8.98455425
_cell_angle_alpha   109.47122063
_cell_angle_beta   109.47122063
_cell_angle_gamma   109.47122063
_symmetry_Int_Tables_number   1
_chemical_formula_structural   Zr6NiCl15
_chemical_formula_sum   'Zr6 Ni1 Cl15'
_cell_volume   558.30011321
_cell_formula_units_Z   1
loop_
 _symmetry_equiv_pos_site_id
 _symmetry_equiv_pos_as_xyz
  1  'x, y, z'
loop_
 _atom_site_type_symbol
 _atom_site_label
 _atom_site_symmetry_multiplicity
 _atom_site_fract_x
 _atom_site_fract_y
 _atom_site_fract_z
 _atom_site_occupancy
  Zr  Zr0  1  0.00000000  0.75908703  0.75908703  1.0
  Zr  Zr1  1  0.75908703  0.00000000  0.75908703  1.0
  Zr  Zr2  1  0.75908703  0.75908703  -0.00000000  1.0
  Zr  Zr3  1  0.24091297  0.24091297  -0.00000000  1.0
  Zr  Zr4  1  0.24091297  0.00000000  0.24091297  1.0
  Zr  Zr5  1  0.00000000  0.24091297  0.24091297  1.0
  Ni  Ni6  1  0.00000000  0.00000000  0.00000000  1.0
  Cl  Cl7  1  0.50918992  0.75459496  0.75459496  1.0
  Cl  Cl8  1  1.00000000  1.24540504  0.75459496  1.0
  Cl  Cl9  1  1.00000000  0.75459496  0.24540504  1.0
  Cl  Cl10  1  1.49081008  1.24540504  1.24540504  1.0
  Cl  Cl11  1  0.75459496  0.50918992  0.75459496  1.0
  Cl  Cl12  1  1.24540504  1.00000000  0.75459496  1.0
  Cl  Cl13  1  0.75459496  0.75459496  0.50918992  1.0
  Cl  Cl14  1  1.24540504  0.75459496  1.00000000  1.0
  Cl  Cl15  1  0.75459496  1.00000000  0.24540504  1.0
  Cl  Cl16  1  1.24540504  1.49081008  1.24540504  1.0
  Cl  Cl17  1  0.75459496  1.24540504  1.00000000  1.0
  Cl  Cl18  1  0.24540504  0.24540504  0.49081008  1.0
  Cl  Cl19  1  0.00000000  0.50000000  0.50000000  1.0
  Cl  Cl20  1  0.50000000  0.00000000  0.50000000  1.0
  Cl  Cl21  1  0.50000000  0.50000000  -0.00000000  1.0
