# generated using pymatgen
data_Cd3B4(PbO4)3
_symmetry_space_group_name_H-M   'P 1'
_cell_length_a   10.19044588
_cell_length_b   10.19044588
_cell_length_c   7.09031417
_cell_angle_alpha   90.00000000
_cell_angle_beta   90.00000000
_cell_angle_gamma   120.00000000
_symmetry_Int_Tables_number   1
_chemical_formula_structural   Cd3B4(PbO4)3
_chemical_formula_sum   'Cd6 B8 Pb6 O24'
_cell_volume   637.65017745
_cell_formula_units_Z   2
loop_
 _symmetry_equiv_pos_site_id
 _symmetry_equiv_pos_as_xyz
  1  'x, y, z'
loop_
 _atom_site_type_symbol
 _atom_site_label
 _atom_site_symmetry_multiplicity
 _atom_site_fract_x
 _atom_site_fract_y
 _atom_site_fract_z
 _atom_site_occupancy
  Cd  Cd0  1  0.50000000  0.50000000  0.50000000  1.0
  Cd  Cd1  1  0.50000000  0.50000000  0.00000000  1.0
  Cd  Cd2  1  0.50000000  0.00000000  0.00000000  1.0
  Cd  Cd3  1  0.50000000  0.00000000  0.50000000  1.0
  Cd  Cd4  1  0.00000000  0.50000000  0.50000000  1.0
  Cd  Cd5  1  0.00000000  0.50000000  0.00000000  1.0
  B  B6  1  0.79907287  0.60868499  0.25000000  1.0
  B  B7  1  0.60868499  0.80961212  0.75000000  1.0
  B  B8  1  0.80961212  0.20092713  0.25000000  1.0
  B  B9  1  0.39131501  0.19038788  0.25000000  1.0
  B  B10  1  0.20092713  0.39131501  0.75000000  1.0
  B  B11  1  0.19038788  0.79907287  0.75000000  1.0
  B  B12  1  0.33333333  0.66666667  0.25000000  1.0
  B  B13  1  0.66666667  0.33333333  0.75000000  1.0
  Pb  Pb14  1  0.15509202  0.86377764  0.25000000  1.0
  Pb  Pb15  1  0.86377764  0.70868562  0.75000000  1.0
  Pb  Pb16  1  0.70868562  0.84490798  0.25000000  1.0
  Pb  Pb17  1  0.13622236  0.29131438  0.25000000  1.0
  Pb  Pb18  1  0.84490798  0.13622236  0.75000000  1.0
  Pb  Pb19  1  0.29131438  0.15509202  0.75000000  1.0
  O  O20  1  0.75188278  0.64529219  0.41709696  1.0
  O  O21  1  0.75188278  0.64529219  0.08290304  1.0
  O  O22  1  0.64529219  0.89340941  0.91709696  1.0
  O  O23  1  0.64529219  0.89340941  0.58290304  1.0
  O  O24  1  0.89340941  0.24811722  0.41709696  1.0
  O  O25  1  0.89340941  0.24811722  0.08290304  1.0
  O  O26  1  0.35470781  0.10659059  0.41709696  1.0
  O  O27  1  0.35470781  0.10659059  0.08290304  1.0
  O  O28  1  0.24811722  0.35470781  0.91709696  1.0
  O  O29  1  0.24811722  0.35470781  0.58290304  1.0
  O  O30  1  0.10659059  0.75188278  0.91709696  1.0
  O  O31  1  0.10659059  0.75188278  0.58290304  1.0
  O  O32  1  0.35281716  0.81204686  0.25000000  1.0
  O  O33  1  0.81204686  0.45922970  0.75000000  1.0
  O  O34  1  0.45922970  0.64718284  0.25000000  1.0
  O  O35  1  0.18795314  0.54077030  0.25000000  1.0
  O  O36  1  0.64718284  0.18795314  0.75000000  1.0
  O  O37  1  0.54077030  0.35281716  0.75000000  1.0
  O  O38  1  0.89843657  0.55479655  0.25000000  1.0
  O  O39  1  0.55479655  0.65635998  0.75000000  1.0
  O  O40  1  0.65635998  0.10156343  0.25000000  1.0
  O  O41  1  0.44520345  0.34364002  0.25000000  1.0
  O  O42  1  0.10156343  0.44520345  0.75000000  1.0
  O  O43  1  0.34364002  0.89843657  0.75000000  1.0
