# generated using pymatgen
data_H8C5
_symmetry_space_group_name_H-M   'P 1'
_cell_length_a   7.05584926
_cell_length_b   7.05584926
_cell_length_c   9.57242968
_cell_angle_alpha   90.00000000
_cell_angle_beta   90.00000000
_cell_angle_gamma   90.00000000
_symmetry_Int_Tables_number   1
_chemical_formula_structural   H8C5
_chemical_formula_sum   'H32 C20'
_cell_volume   476.56349576
_cell_formula_units_Z   4
loop_
 _symmetry_equiv_pos_site_id
 _symmetry_equiv_pos_as_xyz
  1  'x, y, z'
loop_
 _atom_site_type_symbol
 _atom_site_label
 _atom_site_symmetry_multiplicity
 _atom_site_fract_x
 _atom_site_fract_y
 _atom_site_fract_z
 _atom_site_occupancy
  H  H0  1  0.54952651  0.80204443  0.65944749  1.0
  H  H1  1  0.95047349  0.30204443  0.84055251  1.0
  H  H2  1  0.45047349  0.19795557  0.65944749  1.0
  H  H3  1  0.04952651  0.69795557  0.84055251  1.0
  H  H4  1  0.80204443  0.45047349  0.34055251  1.0
  H  H5  1  0.30204443  0.04952651  0.15944749  1.0
  H  H6  1  0.19795557  0.54952651  0.34055251  1.0
  H  H7  1  0.69795557  0.95047349  0.15944749  1.0
  H  H8  1  0.37616307  0.52028716  0.75432381  1.0
  H  H9  1  0.12383693  0.02028716  0.74567619  1.0
  H  H10  1  0.62383693  0.47971284  0.75432381  1.0
  H  H11  1  0.87616307  0.97971284  0.74567619  1.0
  H  H12  1  0.52028716  0.62383693  0.24567619  1.0
  H  H13  1  0.02028716  0.87616307  0.25432381  1.0
  H  H14  1  0.47971284  0.37616307  0.24567619  1.0
  H  H15  1  0.97971284  0.12383693  0.25432381  1.0
  H  H16  1  0.22665866  0.72881632  0.56515536  1.0
  H  H17  1  0.27334134  0.22881632  0.93484464  1.0
  H  H18  1  0.77334134  0.27118368  0.56515536  1.0
  H  H19  1  0.72665866  0.77118368  0.93484464  1.0
  H  H20  1  0.72881632  0.77334134  0.43484464  1.0
  H  H21  1  0.22881632  0.72665866  0.06515536  1.0
  H  H22  1  0.27118368  0.22665866  0.43484464  1.0
  H  H23  1  0.77118368  0.27334134  0.06515536  1.0
  H  H24  1  0.37116368  0.83192921  0.43436501  1.0
  H  H25  1  0.12883632  0.33192921  0.06563499  1.0
  H  H26  1  0.62883632  0.16807079  0.43436501  1.0
  H  H27  1  0.87116368  0.66807079  0.06563499  1.0
  H  H28  1  0.83192921  0.62883632  0.56563499  1.0
  H  H29  1  0.33192921  0.87116368  0.93436501  1.0
  H  H30  1  0.16807079  0.37116368  0.56563499  1.0
  H  H31  1  0.66807079  0.12883632  0.93436501  1.0
  C  C32  1  0.52887218  0.67609070  0.59300975  1.0
  C  C33  1  0.97112782  0.17609070  0.90699025  1.0
  C  C34  1  0.47112782  0.32390930  0.59300975  1.0
  C  C35  1  0.02887218  0.82390930  0.90699025  1.0
  C  C36  1  0.67609070  0.47112782  0.40699025  1.0
  C  C37  1  0.17609070  0.02887218  0.09300975  1.0
  C  C38  1  0.32390930  0.52887218  0.40699025  1.0
  C  C39  1  0.82390930  0.97112782  0.09300975  1.0
  C  C40  1  0.35313463  0.70465588  0.49990450  1.0
  C  C41  1  0.14686537  0.20465588  0.00009550  1.0
  C  C42  1  0.64686537  0.29534412  0.49990450  1.0
  C  C43  1  0.85313463  0.79534412  0.00009550  1.0
  C  C44  1  0.70465588  0.64686537  0.50009550  1.0
  C  C45  1  0.20465588  0.85313463  0.99990450  1.0
  C  C46  1  0.29534412  0.35313463  0.50009550  1.0
  C  C47  1  0.79534412  0.14686537  0.99990450  1.0
  C  C48  1  0.50000000  0.50000000  0.68568439  1.0
  C  C49  1  0.00000000  0.00000000  0.81431561  1.0
  C  C50  1  0.50000000  0.50000000  0.31431561  1.0
  C  C51  1  0.00000000  0.00000000  0.18568439  1.0
