# generated using pymatgen
data_ScSnPt
_symmetry_space_group_name_H-M   'P 1'
_cell_length_a   7.46123169
_cell_length_b   7.46123169
_cell_length_c   3.70803969
_cell_angle_alpha   90.00000000
_cell_angle_beta   90.00000000
_cell_angle_gamma   120.00000000
_symmetry_Int_Tables_number   1
_chemical_formula_structural   ScSnPt
_chemical_formula_sum   'Sc3 Sn3 Pt3'
_cell_volume   178.77058340
_cell_formula_units_Z   3
loop_
 _symmetry_equiv_pos_site_id
 _symmetry_equiv_pos_as_xyz
  1  'x, y, z'
loop_
 _atom_site_type_symbol
 _atom_site_label
 _atom_site_symmetry_multiplicity
 _atom_site_fract_x
 _atom_site_fract_y
 _atom_site_fract_z
 _atom_site_occupancy
  Sc  Sc0  1  0.39406558  0.39406558  0.00000000  1.0
  Sc  Sc1  1  0.00000000  0.60593442  0.00000000  1.0
  Sc  Sc2  1  0.60593442  0.00000000  0.00000000  1.0
  Sn  Sn3  1  0.72842893  0.72842893  0.50000000  1.0
  Sn  Sn4  1  0.00000000  0.27157107  0.50000000  1.0
  Sn  Sn5  1  0.27157107  0.00000000  0.50000000  1.0
  Pt  Pt6  1  0.33333333  0.66666667  0.50000000  1.0
  Pt  Pt7  1  0.66666667  0.33333333  0.50000000  1.0
  Pt  Pt8  1  0.00000000  0.00000000  0.00000000  1.0
