# generated using pymatgen
data_Y2(CN2)3
_symmetry_space_group_name_H-M   'P 1'
_cell_length_a   7.43471563
_cell_length_b   7.43471563
_cell_length_c   5.23771453
_cell_angle_alpha   83.95939039
_cell_angle_beta   96.04060961
_cell_angle_gamma   150.35185833
_symmetry_Int_Tables_number   1
_chemical_formula_structural   Y2(CN2)3
_chemical_formula_sum   'Y2 C3 N6'
_cell_volume   142.36381165
_cell_formula_units_Z   1
loop_
 _symmetry_equiv_pos_site_id
 _symmetry_equiv_pos_as_xyz
  1  'x, y, z'
loop_
 _atom_site_type_symbol
 _atom_site_label
 _atom_site_symmetry_multiplicity
 _atom_site_fract_x
 _atom_site_fract_y
 _atom_site_fract_z
 _atom_site_occupancy
  Y  Y0  1  0.86585425  -0.86585425  0.43076313  1.0
  Y  Y1  1  1.13414575  -0.13414575  0.56923687  1.0
  C  C2  1  1.32858111  -0.32858111  0.90711623  1.0
  C  C3  1  0.67141889  -0.67141889  0.09288377  1.0
  C  C4  1  0.00000000  0.00000000  0.00000000  1.0
  N  N5  1  0.98865013  -0.98865013  0.76375399  1.0
  N  N6  1  1.01134987  -0.01134987  0.23624601  1.0
  N  N7  1  0.68995277  -0.68995277  0.33128884  1.0
  N  N8  1  1.31004723  -0.31004723  0.66871116  1.0
  N  N9  1  0.65611542  -0.65611542  0.85998462  1.0
  N  N10  1  1.34388458  -0.34388458  0.14001538  1.0
