# generated using pymatgen
data_CuAgS
_symmetry_space_group_name_H-M   'P 1'
_cell_length_a   3.94649452
_cell_length_b   3.94649452
_cell_length_c   8.46664780
_cell_angle_alpha   90.00000000
_cell_angle_beta   90.00000000
_cell_angle_gamma   119.64077373
_symmetry_Int_Tables_number   1
_chemical_formula_structural   CuAgS
_chemical_formula_sum   'Cu2 Ag2 S2'
_cell_volume   114.61087801
_cell_formula_units_Z   2
loop_
 _symmetry_equiv_pos_site_id
 _symmetry_equiv_pos_as_xyz
  1  'x, y, z'
loop_
 _atom_site_type_symbol
 _atom_site_label
 _atom_site_symmetry_multiplicity
 _atom_site_fract_x
 _atom_site_fract_y
 _atom_site_fract_z
 _atom_site_occupancy
  Cu  Cu0  1  -0.48165053  1.48165053  0.25531353  1.0
  Cu  Cu1  1  0.48165053  0.51834947  0.75531353  1.0
  Ag  Ag2  1  -0.00004030  1.00004030  0.00520480  1.0
  Ag  Ag3  1  0.00004030  0.99995970  0.50520480  1.0
  S  S4  1  0.18047507  0.81952493  0.25518167  1.0
  S  S5  1  -0.18047507  1.18047507  0.75518167  1.0
