# generated using pymatgen
data_Li2PS3
_symmetry_space_group_name_H-M   'P 1'
_cell_length_a   10.56704500
_cell_length_b   10.56704500
_cell_length_c   6.67377484
_cell_angle_alpha   90.00000000
_cell_angle_beta   90.00000000
_cell_angle_gamma   120.00000000
_symmetry_Int_Tables_number   1
_chemical_formula_structural   Li2PS3
_chemical_formula_sum   'Li12 P6 S18'
_cell_volume   645.37077595
_cell_formula_units_Z   6
loop_
 _symmetry_equiv_pos_site_id
 _symmetry_equiv_pos_as_xyz
  1  'x, y, z'
loop_
 _atom_site_type_symbol
 _atom_site_label
 _atom_site_symmetry_multiplicity
 _atom_site_fract_x
 _atom_site_fract_y
 _atom_site_fract_z
 _atom_site_occupancy
  Li  Li0  1  0.33217489  0.33217489  0.00000000  1.0
  Li  Li1  1  0.00000000  0.66782511  0.00000000  1.0
  Li  Li2  1  0.66782511  0.00000000  0.00000000  1.0
  Li  Li3  1  0.33467894  0.33467894  0.50000000  1.0
  Li  Li4  1  -0.00000000  0.66532106  0.50000000  1.0
  Li  Li5  1  0.66532106  0.00000000  0.50000000  1.0
  Li  Li6  1  0.66781822  0.66781822  0.00000000  1.0
  Li  Li7  1  -0.00000000  0.33218178  0.00000000  1.0
  Li  Li8  1  0.33218178  0.00000000  0.00000000  1.0
  Li  Li9  1  0.66538655  0.66538655  0.50000000  1.0
  Li  Li10  1  -0.00000000  0.33461345  0.50000000  1.0
  Li  Li11  1  0.33461345  0.00000000  0.50000000  1.0
  P  P12  1  0.00000000  0.00000000  0.83083940  1.0
  P  P13  1  0.00000000  0.00000000  0.16916060  1.0
  P  P14  1  0.66666667  0.33333333  0.33610959  1.0
  P  P15  1  0.33333333  0.66666667  0.66389041  1.0
  P  P16  1  0.66666667  0.33333333  0.67670186  1.0
  P  P17  1  0.33333333  0.66666667  0.32329814  1.0
  S  S18  1  0.89114887  0.10881943  0.75966380  1.0
  S  S19  1  0.10881943  0.89114887  0.24033620  1.0
  S  S20  1  0.78232944  0.89118057  0.24033620  1.0
  S  S21  1  0.21767056  0.10885113  0.75966380  1.0
  S  S22  1  0.89118057  0.78232944  0.75966380  1.0
  S  S23  1  0.10885113  0.21767056  0.24033620  1.0
  S  S24  1  0.88443297  0.44220631  0.74696338  1.0
  S  S25  1  0.44220631  0.88443297  0.25303662  1.0
  S  S26  1  0.44222666  0.55779369  0.25303662  1.0
  S  S27  1  0.55777334  0.11556703  0.74696338  1.0
  S  S28  1  0.55779369  0.44222666  0.74696338  1.0
  S  S29  1  0.11556703  0.55777334  0.25303662  1.0
  S  S30  1  0.55069997  0.77536540  0.73721949  1.0
  S  S31  1  0.77536540  0.55069997  0.26278051  1.0
  S  S32  1  0.77533458  0.22463460  0.26278051  1.0
  S  S33  1  0.22466542  0.44930003  0.73721949  1.0
  S  S34  1  0.22463460  0.77533458  0.73721949  1.0
  S  S35  1  0.44930003  0.22466542  0.26278051  1.0
