# generated using pymatgen
data_Bi2P4O13
_symmetry_space_group_name_H-M   'P 1'
_cell_length_a   7.03558742
_cell_length_b   7.03558742
_cell_length_c   13.45697362
_cell_angle_alpha   76.24542088
_cell_angle_beta   103.75457912
_cell_angle_gamma   120.21037004
_symmetry_Int_Tables_number   1
_chemical_formula_structural   Bi2P4O13
_chemical_formula_sum   'Bi4 P8 O26'
_cell_volume   553.57231753
_cell_formula_units_Z   2
loop_
 _symmetry_equiv_pos_site_id
 _symmetry_equiv_pos_as_xyz
  1  'x, y, z'
loop_
 _atom_site_type_symbol
 _atom_site_label
 _atom_site_symmetry_multiplicity
 _atom_site_fract_x
 _atom_site_fract_y
 _atom_site_fract_z
 _atom_site_occupancy
  Bi  Bi0  1  0.29776836  -0.30358298  0.93856383  1.0
  Bi  Bi1  1  1.30358298  0.70223164  0.43856383  1.0
  Bi  Bi2  1  0.69641702  0.29776836  0.56143617  1.0
  Bi  Bi3  1  0.70223164  0.30358298  0.06143617  1.0
  P  P4  1  0.84047478  -0.13924102  0.63701360  1.0
  P  P5  1  1.13924102  0.15952522  0.13701360  1.0
  P  P6  1  0.86075898  0.84047478  0.86298640  1.0
  P  P7  1  0.15952522  0.13924102  0.36298640  1.0
  P  P8  1  0.76029254  0.21974830  0.84182470  1.0
  P  P9  1  0.78025170  0.23970746  0.34182470  1.0
  P  P10  1  1.21974830  0.76029254  0.65817530  1.0
  P  P11  1  0.23970746  -0.21974830  0.15817530  1.0
  O  O12  1  0.68566543  -0.31011298  0.56595670  1.0
  O  O13  1  1.31011298  0.31433457  0.06595670  1.0
  O  O14  1  0.68988702  0.68566543  0.93404330  1.0
  O  O15  1  0.31433457  0.31011298  0.43404330  1.0
  O  O16  1  0.89685094  0.08952303  0.84385700  1.0
  O  O17  1  0.91047697  0.10314906  0.34385700  1.0
  O  O18  1  1.08952303  0.89685094  0.65614300  1.0
  O  O19  1  0.10314906  -0.08952303  0.15614300  1.0
  O  O20  1  0.87711364  0.09805557  0.60778837  1.0
  O  O21  1  0.90194443  0.12288636  0.10778837  1.0
  O  O22  1  1.09805557  0.87711364  0.89221163  1.0
  O  O23  1  0.12288636  -0.09805557  0.39221163  1.0
  O  O24  1  0.41512968  -0.07935511  0.59711818  1.0
  O  O25  1  1.07935511  0.58487032  0.09711818  1.0
  O  O26  1  0.92064489  0.41512968  0.90288182  1.0
  O  O27  1  0.58487032  0.07935511  0.40288182  1.0
  O  O28  1  0.56385586  0.07144219  0.90378507  1.0
  O  O29  1  0.92855781  0.43614414  0.40378507  1.0
  O  O30  1  1.07144219  0.56385586  0.59621493  1.0
  O  O31  1  0.43614414  -0.07144219  0.09621493  1.0
  O  O32  1  0.69193434  0.28950348  0.72879735  1.0
  O  O33  1  0.71049652  0.30806566  0.22879735  1.0
  O  O34  1  1.28950348  0.69193434  0.77120265  1.0
  O  O35  1  0.30806566  -0.28950348  0.27120265  1.0
  O  O36  1  0.76051856  0.76051856  0.75000000  1.0
  O  O37  1  0.23948144  0.23948144  0.25000000  1.0
