# generated using pymatgen
data_Cs5CoCl5
_symmetry_space_group_name_H-M   'P 1'
_cell_length_a   10.91514194
_cell_length_b   10.91514194
_cell_length_c   10.91514194
_cell_angle_alpha   120.02338727
_cell_angle_beta   120.02338727
_cell_angle_gamma   89.95949683
_symmetry_Int_Tables_number   1
_chemical_formula_structural   Cs5CoCl5
_chemical_formula_sum   'Cs10 Co2 Cl10'
_cell_volume   919.22006959
_cell_formula_units_Z   2
loop_
 _symmetry_equiv_pos_site_id
 _symmetry_equiv_pos_as_xyz
  1  'x, y, z'
loop_
 _atom_site_type_symbol
 _atom_site_label
 _atom_site_symmetry_multiplicity
 _atom_site_fract_x
 _atom_site_fract_y
 _atom_site_fract_z
 _atom_site_occupancy
  Cs  Cs0  1  0.00000000  0.00000000  0.00000000  1.0
  Cs  Cs1  1  0.50000000  0.50000000  1.00000000  1.0
  Cs  Cs2  1  1.00575284  0.50575284  0.83224512  1.0
  Cs  Cs3  1  0.67350772  1.17350772  1.16775488  1.0
  Cs  Cs4  1  0.32649228  0.82649228  0.83224512  1.0
  Cs  Cs5  1  0.49424716  0.32649228  0.50000000  1.0
  Cs  Cs6  1  0.50575284  0.67350772  0.50000000  1.0
  Cs  Cs7  1  1.17350772  1.00575284  1.50000000  1.0
  Cs  Cs8  1  0.82649228  0.99424716  1.50000000  1.0
  Cs  Cs9  1  0.99424716  0.49424716  1.16775488  1.0
  Co  Co10  1  0.50000000  0.00000000  0.50000000  1.0
  Co  Co11  1  -0.00000000  0.50000000  0.50000000  1.0
  Cl  Cl12  1  0.25000000  0.25000000  -0.00000000  1.0
  Cl  Cl13  1  0.75000000  0.75000000  1.00000000  1.0
  Cl  Cl14  1  0.51201862  1.01201862  0.73981779  1.0
  Cl  Cl15  1  1.27220083  0.77220083  1.26018221  1.0
  Cl  Cl16  1  0.72779917  0.22779917  0.73981779  1.0
  Cl  Cl17  1  0.98798138  0.72779917  1.50000000  1.0
  Cl  Cl18  1  1.01201862  1.27220083  1.50000000  1.0
  Cl  Cl19  1  0.77220083  0.51201862  0.50000000  1.0
  Cl  Cl20  1  0.22779917  0.48798138  0.50000000  1.0
  Cl  Cl21  1  0.48798138  0.98798138  1.26018221  1.0
