# generated using pymatgen
data_ScGa
_symmetry_space_group_name_H-M   'P 1'
_cell_length_a   5.51563030
_cell_length_b   5.51563030
_cell_length_c   3.87438889
_cell_angle_alpha   90.00000000
_cell_angle_beta   90.00000000
_cell_angle_gamma   136.76659699
_symmetry_Int_Tables_number   1
_chemical_formula_structural   ScGa
_chemical_formula_sum   'Sc2 Ga2'
_cell_volume   80.73582916
_cell_formula_units_Z   2
loop_
 _symmetry_equiv_pos_site_id
 _symmetry_equiv_pos_as_xyz
  1  'x, y, z'
loop_
 _atom_site_type_symbol
 _atom_site_label
 _atom_site_symmetry_multiplicity
 _atom_site_fract_x
 _atom_site_fract_y
 _atom_site_fract_z
 _atom_site_occupancy
  Sc  Sc0  1  0.36152810  0.63847190  0.75000000  1.0
  Sc  Sc1  1  -0.36152810  0.36152810  0.25000000  1.0
  Ga  Ga2  1  0.08214698  0.91785302  0.75000000  1.0
  Ga  Ga3  1  -0.08214698  0.08214698  0.25000000  1.0
