# generated using pymatgen
data_KCu4(AsO4)3
_symmetry_space_group_name_H-M   'P 1'
_cell_length_a   8.88886141
_cell_length_b   8.88886141
_cell_length_c   7.74970496
_cell_angle_alpha   69.59033664
_cell_angle_beta   110.40966336
_cell_angle_gamma   89.87089408
_symmetry_Int_Tables_number   1
_chemical_formula_structural   KCu4(AsO4)3
_chemical_formula_sum   'K2 Cu8 As6 O24'
_cell_volume   532.47832978
_cell_formula_units_Z   2
loop_
 _symmetry_equiv_pos_site_id
 _symmetry_equiv_pos_as_xyz
  1  'x, y, z'
loop_
 _atom_site_type_symbol
 _atom_site_label
 _atom_site_symmetry_multiplicity
 _atom_site_fract_x
 _atom_site_fract_y
 _atom_site_fract_z
 _atom_site_occupancy
  As  As0  1  0.38801914  -0.14679842  0.87805988  1.0
  As  As1  1  1.14679842  0.61198086  0.37805988  1.0
  As  As2  1  0.85320158  -0.61198086  0.62194012  1.0
  As  As3  1  1.61198086  0.14679842  0.12194012  1.0
  As  As4  1  0.77372743  -0.22627257  0.75000000  1.0
  As  As5  1  1.22627257  0.22627257  0.25000000  1.0
  Cu  Cu6  1  1.23813605  0.23813605  0.75000000  1.0
  Cu  Cu7  1  0.76186395  -0.23813605  0.25000000  1.0
  Cu  Cu8  1  1.56979326  0.11759025  0.64462333  1.0
  Cu  Cu9  1  0.88240975  -0.56979326  0.14462333  1.0
  Cu  Cu10  1  1.11759025  0.56979326  0.85537667  1.0
  Cu  Cu11  1  0.43020674  -0.11759025  0.35537667  1.0
  Cu  Cu12  1  0.99429847  -0.00570153  0.75000000  1.0
  Cu  Cu13  1  1.00570153  0.00570153  0.25000000  1.0
  O  O14  1  0.64930251  -0.25098608  0.53612547  1.0
  O  O15  1  1.25098608  0.35069749  0.03612547  1.0
  O  O16  1  0.74901392  -0.35069749  0.96387453  1.0
  O  O17  1  1.35069749  0.25098608  0.46387453  1.0
  O  O18  1  0.77600383  -0.02003386  0.73946147  1.0
  O  O19  1  1.02003386  0.22399617  0.23946147  1.0
  O  O20  1  0.97996614  -0.22399617  0.76053853  1.0
  O  O21  1  1.22399617  0.02003386  0.26053853  1.0
  O  O22  1  0.47475948  -0.08263107  0.69854292  1.0
  O  O23  1  1.08263107  0.52524052  0.19854292  1.0
  O  O24  1  0.91736893  -0.52524052  0.80145708  1.0
  O  O25  1  1.52524052  0.08263107  0.30145708  1.0
  O  O26  1  1.67445947  0.31504639  0.63226512  1.0
  O  O27  1  0.68495361  -0.67445947  0.13226512  1.0
  O  O28  1  1.31504639  0.67445947  0.86773488  1.0
  O  O29  1  0.32554053  -0.31504639  0.36773488  1.0
  O  O30  1  1.47855221  0.18666070  0.87843459  1.0
  O  O31  1  0.81333930  -0.47855221  0.37843459  1.0
  O  O32  1  1.18666070  0.47855221  0.62156541  1.0
  O  O33  1  0.52144779  -0.18666070  0.12156541  1.0
  O  O34  1  0.22557990  0.00202507  0.82072567  1.0
  O  O35  1  0.99797493  0.77442010  0.32072567  1.0
  O  O36  1  1.00202507  -0.77442010  0.67927433  1.0
  O  O37  1  1.77442010  -0.00202507  0.17927433  1.0
  K  K38  1  0.51052255  -0.48947745  0.75000000  1.0
  K  K39  1  1.48947745  0.48947745  0.25000000  1.0
