# generated using pymatgen
data_C2SN2
_symmetry_space_group_name_H-M   'P 1'
_cell_length_a   5.74146143
_cell_length_b   5.74146143
_cell_length_c   14.83516159
_cell_angle_alpha   90.00000000
_cell_angle_beta   90.00000000
_cell_angle_gamma   77.86762213
_symmetry_Int_Tables_number   1
_chemical_formula_structural   C2SN2
_chemical_formula_sum   'C8 S4 N8'
_cell_volume   478.10918325
_cell_formula_units_Z   4
loop_
 _symmetry_equiv_pos_site_id
 _symmetry_equiv_pos_as_xyz
  1  'x, y, z'
loop_
 _atom_site_type_symbol
 _atom_site_label
 _atom_site_symmetry_multiplicity
 _atom_site_fract_x
 _atom_site_fract_y
 _atom_site_fract_z
 _atom_site_occupancy
  C  C0  1  -0.43866516  1.15733529  0.37825166  1.0
  C  C1  1  0.06133484  0.65733529  0.12174834  1.0
  C  C2  1  0.15733529  0.56133484  0.62174834  1.0
  C  C3  1  -0.34266471  1.06133484  0.87825166  1.0
  C  C4  1  -0.15733529  1.43866516  0.37825166  1.0
  C  C5  1  0.34266471  0.93866516  0.12174834  1.0
  C  C6  1  0.43866516  0.84266471  0.62174834  1.0
  C  C7  1  -0.06133484  1.34266471  0.87825166  1.0
  S  S8  1  -0.13807464  1.13807464  0.37784676  1.0
  S  S9  1  0.36192536  0.63807464  0.12215324  1.0
  S  S10  1  0.13807464  0.86192536  0.62215324  1.0
  S  S11  1  -0.36192536  1.36192536  0.87784676  1.0
  N  N12  1  0.35755934  1.16059040  0.37856888  1.0
  N  N13  1  -0.14244066  0.66059040  0.12143112  1.0
  N  N14  1  0.16059040  1.35755934  0.62143112  1.0
  N  N15  1  -0.33940960  0.85755934  0.87856888  1.0
  N  N16  1  -0.16059040  0.64244066  0.37856888  1.0
  N  N17  1  0.33940960  1.14244066  0.12143112  1.0
  N  N18  1  -0.35755934  0.83940960  0.62143112  1.0
  N  N19  1  0.14244066  1.33940960  0.87856888  1.0
