# generated using pymatgen
data_LaO3
_symmetry_space_group_name_H-M   'P 1'
_cell_length_a   4.95299013
_cell_length_b   4.95299013
_cell_length_c   4.94699687
_cell_angle_alpha   90.00000000
_cell_angle_beta   90.00000000
_cell_angle_gamma   120.00000000
_symmetry_Int_Tables_number   1
_chemical_formula_structural   LaO3
_chemical_formula_sum   'La2 O6'
_cell_volume   105.10108325
_cell_formula_units_Z   2
loop_
 _symmetry_equiv_pos_site_id
 _symmetry_equiv_pos_as_xyz
  1  'x, y, z'
loop_
 _atom_site_type_symbol
 _atom_site_label
 _atom_site_symmetry_multiplicity
 _atom_site_fract_x
 _atom_site_fract_y
 _atom_site_fract_z
 _atom_site_occupancy
  La  La0  1  0.33333333  0.66666667  0.25000000  1.0
  La  La1  1  0.66666667  0.33333333  0.75000000  1.0
  O  O2  1  0.80693584  0.61387117  0.25000000  1.0
  O  O3  1  0.80693533  0.19306416  0.25000000  1.0
  O  O4  1  0.38612883  0.19306467  0.25000000  1.0
  O  O5  1  0.19306416  0.38612883  0.75000000  1.0
  O  O6  1  0.19306467  0.80693584  0.75000000  1.0
  O  O7  1  0.61387117  0.80693533  0.75000000  1.0
