# generated using pymatgen
data_SbSCl9
_symmetry_space_group_name_H-M   'P 1'
_cell_length_a   9.13712963
_cell_length_b   9.13712963
_cell_length_c   9.16497528
_cell_angle_alpha   76.74499355
_cell_angle_beta   103.25500645
_cell_angle_gamma   103.25865974
_symmetry_Int_Tables_number   1
_chemical_formula_structural   SbSCl9
_chemical_formula_sum   'Sb2 S2 Cl18'
_cell_volume   712.20120588
_cell_formula_units_Z   2
loop_
 _symmetry_equiv_pos_site_id
 _symmetry_equiv_pos_as_xyz
  1  'x, y, z'
loop_
 _atom_site_type_symbol
 _atom_site_label
 _atom_site_symmetry_multiplicity
 _atom_site_fract_x
 _atom_site_fract_y
 _atom_site_fract_z
 _atom_site_occupancy
  Sb  Sb0  1  0.00000000  -0.00000000  0.50000000  1.0
  Sb  Sb1  1  0.50000000  -0.50000000  -0.00000000  1.0
  S  S2  1  0.79836901  -0.79836901  0.70163461  1.0
  S  S3  1  0.20163099  -0.20163099  0.29836539  1.0
  Cl  Cl4  1  0.82617390  -0.12825564  0.67365664  1.0
  Cl  Cl5  1  1.12825564  0.17382610  0.67365664  1.0
  Cl  Cl6  1  0.87174436  -0.17382610  0.32634336  1.0
  Cl  Cl7  1  1.17382610  0.12825564  0.32634336  1.0
  Cl  Cl8  1  0.52753513  -0.22558153  0.97289501  1.0
  Cl  Cl9  1  1.22558153  0.47246487  0.97289501  1.0
  Cl  Cl10  1  0.77441847  -0.47246487  0.02710499  1.0
  Cl  Cl11  1  1.47246487  0.22558153  0.02710499  1.0
  Cl  Cl12  1  1.56789493  0.15481409  0.65505406  1.0
  Cl  Cl13  1  0.84518591  -0.56789493  0.65505406  1.0
  Cl  Cl14  1  1.15481409  0.56789493  0.34494594  1.0
  Cl  Cl15  1  0.43210507  -0.15481409  0.34494594  1.0
  Cl  Cl16  1  0.84522037  -0.84522037  0.93140346  1.0
  Cl  Cl17  1  0.15477963  -0.15477963  0.06859654  1.0
  Cl  Cl18  1  0.82591350  -0.82591350  0.37275887  1.0
  Cl  Cl19  1  0.17408650  -0.17408650  0.62724113  1.0
  Cl  Cl20  1  0.47219621  -0.47219621  0.72631286  1.0
  Cl  Cl21  1  0.52780379  -0.52780379  0.27368714  1.0
