# generated using pymatgen
data_Tl4Ni7(PO4)6
_symmetry_space_group_name_H-M   'P 1'
_cell_length_a   9.01771585
_cell_length_b   9.01771585
_cell_length_c   6.81195242
_cell_angle_alpha   82.07861430
_cell_angle_beta   97.92138570
_cell_angle_gamma   73.78204650
_symmetry_Int_Tables_number   1
_chemical_formula_structural   Tl4Ni7(PO4)6
_chemical_formula_sum   'Tl4 Ni7 P6 O24'
_cell_volume   517.69222128
_cell_formula_units_Z   1
loop_
 _symmetry_equiv_pos_site_id
 _symmetry_equiv_pos_as_xyz
  1  'x, y, z'
loop_
 _atom_site_type_symbol
 _atom_site_label
 _atom_site_symmetry_multiplicity
 _atom_site_fract_x
 _atom_site_fract_y
 _atom_site_fract_z
 _atom_site_occupancy
  Ni  Ni0  1  0.91915670  -0.91915670  0.48082141  1.0
  Ni  Ni1  1  1.27842064  0.11295434  0.29793039  1.0
  Ni  Ni2  1  0.88704566  -0.27842064  0.29793039  1.0
  Ni  Ni3  1  1.55621553  0.06340266  0.64980457  1.0
  Ni  Ni4  1  0.93659734  -0.55621553  0.64980457  1.0
  Ni  Ni5  1  0.53507530  -0.29619211  0.46996867  1.0
  Ni  Ni6  1  1.29619211  0.46492470  0.46996867  1.0
  O  O7  1  1.58550749  0.05033544  0.98295421  1.0
  O  O8  1  0.94966456  -0.58550749  0.98295421  1.0
  O  O9  1  1.51937869  0.07242275  0.33432891  1.0
  O  O10  1  0.92757725  -0.51937869  0.33432891  1.0
  O  O11  1  1.25588836  0.12771176  0.96954710  1.0
  O  O12  1  0.87228824  -0.25588836  0.96954710  1.0
  O  O13  1  0.72852132  -0.72852132  0.37529823  1.0
  O  O14  1  0.11166951  -0.11166951  0.58501170  1.0
  O  O15  1  0.35521310  -0.35521310  0.61739412  1.0
  O  O16  1  0.81259425  -0.03258034  0.28203266  1.0
  O  O17  1  1.03258034  0.18740575  0.28203266  1.0
  O  O18  1  0.64233881  -0.20190830  0.25585490  1.0
  O  O19  1  1.20190830  0.35766119  0.25585490  1.0
  O  O20  1  0.48250180  -0.48250180  0.31147608  1.0
  O  O21  1  0.61952228  -0.18798789  0.69173419  1.0
  O  O22  1  1.18798789  0.38047772  0.69173419  1.0
  O  O23  1  0.79707025  -0.02460088  0.67592615  1.0
  O  O24  1  1.02460088  0.20292975  0.67592615  1.0
  O  O25  1  1.51963697  0.30112511  0.60206576  1.0
  O  O26  1  0.69887489  -0.51963697  0.60206576  1.0
  O  O27  1  0.30944414  -0.12792290  0.34146895  1.0
  O  O28  1  1.12792290  0.69055586  0.34146895  1.0
  O  O29  1  1.31510700  0.10460762  0.61764324  1.0
  O  O30  1  0.89539238  -0.31510700  0.61764324  1.0
  Tl  Tl31  1  0.41312379  -0.18246510  0.94749419  1.0
  Tl  Tl32  1  1.18246510  0.58687621  0.94749419  1.0
  Tl  Tl33  1  0.00098629  -0.00098629  0.00175018  1.0
  Tl  Tl34  1  0.61818184  -0.61818184  0.97515232  1.0
  P  P35  1  0.63411910  -0.01954431  0.20848885  1.0
  P  P36  1  1.01954431  0.36588090  0.20848885  1.0
  P  P37  1  1.20194061  0.19886128  0.74451546  1.0
  P  P38  1  0.80113872  -0.20194061  0.74451546  1.0
  P  P39  1  0.61416192  -0.61416192  0.47000657  1.0
  P  P40  1  0.21784344  -0.21784344  0.47167297  1.0
