# generated using pymatgen
data_N4O9
_symmetry_space_group_name_H-M   'P 1'
_cell_length_a   4.44534485
_cell_length_b   14.29964938
_cell_length_c   7.35867305
_cell_angle_alpha   90.00000000
_cell_angle_beta   90.00000000
_cell_angle_gamma   90.00000000
_symmetry_Int_Tables_number   1
_chemical_formula_structural   N4O9
_chemical_formula_sum   'N8 O18'
_cell_volume   467.76783329
_cell_formula_units_Z   2
loop_
 _symmetry_equiv_pos_site_id
 _symmetry_equiv_pos_as_xyz
  1  'x, y, z'
loop_
 _atom_site_type_symbol
 _atom_site_label
 _atom_site_symmetry_multiplicity
 _atom_site_fract_x
 _atom_site_fract_y
 _atom_site_fract_z
 _atom_site_occupancy
  N  N0  1  0.06092995  0.76886340  0.72307748  1.0
  N  N1  1  0.56092995  0.73113660  0.27692252  1.0
  N  N2  1  0.93907005  0.23113660  0.72307748  1.0
  N  N3  1  0.43907005  0.26886340  0.27692252  1.0
  N  N4  1  0.50000000  0.50000000  0.92436403  1.0
  N  N5  1  0.00000000  0.00000000  0.07563597  1.0
  N  N6  1  0.50000000  0.00000000  0.57835364  1.0
  N  N7  1  0.00000000  0.50000000  0.42164636  1.0
  O  O8  1  -0.05362897  0.68984075  0.74024417  1.0
  O  O9  1  0.44637103  0.81015925  0.25975583  1.0
  O  O10  1  1.05362897  0.31015925  0.74024417  1.0
  O  O11  1  0.55362897  0.18984075  0.25975583  1.0
  O  O12  1  0.32685560  0.55276110  1.00913323  1.0
  O  O13  1  0.82685560  0.94723890  -0.00913323  1.0
  O  O14  1  0.67314440  0.44723890  1.00913323  1.0
  O  O15  1  0.17314440  0.05276110  -0.00913323  1.0
  O  O16  1  0.50000000  0.50000000  0.75535072  1.0
  O  O17  1  0.00000000  0.00000000  0.24464928  1.0
  O  O18  1  0.46077676  0.67613798  0.39304185  1.0
  O  O19  1  0.96077676  0.82386202  0.60695815  1.0
  O  O20  1  0.53922324  0.32386202  0.39304185  1.0
  O  O21  1  0.03922324  0.17613798  0.60695815  1.0
  O  O22  1  0.27518983  0.79231316  0.82190386  1.0
  O  O23  1  0.77518983  0.70768684  0.17809614  1.0
  O  O24  1  0.72481017  0.20768684  0.82190386  1.0
  O  O25  1  0.22481017  0.29231316  0.17809614  1.0
