# generated using pymatgen
data_Ti2Cu3
_symmetry_space_group_name_H-M   'P 1'
_cell_length_a   3.15416307
_cell_length_b   3.15416307
_cell_length_c   13.96039338
_cell_angle_alpha   90.00000000
_cell_angle_beta   90.00000000
_cell_angle_gamma   90.00000000
_symmetry_Int_Tables_number   1
_chemical_formula_structural   Ti2Cu3
_chemical_formula_sum   'Ti4 Cu6'
_cell_volume   138.88838953
_cell_formula_units_Z   2
loop_
 _symmetry_equiv_pos_site_id
 _symmetry_equiv_pos_as_xyz
  1  'x, y, z'
loop_
 _atom_site_type_symbol
 _atom_site_label
 _atom_site_symmetry_multiplicity
 _atom_site_fract_x
 _atom_site_fract_y
 _atom_site_fract_z
 _atom_site_occupancy
  Ti  Ti0  1  0.50000000  0.00000000  0.06041964  1.0
  Ti  Ti1  1  0.00000000  0.50000000  0.93958036  1.0
  Ti  Ti2  1  0.50000000  0.00000000  0.64580753  1.0
  Ti  Ti3  1  0.00000000  0.50000000  0.35419247  1.0
  Cu  Cu4  1  0.50000000  0.00000000  0.25576359  1.0
  Cu  Cu5  1  0.00000000  0.50000000  0.74423641  1.0
  Cu  Cu6  1  0.50000000  0.00000000  0.45501971  1.0
  Cu  Cu7  1  0.00000000  0.50000000  0.54498029  1.0
  Cu  Cu8  1  0.50000000  0.00000000  0.83661599  1.0
  Cu  Cu9  1  0.00000000  0.50000000  0.16338401  1.0
