# generated using pymatgen
data_NiGe
_symmetry_space_group_name_H-M   'P 1'
_cell_length_a   5.40700888
_cell_length_b   3.46755471
_cell_length_c   5.84719624
_cell_angle_alpha   90.00000000
_cell_angle_beta   90.00000000
_cell_angle_gamma   90.00000000
_symmetry_Int_Tables_number   1
_chemical_formula_structural   NiGe
_chemical_formula_sum   'Ni4 Ge4'
_cell_volume   109.62966188
_cell_formula_units_Z   4
loop_
 _symmetry_equiv_pos_site_id
 _symmetry_equiv_pos_as_xyz
  1  'x, y, z'
loop_
 _atom_site_type_symbol
 _atom_site_label
 _atom_site_symmetry_multiplicity
 _atom_site_fract_x
 _atom_site_fract_y
 _atom_site_fract_z
 _atom_site_occupancy
  Ni  Ni0  1  0.99433802  0.75000000  0.19003918  1.0
  Ni  Ni1  1  0.49433802  0.75000000  0.30996082  1.0
  Ni  Ni2  1  0.00566198  0.25000000  0.80996082  1.0
  Ni  Ni3  1  0.50566198  0.25000000  0.69003918  1.0
  Ge  Ge4  1  0.81029688  0.75000000  0.58679591  1.0
  Ge  Ge5  1  0.31029688  0.75000000  0.91320409  1.0
  Ge  Ge6  1  0.18970312  0.25000000  0.41320409  1.0
  Ge  Ge7  1  0.68970312  0.25000000  0.08679591  1.0
