# generated using pymatgen
data_Sr3SiO5
_symmetry_space_group_name_H-M   'P 1'
_cell_length_a   7.13066947
_cell_length_b   7.13066947
_cell_length_c   10.81527377
_cell_angle_alpha   90.00000000
_cell_angle_beta   90.00000000
_cell_angle_gamma   90.00000000
_symmetry_Int_Tables_number   1
_chemical_formula_structural   Sr3SiO5
_chemical_formula_sum   'Sr12 Si4 O20'
_cell_volume   549.91824575
_cell_formula_units_Z   4
loop_
 _symmetry_equiv_pos_site_id
 _symmetry_equiv_pos_as_xyz
  1  'x, y, z'
loop_
 _atom_site_type_symbol
 _atom_site_label
 _atom_site_symmetry_multiplicity
 _atom_site_fract_x
 _atom_site_fract_y
 _atom_site_fract_z
 _atom_site_occupancy
  Sr  Sr0  1  0.69891980  0.69891980  0.75000000  1.0
  Sr  Sr1  1  0.30108020  0.69891980  0.25000000  1.0
  Sr  Sr2  1  0.69891980  0.30108020  0.25000000  1.0
  Sr  Sr3  1  0.30108020  0.30108020  0.75000000  1.0
  Sr  Sr4  1  0.19891980  0.19891980  0.25000000  1.0
  Sr  Sr5  1  0.80108020  0.19891980  0.75000000  1.0
  Sr  Sr6  1  0.19891980  0.80108020  0.75000000  1.0
  Sr  Sr7  1  0.80108020  0.80108020  0.25000000  1.0
  Sr  Sr8  1  0.00000000  0.50000000  0.51395399  1.0
  Sr  Sr9  1  0.00000000  0.50000000  0.01395399  1.0
  Sr  Sr10  1  0.50000000  0.00000000  0.48604601  1.0
  Sr  Sr11  1  0.50000000  0.00000000  0.98604601  1.0
  Si  Si12  1  0.50000000  0.50000000  0.50000000  1.0
  Si  Si13  1  0.50000000  0.50000000  0.00000000  1.0
  Si  Si14  1  0.00000000  0.00000000  0.00000000  1.0
  Si  Si15  1  0.00000000  0.00000000  0.50000000  1.0
  O  O16  1  0.42188422  0.66750945  0.90755254  1.0
  O  O17  1  0.57811578  0.66750945  0.40755254  1.0
  O  O18  1  0.42188422  0.33249055  0.40755254  1.0
  O  O19  1  0.57811578  0.33249055  0.90755254  1.0
  O  O20  1  0.16750945  0.92188422  0.40755254  1.0
  O  O21  1  0.83249055  0.92188422  0.90755254  1.0
  O  O22  1  0.16750945  0.07811578  0.90755254  1.0
  O  O23  1  0.83249055  0.07811578  0.40755254  1.0
  O  O24  1  0.07811578  0.83249055  0.09244746  1.0
  O  O25  1  0.92188422  0.83249055  0.59244746  1.0
  O  O26  1  0.07811578  0.16750945  0.59244746  1.0
  O  O27  1  0.92188422  0.16750945  0.09244746  1.0
  O  O28  1  0.33249055  0.57811578  0.59244746  1.0
  O  O29  1  0.66750945  0.57811578  0.09244746  1.0
  O  O30  1  0.33249055  0.42188422  0.09244746  1.0
  O  O31  1  0.66750945  0.42188422  0.59244746  1.0
  O  O32  1  0.00000000  0.50000000  0.28837035  1.0
  O  O33  1  0.00000000  0.50000000  0.78837035  1.0
  O  O34  1  0.50000000  0.00000000  0.71162965  1.0
  O  O35  1  0.50000000  0.00000000  0.21162965  1.0
