# generated using pymatgen
data_Si2Os
_symmetry_space_group_name_H-M   'P 1'
_cell_length_a   6.53720980
_cell_length_b   6.53720980
_cell_length_c   8.27369503
_cell_angle_alpha   90.00000000
_cell_angle_beta   90.00000000
_cell_angle_gamma   77.19686053
_symmetry_Int_Tables_number   1
_chemical_formula_structural   Si2Os
_chemical_formula_sum   'Si16 Os8'
_cell_volume   344.78636638
_cell_formula_units_Z   8
loop_
 _symmetry_equiv_pos_site_id
 _symmetry_equiv_pos_as_xyz
  1  'x, y, z'
loop_
 _atom_site_type_symbol
 _atom_site_label
 _atom_site_symmetry_multiplicity
 _atom_site_fract_x
 _atom_site_fract_y
 _atom_site_fract_z
 _atom_site_occupancy
  Si  Si0  1  0.42529783  1.32084240  0.22434828  1.0
  Si  Si1  1  -0.07470217  0.82084240  0.27565172  1.0
  Si  Si2  1  0.32084240  1.42529783  0.77565172  1.0
  Si  Si3  1  -0.17915760  0.92529783  0.72434828  1.0
  Si  Si4  1  -0.32084240  0.57470217  0.22434828  1.0
  Si  Si5  1  0.17915760  1.07470217  0.27565172  1.0
  Si  Si6  1  -0.42529783  0.67915760  0.77565172  1.0
  Si  Si7  1  0.07470217  1.17915760  0.72434828  1.0
  Si  Si8  1  -0.35041860  1.09419255  0.44167037  1.0
  Si  Si9  1  0.14958140  0.59419255  0.05832963  1.0
  Si  Si10  1  0.09419255  0.64958140  0.55832963  1.0
  Si  Si11  1  -0.40580745  1.14958140  0.94167037  1.0
  Si  Si12  1  -0.09419255  1.35041860  0.44167037  1.0
  Si  Si13  1  0.40580745  0.85041860  0.05832963  1.0
  Si  Si14  1  0.35041860  0.90580745  0.55832963  1.0
  Si  Si15  1  -0.14958140  1.40580745  0.94167037  1.0
  Os  Os16  1  -0.18873878  1.18873878  0.18219786  1.0
  Os  Os17  1  0.31126122  0.68873878  0.31780214  1.0
  Os  Os18  1  0.18873878  0.81126122  0.81780214  1.0
  Os  Os19  1  -0.31126122  1.31126122  0.68219786  1.0
  Os  Os20  1  0.28485129  1.28485129  0.50000000  1.0
  Os  Os21  1  -0.21514871  0.78485129  0.00000000  1.0
  Os  Os22  1  -0.28485129  0.71514871  0.50000000  1.0
  Os  Os23  1  0.21514871  1.21514871  0.00000000  1.0
