# generated using pymatgen
data_Ba(Cu2As)2
_symmetry_space_group_name_H-M   'P 1'
_cell_length_a   8.61660528
_cell_length_b   8.61660528
_cell_length_c   8.61660528
_cell_angle_alpha   28.46000079
_cell_angle_beta   28.46000079
_cell_angle_gamma   28.46000079
_symmetry_Int_Tables_number   1
_chemical_formula_structural   Ba(Cu2As)2
_chemical_formula_sum   'Ba1 Cu4 As2'
_cell_volume   128.40323340
_cell_formula_units_Z   1
loop_
 _symmetry_equiv_pos_site_id
 _symmetry_equiv_pos_as_xyz
  1  'x, y, z'
loop_
 _atom_site_type_symbol
 _atom_site_label
 _atom_site_symmetry_multiplicity
 _atom_site_fract_x
 _atom_site_fract_y
 _atom_site_fract_z
 _atom_site_occupancy
  Ba  Ba0  1  0.00000000  0.00000000  0.00000000  1.0
  Cu  Cu1  1  0.85569356  0.85569356  0.85569356  1.0
  Cu  Cu2  1  1.14430644  1.14430644  0.14430644  1.0
  Cu  Cu3  1  1.55655897  0.55655897  0.55655897  1.0
  Cu  Cu4  1  1.44344103  0.44344103  0.44344103  1.0
  As  As5  1  0.75637917  0.75637917  0.75637917  1.0
  As  As6  1  1.24362083  1.24362083  0.24362083  1.0
