# generated using pymatgen
data_Ca(CoP)2
_symmetry_space_group_name_H-M   'P 1'
_cell_length_a   5.50447354
_cell_length_b   5.50447354
_cell_length_c   5.50447354
_cell_angle_alpha   139.07270463
_cell_angle_beta   139.07270463
_cell_angle_gamma   59.26400937
_symmetry_Int_Tables_number   1
_chemical_formula_structural   Ca(CoP)2
_chemical_formula_sum   'Ca1 Co2 P2'
_cell_volume   70.87804221
_cell_formula_units_Z   1
loop_
 _symmetry_equiv_pos_site_id
 _symmetry_equiv_pos_as_xyz
  1  'x, y, z'
loop_
 _atom_site_type_symbol
 _atom_site_label
 _atom_site_symmetry_multiplicity
 _atom_site_fract_x
 _atom_site_fract_y
 _atom_site_fract_z
 _atom_site_occupancy
  Ca  Ca0  1  0.00000000  0.00000000  0.00000000  1.0
  Co  Co1  1  0.25000000  0.75000000  0.50000000  1.0
  Co  Co2  1  0.75000000  0.25000000  0.50000000  1.0
  P  P3  1  0.63126442  0.63126442  1.00000000  1.0
  P  P4  1  0.36873558  0.36873558  -0.00000000  1.0
