# generated using pymatgen
data_BaMoO2
_symmetry_space_group_name_H-M   'P 1'
_cell_length_a   7.56388891
_cell_length_b   7.56388891
_cell_length_c   7.56388891
_cell_angle_alpha   122.47988835
_cell_angle_beta   122.47988835
_cell_angle_gamma   85.75582723
_symmetry_Int_Tables_number   1
_chemical_formula_structural   BaMoO2
_chemical_formula_sum   'Ba4 Mo4 O8'
_cell_volume   293.65112563
_cell_formula_units_Z   4
loop_
 _symmetry_equiv_pos_site_id
 _symmetry_equiv_pos_as_xyz
  1  'x, y, z'
loop_
 _atom_site_type_symbol
 _atom_site_label
 _atom_site_symmetry_multiplicity
 _atom_site_fract_x
 _atom_site_fract_y
 _atom_site_fract_z
 _atom_site_occupancy
  Ba  Ba0  1  0.87500000  0.62500000  1.25000000  1.0
  Ba  Ba1  1  0.37500000  0.62500000  0.25000000  1.0
  Ba  Ba2  1  0.37500000  1.12500000  0.75000000  1.0
  Ba  Ba3  1  0.37500000  0.62500000  0.75000000  1.0
  Mo  Mo4  1  0.37500000  0.12500000  0.25000000  1.0
  Mo  Mo5  1  0.87500000  1.12500000  1.25000000  1.0
  Mo  Mo6  1  0.87500000  0.62500000  0.75000000  1.0
  Mo  Mo7  1  0.87500000  0.12500000  0.75000000  1.0
  O  O8  1  0.56748940  0.43251243  0.50000480  1.0
  O  O9  1  1.18251243  1.18250763  1.36502303  1.0
  O  O10  1  0.81748460  0.81748940  0.63497697  1.0
  O  O11  1  0.93250763  1.06748460  1.49999520  1.0
  O  O12  1  1.18251060  0.81748757  0.99999520  1.0
  O  O13  1  0.56748757  1.06749237  1.13497697  1.0
  O  O14  1  0.93251540  0.43251060  0.86502303  1.0
  O  O15  1  0.81749237  1.18251540  1.00000480  1.0
