# generated using pymatgen
data_KPO4
_symmetry_space_group_name_H-M   'P 1'
_cell_length_a   5.58015183
_cell_length_b   5.46115641
_cell_length_c   9.24407114
_cell_angle_alpha   90.00000000
_cell_angle_beta   122.80871977
_cell_angle_gamma   90.00000000
_symmetry_Int_Tables_number   1
_chemical_formula_structural   KPO4
_chemical_formula_sum   'K2 P2 O8'
_cell_volume   236.76823662
_cell_formula_units_Z   2
loop_
 _symmetry_equiv_pos_site_id
 _symmetry_equiv_pos_as_xyz
  1  'x, y, z'
loop_
 _atom_site_type_symbol
 _atom_site_label
 _atom_site_symmetry_multiplicity
 _atom_site_fract_x
 _atom_site_fract_y
 _atom_site_fract_z
 _atom_site_occupancy
  K  K0  1  0.99767491  0.75000000  0.30097505  1.0
  K  K1  1  0.00232509  0.25000000  0.69902495  1.0
  P  P2  1  0.58069850  0.75000000  0.75925562  1.0
  P  P3  1  0.41930150  0.25000000  0.24074438  1.0
  O  O4  1  0.37768056  0.96606951  0.65802359  1.0
  O  O5  1  0.37768056  0.53393049  0.65802359  1.0
  O  O6  1  0.62231944  0.46606951  0.34197641  1.0
  O  O7  1  0.62231944  0.03393049  0.34197641  1.0
  O  O8  1  0.85561226  0.75000000  0.75625890  1.0
  O  O9  1  0.14438774  0.25000000  0.24374110  1.0
  O  O10  1  0.70347749  0.75000000  0.95383223  1.0
  O  O11  1  0.29652251  0.25000000  0.04616777  1.0
