# generated using pymatgen
data_KTiCl3
_symmetry_space_group_name_H-M   'P 1'
_cell_length_a   12.70627411
_cell_length_b   12.70627411
_cell_length_c   5.57099079
_cell_angle_alpha   90.00000000
_cell_angle_beta   90.00000000
_cell_angle_gamma   120.00000000
_symmetry_Int_Tables_number   1
_chemical_formula_structural   KTiCl3
_chemical_formula_sum   'K6 Ti6 Cl18'
_cell_volume   778.93194001
_cell_formula_units_Z   6
loop_
 _symmetry_equiv_pos_site_id
 _symmetry_equiv_pos_as_xyz
  1  'x, y, z'
loop_
 _atom_site_type_symbol
 _atom_site_label
 _atom_site_symmetry_multiplicity
 _atom_site_fract_x
 _atom_site_fract_y
 _atom_site_fract_z
 _atom_site_occupancy
  K  K0  1  1.00475101  0.67239673  0.14909840  1.0
  K  K1  1  0.67239673  0.66764571  0.64909840  1.0
  K  K2  1  0.66764571  -0.00475101  0.14909840  1.0
  K  K3  1  0.32760327  0.33235429  0.14909840  1.0
  K  K4  1  -0.00475101  0.32760327  0.64909840  1.0
  K  K5  1  0.33235429  1.00475101  0.64909840  1.0
  Ti  Ti6  1  0.33333333  0.66666667  0.41566297  1.0
  Ti  Ti7  1  0.66666667  0.33333333  0.91566297  1.0
  Ti  Ti8  1  0.33333333  0.66666667  0.86971775  1.0
  Ti  Ti9  1  0.66666667  0.33333333  0.36971775  1.0
  Ti  Ti10  1  0.00000000  0.00000000  -0.09444911  1.0
  Ti  Ti11  1  0.00000000  0.00000000  0.40555089  1.0
  Cl  Cl12  1  0.14485298  0.96318851  0.15558698  1.0
  Cl  Cl13  1  0.96318851  0.81833553  0.65558698  1.0
  Cl  Cl14  1  0.81833553  0.85514702  0.15558698  1.0
  Cl  Cl15  1  0.03681149  0.18166447  0.15558698  1.0
  Cl  Cl16  1  0.85514702  0.03681149  0.65558698  1.0
  Cl  Cl17  1  0.18166447  0.14485298  0.65558698  1.0
  Cl  Cl18  1  0.37487759  0.84428062  0.14254524  1.0
  Cl  Cl19  1  0.84428062  0.46940303  0.64254524  1.0
  Cl  Cl20  1  0.46940303  0.62512241  0.14254524  1.0
  Cl  Cl21  1  0.15571938  0.53059697  0.14254524  1.0
  Cl  Cl22  1  0.62512241  0.15571938  0.64254524  1.0
  Cl  Cl23  1  0.53059697  0.37487759  0.64254524  1.0
  Cl  Cl24  1  0.71103031  0.52049227  0.14272551  1.0
  Cl  Cl25  1  0.52049227  0.80946196  0.64272551  1.0
  Cl  Cl26  1  0.80946196  0.28896969  0.14272551  1.0
  Cl  Cl27  1  0.47950773  0.19053804  0.14272551  1.0
  Cl  Cl28  1  0.28896969  0.47950773  0.64272551  1.0
  Cl  Cl29  1  0.19053804  0.71103031  0.64272551  1.0
