# generated using pymatgen
data_CdI2
_symmetry_space_group_name_H-M   'P 1'
_cell_length_a   4.32797826
_cell_length_b   4.32797826
_cell_length_c   75.85606030
_cell_angle_alpha   90.00000000
_cell_angle_beta   90.00000000
_cell_angle_gamma   120.00000000
_symmetry_Int_Tables_number   1
_chemical_formula_structural   CdI2
_chemical_formula_sum   'Cd10 I20'
_cell_volume   1230.52673907
_cell_formula_units_Z   10
loop_
 _symmetry_equiv_pos_site_id
 _symmetry_equiv_pos_as_xyz
  1  'x, y, z'
loop_
 _atom_site_type_symbol
 _atom_site_label
 _atom_site_symmetry_multiplicity
 _atom_site_fract_x
 _atom_site_fract_y
 _atom_site_fract_z
 _atom_site_occupancy
  Cd  Cd0  1  0.00000000  0.00000000  0.02501618  1.0
  Cd  Cd1  1  0.00000000  0.00000000  0.12499623  1.0
  Cd  Cd2  1  0.00000000  0.00000000  0.22499620  1.0
  Cd  Cd3  1  0.00000000  0.00000000  0.32499939  1.0
  Cd  Cd4  1  0.00000000  0.00000000  0.42500131  1.0
  Cd  Cd5  1  0.00000000  0.00000000  0.52499803  1.0
  Cd  Cd6  1  0.00000000  0.00000000  0.62499722  1.0
  Cd  Cd7  1  0.00000000  0.00000000  0.72498741  1.0
  Cd  Cd8  1  0.66666667  0.33333333  0.82501121  1.0
  Cd  Cd9  1  0.66666667  0.33333333  0.92498551  1.0
  I  I10  1  0.00000000  0.00000000  0.84767556  1.0
  I  I11  1  0.00000000  0.00000000  0.94765329  1.0
  I  I12  1  0.66666667  0.33333333  0.04768312  1.0
  I  I13  1  0.66666667  0.33333333  0.14766225  1.0
  I  I14  1  0.66666667  0.33333333  0.24766264  1.0
  I  I15  1  0.66666667  0.33333333  0.34766717  1.0
  I  I16  1  0.66666667  0.33333333  0.44766915  1.0
  I  I17  1  0.66666667  0.33333333  0.54766507  1.0
  I  I18  1  0.66666667  0.33333333  0.64766363  1.0
  I  I19  1  0.66666667  0.33333333  0.74765602  1.0
  I  I20  1  0.33333333  0.66666667  0.00235743  1.0
  I  I21  1  0.33333333  0.66666667  0.10233167  1.0
  I  I22  1  0.33333333  0.66666667  0.20233088  1.0
  I  I23  1  0.33333333  0.66666667  0.30233536  1.0
  I  I24  1  0.33333333  0.66666667  0.40233738  1.0
  I  I25  1  0.33333333  0.66666667  0.50233326  1.0
  I  I26  1  0.33333333  0.66666667  0.60233226  1.0
  I  I27  1  0.33333333  0.66666667  0.70232315  1.0
  I  I28  1  0.33333333  0.66666667  0.80235040  1.0
  I  I29  1  0.33333333  0.66666667  0.90232161  1.0
