# generated using pymatgen
data_K6ZnBi5
_symmetry_space_group_name_H-M   'P 1'
_cell_length_a   5.58638334
_cell_length_b   15.49211604
_cell_length_c   11.67203139
_cell_angle_alpha   90.00000000
_cell_angle_beta   90.00000000
_cell_angle_gamma   90.00000000
_symmetry_Int_Tables_number   1
_chemical_formula_structural   K6ZnBi5
_chemical_formula_sum   'K12 Zn2 Bi10'
_cell_volume   1010.15477781
_cell_formula_units_Z   2
loop_
 _symmetry_equiv_pos_site_id
 _symmetry_equiv_pos_as_xyz
  1  'x, y, z'
loop_
 _atom_site_type_symbol
 _atom_site_label
 _atom_site_symmetry_multiplicity
 _atom_site_fract_x
 _atom_site_fract_y
 _atom_site_fract_z
 _atom_site_occupancy
  K  K0  1  0.50000000  0.73143429  0.68713421  1.0
  K  K1  1  0.50000000  0.26856571  0.68713421  1.0
  K  K2  1  0.00000000  0.23143429  0.31286579  1.0
  K  K3  1  0.00000000  0.76856571  0.31286579  1.0
  K  K4  1  0.50000000  0.13149334  0.06195809  1.0
  K  K5  1  0.50000000  0.86850666  0.06195809  1.0
  K  K6  1  0.00000000  0.63149334  0.93804191  1.0
  K  K7  1  0.00000000  0.36850666  0.93804191  1.0
  K  K8  1  0.50000000  0.00000000  0.39132402  1.0
  K  K9  1  0.00000000  0.50000000  0.60867598  1.0
  K  K10  1  0.50000000  0.00000000  0.74618086  1.0
  K  K11  1  0.00000000  0.50000000  0.25381914  1.0
  Zn  Zn12  1  0.50000000  0.50000000  0.03883374  1.0
  Zn  Zn13  1  0.00000000  0.00000000  0.96116626  1.0
  Bi  Bi14  1  0.50000000  0.64766164  0.17004316  1.0
  Bi  Bi15  1  0.50000000  0.35233836  0.17004316  1.0
  Bi  Bi16  1  0.00000000  0.14766164  0.82995684  1.0
  Bi  Bi17  1  0.00000000  0.85233836  0.82995684  1.0
  Bi  Bi18  1  0.50000000  0.59867992  0.41876685  1.0
  Bi  Bi19  1  0.50000000  0.40132008  0.41876685  1.0
  Bi  Bi20  1  0.00000000  0.09867992  0.58123315  1.0
  Bi  Bi21  1  0.00000000  0.90132008  0.58123315  1.0
  Bi  Bi22  1  0.50000000  0.50000000  0.80722350  1.0
  Bi  Bi23  1  0.00000000  0.00000000  0.19277650  1.0
