# generated using pymatgen
data_Li3AlGeO5
_symmetry_space_group_name_H-M   'P 1'
_cell_length_a   5.44317208
_cell_length_b   15.94511730
_cell_length_c   4.94173901
_cell_angle_alpha   90.00000000
_cell_angle_beta   90.00000000
_cell_angle_gamma   90.00000000
_symmetry_Int_Tables_number   1
_chemical_formula_structural   Li3AlGeO5
_chemical_formula_sum   'Li12 Al4 Ge4 O20'
_cell_volume   428.90349744
_cell_formula_units_Z   4
loop_
 _symmetry_equiv_pos_site_id
 _symmetry_equiv_pos_as_xyz
  1  'x, y, z'
loop_
 _atom_site_type_symbol
 _atom_site_label
 _atom_site_symmetry_multiplicity
 _atom_site_fract_x
 _atom_site_fract_y
 _atom_site_fract_z
 _atom_site_occupancy
  Li  Li0  1  0.33913775  0.50355389  0.51554581  1.0
  Li  Li1  1  0.83913775  0.99644611  0.51554581  1.0
  Li  Li2  1  0.66086225  0.49644611  0.01554581  1.0
  Li  Li3  1  0.16086225  0.00355389  0.01554581  1.0
  Li  Li4  1  0.33449857  0.69855181  0.51460574  1.0
  Li  Li5  1  0.83449857  0.80144819  0.51460574  1.0
  Li  Li6  1  0.66550143  0.30144819  0.01460574  1.0
  Li  Li7  1  0.16550143  0.19855181  0.01460574  1.0
  Li  Li8  1  0.17927967  0.59854670  0.01289208  1.0
  Li  Li9  1  0.67927967  0.90145330  0.01289208  1.0
  Li  Li10  1  0.82072033  0.40145330  0.51289208  1.0
  Li  Li11  1  0.32072033  0.09854670  0.51289208  1.0
  Al  Al12  1  0.17465868  0.79817886  0.01480650  1.0
  Al  Al13  1  0.67465868  0.70182114  0.01480650  1.0
  Al  Al14  1  0.82534132  0.20182114  0.51480650  1.0
  Al  Al15  1  0.32534132  0.29817886  0.51480650  1.0
  Ge  Ge16  1  0.33937116  0.90272052  0.51937889  1.0
  Ge  Ge17  1  0.83937116  0.59727948  0.51937889  1.0
  Ge  Ge18  1  0.66062884  0.09727948  0.01937889  1.0
  Ge  Ge19  1  0.16062884  0.40272052  0.01937889  1.0
  O  O20  1  0.36106370  0.71122112  0.10993578  1.0
  O  O21  1  0.86106370  0.78877888  0.10993578  1.0
  O  O22  1  0.63893630  0.28877888  0.60993578  1.0
  O  O23  1  0.13893630  0.21122112  0.60993578  1.0
  O  O24  1  0.31192389  0.89075700  0.15464338  1.0
  O  O25  1  0.81192389  0.60924300  0.15464338  1.0
  O  O26  1  0.68807611  0.10924300  0.65464338  1.0
  O  O27  1  0.18807611  0.39075700  0.65464338  1.0
  O  O28  1  0.18467427  0.80914145  0.65136222  1.0
  O  O29  1  0.68467427  0.69085855  0.65136222  1.0
  O  O30  1  0.81532573  0.19085855  0.15136222  1.0
  O  O31  1  0.31532573  0.30914145  0.15136222  1.0
  O  O32  1  0.18265941  0.99259443  0.62011593  1.0
  O  O33  1  0.68265941  0.50740557  0.62011593  1.0
  O  O34  1  0.81734059  0.00740557  0.12011593  1.0
  O  O35  1  0.31734059  0.49259443  0.12011593  1.0
  O  O36  1  0.14722176  0.60297351  0.61671367  1.0
  O  O37  1  0.64722176  0.89702649  0.61671367  1.0
  O  O38  1  0.85277824  0.39702649  0.11671367  1.0
  O  O39  1  0.35277824  0.10297351  0.11671367  1.0
