# generated using pymatgen
data_AgIrF7
_symmetry_space_group_name_H-M   'P 1'
_cell_length_a   8.00139010
_cell_length_b   7.35375913
_cell_length_c   10.84446635
_cell_angle_alpha   90.00000000
_cell_angle_beta   90.00000000
_cell_angle_gamma   90.00000000
_symmetry_Int_Tables_number   1
_chemical_formula_structural   AgIrF7
_chemical_formula_sum   'Ag4 Ir4 F28'
_cell_volume   638.09160462
_cell_formula_units_Z   4
loop_
 _symmetry_equiv_pos_site_id
 _symmetry_equiv_pos_as_xyz
  1  'x, y, z'
loop_
 _atom_site_type_symbol
 _atom_site_label
 _atom_site_symmetry_multiplicity
 _atom_site_fract_x
 _atom_site_fract_y
 _atom_site_fract_z
 _atom_site_occupancy
  Ag  Ag0  1  0.84840177  0.75000000  0.24522931  1.0
  Ag  Ag1  1  0.34840177  0.75000000  0.25477069  1.0
  Ag  Ag2  1  0.15159823  0.25000000  0.75477069  1.0
  Ag  Ag3  1  0.65159823  0.25000000  0.74522931  1.0
  Ir  Ir4  1  0.69904611  0.75000000  0.55757998  1.0
  Ir  Ir5  1  0.19904611  0.75000000  0.94242002  1.0
  Ir  Ir6  1  0.30095389  0.25000000  0.44242002  1.0
  Ir  Ir7  1  0.80095389  0.25000000  0.05757998  1.0
  F  F8  1  0.87313767  0.42995676  0.17343060  1.0
  F  F9  1  0.87313767  0.07004324  0.17343060  1.0
  F  F10  1  0.37313767  0.42995676  0.32656940  1.0
  F  F11  1  0.37313767  0.07004324  0.32656940  1.0
  F  F12  1  0.12686233  0.92995676  0.82656940  1.0
  F  F13  1  0.12686233  0.57004324  0.82656940  1.0
  F  F14  1  0.62686233  0.92995676  0.67343060  1.0
  F  F15  1  0.62686233  0.57004324  0.67343060  1.0
  F  F16  1  0.76699467  0.92759233  0.43958638  1.0
  F  F17  1  0.76699467  0.57240767  0.43958638  1.0
  F  F18  1  0.26699467  0.92759233  0.06041362  1.0
  F  F19  1  0.26699467  0.57240767  0.06041362  1.0
  F  F20  1  0.23300533  0.42759233  0.56041362  1.0
  F  F21  1  0.23300533  0.07240767  0.56041362  1.0
  F  F22  1  0.73300533  0.42759233  0.93958638  1.0
  F  F23  1  0.73300533  0.07240767  0.93958638  1.0
  F  F24  1  0.59682495  0.75000000  0.20303107  1.0
  F  F25  1  0.09682495  0.75000000  0.29696893  1.0
  F  F26  1  0.40317505  0.25000000  0.79696893  1.0
  F  F27  1  0.90317505  0.25000000  0.70303107  1.0
  F  F28  1  0.91203068  0.75000000  0.62685419  1.0
  F  F29  1  0.41203068  0.75000000  0.87314581  1.0
  F  F30  1  0.08796932  0.25000000  0.37314581  1.0
  F  F31  1  0.58796932  0.25000000  0.12685419  1.0
  F  F32  1  0.98312166  0.75000000  0.01293858  1.0
  F  F33  1  0.48312166  0.75000000  0.48706142  1.0
  F  F34  1  0.01687834  0.25000000  0.98706142  1.0
  F  F35  1  0.51687834  0.25000000  0.51293858  1.0
