# generated using pymatgen
data_Y2VO5
_symmetry_space_group_name_H-M   'P 1'
_cell_length_a   8.29055421
_cell_length_b   8.29055421
_cell_length_c   10.33918464
_cell_angle_alpha   61.63829933
_cell_angle_beta   118.36170067
_cell_angle_gamma   130.63388542
_symmetry_Int_Tables_number   1
_chemical_formula_structural   Y2VO5
_chemical_formula_sum   'Y8 V4 O20'
_cell_volume   459.72761916
_cell_formula_units_Z   4
loop_
 _symmetry_equiv_pos_site_id
 _symmetry_equiv_pos_as_xyz
  1  'x, y, z'
loop_
 _atom_site_type_symbol
 _atom_site_label
 _atom_site_symmetry_multiplicity
 _atom_site_fract_x
 _atom_site_fract_y
 _atom_site_fract_z
 _atom_site_occupancy
  Y  Y0  1  1.70632187  -0.22973169  0.04320825  1.0
  Y  Y1  1  1.22973169  -0.70632187  0.54320825  1.0
  Y  Y2  1  0.77026831  0.70632187  0.45679175  1.0
  Y  Y3  1  0.29367813  0.22973169  0.95679175  1.0
  Y  Y4  1  0.49825807  0.22752577  0.33367186  1.0
  Y  Y5  1  0.77247423  0.50174193  0.83367186  1.0
  Y  Y6  1  1.22752577  -0.50174193  0.16632814  1.0
  Y  Y7  1  1.50174193  -0.22752577  0.66632814  1.0
  V  V8  1  0.71908957  0.08873910  0.19069102  1.0
  V  V9  1  0.91126090  -0.71908957  0.69069102  1.0
  V  V10  1  1.08873910  0.71908957  0.30930898  1.0
  V  V11  1  1.28091043  -0.08873910  0.80930898  1.0
  O  O12  1  0.92983049  0.08788455  0.35667356  1.0
  O  O13  1  0.91211545  -0.92983049  0.85667356  1.0
  O  O14  1  1.08788455  0.92983049  0.14332644  1.0
  O  O15  1  1.07016951  -0.08788455  0.64332644  1.0
  O  O16  1  1.57958645  -0.19632413  0.19151351  1.0
  O  O17  1  1.19632413  -0.57958645  0.69151351  1.0
  O  O18  1  0.80367587  0.57958645  0.30848649  1.0
  O  O19  1  0.42041355  0.19632413  0.80848649  1.0
  O  O20  1  0.28169047  -0.13210288  0.45240972  1.0
  O  O21  1  1.13210288  0.71830953  0.95240972  1.0
  O  O22  1  0.86789712  -0.71830953  0.04759028  1.0
  O  O23  1  1.71830953  0.13210288  0.54759028  1.0
  O  O24  1  0.53378092  0.14726694  0.16602200  1.0
  O  O25  1  0.85273306  -0.53378092  0.66602200  1.0
  O  O26  1  1.14726694  0.53378092  0.33397800  1.0
  O  O27  1  1.46621908  -0.14726694  0.83397800  1.0
  O  O28  1  0.41582224  0.37690646  0.40140000  1.0
  O  O29  1  0.62309354  0.58417776  0.90140000  1.0
  O  O30  1  1.37690646  -0.58417776  0.09860000  1.0
  O  O31  1  1.58417776  -0.37690646  0.59860000  1.0
