# generated using pymatgen
data_CeSi4Ni9
_symmetry_space_group_name_H-M   'P 1'
_cell_length_a   7.95477695
_cell_length_b   7.95477695
_cell_length_c   7.95477695
_cell_angle_alpha   121.05124778
_cell_angle_beta   121.05124778
_cell_angle_gamma   88.18862960
_symmetry_Int_Tables_number   1
_chemical_formula_structural   CeSi4Ni9
_chemical_formula_sum   'Ce2 Si8 Ni18'
_cell_volume   350.08806237
_cell_formula_units_Z   2
loop_
 _symmetry_equiv_pos_site_id
 _symmetry_equiv_pos_as_xyz
  1  'x, y, z'
loop_
 _atom_site_type_symbol
 _atom_site_label
 _atom_site_symmetry_multiplicity
 _atom_site_fract_x
 _atom_site_fract_y
 _atom_site_fract_z
 _atom_site_occupancy
  Ce  Ce0  1  0.75000000  0.75000000  1.00000000  1.0
  Ce  Ce1  1  0.25000000  0.25000000  0.00000000  1.0
  Si  Si2  1  1.21209853  0.71209853  1.15885751  1.0
  Si  Si3  1  0.44675898  0.94675898  1.15885751  1.0
  Si  Si4  1  1.05324102  1.21209853  1.50000000  1.0
  Si  Si5  1  0.28790147  0.44675898  0.50000000  1.0
  Si  Si6  1  0.71209853  0.55324102  0.50000000  1.0
  Si  Si7  1  0.94675898  0.78790147  1.50000000  1.0
  Si  Si8  1  0.55324102  1.05324102  0.84114249  1.0
  Si  Si9  1  0.78790147  0.28790147  0.84114249  1.0
  Ni  Ni10  1  0.68242412  1.18242412  1.23614940  1.0
  Ni  Ni11  1  1.05372528  0.55372528  1.23614940  1.0
  Ni  Ni12  1  0.44627472  0.68242412  0.50000000  1.0
  Ni  Ni13  1  0.81757588  1.05372528  1.50000000  1.0
  Ni  Ni14  1  1.18242412  0.94627472  1.50000000  1.0
  Ni  Ni15  1  0.55372528  0.31757588  0.50000000  1.0
  Ni  Ni16  1  0.94627472  0.44627472  0.76385060  1.0
  Ni  Ni17  1  0.31757588  0.81757588  0.76385060  1.0
  Ni  Ni18  1  0.50000000  0.00000000  0.50000000  1.0
  Ni  Ni19  1  0.00000000  0.50000000  0.50000000  1.0
  Ni  Ni20  1  0.79630055  0.93121891  1.72751947  1.0
  Ni  Ni21  1  0.70369945  0.43121891  1.13491836  1.0
  Ni  Ni22  1  0.43121891  0.29630055  0.72751947  1.0
  Ni  Ni23  1  0.06878109  0.79630055  0.86508164  1.0
  Ni  Ni24  1  0.29630055  0.56878109  0.86508164  1.0
  Ni  Ni25  1  0.20369945  0.06878109  0.27248053  1.0
  Ni  Ni26  1  0.93121891  0.20369945  1.13491836  1.0
  Ni  Ni27  1  0.56878109  0.70369945  1.27248053  1.0
