# generated using pymatgen
data_CsTa(CuTe2)2
_symmetry_space_group_name_H-M   'P 1'
_cell_length_a   8.37316921
_cell_length_b   21.58258490
_cell_length_c   6.07693700
_cell_angle_alpha   90.00000000
_cell_angle_beta   90.00000000
_cell_angle_gamma   90.00000000
_symmetry_Int_Tables_number   1
_chemical_formula_structural   CsTa(CuTe2)2
_chemical_formula_sum   'Cs4 Ta4 Cu8 Te16'
_cell_volume   1098.19145403
_cell_formula_units_Z   4
loop_
 _symmetry_equiv_pos_site_id
 _symmetry_equiv_pos_as_xyz
  1  'x, y, z'
loop_
 _atom_site_type_symbol
 _atom_site_label
 _atom_site_symmetry_multiplicity
 _atom_site_fract_x
 _atom_site_fract_y
 _atom_site_fract_z
 _atom_site_occupancy
  Cs  Cs0  1  0.24545628  0.93694758  0.51612143  1.0
  Cs  Cs1  1  0.74545628  0.56305242  0.51612143  1.0
  Cs  Cs2  1  0.75454372  0.06305242  0.01612143  1.0
  Cs  Cs3  1  0.25454372  0.43694758  0.01612143  1.0
  Ta  Ta4  1  0.24484369  0.65044365  0.75666534  1.0
  Ta  Ta5  1  0.74484369  0.84955635  0.75666534  1.0
  Ta  Ta6  1  0.75515631  0.34955635  0.25666534  1.0
  Ta  Ta7  1  0.25515631  0.15044365  0.25666534  1.0
  Cu  Cu8  1  0.49494785  0.74996000  0.76370477  1.0
  Cu  Cu9  1  0.99494785  0.75004000  0.76370477  1.0
  Cu  Cu10  1  0.50505215  0.25004000  0.26370477  1.0
  Cu  Cu11  1  0.00505215  0.24996000  0.26370477  1.0
  Cu  Cu12  1  0.25509941  0.15009672  0.75680275  1.0
  Cu  Cu13  1  0.75509941  0.34990328  0.75680275  1.0
  Cu  Cu14  1  0.74490059  0.84990328  0.25680275  1.0
  Cu  Cu15  1  0.24490059  0.65009672  0.25680275  1.0
  Te  Te16  1  0.48675415  0.85046252  0.00838709  1.0
  Te  Te17  1  0.98675415  0.64953748  0.00838709  1.0
  Te  Te18  1  0.51324585  0.14953748  0.50838709  1.0
  Te  Te19  1  0.01324585  0.35046252  0.50838709  1.0
  Te  Te20  1  0.24496142  0.75117149  0.49929695  1.0
  Te  Te21  1  0.74496142  0.74882851  0.49929695  1.0
  Te  Te22  1  0.75503858  0.24882851  -0.00070305  1.0
  Te  Te23  1  0.25503858  0.25117149  -0.00070305  1.0
  Te  Te24  1  0.24434720  0.55037700  0.50759845  1.0
  Te  Te25  1  0.74434720  0.94962300  0.50759845  1.0
  Te  Te26  1  0.75565280  0.44962300  0.00759845  1.0
  Te  Te27  1  0.25565280  0.05037700  0.00759845  1.0
  Te  Te28  1  1.00296926  0.85062804  0.00842322  1.0
  Te  Te29  1  0.50296926  0.64937196  0.00842322  1.0
  Te  Te30  1  -0.00296926  0.14937196  0.50842322  1.0
  Te  Te31  1  0.49703074  0.35062804  0.50842322  1.0
