# generated using pymatgen
data_Lu6GaNi2
_symmetry_space_group_name_H-M   'P 1'
_cell_length_a   8.11935902
_cell_length_b   8.11935902
_cell_length_c   8.11935902
_cell_angle_alpha   111.81878660
_cell_angle_beta   110.16947199
_cell_angle_gamma   106.47097798
_symmetry_Int_Tables_number   1
_chemical_formula_structural   Lu6GaNi2
_chemical_formula_sum   'Lu12 Ga2 Ni4'
_cell_volume   411.11189210
_cell_formula_units_Z   2
loop_
 _symmetry_equiv_pos_site_id
 _symmetry_equiv_pos_as_xyz
  1  'x, y, z'
loop_
 _atom_site_type_symbol
 _atom_site_label
 _atom_site_symmetry_multiplicity
 _atom_site_fract_x
 _atom_site_fract_y
 _atom_site_fract_z
 _atom_site_occupancy
  Lu  Lu0  1  0.81866150  0.71898340  0.53764491  1.0
  Lu  Lu1  1  0.18133850  0.71898340  0.90032190  1.0
  Lu  Lu2  1  0.81866150  1.28101660  1.09967810  1.0
  Lu  Lu3  1  0.18133850  0.28101660  0.46235509  1.0
  Lu  Lu4  1  0.67386559  0.37055404  0.69668845  1.0
  Lu  Lu5  1  1.32613441  1.02282286  0.69668845  1.0
  Lu  Lu6  1  0.67386559  0.97717714  0.30331155  1.0
  Lu  Lu7  1  0.32613441  0.62944596  0.30331155  1.0
  Lu  Lu8  1  0.56370201  0.76124004  0.80246197  1.0
  Lu  Lu9  1  1.04122193  1.23875996  0.80246197  1.0
  Lu  Lu10  1  0.95877807  0.76124004  0.19753803  1.0
  Lu  Lu11  1  0.43629799  0.23875996  0.19753803  1.0
  Ga  Ga12  1  0.50000000  0.50000000  -0.00000000  1.0
  Ga  Ga13  1  0.00000000  0.00000000  0.00000000  1.0
  Ni  Ni14  1  0.87828228  1.37828228  0.50000000  1.0
  Ni  Ni15  1  1.12171772  0.62171772  0.50000000  1.0
  Ni  Ni16  1  0.65134252  0.00000000  0.65134252  1.0
  Ni  Ni17  1  0.34865748  -0.00000000  0.34865748  1.0
