# generated using pymatgen
data_BaYb2O4
_symmetry_space_group_name_H-M   'P 1'
_cell_length_a   10.38702409
_cell_length_b   3.44588946
_cell_length_c   12.12854087
_cell_angle_alpha   90.00000000
_cell_angle_beta   90.00000000
_cell_angle_gamma   90.00000000
_symmetry_Int_Tables_number   1
_chemical_formula_structural   BaYb2O4
_chemical_formula_sum   'Ba4 Yb8 O16'
_cell_volume   434.11124668
_cell_formula_units_Z   4
loop_
 _symmetry_equiv_pos_site_id
 _symmetry_equiv_pos_as_xyz
  1  'x, y, z'
loop_
 _atom_site_type_symbol
 _atom_site_label
 _atom_site_symmetry_multiplicity
 _atom_site_fract_x
 _atom_site_fract_y
 _atom_site_fract_z
 _atom_site_occupancy
  Ba  Ba0  1  0.24643424  0.25000000  0.34913736  1.0
  Ba  Ba1  1  0.74643424  0.25000000  0.15086264  1.0
  Ba  Ba2  1  0.75356576  0.75000000  0.65086264  1.0
  Ba  Ba3  1  0.25356576  0.75000000  0.84913736  1.0
  Yb  Yb4  1  0.07904678  0.25000000  0.60746553  1.0
  Yb  Yb5  1  0.57904678  0.25000000  0.89253447  1.0
  Yb  Yb6  1  0.92095322  0.75000000  0.39253447  1.0
  Yb  Yb7  1  0.42095322  0.75000000  0.10746553  1.0
  Yb  Yb8  1  0.57213050  0.25000000  0.38896063  1.0
  Yb  Yb9  1  0.07213050  0.25000000  0.11103937  1.0
  Yb  Yb10  1  0.42786950  0.75000000  0.61103937  1.0
  Yb  Yb11  1  0.92786950  0.75000000  0.88896063  1.0
  O  O12  1  0.29040850  0.25000000  0.65935630  1.0
  O  O13  1  0.79040850  0.25000000  0.84064370  1.0
  O  O14  1  0.70959150  0.75000000  0.34064370  1.0
  O  O15  1  0.20959150  0.75000000  0.15935630  1.0
  O  O16  1  0.38566612  0.25000000  0.98211674  1.0
  O  O17  1  0.88566612  0.25000000  0.51788326  1.0
  O  O18  1  0.61433388  0.75000000  0.01788326  1.0
  O  O19  1  0.11433388  0.75000000  0.48211674  1.0
  O  O20  1  0.48015841  0.25000000  0.21641297  1.0
  O  O21  1  0.98015841  0.25000000  0.28358703  1.0
  O  O22  1  0.51984159  0.75000000  0.78358703  1.0
  O  O23  1  0.01984159  0.75000000  0.71641297  1.0
  O  O24  1  0.07050334  0.25000000  0.92585500  1.0
  O  O25  1  0.57050334  0.25000000  0.57414500  1.0
  O  O26  1  0.92949666  0.75000000  0.07414500  1.0
  O  O27  1  0.42949666  0.75000000  0.42585500  1.0
