# generated using pymatgen
data_Ca3(AlGe)2
_symmetry_space_group_name_H-M   'P 1'
_cell_length_a   9.81308839
_cell_length_b   9.81308839
_cell_length_c   9.81308839
_cell_angle_alpha   155.74444029
_cell_angle_beta   153.09611469
_cell_angle_gamma   36.53541593
_symmetry_Int_Tables_number   1
_chemical_formula_structural   Ca3(AlGe)2
_chemical_formula_sum   'Ca3 Al2 Ge2'
_cell_volume   175.42634870
_cell_formula_units_Z   1
loop_
 _symmetry_equiv_pos_site_id
 _symmetry_equiv_pos_as_xyz
  1  'x, y, z'
loop_
 _atom_site_type_symbol
 _atom_site_label
 _atom_site_symmetry_multiplicity
 _atom_site_fract_x
 _atom_site_fract_y
 _atom_site_fract_z
 _atom_site_occupancy
  Ca  Ca0  1  0.81432633  0.31432633  0.50000000  1.0
  Ca  Ca1  1  0.18567367  0.68567367  0.50000000  1.0
  Ca  Ca2  1  0.00000000  0.00000000  0.00000000  1.0
  Al  Al3  1  0.56800209  0.56800209  1.00000000  1.0
  Al  Al4  1  0.43199791  0.43199791  0.00000000  1.0
  Ge  Ge5  1  0.64618618  0.14618618  0.50000000  1.0
  Ge  Ge6  1  0.35381382  0.85381382  0.50000000  1.0
