# generated using pymatgen
data_Sr(GePt)2
_symmetry_space_group_name_H-M   'P 1'
_cell_length_a   15.76569832
_cell_length_b   15.76569832
_cell_length_c   15.76569832
_cell_angle_alpha   163.80610175
_cell_angle_beta   163.80610175
_cell_angle_gamma   22.97917889
_symmetry_Int_Tables_number   1
_chemical_formula_structural   Sr(GePt)2
_chemical_formula_sum   'Sr3 Ge6 Pt6'
_cell_volume   304.72839659
_cell_formula_units_Z   3
loop_
 _symmetry_equiv_pos_site_id
 _symmetry_equiv_pos_as_xyz
  1  'x, y, z'
loop_
 _atom_site_type_symbol
 _atom_site_label
 _atom_site_symmetry_multiplicity
 _atom_site_fract_x
 _atom_site_fract_y
 _atom_site_fract_z
 _atom_site_occupancy
  Sr  Sr0  1  0.66789578  0.66789578  1.00000000  1.0
  Sr  Sr1  1  0.33210422  0.33210422  -0.00000000  1.0
  Sr  Sr2  1  0.00000000  0.00000000  0.00000000  1.0
  Ge  Ge3  1  0.25000000  0.75000000  0.50000000  1.0
  Ge  Ge4  1  0.75000000  0.25000000  0.50000000  1.0
  Ge  Ge5  1  0.87341324  0.87341324  1.00000000  1.0
  Ge  Ge6  1  0.12658676  0.12658676  -0.00000000  1.0
  Ge  Ge7  1  0.54509319  0.54509319  1.00000000  1.0
  Ge  Ge8  1  0.45490681  0.45490681  -0.00000000  1.0
  Pt  Pt9  1  0.41559982  0.91559982  0.50000000  1.0
  Pt  Pt10  1  0.58440018  0.08440018  0.50000000  1.0
  Pt  Pt11  1  0.91559982  0.41559982  0.50000000  1.0
  Pt  Pt12  1  0.08440018  0.58440018  0.50000000  1.0
  Pt  Pt13  1  0.79076539  0.79076539  1.00000000  1.0
  Pt  Pt14  1  0.20923461  0.20923461  -0.00000000  1.0
