# generated using pymatgen
data_H2CN2
_symmetry_space_group_name_H-M   'P 1'
_cell_length_a   4.04925869
_cell_length_b   12.77033200
_cell_length_c   9.02645488
_cell_angle_alpha   90.00000000
_cell_angle_beta   90.88549673
_cell_angle_gamma   90.00000000
_symmetry_Int_Tables_number   1
_chemical_formula_structural   H2CN2
_chemical_formula_sum   'H16 C8 N16'
_cell_volume   466.70564990
_cell_formula_units_Z   8
loop_
 _symmetry_equiv_pos_site_id
 _symmetry_equiv_pos_as_xyz
  1  'x, y, z'
loop_
 _atom_site_type_symbol
 _atom_site_label
 _atom_site_symmetry_multiplicity
 _atom_site_fract_x
 _atom_site_fract_y
 _atom_site_fract_z
 _atom_site_occupancy
  H  H0  1  0.91469690  0.62260766  0.21871181  1.0
  H  H1  1  0.91469690  0.87739234  0.71871181  1.0
  H  H2  1  0.08530310  0.12260766  0.28128819  1.0
  H  H3  1  0.08530310  0.37739234  0.78128819  1.0
  H  H4  1  0.78215330  0.18785844  0.37264006  1.0
  H  H5  1  0.78215330  0.31214156  0.87264006  1.0
  H  H6  1  0.21784670  0.68785844  0.12735994  1.0
  H  H7  1  0.21784670  0.81214156  0.62735994  1.0
  H  H8  1  0.78464845  0.05501994  0.36884172  1.0
  H  H9  1  0.78464845  0.44498006  0.86884172  1.0
  H  H10  1  0.21535155  0.55501994  0.13115828  1.0
  H  H11  1  0.21535155  0.94498006  0.63115828  1.0
  H  H12  1  0.07397259  0.11909078  0.47096805  1.0
  H  H13  1  0.07397259  0.38090922  0.97096805  1.0
  H  H14  1  0.92602741  0.61909078  0.02903195  1.0
  H  H15  1  0.92602741  0.88090922  0.52903195  1.0
  C  C16  1  0.42562549  0.37133593  0.25251498  1.0
  C  C17  1  0.42562549  0.12866407  0.75251498  1.0
  C  C18  1  0.57437451  0.87133593  0.24748502  1.0
  C  C19  1  0.57437451  0.62866407  0.74748502  1.0
  C  C20  1  0.42959377  0.35836846  0.50602328  1.0
  C  C21  1  0.42959377  0.14163154  1.00602328  1.0
  C  C22  1  0.57040623  0.85836846  -0.00602328  1.0
  C  C23  1  0.57040623  0.64163154  0.49397672  1.0
  N  N24  1  0.93015736  0.12181081  0.37386784  1.0
  N  N25  1  0.93015736  0.37818919  0.87386784  1.0
  N  N26  1  0.06984264  0.62181081  0.12613216  1.0
  N  N27  1  0.06984264  0.87818919  0.62613216  1.0
  N  N28  1  0.52313959  0.32752847  0.37535220  1.0
  N  N29  1  0.52313959  0.17247153  0.87535220  1.0
  N  N30  1  0.47686041  0.82752847  0.12464780  1.0
  N  N31  1  0.47686041  0.67247153  0.62464780  1.0
  N  N32  1  0.35264607  0.40513186  0.13475514  1.0
  N  N33  1  0.35264607  0.09486814  0.63475514  1.0
  N  N34  1  0.64735393  0.90513186  0.36524486  1.0
  N  N35  1  0.64735393  0.59486814  0.86524486  1.0
  N  N36  1  0.36305265  0.12138180  0.12912337  1.0
  N  N37  1  0.36305265  0.37861820  0.62912337  1.0
  N  N38  1  0.63694735  0.62138180  0.37087663  1.0
  N  N39  1  0.63694735  0.87861820  0.87087663  1.0
