# generated using pymatgen
data_Ba4In6O13
_symmetry_space_group_name_H-M   'P 1'
_cell_length_a   12.57123130
_cell_length_b   12.57123130
_cell_length_c   12.57123130
_cell_angle_alpha   122.86120386
_cell_angle_beta   64.36238170
_cell_angle_gamma   152.88229124
_symmetry_Int_Tables_number   1
_chemical_formula_structural   Ba4In6O13
_chemical_formula_sum   'Ba8 In12 O26'
_cell_volume   754.08841705
_cell_formula_units_Z   2
loop_
 _symmetry_equiv_pos_site_id
 _symmetry_equiv_pos_as_xyz
  1  'x, y, z'
loop_
 _atom_site_type_symbol
 _atom_site_label
 _atom_site_symmetry_multiplicity
 _atom_site_fract_x
 _atom_site_fract_y
 _atom_site_fract_z
 _atom_site_occupancy
  Ba  Ba0  1  0.48421180  0.94422018  0.78728302  1.0
  Ba  Ba1  1  0.65693716  0.44422018  0.46000838  1.0
  Ba  Ba2  1  0.98421180  1.19692878  0.53999162  1.0
  Ba  Ba3  1  1.15693716  1.69692878  1.21271698  1.0
  Ba  Ba4  1  0.65543971  0.94361449  0.97616391  1.0
  Ba  Ba5  1  0.46745058  0.44361449  0.28817478  1.0
  Ba  Ba6  1  1.15543971  1.17927580  0.71182522  1.0
  Ba  Ba7  1  0.96745058  1.67927580  1.02383609  1.0
  In  In8  1  0.29071171  1.12542197  0.90843450  1.0
  In  In9  1  0.71698747  0.62542197  0.83471026  1.0
  In  In10  1  0.79071171  0.88227721  0.16528974  1.0
  In  In11  1  1.21698747  1.38227721  1.09156550  1.0
  In  In12  1  0.56573591  1.19472737  1.12347823  1.0
  In  In13  1  0.57124913  0.69472737  0.62899145  1.0
  In  In14  1  1.06573591  0.94225768  0.37100855  1.0
  In  In15  1  1.07124913  1.44225768  0.87652177  1.0
  In  In16  1  0.77032930  1.21161876  1.34617241  1.0
  In  In17  1  0.36544635  0.71161876  0.44128947  1.0
  In  In18  1  1.27032930  0.92415689  0.55871053  1.0
  In  In19  1  0.86544635  1.42415689  0.65382759  1.0
  O  O20  1  0.31821626  0.55223317  0.75490830  1.0
  O  O21  1  0.29732487  1.05223317  1.23401692  1.0
  O  O22  1  0.81821626  1.06330796  0.76598308  1.0
  O  O23  1  0.79732487  0.56330796  0.24509170  1.0
  O  O24  1  0.49596765  1.02866900  0.62390906  1.0
  O  O25  1  0.90475995  0.52866900  0.53270136  1.0
  O  O26  1  0.99596765  1.37205859  0.46729864  1.0
  O  O27  1  1.40475995  1.87205859  1.37609094  1.0
  O  O28  1  0.87985448  1.13405576  1.18175511  1.0
  O  O29  1  0.45230064  0.63405576  0.25420127  1.0
  O  O30  1  1.37985448  1.19809937  0.74579873  1.0
  O  O31  1  0.95230064  1.69809937  0.81824489  1.0
  O  O32  1  0.32682611  0.82074141  1.00146837  1.0
  O  O33  1  0.31927304  0.32074141  0.49391530  1.0
  O  O34  1  0.82682610  0.82535774  0.50608470  1.0
  O  O35  1  0.81927304  1.32535774  0.99853163  1.0
  O  O36  1  0.45438219  1.18748290  0.99625833  1.0
  O  O37  1  0.69122458  0.68748290  0.73310071  1.0
  O  O38  1  0.95438219  0.95812387  0.26689929  1.0
  O  O39  1  1.19122458  1.45812387  1.00374167  1.0
  O  O40  1  0.69851292  1.22794082  1.23896565  1.0
  O  O41  1  0.48897517  0.72794082  0.52942790  1.0
  O  O42  1  1.19851292  0.95954727  0.47057210  1.0
  O  O43  1  0.98897517  1.45954727  0.76103435  1.0
  O  O44  1  0.02988300  0.02988300  -0.00000000  1.0
  O  O45  1  0.52988300  0.52988300  -0.00000000  1.0
