# generated using pymatgen
data_Lu6FeBi2
_symmetry_space_group_name_H-M   'P 1'
_cell_length_a   8.14799410
_cell_length_b   8.14799410
_cell_length_c   4.10375039
_cell_angle_alpha   90.00000000
_cell_angle_beta   90.00000000
_cell_angle_gamma   120.00000000
_symmetry_Int_Tables_number   1
_chemical_formula_structural   Lu6FeBi2
_chemical_formula_sum   'Lu6 Fe1 Bi2'
_cell_volume   235.94619619
_cell_formula_units_Z   1
loop_
 _symmetry_equiv_pos_site_id
 _symmetry_equiv_pos_as_xyz
  1  'x, y, z'
loop_
 _atom_site_type_symbol
 _atom_site_label
 _atom_site_symmetry_multiplicity
 _atom_site_fract_x
 _atom_site_fract_y
 _atom_site_fract_z
 _atom_site_occupancy
  Lu  Lu0  1  0.76949932  0.76949932  0.50000000  1.0
  Lu  Lu1  1  0.00000000  0.23050068  0.50000000  1.0
  Lu  Lu2  1  0.23050068  0.00000000  0.50000000  1.0
  Lu  Lu3  1  0.38372299  0.38372299  0.00000000  1.0
  Lu  Lu4  1  -0.00000000  0.61627701  0.00000000  1.0
  Lu  Lu5  1  0.61627701  0.00000000  0.00000000  1.0
  Fe  Fe6  1  0.00000000  0.00000000  0.00000000  1.0
  Bi  Bi7  1  0.33333333  0.66666667  0.50000000  1.0
  Bi  Bi8  1  0.66666667  0.33333333  0.50000000  1.0
