# generated using pymatgen
data_Ge
_symmetry_space_group_name_H-M   'P 1'
_cell_length_a   6.01992919
_cell_length_b   6.01992919
_cell_length_c   7.12384720
_cell_angle_alpha   90.00000000
_cell_angle_beta   90.00000000
_cell_angle_gamma   90.00000000
_symmetry_Int_Tables_number   1
_chemical_formula_structural   Ge
_chemical_formula_sum   Ge12
_cell_volume   258.16499827
_cell_formula_units_Z   12
loop_
 _symmetry_equiv_pos_site_id
 _symmetry_equiv_pos_as_xyz
  1  'x, y, z'
loop_
 _atom_site_type_symbol
 _atom_site_label
 _atom_site_symmetry_multiplicity
 _atom_site_fract_x
 _atom_site_fract_y
 _atom_site_fract_z
 _atom_site_occupancy
  Ge  Ge0  1  0.12975803  0.67070814  -0.00210413  1.0
  Ge  Ge1  1  0.62975803  0.82929186  0.75210413  1.0
  Ge  Ge2  1  0.32929186  0.87024197  0.50210413  1.0
  Ge  Ge3  1  0.82929186  0.62975803  0.24789587  1.0
  Ge  Ge4  1  0.87024197  0.32929186  0.49789587  1.0
  Ge  Ge5  1  0.37024197  0.17070814  0.25210413  1.0
  Ge  Ge6  1  0.67070814  0.12975803  1.00210413  1.0
  Ge  Ge7  1  0.17070814  0.37024197  0.74789587  1.0
  Ge  Ge8  1  0.41284641  0.58715359  0.25000000  1.0
  Ge  Ge9  1  0.91284641  0.91284641  0.50000000  1.0
  Ge  Ge10  1  0.58715359  0.41284641  0.75000000  1.0
  Ge  Ge11  1  0.08715359  0.08715359  0.00000000  1.0
