# generated using pymatgen
data_Re4Ni5Mo6
_symmetry_space_group_name_H-M   'P 1'
_cell_length_a   9.26205272
_cell_length_b   9.26205272
_cell_length_c   4.82296331
_cell_angle_alpha   90.00000000
_cell_angle_beta   90.00000000
_cell_angle_gamma   90.00000000
_symmetry_Int_Tables_number   1
_chemical_formula_structural   Re4Ni5Mo6
_chemical_formula_sum   'Re8 Ni10 Mo12'
_cell_volume   413.74090121
_cell_formula_units_Z   2
loop_
 _symmetry_equiv_pos_site_id
 _symmetry_equiv_pos_as_xyz
  1  'x, y, z'
loop_
 _atom_site_type_symbol
 _atom_site_label
 _atom_site_symmetry_multiplicity
 _atom_site_fract_x
 _atom_site_fract_y
 _atom_site_fract_z
 _atom_site_occupancy
  Re  Re0  1  0.36867888  0.96623841  0.50000000  1.0
  Re  Re1  1  0.63132112  0.03376159  0.50000000  1.0
  Re  Re2  1  0.13132112  0.46623841  0.00000000  1.0
  Re  Re3  1  0.86867888  0.53376159  0.00000000  1.0
  Re  Re4  1  0.96623841  0.36867888  0.50000000  1.0
  Re  Re5  1  0.03376159  0.63132112  0.50000000  1.0
  Re  Re6  1  0.46623841  0.13132112  -0.00000000  1.0
  Re  Re7  1  0.53376159  0.86867888  -0.00000000  1.0
  Ni  Ni8  1  0.50000000  0.50000000  0.50000000  1.0
  Ni  Ni9  1  0.00000000  0.00000000  0.00000000  1.0
  Ni  Ni10  1  0.43641089  0.24231826  0.50000000  1.0
  Ni  Ni11  1  0.56358911  0.75768174  0.50000000  1.0
  Ni  Ni12  1  0.06358911  0.74231826  0.00000000  1.0
  Ni  Ni13  1  0.93641089  0.25768174  0.00000000  1.0
  Ni  Ni14  1  0.24231826  0.43641089  0.50000000  1.0
  Ni  Ni15  1  0.75768174  0.56358911  0.50000000  1.0
  Ni  Ni16  1  0.74231826  0.06358911  -0.00000000  1.0
  Ni  Ni17  1  0.25768174  0.93641089  0.00000000  1.0
  Mo  Mo18  1  0.10163512  0.89836488  0.50000000  1.0
  Mo  Mo19  1  0.89836488  0.10163512  0.50000000  1.0
  Mo  Mo20  1  0.39836488  0.39836488  0.00000000  1.0
  Mo  Mo21  1  0.60163512  0.60163512  0.00000000  1.0
  Mo  Mo22  1  0.31550005  0.68449995  0.25031745  1.0
  Mo  Mo23  1  0.68449995  0.31550005  0.25031745  1.0
  Mo  Mo24  1  0.18449995  0.18449995  0.75031745  1.0
  Mo  Mo25  1  0.81550005  0.81550005  0.75031745  1.0
  Mo  Mo26  1  0.68449995  0.31550005  0.74968255  1.0
  Mo  Mo27  1  0.31550005  0.68449995  0.74968255  1.0
  Mo  Mo28  1  0.81550005  0.81550005  0.24968255  1.0
  Mo  Mo29  1  0.18449995  0.18449995  0.24968255  1.0
