# generated using pymatgen
data_Sn5(BIr3)2
_symmetry_space_group_name_H-M   'P 1'
_cell_length_a   6.70957952
_cell_length_b   6.70957952
_cell_length_c   5.63602694
_cell_angle_alpha   90.00000000
_cell_angle_beta   90.00000000
_cell_angle_gamma   120.00000000
_symmetry_Int_Tables_number   1
_chemical_formula_structural   Sn5(BIr3)2
_chemical_formula_sum   'Sn5 B2 Ir6'
_cell_volume   219.73250187
_cell_formula_units_Z   1
loop_
 _symmetry_equiv_pos_site_id
 _symmetry_equiv_pos_as_xyz
  1  'x, y, z'
loop_
 _atom_site_type_symbol
 _atom_site_label
 _atom_site_symmetry_multiplicity
 _atom_site_fract_x
 _atom_site_fract_y
 _atom_site_fract_z
 _atom_site_occupancy
  Sn  Sn0  1  0.40438527  0.40438527  0.00000000  1.0
  Sn  Sn1  1  0.00000000  0.59561473  0.00000000  1.0
  Sn  Sn2  1  0.59561473  0.00000000  -0.00000000  1.0
  Sn  Sn3  1  0.33333333  0.66666667  0.50000000  1.0
  Sn  Sn4  1  0.66666667  0.33333333  0.50000000  1.0
  B  B5  1  -0.00000000  -0.00000000  0.50000000  1.0
  B  B6  1  0.00000000  0.00000000  0.00000000  1.0
  Ir  Ir7  1  0.74803048  0.74803048  0.74572936  1.0
  Ir  Ir8  1  0.74803048  0.74803048  0.25427064  1.0
  Ir  Ir9  1  0.00000000  0.25196952  0.74572936  1.0
  Ir  Ir10  1  0.00000000  0.25196952  0.25427064  1.0
  Ir  Ir11  1  0.25196952  -0.00000000  0.74572936  1.0
  Ir  Ir12  1  0.25196952  -0.00000000  0.25427064  1.0
