# generated using pymatgen
data_Ba7B4Se13
_symmetry_space_group_name_H-M   'P 1'
_cell_length_a   13.80610465
_cell_length_b   13.80610465
_cell_length_c   10.62345483
_cell_angle_alpha   89.99186655
_cell_angle_beta   90.00813345
_cell_angle_gamma   45.29989429
_symmetry_Int_Tables_number   1
_chemical_formula_structural   Ba7B4Se13
_chemical_formula_sum   'Ba14 B8 Se26'
_cell_volume   1439.31009958
_cell_formula_units_Z   2
loop_
 _symmetry_equiv_pos_site_id
 _symmetry_equiv_pos_as_xyz
  1  'x, y, z'
loop_
 _atom_site_type_symbol
 _atom_site_label
 _atom_site_symmetry_multiplicity
 _atom_site_fract_x
 _atom_site_fract_y
 _atom_site_fract_z
 _atom_site_occupancy
  Ba  Ba0  1  0.99733678  -0.00266322  0.25000000  1.0
  Ba  Ba1  1  0.00266322  0.00266322  0.75000000  1.0
  Ba  Ba2  1  0.33256272  0.33256272  0.75000000  1.0
  Ba  Ba3  1  0.66743728  -0.33256272  0.25000000  1.0
  Ba  Ba4  1  0.50420677  -0.49579323  0.75000000  1.0
  Ba  Ba5  1  0.49579323  0.49579323  0.25000000  1.0
  Ba  Ba6  1  0.93555606  -0.27871729  0.52768085  1.0
  Ba  Ba7  1  0.72128271  -0.06444394  0.97231915  1.0
  Ba  Ba8  1  1.06444394  -0.72128271  0.47231915  1.0
  Ba  Ba9  1  0.27871729  0.06444394  0.02768085  1.0
  Ba  Ba10  1  1.10427472  -0.45145114  0.14319382  1.0
  Ba  Ba11  1  0.54854886  0.10427472  0.35680618  1.0
  Ba  Ba12  1  0.89572528  -0.54854886  0.85680618  1.0
  Ba  Ba13  1  0.45145114  -0.10427472  0.64319382  1.0
  B  B14  1  1.28333768  -0.51674644  0.43131023  1.0
  B  B15  1  0.48325356  0.28333768  0.06868977  1.0
  B  B16  1  0.71666232  -0.48325356  0.56868977  1.0
  B  B17  1  0.51674644  -0.28333768  0.93131023  1.0
  B  B18  1  1.06676320  -0.29199620  0.85130580  1.0
  B  B19  1  0.70800380  0.06676320  0.64869420  1.0
  B  B20  1  0.93323680  -0.70800380  0.14869420  1.0
  B  B21  1  0.29199620  -0.06676320  0.35130580  1.0
  Se  Se22  1  1.18149040  -0.34047605  0.34862087  1.0
  Se  Se23  1  0.65952395  0.18149040  0.15137913  1.0
  Se  Se24  1  0.81850960  -0.65952395  0.65137913  1.0
  Se  Se25  1  0.34047605  -0.18149040  0.84862087  1.0
  Se  Se26  1  1.20774416  -0.59748054  0.43667722  1.0
  Se  Se27  1  0.40251946  0.20774416  0.06332278  1.0
  Se  Se28  1  0.79225584  -0.40251946  0.56332278  1.0
  Se  Se29  1  0.59748054  -0.20774416  0.93667722  1.0
  Se  Se30  1  0.46682634  0.37063669  0.50066083  1.0
  Se  Se31  1  1.37063669  -0.53317366  0.99933917  1.0
  Se  Se32  1  0.53317366  -0.37063669  0.49933917  1.0
  Se  Se33  1  0.62936331  -0.46682634  0.00066083  1.0
  Se  Se34  1  1.02021440  -0.17161647  0.99038258  1.0
  Se  Se35  1  0.82838353  0.02021440  0.50961742  1.0
  Se  Se36  1  0.97978560  -0.82838353  0.00961742  1.0
  Se  Se37  1  0.17161647  -0.02021440  0.49038258  1.0
  Se  Se38  1  0.99452566  -0.37648226  0.84709402  1.0
  Se  Se39  1  0.62351774  -0.00547434  0.65290598  1.0
  Se  Se40  1  1.00547434  -0.62351774  0.15290598  1.0
  Se  Se41  1  0.37648226  0.00547434  0.34709402  1.0
  Se  Se42  1  1.16850484  -0.32221981  0.70224006  1.0
  Se  Se43  1  0.67778019  0.16850484  0.79775994  1.0
  Se  Se44  1  0.83149516  -0.67778019  0.29775994  1.0
  Se  Se45  1  0.32221981  -0.16850484  0.20224006  1.0
  Se  Se46  1  0.79367147  -0.20632853  0.25000000  1.0
  Se  Se47  1  0.20632853  0.20632853  0.75000000  1.0
