# generated using pymatgen
data_SrZrS3
_symmetry_space_group_name_H-M   'P 1'
_cell_length_a   7.16656170
_cell_length_b   9.81825163
_cell_length_c   6.76975606
_cell_angle_alpha   90.00000000
_cell_angle_beta   90.00000000
_cell_angle_gamma   90.00000000
_symmetry_Int_Tables_number   1
_chemical_formula_structural   SrZrS3
_chemical_formula_sum   'Sr4 Zr4 S12'
_cell_volume   476.34106434
_cell_formula_units_Z   4
loop_
 _symmetry_equiv_pos_site_id
 _symmetry_equiv_pos_as_xyz
  1  'x, y, z'
loop_
 _atom_site_type_symbol
 _atom_site_label
 _atom_site_symmetry_multiplicity
 _atom_site_fract_x
 _atom_site_fract_y
 _atom_site_fract_z
 _atom_site_occupancy
  Sr  Sr0  1  0.08006481  0.75000000  0.52468400  1.0
  Sr  Sr1  1  0.58006481  0.75000000  0.97531600  1.0
  Sr  Sr2  1  0.91993519  0.25000000  0.47531600  1.0
  Sr  Sr3  1  0.41993519  0.25000000  0.02468400  1.0
  Zr  Zr4  1  0.50000000  0.00000000  0.50000000  1.0
  Zr  Zr5  1  0.50000000  0.50000000  0.50000000  1.0
  Zr  Zr6  1  0.00000000  0.00000000  0.00000000  1.0
  Zr  Zr7  1  0.00000000  0.50000000  0.00000000  1.0
  S  S8  1  0.30323589  -0.05012859  0.80764303  1.0
  S  S9  1  0.30323589  0.55012859  0.80764303  1.0
  S  S10  1  0.80323589  -0.05012859  0.69235697  1.0
  S  S11  1  0.80323589  0.55012859  0.69235697  1.0
  S  S12  1  0.69676411  0.44987141  0.19235697  1.0
  S  S13  1  0.69676411  1.05012859  0.19235697  1.0
  S  S14  1  0.19676411  0.44987141  0.30764303  1.0
  S  S15  1  0.19676411  1.05012859  0.30764303  1.0
  S  S16  1  0.98016322  0.75000000  0.09762933  1.0
  S  S17  1  0.48016322  0.75000000  0.40237067  1.0
  S  S18  1  0.01983678  0.25000000  0.90237067  1.0
  S  S19  1  0.51983678  0.25000000  0.59762933  1.0
