# generated using pymatgen
data_MgAl2
_symmetry_space_group_name_H-M   'P 1'
_cell_length_a   12.90743900
_cell_length_b   12.90743900
_cell_length_c   12.90743900
_cell_angle_alpha   161.35700681
_cell_angle_beta   161.35700681
_cell_angle_gamma   26.48416946
_symmetry_Int_Tables_number   1
_chemical_formula_structural   MgAl2
_chemical_formula_sum   'Mg4 Al8'
_cell_volume   219.66830866
_cell_formula_units_Z   4
loop_
 _symmetry_equiv_pos_site_id
 _symmetry_equiv_pos_as_xyz
  1  'x, y, z'
loop_
 _atom_site_type_symbol
 _atom_site_label
 _atom_site_symmetry_multiplicity
 _atom_site_fract_x
 _atom_site_fract_y
 _atom_site_fract_z
 _atom_site_occupancy
  Mg  Mg0  1  0.83200833  0.33200833  0.50000000  1.0
  Mg  Mg1  1  0.91799167  0.91799167  1.00000000  1.0
  Mg  Mg2  1  0.66799167  0.16799167  0.50000000  1.0
  Mg  Mg3  1  0.08200833  0.08200833  0.00000000  1.0
  Al  Al4  1  -0.00033909  0.49966091  0.50000000  1.0
  Al  Al5  1  0.75033909  0.75033909  1.00000000  1.0
  Al  Al6  1  0.50033909  0.00033909  0.50000000  1.0
  Al  Al7  1  0.24966091  0.24966091  -0.00000000  1.0
  Al  Al8  1  0.16790075  0.66790075  0.50000000  1.0
  Al  Al9  1  0.58209925  0.58209925  1.00000000  1.0
  Al  Al10  1  0.33209925  0.83209925  0.50000000  1.0
  Al  Al11  1  0.41790075  0.41790075  -0.00000000  1.0
