# generated using pymatgen
data_CsLi3Br4
_symmetry_space_group_name_H-M   'P 1'
_cell_length_a   4.37435853
_cell_length_b   11.93565715
_cell_length_c   10.05164254
_cell_angle_alpha   90.00000000
_cell_angle_beta   90.00000000
_cell_angle_gamma   90.00000000
_symmetry_Int_Tables_number   1
_chemical_formula_structural   CsLi3Br4
_chemical_formula_sum   'Cs2 Li6 Br8'
_cell_volume   524.80473688
_cell_formula_units_Z   2
loop_
 _symmetry_equiv_pos_site_id
 _symmetry_equiv_pos_as_xyz
  1  'x, y, z'
loop_
 _atom_site_type_symbol
 _atom_site_label
 _atom_site_symmetry_multiplicity
 _atom_site_fract_x
 _atom_site_fract_y
 _atom_site_fract_z
 _atom_site_occupancy
  Cs  Cs0  1  0.50000000  0.49926258  0.04865474  1.0
  Cs  Cs1  1  0.50000000  0.50073742  0.54865474  1.0
  Li  Li2  1  0.50000000  0.91863814  0.79757317  1.0
  Li  Li3  1  0.50000000  0.08136186  0.29757317  1.0
  Li  Li4  1  0.00000000  0.19337528  0.63287503  1.0
  Li  Li5  1  0.00000000  0.80662472  0.13287503  1.0
  Li  Li6  1  0.00000000  0.80707862  0.46129951  1.0
  Li  Li7  1  0.00000000  0.19292138  0.96129951  1.0
  Br  Br8  1  0.00000000  1.03282485  0.79693161  1.0
  Br  Br9  1  0.00000000  -0.03282485  0.29693161  1.0
  Br  Br10  1  0.00000000  0.37061809  0.79780468  1.0
  Br  Br11  1  0.00000000  0.62938191  0.29780468  1.0
  Br  Br12  1  0.50000000  0.20540205  0.09177682  1.0
  Br  Br13  1  0.50000000  0.79459795  0.59177682  1.0
  Br  Br14  1  0.50000000  0.20693777  0.50215443  1.0
  Br  Br15  1  0.50000000  0.79306223  1.00215443  1.0
