# generated using pymatgen
data_PS2N3Cl2(OF)2
_symmetry_space_group_name_H-M   'P 1'
_cell_length_a   8.27865746
_cell_length_b   8.17877603
_cell_length_c   15.16550272
_cell_angle_alpha   90.00000000
_cell_angle_beta   95.65803142
_cell_angle_gamma   90.00000000
_symmetry_Int_Tables_number   1
_chemical_formula_structural   PS2N3Cl2(OF)2
_chemical_formula_sum   'P4 S8 N12 Cl8 O8 F8'
_cell_volume   1021.84261363
_cell_formula_units_Z   4
loop_
 _symmetry_equiv_pos_site_id
 _symmetry_equiv_pos_as_xyz
  1  'x, y, z'
loop_
 _atom_site_type_symbol
 _atom_site_label
 _atom_site_symmetry_multiplicity
 _atom_site_fract_x
 _atom_site_fract_y
 _atom_site_fract_z
 _atom_site_occupancy
  P  P0  1  0.14129791  0.84116456  0.12412594  1.0
  P  P1  1  0.14129791  0.65883544  0.62412594  1.0
  P  P2  1  0.85870209  0.34116456  0.37587406  1.0
  P  P3  1  0.85870209  0.15883544  0.87587406  1.0
  S  S4  1  0.20164178  0.84583522  0.47828576  1.0
  S  S5  1  0.20164178  0.65416478  0.97828576  1.0
  S  S6  1  0.79835822  0.34583522  0.02171424  1.0
  S  S7  1  0.79835822  0.15416478  0.52171424  1.0
  S  S8  1  0.34051656  0.56964402  0.14507500  1.0
  S  S9  1  0.34051656  0.93035598  0.64507500  1.0
  S  S10  1  0.65948344  0.06964402  0.35492500  1.0
  S  S11  1  0.65948344  0.43035598  0.85492500  1.0
  N  N12  1  0.11031438  0.79539090  0.02018575  1.0
  N  N13  1  0.11031438  0.70460910  0.52018575  1.0
  N  N14  1  0.88968562  0.29539090  0.47981425  1.0
  N  N15  1  0.88968562  0.20460910  0.97981425  1.0
  N  N16  1  0.24266105  0.70746080  0.18542249  1.0
  N  N17  1  0.24266105  0.79253920  0.68542249  1.0
  N  N18  1  0.75733895  0.20746080  0.31457751  1.0
  N  N19  1  0.75733895  0.29253920  0.81457751  1.0
  N  N20  1  0.28621093  0.52441776  0.04508527  1.0
  N  N21  1  0.28621093  0.97558224  0.54508527  1.0
  N  N22  1  0.71378907  0.02441776  0.45491473  1.0
  N  N23  1  0.71378907  0.47558224  0.95491473  1.0
  Cl  Cl24  1  0.07229902  0.37148743  0.32918743  1.0
  Cl  Cl25  1  0.07229902  0.12851257  0.82918743  1.0
  Cl  Cl26  1  0.92770098  0.87148743  0.17081257  1.0
  Cl  Cl27  1  0.92770098  0.62851257  0.67081257  1.0
  Cl  Cl28  1  0.24859801  0.44038255  0.63855521  1.0
  Cl  Cl29  1  0.24859801  0.05961745  0.13855521  1.0
  Cl  Cl30  1  0.75140199  0.94038255  0.86144479  1.0
  Cl  Cl31  1  0.75140199  0.55961745  0.36144479  1.0
  O  O32  1  0.11434027  0.92268552  0.40349635  1.0
  O  O33  1  0.11434027  0.57731448  0.90349635  1.0
  O  O34  1  0.88565973  0.42268552  0.09650365  1.0
  O  O35  1  0.88565973  0.07731448  0.59650365  1.0
  O  O36  1  0.63470063  0.92685171  0.30089853  1.0
  O  O37  1  0.63470063  0.57314829  0.80089853  1.0
  O  O38  1  0.36529937  0.42685171  0.19910147  1.0
  O  O39  1  0.36529937  0.07314829  0.69910147  1.0
  F  F40  1  0.35279947  0.75523711  0.43987298  1.0
  F  F41  1  0.35279947  0.74476289  0.93987298  1.0
  F  F42  1  0.64720053  0.25523711  0.06012702  1.0
  F  F43  1  0.64720053  0.24476289  0.56012702  1.0
  F  F44  1  0.51836491  0.64758076  0.14087388  1.0
  F  F45  1  0.51836491  0.85241924  0.64087388  1.0
  F  F46  1  0.48163509  0.14758076  0.35912612  1.0
  F  F47  1  0.48163509  0.35241924  0.85912612  1.0
