# generated using pymatgen
data_NaN3
_symmetry_space_group_name_H-M   'P 1'
_cell_length_a   5.16820297
_cell_length_b   5.16820297
_cell_length_c   5.16820297
_cell_angle_alpha   112.25354461
_cell_angle_beta   112.25354461
_cell_angle_gamma   104.03935145
_symmetry_Int_Tables_number   1
_chemical_formula_structural   NaN3
_chemical_formula_sum   'Na2 N6'
_cell_volume   105.55940838
_cell_formula_units_Z   2
loop_
 _symmetry_equiv_pos_site_id
 _symmetry_equiv_pos_as_xyz
  1  'x, y, z'
loop_
 _atom_site_type_symbol
 _atom_site_label
 _atom_site_symmetry_multiplicity
 _atom_site_fract_x
 _atom_site_fract_y
 _atom_site_fract_z
 _atom_site_occupancy
  Na  Na0  1  0.25000000  0.25000000  -0.00000000  1.0
  Na  Na1  1  0.75000000  0.75000000  -0.00000000  1.0
  N  N2  1  0.85504517  0.35504517  1.21009033  1.0
  N  N3  1  0.64495483  0.85504517  0.50000000  1.0
  N  N4  1  0.35504517  0.14495483  0.50000000  1.0
  N  N5  1  1.14495483  0.64495483  0.78990967  1.0
  N  N6  1  1.00000000  0.50000000  0.50000000  1.0
  N  N7  1  0.50000000  1.00000000  0.50000000  1.0
