# generated using pymatgen
data_Na3Eu9B8O27
_symmetry_space_group_name_H-M   'P 1'
_cell_length_a   8.78917628
_cell_length_b   8.78917628
_cell_length_c   8.46082580
_cell_angle_alpha   90.00000000
_cell_angle_beta   90.00000000
_cell_angle_gamma   120.00000000
_symmetry_Int_Tables_number   1
_chemical_formula_structural   Na3Eu9B8O27
_chemical_formula_sum   'Na3 Eu9 B8 O27'
_cell_volume   566.03037217
_cell_formula_units_Z   1
loop_
 _symmetry_equiv_pos_site_id
 _symmetry_equiv_pos_as_xyz
  1  'x, y, z'
loop_
 _atom_site_type_symbol
 _atom_site_label
 _atom_site_symmetry_multiplicity
 _atom_site_fract_x
 _atom_site_fract_y
 _atom_site_fract_z
 _atom_site_occupancy
  O  O0  1  0.33548948  0.82366173  0.67885242  1.0
  O  O1  1  0.33548948  0.82366173  0.32114758  1.0
  O  O2  1  0.82366173  0.33548948  0.67885242  1.0
  O  O3  1  0.82366173  0.33548948  0.32114758  1.0
  O  O4  1  0.48817225  0.66451052  0.67885242  1.0
  O  O5  1  0.48817225  0.66451052  0.32114758  1.0
  O  O6  1  0.17633827  0.51182775  0.67885242  1.0
  O  O7  1  0.17633827  0.51182775  0.32114758  1.0
  O  O8  1  0.66451052  0.48817225  0.67885242  1.0
  O  O9  1  0.66451052  0.48817225  0.32114758  1.0
  O  O10  1  0.51182775  0.17633827  0.67885242  1.0
  O  O11  1  0.51182775  0.17633827  0.32114758  1.0
  O  O12  1  0.18072350  0.67825797  0.00000000  1.0
  O  O13  1  0.67825797  0.18072350  0.00000000  1.0
  O  O14  1  0.49753447  0.81927650  0.00000000  1.0
  O  O15  1  0.32174203  0.50246553  0.00000000  1.0
  O  O16  1  0.81927650  0.49753447  0.00000000  1.0
  O  O17  1  0.50246553  0.32174203  0.00000000  1.0
  O  O18  1  0.84284949  0.84284949  0.78496811  1.0
  O  O19  1  0.84284949  0.84284949  0.21503189  1.0
  O  O20  1  -0.00000000  0.15715051  0.78496811  1.0
  O  O21  1  -0.00000000  0.15715051  0.21503189  1.0
  O  O22  1  0.15715051  0.00000000  0.78496811  1.0
  O  O23  1  0.15715051  0.00000000  0.21503189  1.0
  O  O24  1  0.25321132  0.25321132  0.50000000  1.0
  O  O25  1  -0.00000000  0.74678868  0.50000000  1.0
  O  O26  1  0.74678868  0.00000000  0.50000000  1.0
  B  B27  1  0.33333333  0.66666667  0.67208157  1.0
  B  B28  1  0.33333333  0.66666667  0.32791843  1.0
  B  B29  1  0.66666667  0.33333333  0.67208157  1.0
  B  B30  1  0.66666667  0.33333333  0.32791843  1.0
  B  B31  1  0.00000000  0.00000000  0.78709321  1.0
  B  B32  1  0.00000000  0.00000000  0.21290679  1.0
  B  B33  1  0.33333333  0.66666667  0.00000000  1.0
  B  B34  1  0.66666667  0.33333333  0.00000000  1.0
  Eu  Eu35  1  0.34931747  0.34931747  0.76242631  1.0
  Eu  Eu36  1  0.34931747  0.34931747  0.23757369  1.0
  Eu  Eu37  1  -0.00000000  0.65068253  0.76242631  1.0
  Eu  Eu38  1  -0.00000000  0.65068253  0.23757369  1.0
  Eu  Eu39  1  0.65068253  0.00000000  0.76242631  1.0
  Eu  Eu40  1  0.65068253  0.00000000  0.23757369  1.0
  Eu  Eu41  1  0.72020136  0.72020136  0.50000000  1.0
  Eu  Eu42  1  -0.00000000  0.27979864  0.50000000  1.0
  Eu  Eu43  1  0.27979864  0.00000000  0.50000000  1.0
  Na  Na44  1  0.66596611  0.66596611  0.00000000  1.0
  Na  Na45  1  -0.00000000  0.33403389  0.00000000  1.0
  Na  Na46  1  0.33403389  0.00000000  0.00000000  1.0
