# generated using pymatgen
data_TiCl3
_symmetry_space_group_name_H-M   'P 1'
_cell_length_a   7.59452790
_cell_length_b   7.59452790
_cell_length_c   7.59452790
_cell_angle_alpha   47.41875125
_cell_angle_beta   47.41875125
_cell_angle_gamma   47.41875125
_symmetry_Int_Tables_number   1
_chemical_formula_structural   TiCl3
_chemical_formula_sum   'Ti2 Cl6'
_cell_volume   217.28572810
_cell_formula_units_Z   2
loop_
 _symmetry_equiv_pos_site_id
 _symmetry_equiv_pos_as_xyz
  1  'x, y, z'
loop_
 _atom_site_type_symbol
 _atom_site_label
 _atom_site_symmetry_multiplicity
 _atom_site_fract_x
 _atom_site_fract_y
 _atom_site_fract_z
 _atom_site_occupancy
  Ti  Ti0  1  0.16663513  0.16663513  0.16663513  1.0
  Ti  Ti1  1  0.83336487  -0.16663513  -0.16663513  1.0
  Cl  Cl2  1  0.43053998  0.07759577  -0.21689215  1.0
  Cl  Cl3  1  0.21689215  0.56946002  -0.07759577  1.0
  Cl  Cl4  1  0.92240423  0.21689215  -0.43053998  1.0
  Cl  Cl5  1  0.56946002  0.92240423  -0.78310785  1.0
  Cl  Cl6  1  0.78310785  -0.56946002  0.07759577  1.0
  Cl  Cl7  1  1.07759577  -0.21689215  -0.56946002  1.0
