# generated using pymatgen
data_Gd3B2(O2F)3
_symmetry_space_group_name_H-M   'P 1'
_cell_length_a   7.17558920
_cell_length_b   7.17558920
_cell_length_c   8.32443852
_cell_angle_alpha   83.35933396
_cell_angle_beta   96.64066604
_cell_angle_gamma   128.21816160
_symmetry_Int_Tables_number   1
_chemical_formula_structural   Gd3B2(O2F)3
_chemical_formula_sum   'Gd6 B4 O12 F6'
_cell_volume   333.95437278
_cell_formula_units_Z   2
loop_
 _symmetry_equiv_pos_site_id
 _symmetry_equiv_pos_as_xyz
  1  'x, y, z'
loop_
 _atom_site_type_symbol
 _atom_site_label
 _atom_site_symmetry_multiplicity
 _atom_site_fract_x
 _atom_site_fract_y
 _atom_site_fract_z
 _atom_site_occupancy
  Gd  Gd0  1  0.28171194  -0.07255553  0.67902153  1.0
  Gd  Gd1  1  1.07255553  0.71828806  0.17902153  1.0
  Gd  Gd2  1  0.92744447  0.28171194  0.82097847  1.0
  Gd  Gd3  1  0.71828806  0.07255553  0.32097847  1.0
  Gd  Gd4  1  0.59969577  0.59969577  0.75000000  1.0
  Gd  Gd5  1  0.40030423  0.40030423  0.25000000  1.0
  B  B6  1  0.41412439  -0.22616721  0.97834305  1.0
  B  B7  1  1.22616721  0.58587561  0.47834305  1.0
  B  B8  1  0.77383279  0.41412439  0.52165695  1.0
  B  B9  1  0.58587561  0.22616721  0.02165695  1.0
  O  O10  1  0.57901128  -0.12116274  0.86150343  1.0
  O  O11  1  1.12116274  0.42098872  0.36150343  1.0
  O  O12  1  0.87883726  0.57901128  0.63849657  1.0
  O  O13  1  0.42098872  0.12116274  0.13849657  1.0
  O  O14  1  0.70661563  0.18793914  0.57277562  1.0
  O  O15  1  0.81206086  0.29338437  0.07277562  1.0
  O  O16  1  1.18793914  0.70661563  0.92722438  1.0
  O  O17  1  0.29338437  -0.18793914  0.42722438  1.0
  O  O18  1  0.53925445  0.24469118  0.85739155  1.0
  O  O19  1  0.75530882  0.46074555  0.35739155  1.0
  O  O20  1  1.24469118  0.53925445  0.64260845  1.0
  O  O21  1  0.46074555  -0.24469118  0.14260845  1.0
  F  F22  1  1.26670330  0.37228121  0.96225229  1.0
  F  F23  1  0.62771879  -0.26670330  0.46225229  1.0
  F  F24  1  0.37228121  0.26670330  0.53774771  1.0
  F  F25  1  0.73329670  0.62771879  0.03774771  1.0
  F  F26  1  0.97590603  0.97590603  0.75000000  1.0
  F  F27  1  0.02409397  0.02409397  0.25000000  1.0
