# generated using pymatgen
data_NbH12N3O8
_symmetry_space_group_name_H-M   'P 1'
_cell_length_a   7.13350194
_cell_length_b   7.13350194
_cell_length_c   7.13350194
_cell_angle_alpha   123.47277464
_cell_angle_beta   123.47277464
_cell_angle_gamma   84.08336285
_symmetry_Int_Tables_number   1
_chemical_formula_structural   NbH12N3O8
_chemical_formula_sum   'Nb1 H12 N3 O8'
_cell_volume   241.79659094
_cell_formula_units_Z   1
loop_
 _symmetry_equiv_pos_site_id
 _symmetry_equiv_pos_as_xyz
  1  'x, y, z'
loop_
 _atom_site_type_symbol
 _atom_site_label
 _atom_site_symmetry_multiplicity
 _atom_site_fract_x
 _atom_site_fract_y
 _atom_site_fract_z
 _atom_site_occupancy
  Nb  Nb0  1  0.00000000  0.00000000  0.00000000  1.0
  H  H1  1  0.76220532  1.18290059  0.33558305  1.0
  H  H2  1  1.23779468  1.57337773  1.42069527  1.0
  H  H3  1  1.18290059  0.76220532  0.33558305  1.0
  H  H4  1  0.81709941  1.15268246  0.57930473  1.0
  H  H5  1  1.15268246  0.81709941  0.57930473  1.0
  H  H6  1  1.84731754  1.42662227  1.66441695  1.0
  H  H7  1  1.57337773  1.23779468  1.42069527  1.0
  H  H8  1  1.42662227  1.84731754  1.66441695  1.0
  H  H9  1  0.45658405  0.45658405  0.81347245  1.0
  H  H10  1  0.54341595  1.35688840  1.00000000  1.0
  H  H11  1  1.35688840  0.54341595  1.00000000  1.0
  H  H12  1  0.64311160  0.64311160  0.18652755  1.0
  N  N13  1  0.75000000  1.25000000  0.50000000  1.0
  N  N14  1  1.25000000  0.75000000  0.50000000  1.0
  N  N15  1  0.50000000  0.50000000  0.00000000  1.0
  O  O16  1  0.99114246  0.99114246  0.70360268  1.0
  O  O17  1  1.00885754  1.71246022  1.00000000  1.0
  O  O18  1  1.71246022  1.00885754  1.00000000  1.0
  O  O19  1  0.28753978  0.28753978  0.29639732  1.0
  O  O20  1  0.79778481  0.79778481  0.57228952  1.0
  O  O21  1  1.20221519  0.77450472  1.00000000  1.0
  O  O22  1  0.77450472  1.20221519  1.00000000  1.0
  O  O23  1  0.22549528  0.22549528  0.42771048  1.0
