# generated using pymatgen
data_Lu2MgGe2
_symmetry_space_group_name_H-M   'P 1'
_cell_length_a   7.14197878
_cell_length_b   7.14197878
_cell_length_c   4.15456500
_cell_angle_alpha   90.00000000
_cell_angle_beta   90.00000000
_cell_angle_gamma   90.00000000
_symmetry_Int_Tables_number   1
_chemical_formula_structural   Lu2MgGe2
_chemical_formula_sum   'Lu4 Mg2 Ge4'
_cell_volume   211.91547397
_cell_formula_units_Z   2
loop_
 _symmetry_equiv_pos_site_id
 _symmetry_equiv_pos_as_xyz
  1  'x, y, z'
loop_
 _atom_site_type_symbol
 _atom_site_label
 _atom_site_symmetry_multiplicity
 _atom_site_fract_x
 _atom_site_fract_y
 _atom_site_fract_z
 _atom_site_occupancy
  Lu  Lu0  1  0.32318889  0.17681111  0.50000000  1.0
  Lu  Lu1  1  0.82318889  0.32318889  0.50000000  1.0
  Lu  Lu2  1  0.67681111  0.82318889  0.50000000  1.0
  Lu  Lu3  1  0.17681111  0.67681111  0.50000000  1.0
  Mg  Mg4  1  0.50000000  0.50000000  0.00000000  1.0
  Mg  Mg5  1  0.00000000  0.00000000  0.00000000  1.0
  Ge  Ge6  1  0.87446997  0.62553003  0.00000000  1.0
  Ge  Ge7  1  0.37446997  0.87446997  0.00000000  1.0
  Ge  Ge8  1  0.12553003  0.37446997  0.00000000  1.0
  Ge  Ge9  1  0.62553003  0.12553003  0.00000000  1.0
