# generated using pymatgen
data_BaBiBO4
_symmetry_space_group_name_H-M   'P 1'
_cell_length_a   8.81184142
_cell_length_b   9.83438155
_cell_length_c   5.20664535
_cell_angle_alpha   90.00000000
_cell_angle_beta   90.00000000
_cell_angle_gamma   90.00000000
_symmetry_Int_Tables_number   1
_chemical_formula_structural   BaBiBO4
_chemical_formula_sum   'Ba4 Bi4 B4 O16'
_cell_volume   451.20273533
_cell_formula_units_Z   4
loop_
 _symmetry_equiv_pos_site_id
 _symmetry_equiv_pos_as_xyz
  1  'x, y, z'
loop_
 _atom_site_type_symbol
 _atom_site_label
 _atom_site_symmetry_multiplicity
 _atom_site_fract_x
 _atom_site_fract_y
 _atom_site_fract_z
 _atom_site_occupancy
  Ba  Ba0  1  0.49087926  0.68264503  0.00057442  1.0
  Ba  Ba1  1  0.99087926  0.81735497  0.00057442  1.0
  Ba  Ba2  1  0.50912074  0.31735497  0.50057442  1.0
  Ba  Ba3  1  0.00912074  0.18264503  0.50057442  1.0
  Bi  Bi4  1  0.19484908  0.56200460  0.50056667  1.0
  Bi  Bi5  1  0.69484908  0.93799540  0.50056667  1.0
  Bi  Bi6  1  0.80515092  0.43799540  0.00056667  1.0
  Bi  Bi7  1  0.30515092  0.06200460  0.00056667  1.0
  B  B8  1  0.30234638  0.94492803  0.50053527  1.0
  B  B9  1  0.80234638  0.55507197  0.50053527  1.0
  B  B10  1  0.69765362  0.05507197  0.00053527  1.0
  B  B11  1  0.19765362  0.44492803  0.00053527  1.0
  O  O12  1  0.42405628  0.58216923  0.50071828  1.0
  O  O13  1  0.92405628  0.91783077  0.50071828  1.0
  O  O14  1  0.57594372  0.41783077  0.00071828  1.0
  O  O15  1  0.07594372  0.08216923  0.00071828  1.0
  O  O16  1  0.29778380  0.87860319  0.73467312  1.0
  O  O17  1  0.79778380  0.62139681  0.73467312  1.0
  O  O18  1  0.70221621  0.12139681  0.23467312  1.0
  O  O19  1  0.20221621  0.37860319  0.23467312  1.0
  O  O20  1  0.29782384  0.87857127  0.26642255  1.0
  O  O21  1  0.79782384  0.62142873  0.26642255  1.0
  O  O22  1  0.70217616  0.12142873  0.76642255  1.0
  O  O23  1  0.20217616  0.37857127  0.76642255  1.0
  O  O24  1  0.18860079  0.58682060  1.00050969  1.0
  O  O25  1  0.68860079  0.91317940  1.00050969  1.0
  O  O26  1  0.81139921  0.41317940  0.50050969  1.0
  O  O27  1  0.31139921  0.08682060  0.50050969  1.0
