# generated using pymatgen
data_Mn3B7ClO13
_symmetry_space_group_name_H-M   'P 1'
_cell_length_a   8.71261770
_cell_length_b   8.71261770
_cell_length_c   8.71261770
_cell_angle_alpha   60.00000000
_cell_angle_beta   60.00000000
_cell_angle_gamma   60.00000000
_symmetry_Int_Tables_number   1
_chemical_formula_structural   Mn3B7ClO13
_chemical_formula_sum   'Mn6 B14 Cl2 O26'
_cell_volume   467.66080817
_cell_formula_units_Z   2
loop_
 _symmetry_equiv_pos_site_id
 _symmetry_equiv_pos_as_xyz
  1  'x, y, z'
loop_
 _atom_site_type_symbol
 _atom_site_label
 _atom_site_symmetry_multiplicity
 _atom_site_fract_x
 _atom_site_fract_y
 _atom_site_fract_z
 _atom_site_occupancy
  Mn  Mn0  1  0.50000000  0.00000000  -0.00000000  1.0
  Mn  Mn1  1  1.00000000  0.50000000  -0.50000000  1.0
  Mn  Mn2  1  -0.50000000  0.50000000  1.00000000  1.0
  Mn  Mn3  1  0.00000000  0.50000000  -0.00000000  1.0
  Mn  Mn4  1  0.00000000  -0.00000000  0.50000000  1.0
  Mn  Mn5  1  0.50000000  1.00000000  -0.50000000  1.0
  B  B6  1  0.91997664  0.91997664  -0.08002336  1.0
  B  B7  1  0.41997664  1.41997664  0.41997664  1.0
  B  B8  1  0.24007007  0.91997664  -0.08002336  1.0
  B  B9  1  -0.25992993  0.41997664  0.41997664  1.0
  B  B10  1  0.91997664  0.91997664  -0.75992993  1.0
  B  B11  1  0.41997664  1.41997664  -0.25992993  1.0
  B  B12  1  0.91997664  0.24007007  -0.08002336  1.0
  B  B13  1  0.41997664  -0.25992993  0.41997664  1.0
  B  B14  1  -0.75000000  0.75000000  0.75000000  1.0
  B  B15  1  -0.25000000  0.25000000  0.25000000  1.0
  B  B16  1  0.25000000  1.25000000  -0.25000000  1.0
  B  B17  1  -0.25000000  0.25000000  0.75000000  1.0
  B  B18  1  -0.25000000  0.75000000  0.25000000  1.0
  B  B19  1  0.25000000  -0.25000000  0.25000000  1.0
  Cl  Cl20  1  0.75000000  0.75000000  -0.25000000  1.0
  Cl  Cl21  1  0.25000000  0.25000000  0.25000000  1.0
  O  O22  1  0.74710581  1.06349191  -0.10784524  1.0
  O  O23  1  0.24710581  1.39215476  0.56349191  1.0
  O  O24  1  -0.70275249  0.89215476  1.06349191  1.0
  O  O25  1  -0.20275249  0.56349191  0.39215476  1.0
  O  O26  1  0.39215476  1.56349191  0.24710581  1.0
  O  O27  1  -0.10784524  0.74710581  1.06349191  1.0
  O  O28  1  -0.20275249  0.24710581  0.56349191  1.0
  O  O29  1  0.29724751  1.06349191  -0.25289419  1.0
  O  O30  1  1.06349191  0.89215476  -0.25289419  1.0
  O  O31  1  0.56349191  1.24710581  0.39215476  1.0
  O  O32  1  -0.70275249  0.74710581  0.89215476  1.0
  O  O33  1  -0.20275249  0.39215476  0.24710581  1.0
  O  O34  1  1.06349191  0.74710581  -0.70275249  1.0
  O  O35  1  0.39215476  1.24710581  -0.20275249  1.0
  O  O36  1  -0.10784524  0.29724751  0.74710581  1.0
  O  O37  1  0.56349191  -0.20275249  0.24710581  1.0
  O  O38  1  0.56349191  1.39215476  -0.20275249  1.0
  O  O39  1  -0.25289419  0.89215476  0.29724751  1.0
  O  O40  1  0.24710581  -0.20275249  0.39215476  1.0
  O  O41  1  1.06349191  0.29724751  -0.10784524  1.0
  O  O42  1  0.89215476  1.06349191  -0.70275249  1.0
  O  O43  1  0.24710581  1.56349191  -0.20275249  1.0
  O  O44  1  -0.25289419  0.29724751  1.06349191  1.0
  O  O45  1  0.39215476  -0.20275249  0.56349191  1.0
  O  O46  1  0.00000000  0.00000000  0.00000000  1.0
  O  O47  1  -0.50000000  0.50000000  0.50000000  1.0
