# generated using pymatgen
data_Ba6(NiO3)5
_symmetry_space_group_name_H-M   'P 1'
_cell_length_a   7.20618657
_cell_length_b   7.20618657
_cell_length_c   7.20618657
_cell_angle_alpha   87.91472099
_cell_angle_beta   87.91472099
_cell_angle_gamma   87.91472099
_symmetry_Int_Tables_number   1
_chemical_formula_structural   Ba6(NiO3)5
_chemical_formula_sum   'Ba6 Ni5 O15'
_cell_volume   373.48509767
_cell_formula_units_Z   1
loop_
 _symmetry_equiv_pos_site_id
 _symmetry_equiv_pos_as_xyz
  1  'x, y, z'
loop_
 _atom_site_type_symbol
 _atom_site_label
 _atom_site_symmetry_multiplicity
 _atom_site_fract_x
 _atom_site_fract_y
 _atom_site_fract_z
 _atom_site_occupancy
  Ba  Ba0  1  0.83622191  0.50000000  -0.83622191  1.0
  Ba  Ba1  1  0.50000000  0.16377809  -0.16377809  1.0
  Ba  Ba2  1  0.16377809  0.83622191  -0.50000000  1.0
  Ba  Ba3  1  0.64986589  1.00000000  -0.64986589  1.0
  Ba  Ba4  1  0.00000000  0.35013411  -0.35013411  1.0
  Ba  Ba5  1  0.35013411  -0.35013411  0.00000000  1.0
  Ni  Ni6  1  0.78994541  0.78994541  -0.21005459  1.0
  Ni  Ni7  1  1.21005459  1.21005459  0.21005459  1.0
  Ni  Ni8  1  0.59521676  0.59521676  -0.40478324  1.0
  Ni  Ni9  1  0.40478324  0.40478324  -0.59521676  1.0
  Ni  Ni10  1  0.00000000  0.00000000  0.00000000  1.0
  O  O11  1  0.53793995  0.83155350  -0.30625185  1.0
  O  O12  1  1.30625185  1.16844650  0.46206005  1.0
  O  O13  1  1.16844650  1.46206005  0.30625185  1.0
  O  O14  1  1.46206005  1.30625185  0.16844650  1.0
  O  O15  1  0.69374815  0.53793995  -0.16844650  1.0
  O  O16  1  0.83155350  0.69374815  -0.46206005  1.0
  O  O17  1  0.73488173  -0.13036946  0.02862894  1.0
  O  O18  1  0.97137106  0.13036946  -0.73488173  1.0
  O  O19  1  1.13036946  -0.73488173  -0.02862894  1.0
  O  O20  1  0.26511827  -0.02862894  0.13036946  1.0
  O  O21  1  1.02862894  -0.26511827  -0.13036946  1.0
  O  O22  1  0.86963054  0.02862894  -0.26511827  1.0
  O  O23  1  0.35511391  0.50000000  -0.35511391  1.0
  O  O24  1  0.50000000  0.64488609  -0.64488609  1.0
  O  O25  1  0.64488609  0.35511391  -0.50000000  1.0
