# generated using pymatgen
data_CuSnF6
_symmetry_space_group_name_H-M   'P 1'
_cell_length_a   5.64541416
_cell_length_b   5.27945656
_cell_length_c   5.39910565
_cell_angle_alpha   62.02923972
_cell_angle_beta   59.76511650
_cell_angle_gamma   63.51592597
_symmetry_Int_Tables_number   1
_chemical_formula_structural   CuSnF6
_chemical_formula_sum   'Cu1 Sn1 F6'
_cell_volume   118.05707620
_cell_formula_units_Z   1
loop_
 _symmetry_equiv_pos_site_id
 _symmetry_equiv_pos_as_xyz
  1  'x, y, z'
loop_
 _atom_site_type_symbol
 _atom_site_label
 _atom_site_symmetry_multiplicity
 _atom_site_fract_x
 _atom_site_fract_y
 _atom_site_fract_z
 _atom_site_occupancy
  Cu  Cu0  1  0.00000000  0.00000000  0.00000000  1.0
  Sn  Sn1  1  0.50000000  -0.50000000  -0.50000000  1.0
  F  F2  1  0.74844737  -0.85887852  -1.64977554  1.0
  F  F3  1  0.25155263  -0.14112148  -0.35022446  1.0
  F  F4  1  0.24167751  -0.75050312  -1.13589606  1.0
  F  F5  1  0.75832249  -0.24949688  -0.86410394  1.0
  F  F6  1  0.73353868  -0.62555791  -1.26759400  1.0
  F  F7  1  0.26646132  -0.37444209  -0.73240600  1.0
