# generated using pymatgen
data_K2ZrF6
_symmetry_space_group_name_H-M   'P 1'
_cell_length_a   6.75956313
_cell_length_b   6.75956313
_cell_length_c   6.99422922
_cell_angle_alpha   90.00000000
_cell_angle_beta   90.00000000
_cell_angle_gamma   120.88254233
_symmetry_Int_Tables_number   1
_chemical_formula_structural   K2ZrF6
_chemical_formula_sum   'K4 Zr2 F12'
_cell_volume   274.26881260
_cell_formula_units_Z   2
loop_
 _symmetry_equiv_pos_site_id
 _symmetry_equiv_pos_as_xyz
  1  'x, y, z'
loop_
 _atom_site_type_symbol
 _atom_site_label
 _atom_site_symmetry_multiplicity
 _atom_site_fract_x
 _atom_site_fract_y
 _atom_site_fract_z
 _atom_site_occupancy
  K  K0  1  0.15738161  0.84261839  0.00161888  1.0
  K  K1  1  0.15738161  0.84261839  0.49838112  1.0
  K  K2  1  -0.15738161  0.15738161  0.50161888  1.0
  K  K3  1  -0.15738161  0.15738161  -0.00161888  1.0
  Zr  Zr4  1  -0.44907196  0.44907196  0.75000000  1.0
  Zr  Zr5  1  0.44907196  0.55092804  0.25000000  1.0
  F  F6  1  0.77977970  0.79852375  0.75000000  1.0
  F  F7  1  0.79852375  0.77977970  0.25000000  1.0
  F  F8  1  0.20147625  0.22022030  0.75000000  1.0
  F  F9  1  0.22022030  0.20147625  0.25000000  1.0
  F  F10  1  -0.11456479  0.49392768  0.75000000  1.0
  F  F11  1  0.49392768  0.88543521  0.25000000  1.0
  F  F12  1  0.50607232  1.11456479  0.75000000  1.0
  F  F13  1  0.11456479  0.50607232  0.25000000  1.0
  F  F14  1  0.40141748  0.59858252  0.95525560  1.0
  F  F15  1  0.40141748  0.59858252  0.54474440  1.0
  F  F16  1  -0.40141748  0.40141748  0.45525560  1.0
  F  F17  1  -0.40141748  0.40141748  0.04474440  1.0
