# generated using pymatgen
data_LiCo(CO)4
_symmetry_space_group_name_H-M   'P 1'
_cell_length_a   5.62593150
_cell_length_b   5.62593150
_cell_length_c   5.62593150
_cell_angle_alpha   90.00000000
_cell_angle_beta   90.00000000
_cell_angle_gamma   90.00000000
_symmetry_Int_Tables_number   1
_chemical_formula_structural   LiCo(CO)4
_chemical_formula_sum   'Li1 Co1 C4 O4'
_cell_volume   178.06694964
_cell_formula_units_Z   1
loop_
 _symmetry_equiv_pos_site_id
 _symmetry_equiv_pos_as_xyz
  1  'x, y, z'
loop_
 _atom_site_type_symbol
 _atom_site_label
 _atom_site_symmetry_multiplicity
 _atom_site_fract_x
 _atom_site_fract_y
 _atom_site_fract_z
 _atom_site_occupancy
  Li  Li0  1  0.50000000  0.50000000  0.50000000  1.0
  Co  Co1  1  0.00000000  0.00000000  0.00000000  1.0
  C  C2  1  0.82086132  0.82086132  0.17913868  1.0
  C  C3  1  0.82086132  0.17913868  0.82086132  1.0
  C  C4  1  0.17913868  0.82086132  0.82086132  1.0
  C  C5  1  0.17913868  0.17913868  0.17913868  1.0
  O  O6  1  0.70033671  0.70033671  0.29966329  1.0
  O  O7  1  0.70033671  0.29966329  0.70033671  1.0
  O  O8  1  0.29966329  0.70033671  0.70033671  1.0
  O  O9  1  0.29966329  0.29966329  0.29966329  1.0
