# generated using pymatgen
data_Na5Si18
_symmetry_space_group_name_H-M   'P 1'
_cell_length_a   15.30445459
_cell_length_b   15.30445459
_cell_length_c   15.30445459
_cell_angle_alpha   60.00000000
_cell_angle_beta   60.00000000
_cell_angle_gamma   60.00000000
_symmetry_Int_Tables_number   1
_chemical_formula_structural   Na5Si18
_chemical_formula_sum   'Na10 Si36'
_cell_volume   2534.77008787
_cell_formula_units_Z   2
loop_
 _symmetry_equiv_pos_site_id
 _symmetry_equiv_pos_as_xyz
  1  'x, y, z'
loop_
 _atom_site_type_symbol
 _atom_site_label
 _atom_site_symmetry_multiplicity
 _atom_site_fract_x
 _atom_site_fract_y
 _atom_site_fract_z
 _atom_site_occupancy
  Na  Na0  1  0.50000000  0.50000000  -0.50000000  1.0
  Na  Na1  1  0.75000000  -0.25000000  0.75000000  1.0
  Na  Na2  1  -0.14940132  0.85059868  0.44820395  1.0
  Na  Na3  1  0.85059868  -0.55179605  0.85059868  1.0
  Na  Na4  1  0.39940132  0.39940132  0.39940132  1.0
  Na  Na5  1  -0.19820395  0.39940132  0.39940132  1.0
  Na  Na6  1  -0.55179605  0.85059868  0.85059868  1.0
  Na  Na7  1  0.85059868  -0.14940132  0.85059868  1.0
  Na  Na8  1  0.39940132  -0.19820395  0.39940132  1.0
  Na  Na9  1  0.39940132  0.39940132  -0.19820395  1.0
  Si  Si10  1  0.88454321  -0.11545679  1.03609607  1.0
  Si  Si11  1  -0.80518249  0.88454321  1.03609607  1.0
  Si  Si12  1  -0.80518249  1.03609607  0.88454321  1.0
  Si  Si13  1  0.88454321  0.03609607  0.88454321  1.0
  Si  Si14  1  0.36545679  0.36545679  0.05518249  1.0
  Si  Si15  1  0.36545679  0.05518249  0.36545679  1.0
  Si  Si16  1  0.21390393  0.05518249  0.36545679  1.0
  Si  Si17  1  0.21390393  0.36545679  0.05518249  1.0
  Si  Si18  1  0.88454321  -0.80518249  1.03609607  1.0
  Si  Si19  1  -0.11545679  1.03609607  0.19481751  1.0
  Si  Si20  1  0.05518249  0.36545679  0.36545679  1.0
  Si  Si21  1  0.21390393  0.36545679  0.36545679  1.0
  Si  Si22  1  1.03609607  -0.80518249  0.88454321  1.0
  Si  Si23  1  0.03609607  0.88454321  0.19481751  1.0
  Si  Si24  1  -0.11545679  0.88454321  0.19481751  1.0
  Si  Si25  1  0.88454321  -0.80518249  0.88454321  1.0
  Si  Si26  1  0.05518249  0.21390393  0.36545679  1.0
  Si  Si27  1  0.36545679  0.21390393  0.36545679  1.0
  Si  Si28  1  0.36545679  0.36545679  0.21390393  1.0
  Si  Si29  1  0.05518249  0.36545679  0.21390393  1.0
  Si  Si30  1  1.03609607  -0.11545679  0.88454321  1.0
  Si  Si31  1  -0.80518249  0.88454321  0.88454321  1.0
  Si  Si32  1  0.36545679  0.21390393  0.05518249  1.0
  Si  Si33  1  0.36545679  0.05518249  0.21390393  1.0
  Si  Si34  1  0.68205260  -0.31794740  0.95384220  1.0
  Si  Si35  1  0.68205260  -0.04615780  0.68205260  1.0
  Si  Si36  1  0.56794740  -0.43205260  0.56794740  1.0
  Si  Si37  1  1.29615780  -0.43205260  0.56794740  1.0
  Si  Si38  1  0.95384220  -0.31794740  0.68205260  1.0
  Si  Si39  1  0.68205260  -0.31794740  0.68205260  1.0
  Si  Si40  1  0.56794740  0.29615780  0.56794740  1.0
  Si  Si41  1  0.56794740  -0.43205260  1.29615780  1.0
  Si  Si42  1  0.62500000  -0.37500000  1.12500000  1.0
  Si  Si43  1  0.62500000  0.12500000  0.62500000  1.0
  Si  Si44  1  0.62500000  -0.37500000  0.62500000  1.0
  Si  Si45  1  1.12500000  -0.37500000  0.62500000  1.0
