# generated using pymatgen
data_Rb3Yb(PO4)2
_symmetry_space_group_name_H-M   'P 1'
_cell_length_a   5.75975426
_cell_length_b   5.75975426
_cell_length_c   8.18898270
_cell_angle_alpha   90.00000000
_cell_angle_beta   90.00000000
_cell_angle_gamma   120.00000000
_symmetry_Int_Tables_number   1
_chemical_formula_structural   Rb3Yb(PO4)2
_chemical_formula_sum   'Rb3 Yb1 P2 O8'
_cell_volume   235.27105232
_cell_formula_units_Z   1
loop_
 _symmetry_equiv_pos_site_id
 _symmetry_equiv_pos_as_xyz
  1  'x, y, z'
loop_
 _atom_site_type_symbol
 _atom_site_label
 _atom_site_symmetry_multiplicity
 _atom_site_fract_x
 _atom_site_fract_y
 _atom_site_fract_z
 _atom_site_occupancy
  P  P0  1  0.33333333  0.66666667  0.27669458  1.0
  P  P1  1  0.66666667  0.33333333  0.72330542  1.0
  Yb  Yb2  1  0.00000000  0.00000000  0.50000000  1.0
  O  O3  1  0.63001104  0.81500552  0.34124184  1.0
  O  O4  1  0.81500552  0.63001104  0.65875816  1.0
  O  O5  1  0.81500552  0.18499448  0.65875816  1.0
  O  O6  1  0.18499448  0.81500552  0.34124184  1.0
  O  O7  1  0.18499448  0.36998896  0.34124184  1.0
  O  O8  1  0.36998896  0.18499448  0.65875816  1.0
  O  O9  1  0.33333333  0.66666667  0.08911287  1.0
  O  O10  1  0.66666667  0.33333333  0.91088713  1.0
  Rb  Rb11  1  0.33333333  0.66666667  0.75035321  1.0
  Rb  Rb12  1  0.66666667  0.33333333  0.24964679  1.0
  Rb  Rb13  1  0.00000000  0.00000000  0.00000000  1.0
