# generated using pymatgen
data_H7C2(N3O)3
_symmetry_space_group_name_H-M   'P 1'
_cell_length_a   7.26395465
_cell_length_b   8.22049622
_cell_length_c   8.11244306
_cell_angle_alpha   104.99992896
_cell_angle_beta   107.35797538
_cell_angle_gamma   101.19644115
_symmetry_Int_Tables_number   1
_chemical_formula_structural   H7C2(N3O)3
_chemical_formula_sum   'H14 C4 N18 O6'
_cell_volume   426.81742950
_cell_formula_units_Z   2
loop_
 _symmetry_equiv_pos_site_id
 _symmetry_equiv_pos_as_xyz
  1  'x, y, z'
loop_
 _atom_site_type_symbol
 _atom_site_label
 _atom_site_symmetry_multiplicity
 _atom_site_fract_x
 _atom_site_fract_y
 _atom_site_fract_z
 _atom_site_occupancy
  H  H0  1  -0.96010248  -0.49576148  -0.29591682  1.0
  H  H1  1  -0.03989752  -0.50423852  -0.70408318  1.0
  H  H2  1  -0.82096345  -0.55995781  -0.66449695  1.0
  H  H3  1  -0.17903655  -0.44004219  -0.33550305  1.0
  H  H4  1  -0.84421429  -0.38238339  -0.73722615  1.0
  H  H5  1  -0.15578571  -0.61761661  -0.26277385  1.0
  H  H6  1  -0.69559229  -0.83844915  -0.90356505  1.0
  H  H7  1  -0.30440771  -0.16155085  -0.09643495  1.0
  H  H8  1  -0.51639624  -0.56569838  -0.83144859  1.0
  H  H9  1  -0.48360376  -0.43430162  -0.16855141  1.0
  H  H10  1  -0.30580865  -0.36787269  -0.97943704  1.0
  H  H11  1  -0.69419135  -0.63212731  -0.02056296  1.0
  H  H12  1  -0.20990104  -0.77785507  -0.52894316  1.0
  H  H13  1  -0.79009896  -0.22214493  -0.47105684  1.0
  C  C14  1  -0.75548088  -0.03525129  -0.77163495  1.0
  C  C15  1  -0.24451912  -0.96474871  -0.22836505  1.0
  C  C16  1  -0.74553165  -0.93683813  -0.59184003  1.0
  C  C17  1  -0.25446835  -0.06316187  -0.40815997  1.0
  N  N18  1  -0.88346275  -0.45676540  -0.65726071  1.0
  N  N19  1  -0.11653725  -0.54323460  -0.34273929  1.0
  N  N20  1  -0.79500081  -0.21046362  -0.83553975  1.0
  N  N21  1  -0.20499919  -0.78953638  -0.16446025  1.0
  N  N22  1  -0.74593566  -0.89063077  -0.31886456  1.0
  N  N23  1  -0.25406434  -0.10936923  -0.68113544  1.0
  N  N24  1  -0.72941746  -0.76404846  -0.53023611  1.0
  N  N25  1  -0.27058254  -0.23595154  -0.46976389  1.0
  N  N26  1  -0.73042157  -0.74326625  -0.36086372  1.0
  N  N27  1  -0.26957843  -0.25673375  -0.63913628  1.0
  N  N28  1  -0.73125092  -0.97222450  -0.90358188  1.0
  N  N29  1  -0.26874908  -0.02777550  -0.09641812  1.0
  N  N30  1  -0.24423007  -0.98565809  -0.53380233  1.0
  N  N31  1  -0.75576993  -0.01434191  -0.46619767  1.0
  N  N32  1  -0.24337500  -0.89103266  -0.94996853  1.0
  N  N33  1  -0.75662500  -0.10896734  -0.05003147  1.0
  N  N34  1  -0.20502723  -0.74937110  -0.99229409  1.0
  N  N35  1  -0.79497277  -0.25062890  -0.00770591  1.0
  O  O36  1  -0.80722783  -0.34848279  -0.47063624  1.0
  O  O37  1  -0.19277217  -0.65151721  -0.52936376  1.0
  O  O38  1  -0.71897256  -0.59646597  -0.24671315  1.0
  O  O39  1  -0.28102744  -0.40353403  -0.75328685  1.0
  O  O40  1  -0.65927474  -0.63998761  -0.89584632  1.0
  O  O41  1  -0.34072526  -0.36001239  -0.10415368  1.0
