# generated using pymatgen
data_Rb6Si2O7
_symmetry_space_group_name_H-M   'P 1'
_cell_length_a   6.85364530
_cell_length_b   9.31261832
_cell_length_c   11.51710676
_cell_angle_alpha   90.00000000
_cell_angle_beta   125.38608984
_cell_angle_gamma   90.00000000
_symmetry_Int_Tables_number   1
_chemical_formula_structural   Rb6Si2O7
_chemical_formula_sum   'Rb12 Si4 O14'
_cell_volume   599.29055703
_cell_formula_units_Z   2
loop_
 _symmetry_equiv_pos_site_id
 _symmetry_equiv_pos_as_xyz
  1  'x, y, z'
loop_
 _atom_site_type_symbol
 _atom_site_label
 _atom_site_symmetry_multiplicity
 _atom_site_fract_x
 _atom_site_fract_y
 _atom_site_fract_z
 _atom_site_occupancy
  Rb  Rb0  1  0.89279122  0.72069067  0.27514472  1.0
  Rb  Rb1  1  0.89279122  0.77930933  0.77514472  1.0
  Rb  Rb2  1  0.10720878  0.22069067  0.22485528  1.0
  Rb  Rb3  1  0.10720878  0.27930933  0.72485528  1.0
  Rb  Rb4  1  0.70852569  0.02752860  0.45691074  1.0
  Rb  Rb5  1  0.70852569  0.47247140  0.95691074  1.0
  Rb  Rb6  1  0.29147431  0.52752860  0.04308926  1.0
  Rb  Rb7  1  0.29147431  0.97247140  0.54308926  1.0
  Rb  Rb8  1  0.47636771  0.14694716  0.09136841  1.0
  Rb  Rb9  1  0.47636771  0.35305284  0.59136841  1.0
  Rb  Rb10  1  0.52363229  0.64694716  0.40863159  1.0
  Rb  Rb11  1  0.52363229  0.85305284  0.90863159  1.0
  Si  Si12  1  0.83268384  0.36763340  0.37843908  1.0
  Si  Si13  1  0.83268384  0.13236660  0.87843908  1.0
  Si  Si14  1  0.16731616  0.86763340  0.12156092  1.0
  Si  Si15  1  0.16731616  0.63236660  0.62156092  1.0
  O  O16  1  0.00419778  0.22309917  0.43568996  1.0
  O  O17  1  0.00419778  0.27690083  0.93568996  1.0
  O  O18  1  0.99580222  0.72309917  0.06431004  1.0
  O  O19  1  0.99580222  0.77690083  0.56431004  1.0
  O  O20  1  0.76517181  0.42102288  0.22272614  1.0
  O  O21  1  0.76517181  0.07897712  0.72272614  1.0
  O  O22  1  0.23482819  0.92102288  0.27727386  1.0
  O  O23  1  0.23482819  0.57897712  0.77727386  1.0
  O  O24  1  0.59223240  0.34326399  0.37692554  1.0
  O  O25  1  0.59223240  0.15673601  0.87692554  1.0
  O  O26  1  0.40776760  0.84326399  0.12307446  1.0
  O  O27  1  0.40776760  0.65673601  0.62307446  1.0
  O  O28  1  -0.00000000  0.50000000  0.50000000  1.0
  O  O29  1  0.00000000  0.00000000  0.00000000  1.0
