# generated using pymatgen
data_YV(SeO4)2
_symmetry_space_group_name_H-M   'P 1'
_cell_length_a   5.50136283
_cell_length_b   5.50136283
_cell_length_c   10.83523814
_cell_angle_alpha   90.00000000
_cell_angle_beta   90.00000000
_cell_angle_gamma   97.02305715
_symmetry_Int_Tables_number   1
_chemical_formula_structural   YV(SeO4)2
_chemical_formula_sum   'Y2 V2 Se4 O16'
_cell_volume   325.46796862
_cell_formula_units_Z   2
loop_
 _symmetry_equiv_pos_site_id
 _symmetry_equiv_pos_as_xyz
  1  'x, y, z'
loop_
 _atom_site_type_symbol
 _atom_site_label
 _atom_site_symmetry_multiplicity
 _atom_site_fract_x
 _atom_site_fract_y
 _atom_site_fract_z
 _atom_site_occupancy
  Y  Y0  1  0.00489740  0.99510260  0.50000000  1.0
  Y  Y1  1  -0.49510260  1.49510260  0.50000000  1.0
  V  V2  1  0.00753371  -0.00753371  0.00000000  1.0
  V  V3  1  0.50753371  0.49246629  0.00000000  1.0
  Se  Se4  1  -0.59501029  1.09501029  0.77048645  1.0
  Se  Se5  1  -0.09501029  1.59501029  0.22951355  1.0
  Se  Se6  1  -0.55457463  1.05457463  0.30250199  1.0
  Se  Se7  1  -0.05457463  1.55457463  0.69749801  1.0
  O  O8  1  -0.89123506  1.01120839  0.82568657  1.0
  O  O9  1  -0.51120839  1.39123506  0.82568657  1.0
  O  O10  1  -0.39123506  1.51120839  0.17431343  1.0
  O  O11  1  -0.01120839  1.89123506  0.17431343  1.0
  O  O12  1  0.32901167  0.80608510  0.39100716  1.0
  O  O13  1  -0.30608510  1.17098833  0.39100716  1.0
  O  O14  1  -0.17098833  1.30608510  0.60899284  1.0
  O  O15  1  0.19391490  0.67098833  0.60899284  1.0
  O  O16  1  -0.20281477  1.70281477  0.96842973  1.0
  O  O17  1  -0.70281477  1.20281477  0.03157027  1.0
  O  O18  1  0.74854353  0.75145647  0.63389372  1.0
  O  O19  1  0.24854353  0.25145647  0.36610628  1.0
  O  O20  1  -0.68003943  1.18003943  0.62398335  1.0
  O  O21  1  -0.18003943  1.68003943  0.37601665  1.0
  O  O22  1  0.31268136  0.68731864  0.00000000  1.0
  O  O23  1  -0.18731864  1.18731864  0.00000000  1.0
