# generated using pymatgen
data_EuOF
_symmetry_space_group_name_H-M   'P 1'
_cell_length_a   6.90663075
_cell_length_b   6.90663075
_cell_length_c   6.90663075
_cell_angle_alpha   33.19415262
_cell_angle_beta   33.19415262
_cell_angle_gamma   33.19415262
_symmetry_Int_Tables_number   1
_chemical_formula_structural   EuOF
_chemical_formula_sum   'Eu2 O2 F2'
_cell_volume   87.90561745
_cell_formula_units_Z   2
loop_
 _symmetry_equiv_pos_site_id
 _symmetry_equiv_pos_as_xyz
  1  'x, y, z'
loop_
 _atom_site_type_symbol
 _atom_site_label
 _atom_site_symmetry_multiplicity
 _atom_site_fract_x
 _atom_site_fract_y
 _atom_site_fract_z
 _atom_site_occupancy
  Eu  Eu0  1  0.75820585  0.75820585  0.75820585  1.0
  Eu  Eu1  1  1.24179415  1.24179415  0.24179415  1.0
  O  O2  1  0.87699433  0.87699433  0.87699433  1.0
  O  O3  1  1.12300567  1.12300567  0.12300567  1.0
  F  F4  1  1.62903459  0.62903459  0.62903459  1.0
  F  F5  1  1.37096541  0.37096541  0.37096541  1.0
