# generated using pymatgen
data_Ba3In3Si2SbO14
_symmetry_space_group_name_H-M   'P 1'
_cell_length_a   8.82416376
_cell_length_b   8.82416376
_cell_length_c   5.49623576
_cell_angle_alpha   90.00000000
_cell_angle_beta   90.00000000
_cell_angle_gamma   120.00000000
_symmetry_Int_Tables_number   1
_chemical_formula_structural   Ba3In3Si2SbO14
_chemical_formula_sum   'Ba3 In3 Si2 Sb1 O14'
_cell_volume   370.63216241
_cell_formula_units_Z   1
loop_
 _symmetry_equiv_pos_site_id
 _symmetry_equiv_pos_as_xyz
  1  'x, y, z'
loop_
 _atom_site_type_symbol
 _atom_site_label
 _atom_site_symmetry_multiplicity
 _atom_site_fract_x
 _atom_site_fract_y
 _atom_site_fract_z
 _atom_site_occupancy
  Ba  Ba0  1  0.43524382  0.43524382  0.00000000  1.0
  Ba  Ba1  1  0.00000000  0.56475618  0.00000000  1.0
  Ba  Ba2  1  0.56475618  0.00000000  0.00000000  1.0
  In  In3  1  0.75670229  0.75670229  0.50000000  1.0
  In  In4  1  0.00000000  0.24329771  0.50000000  1.0
  In  In5  1  0.24329771  0.00000000  0.50000000  1.0
  Si  Si6  1  0.33333333  0.66666667  0.53866334  1.0
  Si  Si7  1  0.66666667  0.33333333  0.46133666  1.0
  Sb  Sb8  1  0.00000000  0.00000000  0.00000000  1.0
  O  O9  1  0.07767926  0.86647963  0.21679961  1.0
  O  O10  1  0.86647963  0.07767926  0.78320039  1.0
  O  O11  1  0.78880037  0.92232074  0.21679961  1.0
  O  O12  1  0.13352037  0.21119963  0.21679961  1.0
  O  O13  1  0.92232074  0.78880037  0.78320039  1.0
  O  O14  1  0.21119963  0.13352037  0.78320039  1.0
  O  O15  1  0.69535677  0.51809393  0.33546856  1.0
  O  O16  1  0.51809393  0.69535677  0.66453144  1.0
  O  O17  1  0.82273715  0.30464323  0.33546856  1.0
  O  O18  1  0.48190607  0.17726285  0.33546856  1.0
  O  O19  1  0.30464323  0.82273715  0.66453144  1.0
  O  O20  1  0.17726285  0.48190607  0.66453144  1.0
  O  O21  1  0.33333333  0.66666667  0.24381800  1.0
  O  O22  1  0.66666667  0.33333333  0.75618200  1.0
