# generated using pymatgen
data_C9Cl6O
_symmetry_space_group_name_H-M   'P 1'
_cell_length_a   12.12765442
_cell_length_b   6.44675318
_cell_length_c   21.18608341
_cell_angle_alpha   90.00000000
_cell_angle_beta   120.42341173
_cell_angle_gamma   90.00000000
_symmetry_Int_Tables_number   1
_chemical_formula_structural   C9Cl6O
_chemical_formula_sum   'C36 Cl24 O4'
_cell_volume   1428.33591935
_cell_formula_units_Z   4
loop_
 _symmetry_equiv_pos_site_id
 _symmetry_equiv_pos_as_xyz
  1  'x, y, z'
loop_
 _atom_site_type_symbol
 _atom_site_label
 _atom_site_symmetry_multiplicity
 _atom_site_fract_x
 _atom_site_fract_y
 _atom_site_fract_z
 _atom_site_occupancy
  C  C0  1  0.84930301  0.14484860  0.19608447  1.0
  C  C1  1  0.84930301  0.35515140  0.69608447  1.0
  C  C2  1  0.15069699  0.64484860  0.30391553  1.0
  C  C3  1  0.15069699  0.85515140  0.80391553  1.0
  C  C4  1  0.83779238  0.02894295  0.31074675  1.0
  C  C5  1  0.83779238  0.47105705  0.81074675  1.0
  C  C6  1  0.16220762  0.52894295  0.18925325  1.0
  C  C7  1  0.16220762  0.97105705  0.68925325  1.0
  C  C8  1  0.80670972  0.01400521  0.23850180  1.0
  C  C9  1  0.80670972  0.48599479  0.73850180  1.0
  C  C10  1  0.19329028  0.51400521  0.26149820  1.0
  C  C11  1  0.19329028  0.98599479  0.76149820  1.0
  C  C12  1  0.78401933  0.88384219  0.33804705  1.0
  C  C13  1  0.78401933  0.61615781  0.83804705  1.0
  C  C14  1  0.21598067  0.38384219  0.16195295  1.0
  C  C15  1  0.21598067  0.11615781  0.66195295  1.0
  C  C16  1  0.78572923  0.05075705  0.12149696  1.0
  C  C17  1  0.78572923  0.44924295  0.62149696  1.0
  C  C18  1  0.21427077  0.55075705  0.37850304  1.0
  C  C19  1  0.21427077  0.94924295  0.87850304  1.0
  C  C20  1  0.33022392  0.21615583  0.28270070  1.0
  C  C21  1  0.33022392  0.28384417  0.78270070  1.0
  C  C22  1  0.66977608  0.71615583  0.21729930  1.0
  C  C23  1  0.66977608  0.78384417  0.71729930  1.0
  C  C24  1  0.29915711  0.23025112  0.20838315  1.0
  C  C25  1  0.29915711  0.26974888  0.70838315  1.0
  C  C26  1  0.70084289  0.73025112  0.29161685  1.0
  C  C27  1  0.70084289  0.76974888  0.79161685  1.0
  C  C28  1  0.28636825  0.38588271  0.38087927  1.0
  C  C29  1  0.28636825  0.11411729  0.88087927  1.0
  C  C30  1  0.71363175  0.88588271  0.11912073  1.0
  C  C31  1  0.71363175  0.61411729  0.61912073  1.0
  C  C32  1  0.27631094  0.35797617  0.30862009  1.0
  C  C33  1  0.27631094  0.14202383  0.80862009  1.0
  C  C34  1  0.72368906  0.85797617  0.19137991  1.0
  C  C35  1  0.72368906  0.64202383  0.69137991  1.0
  Cl  Cl36  1  0.93970090  0.21771268  0.36748279  1.0
  Cl  Cl37  1  0.93970090  0.28228732  0.86748279  1.0
  Cl  Cl38  1  0.06029910  0.71771268  0.13251721  1.0
  Cl  Cl39  1  0.06029910  0.78228732  0.63251721  1.0
  Cl  Cl40  1  0.82135786  0.89721737  0.42763497  1.0
  Cl  Cl41  1  0.82135786  0.60278263  0.92763497  1.0
  Cl  Cl42  1  0.17864214  0.39721737  0.07236503  1.0
  Cl  Cl43  1  0.17864214  0.10278263  0.57236503  1.0
  Cl  Cl44  1  0.80579914  0.14397255  0.05311654  1.0
  Cl  Cl45  1  0.80579914  0.35602745  0.55311654  1.0
  Cl  Cl46  1  0.19420086  0.64397255  0.44688346  1.0
  Cl  Cl47  1  0.19420086  0.85602745  0.94688346  1.0
  Cl  Cl48  1  0.63552778  0.55606070  0.32481875  1.0
  Cl  Cl49  1  0.63552778  -0.05606070  0.82481875  1.0
  Cl  Cl50  1  0.36447222  1.05606070  0.17518125  1.0
  Cl  Cl51  1  0.36447222  0.44393930  0.67518125  1.0
  Cl  Cl52  1  0.56571356  0.52422120  0.16299000  1.0
  Cl  Cl53  1  0.56571356  -0.02422120  0.66299000  1.0
  Cl  Cl54  1  0.43428644  1.02422120  0.33701000  1.0
  Cl  Cl55  1  0.43428644  0.47577880  0.83701000  1.0
  Cl  Cl56  1  0.37308377  0.23533410  0.45611570  1.0
  Cl  Cl57  1  0.37308377  0.26466590  0.95611570  1.0
  Cl  Cl58  1  0.62691623  0.73533410  0.04388430  1.0
  Cl  Cl59  1  0.62691623  0.76466590  0.54388430  1.0
  O  O60  1  0.91885135  0.29649672  0.21645938  1.0
  O  O61  1  0.91885135  0.20350328  0.71645938  1.0
  O  O62  1  0.08114865  0.79649672  0.28354062  1.0
  O  O63  1  0.08114865  0.70350328  0.78354062  1.0
