# generated using pymatgen
data_Cs2LiNbS4
_symmetry_space_group_name_H-M   'P 1'
_cell_length_a   7.47128976
_cell_length_b   7.01291994
_cell_length_c   9.98837649
_cell_angle_alpha   93.08068891
_cell_angle_beta   97.44435496
_cell_angle_gamma   90.34583434
_symmetry_Int_Tables_number   1
_chemical_formula_structural   Cs2LiNbS4
_chemical_formula_sum   'Cs4 Li2 Nb2 S8'
_cell_volume   518.14074194
_cell_formula_units_Z   2
loop_
 _symmetry_equiv_pos_site_id
 _symmetry_equiv_pos_as_xyz
  1  'x, y, z'
loop_
 _atom_site_type_symbol
 _atom_site_label
 _atom_site_symmetry_multiplicity
 _atom_site_fract_x
 _atom_site_fract_y
 _atom_site_fract_z
 _atom_site_occupancy
  Cs  Cs0  1  -0.79878631  -0.85833528  -0.34594804  1.0
  Cs  Cs1  1  -0.20121369  -0.14166472  -0.65405196  1.0
  Cs  Cs2  1  -0.24026776  -0.70325692  -0.98668162  1.0
  Cs  Cs3  1  -0.75973224  -0.29674308  -0.01331838  1.0
  Li  Li4  1  -0.66770160  -0.40040994  -0.57759563  1.0
  Li  Li5  1  -0.33229840  -0.59959006  -0.42240437  1.0
  Nb  Nb6  1  -0.70172204  -0.78274444  -0.75033452  1.0
  Nb  Nb7  1  -0.29827796  -0.21725556  -0.24966548  1.0
  S  S8  1  -0.29878186  -0.91557458  -0.32635482  1.0
  S  S9  1  -0.70121814  -0.08442542  -0.67364518  1.0
  S  S10  1  -0.74024517  -0.79604540  -0.98048248  1.0
  S  S11  1  -0.25975483  -0.20395460  -0.01951752  1.0
  S  S12  1  -0.92723470  -0.61266720  -0.67003256  1.0
  S  S13  1  -0.07276530  -0.38733280  -0.32996744  1.0
  S  S14  1  -0.43907523  -0.61528778  -0.66991287  1.0
  S  S15  1  -0.56092477  -0.38471222  -0.33008713  1.0
