# generated using pymatgen
data_KNiHC2(SN2)2
_symmetry_space_group_name_H-M   'P 1'
_cell_length_a   4.47554994
_cell_length_b   18.57326535
_cell_length_c   10.50061890
_cell_angle_alpha   90.00000000
_cell_angle_beta   98.29154909
_cell_angle_gamma   90.00000000
_symmetry_Int_Tables_number   1
_chemical_formula_structural   KNiHC2(SN2)2
_chemical_formula_sum   'K4 Ni4 H4 C8 S8 N16'
_cell_volume   863.74595277
_cell_formula_units_Z   4
loop_
 _symmetry_equiv_pos_site_id
 _symmetry_equiv_pos_as_xyz
  1  'x, y, z'
loop_
 _atom_site_type_symbol
 _atom_site_label
 _atom_site_symmetry_multiplicity
 _atom_site_fract_x
 _atom_site_fract_y
 _atom_site_fract_z
 _atom_site_occupancy
  K  K0  1  0.23223373  0.57624650  0.63551671  1.0
  K  K1  1  0.23223373  0.92375350  0.13551671  1.0
  K  K2  1  0.76776627  0.07624650  0.86448329  1.0
  K  K3  1  0.76776627  0.42375350  0.36448329  1.0
  Ni  Ni4  1  0.31084567  0.88705320  0.70468055  1.0
  Ni  Ni5  1  0.31084567  0.61294680  0.20468055  1.0
  Ni  Ni6  1  0.68915433  0.38705320  0.79531945  1.0
  Ni  Ni7  1  0.68915433  0.11294680  0.29531945  1.0
  H  H8  1  0.02901113  0.39788589  1.01916600  1.0
  H  H9  1  0.02901113  0.10211411  0.51916600  1.0
  H  H10  1  0.97098887  0.89788589  0.48083400  1.0
  H  H11  1  0.97098887  0.60211411  -0.01916600  1.0
  C  C12  1  0.23936736  0.98457248  0.68331841  1.0
  C  C13  1  0.23936736  0.51542752  0.18331841  1.0
  C  C14  1  0.76063264  0.48457248  0.81668159  1.0
  C  C15  1  0.76063264  0.01542752  0.31668159  1.0
  C  C16  1  0.54625501  0.90679612  0.85656299  1.0
  C  C17  1  0.54625501  0.59320388  0.35656299  1.0
  C  C18  1  0.45374499  0.40679612  0.64343701  1.0
  C  C19  1  0.45374499  0.09320388  0.14343701  1.0
  S  S20  1  -0.01529004  0.28030597  0.99132347  1.0
  S  S21  1  -0.01529004  0.21969403  0.49132347  1.0
  S  S22  1  1.01529004  0.78030597  0.50867653  1.0
  S  S23  1  1.01529004  0.71969403  0.00867653  1.0
  S  S24  1  0.39336983  0.77559916  0.74256032  1.0
  S  S25  1  0.39336983  0.72440084  0.24256032  1.0
  S  S26  1  0.60663017  0.27559916  0.75743968  1.0
  S  S27  1  0.60663017  0.22440084  0.25743968  1.0
  N  N28  1  0.07562037  0.86316742  0.55089109  1.0
  N  N29  1  0.07562037  0.63683258  0.05089109  1.0
  N  N30  1  0.92437963  0.36316742  0.94910891  1.0
  N  N31  1  0.92437963  0.13683258  0.44910891  1.0
  N  N32  1  0.19555670  0.73318394  0.61721892  1.0
  N  N33  1  0.19555670  0.76681606  0.11721892  1.0
  N  N34  1  0.80444330  0.23318394  0.88278108  1.0
  N  N35  1  0.80444330  0.26681606  0.38278108  1.0
  N  N36  1  0.19553447  0.45295743  0.17748961  1.0
  N  N37  1  0.19553447  0.04704257  0.67748961  1.0
  N  N38  1  0.80446553  0.95295743  0.32251039  1.0
  N  N39  1  0.80446553  0.54704257  0.82251039  1.0
  N  N40  1  0.30496820  0.42171933  0.54526416  1.0
  N  N41  1  0.30496820  0.07828067  0.04526416  1.0
  N  N42  1  0.69503180  0.92171933  0.95473584  1.0
  N  N43  1  0.69503180  0.57828067  0.45473584  1.0
