# generated using pymatgen
data_Mg2ZnB2Ir5
_symmetry_space_group_name_H-M   'P 1'
_cell_length_a   9.46232701
_cell_length_b   9.46232701
_cell_length_c   2.93272456
_cell_angle_alpha   90.00000000
_cell_angle_beta   90.00000000
_cell_angle_gamma   90.00000000
_symmetry_Int_Tables_number   1
_chemical_formula_structural   Mg2ZnB2Ir5
_chemical_formula_sum   'Mg4 Zn2 B4 Ir10'
_cell_volume   262.58334778
_cell_formula_units_Z   2
loop_
 _symmetry_equiv_pos_site_id
 _symmetry_equiv_pos_as_xyz
  1  'x, y, z'
loop_
 _atom_site_type_symbol
 _atom_site_label
 _atom_site_symmetry_multiplicity
 _atom_site_fract_x
 _atom_site_fract_y
 _atom_site_fract_z
 _atom_site_occupancy
  Mg  Mg0  1  0.32301503  0.17698497  0.00000000  1.0
  Mg  Mg1  1  0.82301503  0.32301503  0.00000000  1.0
  Mg  Mg2  1  0.67698497  0.82301503  0.00000000  1.0
  Mg  Mg3  1  0.17698497  0.67698497  0.00000000  1.0
  Zn  Zn4  1  0.50000000  0.50000000  0.00000000  1.0
  Zn  Zn5  1  0.00000000  0.00000000  0.00000000  1.0
  B  B6  1  0.87270865  0.62729135  0.00000000  1.0
  B  B7  1  0.37270865  0.87270865  0.00000000  1.0
  B  B8  1  0.12729135  0.37270865  0.00000000  1.0
  B  B9  1  0.62729135  0.12729135  0.00000000  1.0
  Ir  Ir10  1  0.42995650  0.71601359  0.50000000  1.0
  Ir  Ir11  1  0.92995650  0.78398641  0.50000000  1.0
  Ir  Ir12  1  0.28398641  0.42995650  0.50000000  1.0
  Ir  Ir13  1  0.78398641  0.07004350  0.50000000  1.0
  Ir  Ir14  1  0.57004350  0.28398641  0.50000000  1.0
  Ir  Ir15  1  0.07004350  0.21601359  0.50000000  1.0
  Ir  Ir16  1  0.71601359  0.57004350  0.50000000  1.0
  Ir  Ir17  1  0.21601359  0.92995650  0.50000000  1.0
  Ir  Ir18  1  0.50000000  0.00000000  0.50000000  1.0
  Ir  Ir19  1  0.00000000  0.50000000  0.50000000  1.0
