# generated using pymatgen
data_Cr2O3
_symmetry_space_group_name_H-M   'P 1'
_cell_length_a   5.37912249
_cell_length_b   5.37912249
_cell_length_c   5.37912249
_cell_angle_alpha   55.78469888
_cell_angle_beta   55.78469888
_cell_angle_gamma   55.78469889
_symmetry_Int_Tables_number   1
_chemical_formula_structural   Cr2O3
_chemical_formula_sum   'Cr4 O6'
_cell_volume   99.29928041
_cell_formula_units_Z   2
loop_
 _symmetry_equiv_pos_site_id
 _symmetry_equiv_pos_as_xyz
  1  'x, y, z'
loop_
 _atom_site_type_symbol
 _atom_site_label
 _atom_site_symmetry_multiplicity
 _atom_site_fract_x
 _atom_site_fract_y
 _atom_site_fract_z
 _atom_site_occupancy
  Cr  Cr0  1  0.84993908  -0.15006092  -0.15006092  1.0
  Cr  Cr1  1  0.34993908  0.34993908  0.34993908  1.0
  Cr  Cr2  1  0.65006092  0.65006092  -0.34993908  1.0
  Cr  Cr3  1  1.15006092  0.15006092  0.15006092  1.0
  O  O4  1  0.44823023  0.75000000  0.05176977  1.0
  O  O5  1  0.94823023  -0.44823023  0.25000000  1.0
  O  O6  1  0.25000000  0.94823023  -0.44823023  1.0
  O  O7  1  0.75000000  1.05176977  -0.55176977  1.0
  O  O8  1  0.55176977  0.25000000  -0.05176977  1.0
  O  O9  1  1.05176977  0.44823023  -0.25000000  1.0
