# generated using pymatgen
data_V2Cu3Pb(ClO4)2
_symmetry_space_group_name_H-M   'P 1'
_cell_length_a   8.61476278
_cell_length_b   8.61476278
_cell_length_c   8.61476278
_cell_angle_alpha   116.67435286
_cell_angle_beta   97.58431231
_cell_angle_gamma   114.77752449
_symmetry_Int_Tables_number   1
_chemical_formula_structural   V2Cu3Pb(ClO4)2
_chemical_formula_sum   'V4 Cu6 Pb2 Cl4 O16'
_cell_volume   476.61585188
_cell_formula_units_Z   2
loop_
 _symmetry_equiv_pos_site_id
 _symmetry_equiv_pos_as_xyz
  1  'x, y, z'
loop_
 _atom_site_type_symbol
 _atom_site_label
 _atom_site_symmetry_multiplicity
 _atom_site_fract_x
 _atom_site_fract_y
 _atom_site_fract_z
 _atom_site_occupancy
  O  O0  1  0.75523663  0.76830590  0.79063446  1.0
  O  O1  1  1.02232855  1.03539783  0.79063446  1.0
  O  O2  1  0.47767145  1.26830590  1.01306927  1.0
  O  O3  1  0.74476337  1.53539783  1.01306927  1.0
  O  O4  1  1.25523663  1.46460217  0.98693073  1.0
  O  O5  1  0.52232855  0.73169410  0.98693073  1.0
  O  O6  1  0.97767145  0.96460217  0.20936554  1.0
  O  O7  1  0.24476337  0.23169410  0.20936554  1.0
  O  O8  1  0.63924086  0.45801906  0.41309850  1.0
  O  O9  1  0.95507944  0.77385765  0.41309850  1.0
  O  O10  1  1.54492056  0.95801906  0.81877821  1.0
  O  O11  1  0.86075914  1.27385765  0.81877821  1.0
  O  O12  1  1.13924086  1.72614235  1.18122179  1.0
  O  O13  1  1.45507944  1.04198094  1.18122179  1.0
  O  O14  1  1.04492056  1.22614235  0.58690150  1.0
  O  O15  1  0.36075914  0.54198094  0.58690150  1.0
  Cu  Cu16  1  0.82338982  0.75123592  0.57462574  1.0
  Cu  Cu17  1  0.67661018  1.25123592  0.92784610  1.0
  Cu  Cu18  1  0.32338982  0.74876408  1.07215390  1.0
  Cu  Cu19  1  0.17661018  0.24876408  0.42537426  1.0
  Cu  Cu20  1  0.00000000  0.00000000  0.00000000  1.0
  Cu  Cu21  1  0.50000000  0.50000000  0.00000000  1.0
  V  V22  1  0.54471414  0.75000000  0.79471414  1.0
  V  V23  1  1.04471414  1.25000000  0.79471414  1.0
  V  V24  1  0.45528586  0.25000000  0.20528586  1.0
  V  V25  1  0.95528586  0.75000000  0.20528586  1.0
  Cl  Cl26  1  1.08420631  0.68413862  0.76834493  1.0
  Cl  Cl27  1  0.41579369  0.18413862  0.59993231  1.0
  Cl  Cl28  1  1.58420631  0.81586138  1.40006769  1.0
  Cl  Cl29  1  -0.08420631  0.31586138  0.23165507  1.0
  Pb  Pb30  1  0.75000000  1.25000000  0.50000000  1.0
  Pb  Pb31  1  1.25000000  0.75000000  0.50000000  1.0
