# generated using pymatgen
data_Hg3As2F12
_symmetry_space_group_name_H-M   'P 1'
_cell_length_a   6.20847668
_cell_length_b   8.70883112
_cell_length_c   11.93658730
_cell_angle_alpha   90.00000000
_cell_angle_beta   92.83811091
_cell_angle_gamma   90.00000000
_symmetry_Int_Tables_number   1
_chemical_formula_structural   Hg3As2F12
_chemical_formula_sum   'Hg6 As4 F24'
_cell_volume   644.60263965
_cell_formula_units_Z   2
loop_
 _symmetry_equiv_pos_site_id
 _symmetry_equiv_pos_as_xyz
  1  'x, y, z'
loop_
 _atom_site_type_symbol
 _atom_site_label
 _atom_site_symmetry_multiplicity
 _atom_site_fract_x
 _atom_site_fract_y
 _atom_site_fract_z
 _atom_site_occupancy
  Hg  Hg0  1  0.77348968  0.24143069  0.93553634  1.0
  Hg  Hg1  1  0.77348968  0.25856931  0.43553634  1.0
  Hg  Hg2  1  0.22651032  0.74143069  0.56446366  1.0
  Hg  Hg3  1  0.22651032  0.75856931  0.06446366  1.0
  Hg  Hg4  1  0.00000000  0.00000000  0.00000000  1.0
  Hg  Hg5  1  -0.00000000  0.50000000  0.50000000  1.0
  As  As6  1  0.70166337  0.64437694  0.82890949  1.0
  As  As7  1  0.70166337  0.85562306  0.32890949  1.0
  As  As8  1  0.29833663  0.14437694  0.67109051  1.0
  As  As9  1  0.29833663  0.35562306  0.17109051  1.0
  F  F10  1  0.95830842  0.57092376  0.87938114  1.0
  F  F11  1  0.95830842  0.92907624  0.37938114  1.0
  F  F12  1  0.04169158  0.07092376  0.62061886  1.0
  F  F13  1  0.04169158  0.42907624  0.12061886  1.0
  F  F14  1  0.82281165  0.81666785  0.78184861  1.0
  F  F15  1  0.82281165  0.68333215  0.28184861  1.0
  F  F16  1  0.17718835  0.31666785  0.71815139  1.0
  F  F17  1  0.17718835  0.18333215  0.21815139  1.0
  F  F18  1  0.73159371  0.55383621  0.69583952  1.0
  F  F19  1  0.73159371  0.94616379  0.19583952  1.0
  F  F20  1  0.26840629  0.05383621  0.80416048  1.0
  F  F21  1  0.26840629  0.44616379  0.30416048  1.0
  F  F22  1  0.66370759  0.73161852  0.96360112  1.0
  F  F23  1  0.66370759  0.76838148  0.46360112  1.0
  F  F24  1  0.33629241  0.23161852  0.53639888  1.0
  F  F25  1  0.33629241  0.26838148  0.03639888  1.0
  F  F26  1  0.58111907  0.46616252  0.88130871  1.0
  F  F27  1  0.58111907  0.03383748  0.38130871  1.0
  F  F28  1  0.41888093  0.96616252  0.61869129  1.0
  F  F29  1  0.41888093  0.53383748  0.11869129  1.0
  F  F30  1  0.43575801  0.70494149  0.78384319  1.0
  F  F31  1  0.43575801  0.79505851  0.28384319  1.0
  F  F32  1  0.56424199  0.20494149  0.71615681  1.0
  F  F33  1  0.56424199  0.29505851  0.21615681  1.0
