# generated using pymatgen
data_Li2Pd3S4
_symmetry_space_group_name_H-M   'P 1'
_cell_length_a   4.98011755
_cell_length_b   10.19955043
_cell_length_c   6.17907840
_cell_angle_alpha   90.00000000
_cell_angle_beta   110.69057598
_cell_angle_gamma   90.00000000
_symmetry_Int_Tables_number   1
_chemical_formula_structural   Li2Pd3S4
_chemical_formula_sum   'Li4 Pd6 S8'
_cell_volume   293.62235816
_cell_formula_units_Z   2
loop_
 _symmetry_equiv_pos_site_id
 _symmetry_equiv_pos_as_xyz
  1  'x, y, z'
loop_
 _atom_site_type_symbol
 _atom_site_label
 _atom_site_symmetry_multiplicity
 _atom_site_fract_x
 _atom_site_fract_y
 _atom_site_fract_z
 _atom_site_occupancy
  Li  Li0  1  0.62714155  0.69812510  0.48350402  1.0
  Li  Li1  1  0.37285845  0.19812510  0.01649598  1.0
  Li  Li2  1  0.37285845  0.30187490  0.51649598  1.0
  Li  Li3  1  0.62714155  0.80187490  0.98350402  1.0
  Pd  Pd4  1  0.26256224  0.62593825  0.02572317  1.0
  Pd  Pd5  1  0.73743776  0.12593825  0.47427683  1.0
  Pd  Pd6  1  0.73743776  0.37406175  0.97427683  1.0
  Pd  Pd7  1  0.26256224  0.87406175  0.52572317  1.0
  Pd  Pd8  1  0.00000000  0.00000000  0.00000000  1.0
  Pd  Pd9  1  -0.00000000  0.50000000  0.50000000  1.0
  S  S10  1  0.03989641  0.69102748  0.29179340  1.0
  S  S11  1  0.96010359  0.19102748  0.20820660  1.0
  S  S12  1  0.96010359  0.30897252  0.70820660  1.0
  S  S13  1  0.03989641  0.80897252  0.79179340  1.0
  S  S14  1  0.46869003  0.94752933  0.25914670  1.0
  S  S15  1  0.53130997  0.44752933  0.24085330  1.0
  S  S16  1  0.53130997  0.05247067  0.74085330  1.0
  S  S17  1  0.46869003  0.55247067  0.75914670  1.0
