# generated using pymatgen
data_LuVO4
_symmetry_space_group_name_H-M   'P 1'
_cell_length_a   5.91422836
_cell_length_b   5.91422836
_cell_length_c   5.91422836
_cell_angle_alpha   106.26031667
_cell_angle_beta   106.26031667
_cell_angle_gamma   116.10364176
_symmetry_Int_Tables_number   1
_chemical_formula_structural   LuVO4
_chemical_formula_sum   'Lu2 V2 O8'
_cell_volume   157.62899212
_cell_formula_units_Z   2
loop_
 _symmetry_equiv_pos_site_id
 _symmetry_equiv_pos_as_xyz
  1  'x, y, z'
loop_
 _atom_site_type_symbol
 _atom_site_label
 _atom_site_symmetry_multiplicity
 _atom_site_fract_x
 _atom_site_fract_y
 _atom_site_fract_z
 _atom_site_occupancy
  Lu  Lu0  1  0.25000000  0.75000000  0.50000000  1.0
  Lu  Lu1  1  0.50000000  0.50000000  -0.00000000  1.0
  V  V2  1  -0.00000000  -0.00000000  -0.00000000  1.0
  V  V3  1  0.75000000  1.25000000  0.50000000  1.0
  O  O4  1  0.17496105  0.36147924  0.18651819  1.0
  O  O5  1  1.11147924  1.42496105  0.68651819  1.0
  O  O6  1  0.73844286  0.42496105  0.31348181  1.0
  O  O7  1  0.17496105  0.98844286  0.81348181  1.0
  O  O8  1  0.57503895  0.88852076  0.31348181  1.0
  O  O9  1  1.63852076  0.82503895  0.81348181  1.0
  O  O10  1  1.01155714  0.82503895  1.18651819  1.0
  O  O11  1  0.57503895  1.26155714  0.68651819  1.0
