# generated using pymatgen
data_CaAl2Si(HO2)2
_symmetry_space_group_name_H-M   'P 1'
_cell_length_a   16.58191164
_cell_length_b   16.58191164
_cell_length_c   16.58191164
_cell_angle_alpha   160.28297468
_cell_angle_beta   160.28297468
_cell_angle_gamma   28.02524279
_symmetry_Int_Tables_number   1
_chemical_formula_structural   CaAl2Si(HO2)2
_chemical_formula_sum   'Ca4 Al8 Si4 H8 O16'
_cell_volume   518.71814997
_cell_formula_units_Z   4
loop_
 _symmetry_equiv_pos_site_id
 _symmetry_equiv_pos_as_xyz
  1  'x, y, z'
loop_
 _atom_site_type_symbol
 _atom_site_label
 _atom_site_symmetry_multiplicity
 _atom_site_fract_x
 _atom_site_fract_y
 _atom_site_fract_z
 _atom_site_occupancy
  Ca  Ca0  1  0.87500000  0.12500000  0.75000000  1.0
  Ca  Ca1  1  0.37500000  0.12500000  0.25000000  1.0
  Ca  Ca2  1  0.87500000  0.62500000  0.75000000  1.0
  Ca  Ca3  1  0.87500000  1.12500000  1.25000000  1.0
  Al  Al4  1  1.10359327  0.44060344  0.99842849  1.0
  Al  Al5  1  1.30782505  1.14483523  1.49842849  1.0
  Al  Al6  1  0.55939656  0.55782505  0.66298983  1.0
  Al  Al7  1  -0.14483523  0.35359327  0.16298983  1.0
  Al  Al8  1  0.44217495  0.10516477  0.00157151  1.0
  Al  Al9  1  0.64640673  0.80939656  0.50157151  1.0
  Al  Al10  1  0.89483523  0.89640673  1.33701017  1.0
  Al  Al11  1  0.19060344  0.69217495  0.83701017  1.0
  Si  Si12  1  0.37500000  0.62500000  0.75000000  1.0
  Si  Si13  1  0.87500000  0.62500000  1.25000000  1.0
  Si  Si14  1  0.37500000  1.12500000  0.75000000  1.0
  Si  Si15  1  0.37500000  0.62500000  0.25000000  1.0
  H  H16  1  1.03563193  0.64263185  1.51704486  1.0
  H  H17  1  0.62441300  0.73141292  1.01704486  1.0
  H  H18  1  1.35736815  0.87441300  1.39300008  1.0
  H  H19  1  1.26858708  1.28563193  1.89300008  1.0
  H  H20  1  0.12558700  0.51858708  0.48295514  1.0
  H  H21  1  0.71436807  0.60736815  0.98295514  1.0
  H  H22  1  0.48141292  0.96436807  0.60699992  1.0
  H  H23  1  0.39263185  0.37558700  0.10699992  1.0
  O  O24  1  0.59752890  1.06637691  1.02123190  1.0
  O  O25  1  0.70485499  0.67370300  0.52123190  1.0
  O  O26  1  0.93362309  0.95485499  1.53115200  1.0
  O  O27  1  0.32629700  0.84752890  1.03115200  1.0
  O  O28  1  1.04514501  0.57629700  0.97876810  1.0
  O  O29  1  1.15247110  1.18362309  1.47876810  1.0
  O  O30  1  0.42370300  0.40247110  0.46884800  1.0
  O  O31  1  0.81637691  0.29514501  0.96884800  1.0
  O  O32  1  0.85302869  0.67004398  1.49683360  1.0
  O  O33  1  0.57678962  0.89380492  0.99683360  1.0
  O  O34  1  1.32995602  0.82678962  1.18298470  1.0
  O  O35  1  1.10619508  1.10302869  1.68298470  1.0
  O  O36  1  0.17321038  0.35619508  0.50316640  1.0
  O  O37  1  0.89697131  0.57995602  1.00316640  1.0
  O  O38  1  0.64380492  1.14697131  0.81701530  1.0
  O  O39  1  0.42004398  0.42321038  0.31701530  1.0
