# generated using pymatgen
data_CaSO4
_symmetry_space_group_name_H-M   'P 1'
_cell_length_a   5.29593630
_cell_length_b   7.70519440
_cell_length_c   9.57990275
_cell_angle_alpha   90.00000000
_cell_angle_beta   119.32717836
_cell_angle_gamma   90.00000000
_symmetry_Int_Tables_number   1
_chemical_formula_structural   CaSO4
_chemical_formula_sum   'Ca4 S4 O16'
_cell_volume   340.81819095
_cell_formula_units_Z   4
loop_
 _symmetry_equiv_pos_site_id
 _symmetry_equiv_pos_as_xyz
  1  'x, y, z'
loop_
 _atom_site_type_symbol
 _atom_site_label
 _atom_site_symmetry_multiplicity
 _atom_site_fract_x
 _atom_site_fract_y
 _atom_site_fract_z
 _atom_site_occupancy
  Ca  Ca0  1  0.50125369  0.47123403  0.21525465  1.0
  Ca  Ca1  1  0.50125369  0.02876597  0.71525465  1.0
  Ca  Ca2  1  0.49874631  0.97123403  0.28474535  1.0
  Ca  Ca3  1  0.49874631  0.52876597  0.78474535  1.0
  S  S4  1  0.85779552  0.22608063  0.11270933  1.0
  S  S5  1  0.85779552  0.27391937  0.61270933  1.0
  S  S6  1  0.14220448  0.72608063  0.38729067  1.0
  S  S7  1  0.14220448  0.77391937  0.88729067  1.0
  O  O8  1  0.75911772  0.19194271  0.23303170  1.0
  O  O9  1  0.75911772  0.30805729  0.73303170  1.0
  O  O10  1  0.24088228  0.69194271  0.26696830  1.0
  O  O11  1  0.24088228  0.80805729  0.76696830  1.0
  O  O12  1  0.81634869  0.72770191  0.30422079  1.0
  O  O13  1  0.81634869  0.77229809  0.80422079  1.0
  O  O14  1  0.18365131  0.22770191  0.19577921  1.0
  O  O15  1  0.18365131  0.27229809  0.69577921  1.0
  O  O16  1  0.74172405  0.40617436  0.48621026  1.0
  O  O17  1  0.74172405  0.09382564  0.98621026  1.0
  O  O18  1  0.25827595  0.90617436  0.01378974  1.0
  O  O19  1  0.25827595  0.59382564  0.51378974  1.0
  O  O20  1  0.75031358  0.40549826  0.04903408  1.0
  O  O21  1  0.75031358  0.09450174  0.54903408  1.0
  O  O22  1  0.24968642  0.90549826  0.45096592  1.0
  O  O23  1  0.24968642  0.59450174  0.95096592  1.0
