# generated using pymatgen
data_ZnPS3
_symmetry_space_group_name_H-M   'P 1'
_cell_length_a   6.01534044
_cell_length_b   6.01534044
_cell_length_c   7.59752123
_cell_angle_alpha   82.46961365
_cell_angle_beta   97.53038635
_cell_angle_gamma   59.98047596
_symmetry_Int_Tables_number   1
_chemical_formula_structural   ZnPS3
_chemical_formula_sum   'Zn2 P2 S6'
_cell_volume   229.70645349
_cell_formula_units_Z   2
loop_
 _symmetry_equiv_pos_site_id
 _symmetry_equiv_pos_as_xyz
  1  'x, y, z'
loop_
 _atom_site_type_symbol
 _atom_site_label
 _atom_site_symmetry_multiplicity
 _atom_site_fract_x
 _atom_site_fract_y
 _atom_site_fract_z
 _atom_site_occupancy
  Zn  Zn0  1  0.83328227  -0.16671773  -0.00000000  1.0
  Zn  Zn1  1  1.16671773  0.16671773  -0.00000000  1.0
  P  P2  1  0.44967770  -0.44967770  0.84907885  1.0
  P  P3  1  0.55032230  -0.55032230  0.15092115  1.0
  S  S4  1  0.42660408  -0.09690405  0.77953986  1.0
  S  S5  1  1.09690405  0.57339592  0.77953986  1.0
  S  S6  1  0.90309595  -0.57339592  0.22046014  1.0
  S  S7  1  1.57339592  0.09690405  0.22046014  1.0
  S  S8  1  0.75639642  -0.75639642  0.77935442  1.0
  S  S9  1  0.24360358  -0.24360358  0.22064558  1.0
