# generated using pymatgen
data_Al2NiO4
_symmetry_space_group_name_H-M   'P 1'
_cell_length_a   5.76782471
_cell_length_b   5.76782471
_cell_length_c   5.76782471
_cell_angle_alpha   60.00000000
_cell_angle_beta   60.00000000
_cell_angle_gamma   60.00000000
_symmetry_Int_Tables_number   1
_chemical_formula_structural   Al2NiO4
_chemical_formula_sum   'Al4 Ni2 O8'
_cell_volume   135.68166441
_cell_formula_units_Z   2
loop_
 _symmetry_equiv_pos_site_id
 _symmetry_equiv_pos_as_xyz
  1  'x, y, z'
loop_
 _atom_site_type_symbol
 _atom_site_label
 _atom_site_symmetry_multiplicity
 _atom_site_fract_x
 _atom_site_fract_y
 _atom_site_fract_z
 _atom_site_occupancy
  Al  Al0  1  0.12500000  0.12500000  1.62500000  1.0
  Al  Al1  1  0.12500000  0.62500000  0.12500000  1.0
  Al  Al2  1  0.62500000  0.12500000  1.12500000  1.0
  Al  Al3  1  0.12500000  0.12500000  0.12500000  1.0
  Ni  Ni4  1  0.75000000  -0.25000000  0.75000000  1.0
  Ni  Ni5  1  0.50000000  0.50000000  -0.50000000  1.0
  O  O6  1  0.36083005  0.36083005  -0.08249015  1.0
  O  O7  1  0.36083005  -0.08249015  0.36083005  1.0
  O  O8  1  -0.08249015  0.36083005  0.36083005  1.0
  O  O9  1  0.36083005  0.36083005  0.36083005  1.0
  O  O10  1  -0.11083005  0.88916995  0.33249015  1.0
  O  O11  1  0.88916995  -0.66750985  0.88916995  1.0
  O  O12  1  -0.66750985  0.88916995  0.88916995  1.0
  O  O13  1  0.88916995  -0.11083005  0.88916995  1.0
