# generated using pymatgen
data_Y2Ni17
_symmetry_space_group_name_H-M   'P 1'
_cell_length_a   8.29855750
_cell_length_b   8.29855750
_cell_length_c   8.02505949
_cell_angle_alpha   90.00000000
_cell_angle_beta   90.00000000
_cell_angle_gamma   120.00000000
_symmetry_Int_Tables_number   1
_chemical_formula_structural   Y2Ni17
_chemical_formula_sum   'Y4 Ni34'
_cell_volume   478.61257722
_cell_formula_units_Z   2
loop_
 _symmetry_equiv_pos_site_id
 _symmetry_equiv_pos_as_xyz
  1  'x, y, z'
loop_
 _atom_site_type_symbol
 _atom_site_label
 _atom_site_symmetry_multiplicity
 _atom_site_fract_x
 _atom_site_fract_y
 _atom_site_fract_z
 _atom_site_occupancy
  Y  Y0  1  0.33333333  0.66666667  0.25000000  1.0
  Y  Y1  1  0.66666667  0.33333333  0.75000000  1.0
  Y  Y2  1  -0.00000000  -0.00000000  0.25000000  1.0
  Y  Y3  1  0.00000000  0.00000000  0.75000000  1.0
  Ni  Ni4  1  0.16583926  0.83416074  0.47935959  1.0
  Ni  Ni5  1  0.16583926  0.83416074  0.02064041  1.0
  Ni  Ni6  1  0.16583926  0.33167853  0.47935959  1.0
  Ni  Ni7  1  0.16583926  0.33167853  0.02064041  1.0
  Ni  Ni8  1  0.83416074  0.16583926  -0.02064041  1.0
  Ni  Ni9  1  0.83416074  0.16583926  0.52064041  1.0
  Ni  Ni10  1  0.83416074  0.66832147  -0.02064041  1.0
  Ni  Ni11  1  0.83416074  0.66832147  0.52064041  1.0
  Ni  Ni12  1  0.66832147  0.83416074  0.47935959  1.0
  Ni  Ni13  1  0.66832147  0.83416074  0.02064041  1.0
  Ni  Ni14  1  0.33167853  0.16583926  -0.02064041  1.0
  Ni  Ni15  1  0.33167853  0.16583926  0.52064041  1.0
  Ni  Ni16  1  0.37182886  0.04389566  0.25000000  1.0
  Ni  Ni17  1  0.37182886  0.32793319  0.25000000  1.0
  Ni  Ni18  1  0.04389566  0.37182886  0.75000000  1.0
  Ni  Ni19  1  0.04389566  0.67206681  0.75000000  1.0
  Ni  Ni20  1  0.67206681  0.04389566  0.25000000  1.0
  Ni  Ni21  1  0.67206681  0.62817114  0.25000000  1.0
  Ni  Ni22  1  -0.04389566  0.62817114  0.25000000  1.0
  Ni  Ni23  1  -0.04389566  0.32793319  0.25000000  1.0
  Ni  Ni24  1  0.62817114  0.67206681  0.75000000  1.0
  Ni  Ni25  1  0.62817114  -0.04389566  0.75000000  1.0
  Ni  Ni26  1  0.32793319  0.37182886  0.75000000  1.0
  Ni  Ni27  1  0.32793319  -0.04389566  0.75000000  1.0
  Ni  Ni28  1  0.50000000  0.50000000  0.50000000  1.0
  Ni  Ni29  1  0.50000000  0.50000000  0.00000000  1.0
  Ni  Ni30  1  0.50000000  -0.00000000  0.50000000  1.0
  Ni  Ni31  1  0.50000000  0.00000000  0.00000000  1.0
  Ni  Ni32  1  0.00000000  0.50000000  0.50000000  1.0
  Ni  Ni33  1  0.00000000  0.50000000  -0.00000000  1.0
  Ni  Ni34  1  0.33333333  0.66666667  0.89812262  1.0
  Ni  Ni35  1  0.33333333  0.66666667  0.60187738  1.0
  Ni  Ni36  1  0.66666667  0.33333333  0.39812262  1.0
  Ni  Ni37  1  0.66666667  0.33333333  0.10187738  1.0
