# generated using pymatgen
data_SrMgSi2
_symmetry_space_group_name_H-M   'P 1'
_cell_length_a   14.40458671
_cell_length_b   4.43983255
_cell_length_c   11.43449962
_cell_angle_alpha   90.00000000
_cell_angle_beta   90.00000000
_cell_angle_gamma   90.00000000
_symmetry_Int_Tables_number   1
_chemical_formula_structural   SrMgSi2
_chemical_formula_sum   'Sr8 Mg8 Si16'
_cell_volume   731.28145000
_cell_formula_units_Z   8
loop_
 _symmetry_equiv_pos_site_id
 _symmetry_equiv_pos_as_xyz
  1  'x, y, z'
loop_
 _atom_site_type_symbol
 _atom_site_label
 _atom_site_symmetry_multiplicity
 _atom_site_fract_x
 _atom_site_fract_y
 _atom_site_fract_z
 _atom_site_occupancy
  Sr  Sr0  1  0.43863207  0.75000000  0.25928744  1.0
  Sr  Sr1  1  0.93863207  0.75000000  0.24071256  1.0
  Sr  Sr2  1  0.56136793  0.25000000  0.74071256  1.0
  Sr  Sr3  1  0.06136793  0.25000000  0.75928744  1.0
  Sr  Sr4  1  0.19598902  0.75000000  0.02313984  1.0
  Sr  Sr5  1  0.69598902  0.75000000  0.47686016  1.0
  Sr  Sr6  1  0.80401098  0.25000000  0.97686016  1.0
  Sr  Sr7  1  0.30401098  0.25000000  0.52313984  1.0
  Mg  Mg8  1  0.44022656  0.75000000  0.94177700  1.0
  Mg  Mg9  1  0.94022656  0.75000000  0.55822300  1.0
  Mg  Mg10  1  0.55977344  0.25000000  0.05822300  1.0
  Mg  Mg11  1  0.05977344  0.25000000  0.44177700  1.0
  Mg  Mg12  1  0.18969955  0.75000000  0.32020696  1.0
  Mg  Mg13  1  0.68969955  0.75000000  0.17979304  1.0
  Mg  Mg14  1  0.81030045  0.25000000  0.67979304  1.0
  Mg  Mg15  1  0.31030045  0.25000000  0.82020696  1.0
  Si  Si16  1  0.46761632  0.75000000  0.52735045  1.0
  Si  Si17  1  0.96761632  0.75000000  0.97264955  1.0
  Si  Si18  1  0.53238368  0.25000000  0.47264955  1.0
  Si  Si19  1  0.03238368  0.25000000  0.02735045  1.0
  Si  Si20  1  0.39342798  0.75000000  0.71124829  1.0
  Si  Si21  1  0.89342798  0.75000000  0.78875171  1.0
  Si  Si22  1  0.60657202  0.25000000  0.28875171  1.0
  Si  Si23  1  0.10657202  0.25000000  0.21124829  1.0
  Si  Si24  1  0.22317071  0.75000000  0.72557658  1.0
  Si  Si25  1  0.72317071  0.75000000  0.77442342  1.0
  Si  Si26  1  0.77682929  0.25000000  0.27442342  1.0
  Si  Si27  1  0.27682929  0.25000000  0.22557658  1.0
  Si  Si28  1  0.13217821  0.75000000  0.54781224  1.0
  Si  Si29  1  0.63217821  0.75000000  0.95218776  1.0
  Si  Si30  1  0.86782179  0.25000000  0.45218776  1.0
  Si  Si31  1  0.36782179  0.25000000  0.04781224  1.0
