# generated using pymatgen
data_AlPd2
_symmetry_space_group_name_H-M   'P 1'
_cell_length_a   5.46551564
_cell_length_b   4.09810965
_cell_length_c   7.85547299
_cell_angle_alpha   90.00000000
_cell_angle_beta   90.00000000
_cell_angle_gamma   90.00000000
_symmetry_Int_Tables_number   1
_chemical_formula_structural   AlPd2
_chemical_formula_sum   'Al4 Pd8'
_cell_volume   175.94910236
_cell_formula_units_Z   4
loop_
 _symmetry_equiv_pos_site_id
 _symmetry_equiv_pos_as_xyz
  1  'x, y, z'
loop_
 _atom_site_type_symbol
 _atom_site_label
 _atom_site_symmetry_multiplicity
 _atom_site_fract_x
 _atom_site_fract_y
 _atom_site_fract_z
 _atom_site_occupancy
  Al  Al0  1  0.80324571  0.75000000  0.39470535  1.0
  Al  Al1  1  0.30324571  0.75000000  0.10529465  1.0
  Al  Al2  1  0.19675429  0.25000000  0.60529465  1.0
  Al  Al3  1  0.69675429  0.25000000  0.89470535  1.0
  Pd  Pd4  1  0.95880713  0.75000000  0.71144407  1.0
  Pd  Pd5  1  0.45880713  0.75000000  0.78855593  1.0
  Pd  Pd6  1  0.04119287  0.25000000  0.28855593  1.0
  Pd  Pd7  1  0.54119287  0.25000000  0.21144407  1.0
  Pd  Pd8  1  0.83412030  0.75000000  0.06654251  1.0
  Pd  Pd9  1  0.33412030  0.75000000  0.43345749  1.0
  Pd  Pd10  1  0.16587970  0.25000000  0.93345749  1.0
  Pd  Pd11  1  0.66587970  0.25000000  0.56654251  1.0
