# generated using pymatgen
data_Ba3NbO6
_symmetry_space_group_name_H-M   'P 1'
_cell_length_a   6.02762197
_cell_length_b   6.02762197
_cell_length_c   24.63049231
_cell_angle_alpha   90.00000000
_cell_angle_beta   90.00000000
_cell_angle_gamma   120.00000000
_symmetry_Int_Tables_number   1
_chemical_formula_structural   Ba3NbO6
_chemical_formula_sum   'Ba12 Nb4 O24'
_cell_volume   774.98935723
_cell_formula_units_Z   4
loop_
 _symmetry_equiv_pos_site_id
 _symmetry_equiv_pos_as_xyz
  1  'x, y, z'
loop_
 _atom_site_type_symbol
 _atom_site_label
 _atom_site_symmetry_multiplicity
 _atom_site_fract_x
 _atom_site_fract_y
 _atom_site_fract_z
 _atom_site_occupancy
  Ba  Ba0  1  -0.00000000  -0.00000000  0.34395067  1.0
  Ba  Ba1  1  -0.00000000  -0.00000000  0.15604933  1.0
  Ba  Ba2  1  0.00000000  0.00000000  0.84395067  1.0
  Ba  Ba3  1  0.00000000  0.00000000  0.65604933  1.0
  Ba  Ba4  1  0.33333333  0.66666667  0.91253341  1.0
  Ba  Ba5  1  0.33333333  0.66666667  0.58746659  1.0
  Ba  Ba6  1  0.66666667  0.33333333  0.41253341  1.0
  Ba  Ba7  1  0.66666667  0.33333333  0.08746659  1.0
  Ba  Ba8  1  0.33333333  0.66666667  0.75000000  1.0
  Ba  Ba9  1  0.66666667  0.33333333  0.25000000  1.0
  Ba  Ba10  1  -0.00000000  -0.00000000  0.50000000  1.0
  Ba  Ba11  1  -0.00000000  0.00000000  0.00000000  1.0
  Nb  Nb12  1  0.33333333  0.66666667  0.37438587  1.0
  Nb  Nb13  1  0.33333333  0.66666667  0.12561413  1.0
  Nb  Nb14  1  0.66666667  0.33333333  0.87438587  1.0
  Nb  Nb15  1  0.66666667  0.33333333  0.62561413  1.0
  O  O16  1  0.17508192  0.82491808  0.42207465  1.0
  O  O17  1  0.17508192  0.82491808  0.07792535  1.0
  O  O18  1  0.17508192  0.35016384  0.42207465  1.0
  O  O19  1  0.17508192  0.35016384  0.07792535  1.0
  O  O20  1  0.82491808  0.17508192  0.92207465  1.0
  O  O21  1  0.82491808  0.17508192  0.57792535  1.0
  O  O22  1  0.82491808  0.64983616  0.92207465  1.0
  O  O23  1  0.82491808  0.64983616  0.57792535  1.0
  O  O24  1  0.64983616  0.82491808  0.42207465  1.0
  O  O25  1  0.64983616  0.82491808  0.07792535  1.0
  O  O26  1  0.35016384  0.17508192  0.92207465  1.0
  O  O27  1  0.35016384  0.17508192  0.57792535  1.0
  O  O28  1  0.49384550  0.50615450  0.33075464  1.0
  O  O29  1  0.49384550  0.50615450  0.16924536  1.0
  O  O30  1  0.49384550  -0.01230900  0.33075464  1.0
  O  O31  1  0.49384550  -0.01230900  0.16924536  1.0
  O  O32  1  0.50615450  0.49384550  0.83075464  1.0
  O  O33  1  0.50615450  0.49384550  0.66924536  1.0
  O  O34  1  0.50615450  0.01230900  0.83075464  1.0
  O  O35  1  0.50615450  0.01230900  0.66924536  1.0
  O  O36  1  0.01230900  0.50615450  0.33075464  1.0
  O  O37  1  0.01230900  0.50615450  0.16924536  1.0
  O  O38  1  -0.01230900  0.49384550  0.83075464  1.0
  O  O39  1  -0.01230900  0.49384550  0.66924536  1.0
