# generated using pymatgen
data_AlPS4
_symmetry_space_group_name_H-M   'P 1'
_cell_length_a   5.73437079
_cell_length_b   5.73437079
_cell_length_c   10.58603039
_cell_angle_alpha   90.00000000
_cell_angle_beta   90.00000000
_cell_angle_gamma   90.00000000
_symmetry_Int_Tables_number   1
_chemical_formula_structural   AlPS4
_chemical_formula_sum   'Al2 P2 S8'
_cell_volume   348.10052611
_cell_formula_units_Z   2
loop_
 _symmetry_equiv_pos_site_id
 _symmetry_equiv_pos_as_xyz
  1  'x, y, z'
loop_
 _atom_site_type_symbol
 _atom_site_label
 _atom_site_symmetry_multiplicity
 _atom_site_fract_x
 _atom_site_fract_y
 _atom_site_fract_z
 _atom_site_occupancy
  Al  Al0  1  0.00000000  0.00000000  0.25000000  1.0
  Al  Al1  1  0.00000000  0.00000000  0.75000000  1.0
  P  P2  1  0.50000000  0.00000000  0.25000000  1.0
  P  P3  1  0.00000000  0.50000000  0.75000000  1.0
  S  S4  1  0.27603247  0.80186805  0.13960428  1.0
  S  S5  1  0.72396753  0.80186805  0.36039572  1.0
  S  S6  1  0.19813195  0.72396753  0.63960428  1.0
  S  S7  1  0.80186805  0.72396753  0.86039572  1.0
  S  S8  1  0.27603247  0.19813195  0.36039572  1.0
  S  S9  1  0.72396753  0.19813195  0.13960428  1.0
  S  S10  1  0.19813195  0.27603247  0.86039572  1.0
  S  S11  1  0.80186805  0.27603247  0.63960428  1.0
