# generated using pymatgen
data_Ca3Si2O7
_symmetry_space_group_name_H-M   'P 1'
_cell_length_a   7.91793098
_cell_length_b   8.98414404
_cell_length_c   10.67023616
_cell_angle_alpha   90.00000000
_cell_angle_beta   119.27676955
_cell_angle_gamma   90.00000000
_symmetry_Int_Tables_number   1
_chemical_formula_structural   Ca3Si2O7
_chemical_formula_sum   'Ca12 Si8 O28'
_cell_volume   662.08263949
_cell_formula_units_Z   4
loop_
 _symmetry_equiv_pos_site_id
 _symmetry_equiv_pos_as_xyz
  1  'x, y, z'
loop_
 _atom_site_type_symbol
 _atom_site_label
 _atom_site_symmetry_multiplicity
 _atom_site_fract_x
 _atom_site_fract_y
 _atom_site_fract_z
 _atom_site_occupancy
  Ca  Ca0  1  0.79313246  0.42460623  0.33084921  1.0
  Ca  Ca1  1  0.79313246  0.07539377  0.83084921  1.0
  Ca  Ca2  1  0.20686754  0.92460623  0.16915079  1.0
  Ca  Ca3  1  0.20686754  0.57539377  0.66915079  1.0
  Ca  Ca4  1  0.71384199  0.09365024  0.15681085  1.0
  Ca  Ca5  1  0.71384199  0.40634976  0.65681085  1.0
  Ca  Ca6  1  0.28615801  0.59365024  0.34318915  1.0
  Ca  Ca7  1  0.28615801  0.90634976  0.84318915  1.0
  Ca  Ca8  1  0.70946922  0.93902141  0.49191744  1.0
  Ca  Ca9  1  0.70946922  0.56097859  0.99191744  1.0
  Ca  Ca10  1  0.29053078  0.43902141  0.00808256  1.0
  Ca  Ca11  1  0.29053078  0.06097859  0.50808256  1.0
  Si  Si12  1  0.98554832  0.28437202  0.08885866  1.0
  Si  Si13  1  0.98554832  0.21562798  0.58885866  1.0
  Si  Si14  1  0.01445168  0.78437202  0.41114134  1.0
  Si  Si15  1  0.01445168  0.71562798  0.91114134  1.0
  Si  Si16  1  0.43338692  0.26650601  0.29628729  1.0
  Si  Si17  1  0.43338692  0.23349399  0.79628729  1.0
  Si  Si18  1  0.56661308  0.76650601  0.20371271  1.0
  Si  Si19  1  0.56661308  0.73349399  0.70371271  1.0
  O  O20  1  0.51080035  0.26135824  0.17960654  1.0
  O  O21  1  0.51080035  0.23864176  0.67960654  1.0
  O  O22  1  0.48919965  0.76135824  0.32039346  1.0
  O  O23  1  0.48919965  0.73864176  0.82039346  1.0
  O  O24  1  0.42049823  0.10254098  0.35665269  1.0
  O  O25  1  0.42049823  0.39745902  0.85665269  1.0
  O  O26  1  0.57950177  0.60254098  0.14334731  1.0
  O  O27  1  0.57950177  0.89745902  0.64334731  1.0
  O  O28  1  0.97328405  0.10359151  0.09902014  1.0
  O  O29  1  0.97328405  0.39640849  0.59902014  1.0
  O  O30  1  0.02671595  0.60359151  0.40097986  1.0
  O  O31  1  0.02671595  0.89640849  0.90097986  1.0
  O  O32  1  0.94123305  0.16680712  0.42710239  1.0
  O  O33  1  0.94123305  0.33319288  0.92710239  1.0
  O  O34  1  0.05876695  0.66680712  0.07289761  1.0
  O  O35  1  0.05876695  0.83319288  0.57289761  1.0
  O  O36  1  0.84264108  0.36048758  0.13978974  1.0
  O  O37  1  0.84264108  0.13951242  0.63978974  1.0
  O  O38  1  0.15735892  0.86048758  0.36021026  1.0
  O  O39  1  0.15735892  0.63951242  0.86021026  1.0
  O  O40  1  0.78887663  0.84694808  0.29678393  1.0
  O  O41  1  0.78887663  0.65305192  0.79678393  1.0
  O  O42  1  0.21112337  0.34694808  0.20321607  1.0
  O  O43  1  0.21112337  0.15305192  0.70321607  1.0
  O  O44  1  0.54935263  0.39835838  0.41129369  1.0
  O  O45  1  0.54935263  0.10164162  0.91129369  1.0
  O  O46  1  0.45064737  0.89835838  0.08870631  1.0
  O  O47  1  0.45064737  0.60164162  0.58870631  1.0
