# generated using pymatgen
data_BaZnGaF7
_symmetry_space_group_name_H-M   'P 1'
_cell_length_a   5.52759772
_cell_length_b   10.94353398
_cell_length_c   9.24197270
_cell_angle_alpha   90.00000000
_cell_angle_beta   95.48507933
_cell_angle_gamma   90.00000000
_symmetry_Int_Tables_number   1
_chemical_formula_structural   BaZnGaF7
_chemical_formula_sum   'Ba4 Zn4 Ga4 F28'
_cell_volume   556.50049376
_cell_formula_units_Z   4
loop_
 _symmetry_equiv_pos_site_id
 _symmetry_equiv_pos_as_xyz
  1  'x, y, z'
loop_
 _atom_site_type_symbol
 _atom_site_label
 _atom_site_symmetry_multiplicity
 _atom_site_fract_x
 _atom_site_fract_y
 _atom_site_fract_z
 _atom_site_occupancy
  Ba  Ba0  1  0.23305494  0.66893582  0.53813897  1.0
  Ba  Ba1  1  0.76694506  0.16893582  0.96186103  1.0
  Ba  Ba2  1  0.76694506  0.33106418  0.46186103  1.0
  Ba  Ba3  1  0.23305494  0.83106418  0.03813897  1.0
  Zn  Zn4  1  0.81993064  0.56390062  0.88558877  1.0
  Zn  Zn5  1  0.18006936  0.06390062  0.61441123  1.0
  Zn  Zn6  1  0.18006936  0.43609938  0.11441123  1.0
  Zn  Zn7  1  0.81993064  0.93609938  0.38558877  1.0
  Ga  Ga8  1  0.68889253  0.61868468  0.26116225  1.0
  Ga  Ga9  1  0.31110747  0.11868468  0.23883775  1.0
  Ga  Ga10  1  0.31110747  0.38131532  0.73883775  1.0
  Ga  Ga11  1  0.68889253  0.88131532  0.76116225  1.0
  F  F12  1  0.40266412  0.78937304  0.77865367  1.0
  F  F13  1  0.59733588  0.28937304  0.72134633  1.0
  F  F14  1  0.59733588  0.21062696  0.22134633  1.0
  F  F15  1  0.40266412  0.71062696  0.27865367  1.0
  F  F16  1  0.50649739  0.53085305  0.76244084  1.0
  F  F17  1  0.49350261  0.03085305  0.73755916  1.0
  F  F18  1  0.49350261  0.46914695  0.23755916  1.0
  F  F19  1  0.50649739  0.96914695  0.26244084  1.0
  F  F20  1  0.14305838  0.90292598  0.50702485  1.0
  F  F21  1  0.85694162  0.40292598  0.99297515  1.0
  F  F22  1  0.85694162  0.09707402  0.49297515  1.0
  F  F23  1  0.14305838  0.59707402  0.00702485  1.0
  F  F24  1  0.97630450  0.98421761  0.77484745  1.0
  F  F25  1  0.02369550  0.48421761  0.72515255  1.0
  F  F26  1  0.02369550  0.01578239  0.22515255  1.0
  F  F27  1  0.97630450  0.51578239  0.27484745  1.0
  F  F28  1  0.11026913  0.23549620  0.70609860  1.0
  F  F29  1  0.88973087  0.73549620  0.79390140  1.0
  F  F30  1  0.88973087  0.76450380  0.29390140  1.0
  F  F31  1  0.11026913  0.26450380  0.20609860  1.0
  F  F32  1  0.33668804  0.14893765  0.44200639  1.0
  F  F33  1  0.66331196  0.64893765  0.05799361  1.0
  F  F34  1  0.66331196  0.85106235  0.55799361  1.0
  F  F35  1  0.33668804  0.35106235  0.94200639  1.0
  F  F36  1  0.71027113  0.91035650  0.96815024  1.0
  F  F37  1  0.28972887  0.41035650  0.53184976  1.0
  F  F38  1  0.28972887  0.08964350  0.03184976  1.0
  F  F39  1  0.71027113  0.58964350  0.46815024  1.0
