# generated using pymatgen
data_Li2TeWO6
_symmetry_space_group_name_H-M   'P 1'
_cell_length_a   5.43105824
_cell_length_b   13.29945892
_cell_length_c   8.61640539
_cell_angle_alpha   90.00000000
_cell_angle_beta   125.54364304
_cell_angle_gamma   90.00000000
_symmetry_Int_Tables_number   1
_chemical_formula_structural   Li2TeWO6
_chemical_formula_sum   'Li8 Te4 W4 O24'
_cell_volume   506.40086168
_cell_formula_units_Z   4
loop_
 _symmetry_equiv_pos_site_id
 _symmetry_equiv_pos_as_xyz
  1  'x, y, z'
loop_
 _atom_site_type_symbol
 _atom_site_label
 _atom_site_symmetry_multiplicity
 _atom_site_fract_x
 _atom_site_fract_y
 _atom_site_fract_z
 _atom_site_occupancy
  Li  Li0  1  0.95142448  0.43783977  0.25639867  1.0
  Li  Li1  1  0.95142448  0.06216023  0.75639867  1.0
  Li  Li2  1  0.04857552  0.93783977  0.24360133  1.0
  Li  Li3  1  0.04857552  0.56216023  0.74360133  1.0
  Li  Li4  1  0.72505650  0.35402588  0.46748960  1.0
  Li  Li5  1  0.72505650  0.14597412  0.96748960  1.0
  Li  Li6  1  0.27494350  0.85402588  0.03251040  1.0
  Li  Li7  1  0.27494350  0.64597412  0.53251040  1.0
  Te  Te8  1  0.17678767  0.20655711  0.42738217  1.0
  Te  Te9  1  0.17678767  0.29344289  0.92738217  1.0
  Te  Te10  1  0.82321233  0.70655711  0.07261783  1.0
  Te  Te11  1  0.82321233  0.79344289  0.57261783  1.0
  W  W12  1  0.52081432  0.09543145  0.24257953  1.0
  W  W13  1  0.52081432  0.40456855  0.74257953  1.0
  W  W14  1  0.47918568  0.59543145  0.25742047  1.0
  W  W15  1  0.47918568  0.90456855  0.75742047  1.0
  O  O16  1  0.85956021  0.05962129  0.25695602  1.0
  O  O17  1  0.85956021  0.44037871  0.75695602  1.0
  O  O18  1  0.14043979  0.55962129  0.24304398  1.0
  O  O19  1  0.14043979  0.94037871  0.74304398  1.0
  O  O20  1  0.82150895  0.69304636  0.30668316  1.0
  O  O21  1  0.82150895  0.80695364  0.80668316  1.0
  O  O22  1  0.17849105  0.19304636  0.19331684  1.0
  O  O23  1  0.17849105  0.30695364  0.69331684  1.0
  O  O24  1  0.75496844  0.24898853  0.29927753  1.0
  O  O25  1  0.75496844  0.25101147  0.79927753  1.0
  O  O26  1  0.24503156  0.74898853  0.20072247  1.0
  O  O27  1  0.24503156  0.75101147  0.70072247  1.0
  O  O28  1  0.68957765  0.48070071  0.33892279  1.0
  O  O29  1  0.68957765  0.01929929  0.83892279  1.0
  O  O30  1  0.31042235  0.98070071  0.16107721  1.0
  O  O31  1  0.31042235  0.51929929  0.66107721  1.0
  O  O32  1  0.66274595  0.09799229  0.48887397  1.0
  O  O33  1  0.66274595  0.40200771  0.98887397  1.0
  O  O34  1  0.33725405  0.59799229  0.01112603  1.0
  O  O35  1  0.33725405  0.90200771  0.51112603  1.0
  O  O36  1  0.32514744  0.34904357  0.46041727  1.0
  O  O37  1  0.32514744  0.15095643  0.96041727  1.0
  O  O38  1  0.67485256  0.84904357  0.03958273  1.0
  O  O39  1  0.67485256  0.65095643  0.53958273  1.0
