# generated using pymatgen
data_NbNi2BO6
_symmetry_space_group_name_H-M   'P 1'
_cell_length_a   10.16585507
_cell_length_b   8.65337468
_cell_length_c   4.52618654
_cell_angle_alpha   90.00000000
_cell_angle_beta   90.00000000
_cell_angle_gamma   90.00000000
_symmetry_Int_Tables_number   1
_chemical_formula_structural   NbNi2BO6
_chemical_formula_sum   'Nb4 Ni8 B4 O24'
_cell_volume   398.16389064
_cell_formula_units_Z   4
loop_
 _symmetry_equiv_pos_site_id
 _symmetry_equiv_pos_as_xyz
  1  'x, y, z'
loop_
 _atom_site_type_symbol
 _atom_site_label
 _atom_site_symmetry_multiplicity
 _atom_site_fract_x
 _atom_site_fract_y
 _atom_site_fract_z
 _atom_site_occupancy
  Nb  Nb0  1  0.91915658  0.25000000  0.02805356  1.0
  Nb  Nb1  1  0.41915658  0.25000000  0.47194644  1.0
  Nb  Nb2  1  0.08084342  0.75000000  0.97194644  1.0
  Nb  Nb3  1  0.58084342  0.75000000  0.52805356  1.0
  Ni  Ni4  1  0.63506251  0.43001593  0.01815364  1.0
  Ni  Ni5  1  0.63506251  0.06998407  0.01815364  1.0
  Ni  Ni6  1  0.13506251  0.43001593  0.48184636  1.0
  Ni  Ni7  1  0.13506251  0.06998407  0.48184636  1.0
  Ni  Ni8  1  0.36493749  0.93001593  0.98184636  1.0
  Ni  Ni9  1  0.36493749  0.56998407  0.98184636  1.0
  Ni  Ni10  1  0.86493749  0.93001593  0.51815364  1.0
  Ni  Ni11  1  0.86493749  0.56998407  0.51815364  1.0
  B  B12  1  0.72594120  0.25000000  0.59010794  1.0
  B  B13  1  0.22594120  0.25000000  0.90989206  1.0
  B  B14  1  0.27405880  0.75000000  0.40989206  1.0
  B  B15  1  0.77405880  0.75000000  0.09010794  1.0
  O  O16  1  0.96162067  0.41705642  0.26265122  1.0
  O  O17  1  0.96162067  0.08294358  0.26265122  1.0
  O  O18  1  0.46162067  0.41705642  0.23734878  1.0
  O  O19  1  0.46162067  0.08294358  0.23734878  1.0
  O  O20  1  0.03837933  0.91705642  0.73734878  1.0
  O  O21  1  0.03837933  0.58294358  0.73734878  1.0
  O  O22  1  0.53837933  0.91705642  0.76265122  1.0
  O  O23  1  0.53837933  0.58294358  0.76265122  1.0
  O  O24  1  0.70805023  0.88480324  0.23980656  1.0
  O  O25  1  0.70805023  0.61519676  0.23980656  1.0
  O  O26  1  0.20805023  0.88480324  0.26019344  1.0
  O  O27  1  0.20805023  0.61519676  0.26019344  1.0
  O  O28  1  0.29194977  0.38480324  0.76019344  1.0
  O  O29  1  0.29194977  0.11519676  0.76019344  1.0
  O  O30  1  0.79194977  0.38480324  0.73980656  1.0
  O  O31  1  0.79194977  0.11519676  0.73980656  1.0
  O  O32  1  0.72848049  0.25000000  0.27136579  1.0
  O  O33  1  0.22848049  0.25000000  0.22863421  1.0
  O  O34  1  0.27151951  0.75000000  0.72863421  1.0
  O  O35  1  0.77151951  0.75000000  0.77136579  1.0
  O  O36  1  0.58558213  0.25000000  0.71364369  1.0
  O  O37  1  0.08558213  0.25000000  0.78635631  1.0
  O  O38  1  0.41441787  0.75000000  0.28635631  1.0
  O  O39  1  0.91441787  0.75000000  0.21364369  1.0
