# generated using pymatgen
data_LiCa(AlH4)3
_symmetry_space_group_name_H-M   'P 1'
_cell_length_a   9.12643208
_cell_length_b   9.12643208
_cell_length_c   6.03115043
_cell_angle_alpha   90.00000000
_cell_angle_beta   90.00000000
_cell_angle_gamma   120.00000000
_symmetry_Int_Tables_number   1
_chemical_formula_structural   LiCa(AlH4)3
_chemical_formula_sum   'Li2 Ca2 Al6 H24'
_cell_volume   435.04366066
_cell_formula_units_Z   2
loop_
 _symmetry_equiv_pos_site_id
 _symmetry_equiv_pos_as_xyz
  1  'x, y, z'
loop_
 _atom_site_type_symbol
 _atom_site_label
 _atom_site_symmetry_multiplicity
 _atom_site_fract_x
 _atom_site_fract_y
 _atom_site_fract_z
 _atom_site_occupancy
  Li  Li0  1  0.00000000  0.00000000  0.25000000  1.0
  Li  Li1  1  0.00000000  0.00000000  0.75000000  1.0
  Ca  Ca2  1  0.66666667  0.33333333  0.25000000  1.0
  Ca  Ca3  1  0.33333333  0.66666667  0.75000000  1.0
  Al  Al4  1  0.60014196  0.70039461  0.25000000  1.0
  Al  Al5  1  0.10025266  0.39985804  0.25000000  1.0
  Al  Al6  1  0.29960539  0.89974734  0.25000000  1.0
  Al  Al7  1  0.39985804  0.29960539  0.75000000  1.0
  Al  Al8  1  0.89974734  0.60014196  0.75000000  1.0
  Al  Al9  1  0.70039461  0.10025266  0.75000000  1.0
  H  H10  1  0.95561674  0.45307906  0.25000000  1.0
  H  H11  1  0.49746232  0.04438326  0.25000000  1.0
  H  H12  1  0.54692094  0.50253768  0.25000000  1.0
  H  H13  1  0.04438326  0.54692094  0.75000000  1.0
  H  H14  1  0.50253768  0.95561674  0.75000000  1.0
  H  H15  1  0.45307906  0.49746232  0.75000000  1.0
  H  H16  1  0.00942817  0.19318597  0.25000000  1.0
  H  H17  1  0.18375780  0.99057183  0.25000000  1.0
  H  H18  1  0.80681403  0.81624220  0.25000000  1.0
  H  H19  1  0.99057183  0.80681403  0.75000000  1.0
  H  H20  1  0.81624220  0.00942817  0.75000000  1.0
  H  H21  1  0.19318597  0.18375780  0.75000000  1.0
  H  H22  1  0.21853063  0.46609743  0.47064864  1.0
  H  H23  1  0.24756680  0.78146937  0.47064864  1.0
  H  H24  1  0.53390257  0.75243320  0.47064864  1.0
  H  H25  1  0.78146937  0.53390257  0.97064864  1.0
  H  H26  1  0.75243320  0.21853063  0.97064864  1.0
  H  H27  1  0.46609743  0.24756680  0.97064864  1.0
  H  H28  1  0.78146937  0.53390257  0.52935136  1.0
  H  H29  1  0.75243320  0.21853063  0.52935136  1.0
  H  H30  1  0.46609743  0.24756680  0.52935136  1.0
  H  H31  1  0.21853063  0.46609743  0.02935136  1.0
  H  H32  1  0.24756680  0.78146937  0.02935136  1.0
  H  H33  1  0.53390257  0.75243320  0.02935136  1.0
