# generated using pymatgen
data_BaIrF6
_symmetry_space_group_name_H-M   'P 1'
_cell_length_a   5.04079286
_cell_length_b   5.04079286
_cell_length_c   5.04079286
_cell_angle_alpha   98.27647150
_cell_angle_beta   98.27647150
_cell_angle_gamma   98.27647150
_symmetry_Int_Tables_number   1
_chemical_formula_structural   BaIrF6
_chemical_formula_sum   'Ba1 Ir1 F6'
_cell_volume   123.64430770
_cell_formula_units_Z   1
loop_
 _symmetry_equiv_pos_site_id
 _symmetry_equiv_pos_as_xyz
  1  'x, y, z'
loop_
 _atom_site_type_symbol
 _atom_site_label
 _atom_site_symmetry_multiplicity
 _atom_site_fract_x
 _atom_site_fract_y
 _atom_site_fract_z
 _atom_site_occupancy
  Ba  Ba0  1  0.50000000  0.50000000  0.50000000  1.0
  Ir  Ir1  1  0.00000000  0.00000000  0.00000000  1.0
  F  F2  1  0.71971173  0.71765963  0.07032107  1.0
  F  F3  1  1.28234037  -0.07032107  0.28028827  1.0
  F  F4  1  0.92967893  0.28028827  0.28234037  1.0
  F  F5  1  1.28028827  0.28234037  -0.07032107  1.0
  F  F6  1  0.71765963  1.07032107  -0.28028827  1.0
  F  F7  1  1.07032107  0.71971173  -0.28234037  1.0
