# generated using pymatgen
data_Zn3CuP2O9
_symmetry_space_group_name_H-M   'P 1'
_cell_length_a   6.41252360
_cell_length_b   6.41252360
_cell_length_c   9.85900408
_cell_angle_alpha   67.73145856
_cell_angle_beta   112.26854144
_cell_angle_gamma   101.39733428
_symmetry_Int_Tables_number   1
_chemical_formula_structural   Zn3CuP2O9
_chemical_formula_sum   'Zn6 Cu2 P4 O18'
_cell_volume   346.49854039
_cell_formula_units_Z   2
loop_
 _symmetry_equiv_pos_site_id
 _symmetry_equiv_pos_as_xyz
  1  'x, y, z'
loop_
 _atom_site_type_symbol
 _atom_site_label
 _atom_site_symmetry_multiplicity
 _atom_site_fract_x
 _atom_site_fract_y
 _atom_site_fract_z
 _atom_site_occupancy
  P  P0  1  0.70167243  0.29832757  0.50064078  1.0
  P  P1  1  0.29832757  -0.29832757  0.49935922  1.0
  P  P2  1  0.75904979  0.24095021  0.14136632  1.0
  P  P3  1  0.24095021  -0.24095021  0.85863368  1.0
  Cu  Cu4  1  1.19007043  0.19007043  0.50000000  1.0
  Cu  Cu5  1  0.80992957  0.80992957  0.50000000  1.0
  O  O6  1  0.17773152  0.17773152  -0.00000000  1.0
  O  O7  1  0.82226848  0.82226848  -0.00000000  1.0
  O  O8  1  0.73335291  0.26664709  0.66830650  1.0
  O  O9  1  0.26664709  -0.26664709  0.33169350  1.0
  O  O10  1  0.75914608  0.55497853  0.41528335  1.0
  O  O11  1  0.44502147  0.24085392  0.41528335  1.0
  O  O12  1  1.24085392  0.44502147  0.58471665  1.0
  O  O13  1  0.55497853  -0.24085392  0.58471665  1.0
  O  O14  1  0.61874434  0.38125566  0.17051869  1.0
  O  O15  1  0.38125566  -0.38125566  0.82948131  1.0
  O  O16  1  1.01138477  0.30674494  0.20912503  1.0
  O  O17  1  1.69325506  -0.01138477  0.20912503  1.0
  O  O18  1  0.98861523  0.69325506  0.79087497  1.0
  O  O19  1  1.30674494  0.01138477  0.79087497  1.0
  O  O20  1  0.68757445  -0.68757445  0.95570601  1.0
  O  O21  1  1.31242555  -0.31242555  0.04429399  1.0
  O  O22  1  0.85706141  0.14293859  0.49258458  1.0
  O  O23  1  0.14293859  -0.14293859  0.50741542  1.0
  Zn  Zn24  1  1.29282353  -0.68458105  0.16722444  1.0
  Zn  Zn25  1  1.68458105  -0.29282352  0.16722444  1.0
  Zn  Zn26  1  0.70717648  -0.31541895  0.83277556  1.0
  Zn  Zn27  1  1.31541895  0.29282353  0.83277556  1.0
  Zn  Zn28  1  1.15346843  -0.15346843  0.11212764  1.0
  Zn  Zn29  1  0.84653157  -0.84653157  0.88787236  1.0
