# generated using pymatgen
data_Bi2Te3
_symmetry_space_group_name_H-M   'P 1'
_cell_length_a   6.66503664
_cell_length_b   6.66503664
_cell_length_c   7.87714830
_cell_angle_alpha   79.00425909
_cell_angle_beta   100.99574091
_cell_angle_gamma   97.68093211
_symmetry_Int_Tables_number   1
_chemical_formula_structural   Bi2Te3
_chemical_formula_sum   'Bi4 Te6'
_cell_volume   335.47146363
_cell_formula_units_Z   2
loop_
 _symmetry_equiv_pos_site_id
 _symmetry_equiv_pos_as_xyz
  1  'x, y, z'
loop_
 _atom_site_type_symbol
 _atom_site_label
 _atom_site_symmetry_multiplicity
 _atom_site_fract_x
 _atom_site_fract_y
 _atom_site_fract_z
 _atom_site_occupancy
  Bi  Bi0  1  0.32954893  -0.07444609  0.15179236  1.0
  Bi  Bi1  1  1.07444609  0.67045107  0.65179236  1.0
  Bi  Bi2  1  0.92555391  -0.67045107  0.34820764  1.0
  Bi  Bi3  1  1.67045107  0.07444609  0.84820764  1.0
  Te  Te4  1  1.50832228  0.26712323  0.46730263  1.0
  Te  Te5  1  0.73287677  -0.50832228  0.96730263  1.0
  Te  Te6  1  1.26712323  0.50832228  0.03269737  1.0
  Te  Te7  1  0.49167772  -0.26712323  0.53269737  1.0
  Te  Te8  1  0.89034579  -0.10965421  0.25000000  1.0
  Te  Te9  1  1.10965421  0.10965421  0.75000000  1.0
