# generated using pymatgen
data_Rb2Pb2O3
_symmetry_space_group_name_H-M   'P 1'
_cell_length_a   7.75266472
_cell_length_b   7.75266472
_cell_length_c   7.75266472
_cell_angle_alpha   109.47122063
_cell_angle_beta   109.47122063
_cell_angle_gamma   109.47122063
_symmetry_Int_Tables_number   1
_chemical_formula_structural   Rb2Pb2O3
_chemical_formula_sum   'Rb4 Pb4 O6'
_cell_volume   358.69978442
_cell_formula_units_Z   2
loop_
 _symmetry_equiv_pos_site_id
 _symmetry_equiv_pos_as_xyz
  1  'x, y, z'
loop_
 _atom_site_type_symbol
 _atom_site_label
 _atom_site_symmetry_multiplicity
 _atom_site_fract_x
 _atom_site_fract_y
 _atom_site_fract_z
 _atom_site_occupancy
  Rb  Rb0  1  1.46804665  1.46804665  1.46804665  1.0
  Rb  Rb1  1  1.50000000  1.00000000  1.03195335  1.0
  Rb  Rb2  1  1.00000000  1.03195335  1.50000000  1.0
  Rb  Rb3  1  1.03195335  0.50000000  1.00000000  1.0
  Pb  Pb4  1  1.00800638  1.00800638  1.00800638  1.0
  Pb  Pb5  1  0.50000000  1.00000000  0.49199362  1.0
  Pb  Pb6  1  1.00000000  0.49199362  1.50000000  1.0
  Pb  Pb7  1  0.49199362  1.50000000  1.00000000  1.0
  O  O8  1  1.22243614  0.97243614  1.25000000  1.0
  O  O9  1  0.25000000  1.22243614  0.97243614  1.0
  O  O10  1  0.75000000  1.27756386  0.52756386  1.0
  O  O11  1  0.97243614  0.25000000  1.22243614  1.0
  O  O12  1  0.52756386  0.75000000  0.27756386  1.0
  O  O13  1  0.27756386  0.52756386  0.75000000  1.0
