# generated using pymatgen
data_Eu2I2O
_symmetry_space_group_name_H-M   'P 1'
_cell_length_a   8.04455205
_cell_length_b   8.04455205
_cell_length_c   8.04455205
_cell_angle_alpha   123.09774365
_cell_angle_beta   76.39800571
_cell_angle_gamma   133.55945958
_symmetry_Int_Tables_number   1
_chemical_formula_structural   Eu2I2O
_chemical_formula_sum   'Eu4 I4 O2'
_cell_volume   307.38695584
_cell_formula_units_Z   2
loop_
 _symmetry_equiv_pos_site_id
 _symmetry_equiv_pos_as_xyz
  1  'x, y, z'
loop_
 _atom_site_type_symbol
 _atom_site_label
 _atom_site_symmetry_multiplicity
 _atom_site_fract_x
 _atom_site_fract_y
 _atom_site_fract_z
 _atom_site_occupancy
  Eu  Eu0  1  0.41098063  0.32518358  0.73616421  1.0
  Eu  Eu1  1  0.08901937  0.82518358  0.91420295  1.0
  Eu  Eu2  1  0.91098063  1.17481642  1.08579705  1.0
  Eu  Eu3  1  0.58901937  0.67481642  0.26383579  1.0
  I  I4  1  0.14820552  0.35510980  0.50331533  1.0
  I  I5  1  0.35179448  0.85510980  1.20690428  1.0
  I  I6  1  0.64820552  1.14489020  0.79309572  1.0
  I  I7  1  0.85179448  0.64489020  0.49668467  1.0
  O  O8  1  0.25000000  0.25000000  0.00000000  1.0
  O  O9  1  0.75000000  0.75000000  0.00000000  1.0
