# generated using pymatgen
data_Sr3TaAl3(SiO7)2
_symmetry_space_group_name_H-M   'P 1'
_cell_length_a   8.31772131
_cell_length_b   8.31772131
_cell_length_c   5.05370984
_cell_angle_alpha   90.00000000
_cell_angle_beta   90.00000000
_cell_angle_gamma   120.00000000
_symmetry_Int_Tables_number   1
_chemical_formula_structural   Sr3TaAl3(SiO7)2
_chemical_formula_sum   'Sr3 Ta1 Al3 Si2 O14'
_cell_volume   302.79567323
_cell_formula_units_Z   1
loop_
 _symmetry_equiv_pos_site_id
 _symmetry_equiv_pos_as_xyz
  1  'x, y, z'
loop_
 _atom_site_type_symbol
 _atom_site_label
 _atom_site_symmetry_multiplicity
 _atom_site_fract_x
 _atom_site_fract_y
 _atom_site_fract_z
 _atom_site_occupancy
  Sr  Sr0  1  0.42451080  0.42451080  0.00000000  1.0
  Sr  Sr1  1  -0.00000000  0.57548920  0.00000000  1.0
  Sr  Sr2  1  0.57548920  0.00000000  0.00000000  1.0
  Ta  Ta3  1  0.00000000  0.00000000  0.00000000  1.0
  Al  Al4  1  0.74151618  0.74151618  0.50000000  1.0
  Al  Al5  1  0.00000000  0.25848382  0.50000000  1.0
  Al  Al6  1  0.25848382  0.00000000  0.50000000  1.0
  Si  Si7  1  0.33333333  0.66666667  0.52869493  1.0
  Si  Si8  1  0.66666667  0.33333333  0.47130507  1.0
  O  O9  1  0.10323398  0.88053546  0.23567730  1.0
  O  O10  1  0.88053546  0.10323398  0.76432270  1.0
  O  O11  1  0.77730148  0.89676602  0.23567730  1.0
  O  O12  1  0.11946454  0.22269852  0.23567730  1.0
  O  O13  1  0.89676602  0.77730148  0.76432270  1.0
  O  O14  1  0.22269852  0.11946454  0.76432270  1.0
  O  O15  1  0.69181611  0.52788791  0.34055212  1.0
  O  O16  1  0.52788791  0.69181611  0.65944788  1.0
  O  O17  1  0.83607181  0.30818389  0.34055212  1.0
  O  O18  1  0.47211209  0.16392819  0.34055212  1.0
  O  O19  1  0.30818389  0.83607181  0.65944788  1.0
  O  O20  1  0.16392819  0.47211209  0.65944788  1.0
  O  O21  1  0.33333333  0.66666667  0.20967814  1.0
  O  O22  1  0.66666667  0.33333333  0.79032186  1.0
