# generated using pymatgen
data_Mo3O10
_symmetry_space_group_name_H-M   'P 1'
_cell_length_a   7.89907005
_cell_length_b   7.89907005
_cell_length_c   7.25209824
_cell_angle_alpha   90.00000000
_cell_angle_beta   90.00000000
_cell_angle_gamma   116.84969821
_symmetry_Int_Tables_number   1
_chemical_formula_structural   Mo3O10
_chemical_formula_sum   'Mo6 O20'
_cell_volume   403.71519689
_cell_formula_units_Z   2
loop_
 _symmetry_equiv_pos_site_id
 _symmetry_equiv_pos_as_xyz
  1  'x, y, z'
loop_
 _atom_site_type_symbol
 _atom_site_label
 _atom_site_symmetry_multiplicity
 _atom_site_fract_x
 _atom_site_fract_y
 _atom_site_fract_z
 _atom_site_occupancy
  O  O0  1  -0.28393928  1.34021753  0.30620548  1.0
  O  O1  1  0.15978247  0.78393928  0.80620548  1.0
  O  O2  1  -0.34021753  1.28393928  0.69379452  1.0
  O  O3  1  0.21606072  0.84021753  0.19379452  1.0
  O  O4  1  -0.69845897  1.20908690  0.25123700  1.0
  O  O5  1  -0.70908690  1.19845897  0.75123700  1.0
  O  O6  1  -0.20908690  1.69845897  0.74876300  1.0
  O  O7  1  -0.19845897  1.70908690  0.24876300  1.0
  O  O8  1  0.07379906  0.92620094  0.50000000  1.0
  O  O9  1  -0.42620094  1.42620094  0.00000000  1.0
  O  O10  1  0.51785447  0.48214553  0.50000000  1.0
  O  O11  1  0.01785447  -0.01785447  0.00000000  1.0
  O  O12  1  0.47345898  0.93757091  0.00664544  1.0
  O  O13  1  0.56242909  1.02654102  0.50664544  1.0
  O  O14  1  0.06242909  0.52654102  0.99335456  1.0
  O  O15  1  -0.02654102  0.43757091  0.49335456  1.0
  O  O16  1  -0.09857103  1.08613710  0.31470812  1.0
  O  O17  1  0.41386290  0.59857103  0.81470812  1.0
  O  O18  1  -0.08613710  1.09857103  0.68529188  1.0
  O  O19  1  0.40142897  0.58613710  0.18529188  1.0
  Mo  Mo20  1  0.10797893  0.98933082  0.24476507  1.0
  Mo  Mo21  1  -0.48933082  1.39202107  0.74476507  1.0
  Mo  Mo22  1  0.01066918  0.89202107  0.75523493  1.0
  Mo  Mo23  1  -0.39202107  1.48933082  0.25523493  1.0
  Mo  Mo24  1  -0.17877889  1.17877889  0.50000000  1.0
  Mo  Mo25  1  0.32122111  0.67877889  0.00000000  1.0
