# generated using pymatgen
data_CsC
_symmetry_space_group_name_H-M   'P 1'
_cell_length_a   9.73875819
_cell_length_b   5.05548857
_cell_length_c   10.50106237
_cell_angle_alpha   90.00000000
_cell_angle_beta   90.00000000
_cell_angle_gamma   90.00000000
_symmetry_Int_Tables_number   1
_chemical_formula_structural   CsC
_chemical_formula_sum   'Cs8 C8'
_cell_volume   517.01120227
_cell_formula_units_Z   8
loop_
 _symmetry_equiv_pos_site_id
 _symmetry_equiv_pos_as_xyz
  1  'x, y, z'
loop_
 _atom_site_type_symbol
 _atom_site_label
 _atom_site_symmetry_multiplicity
 _atom_site_fract_x
 _atom_site_fract_y
 _atom_site_fract_z
 _atom_site_occupancy
  Cs  Cs0  1  0.98675601  0.75000000  0.66744096  1.0
  Cs  Cs1  1  0.48675601  0.75000000  0.83255904  1.0
  Cs  Cs2  1  0.01324399  0.25000000  0.33255904  1.0
  Cs  Cs3  1  0.51324399  0.25000000  0.16744096  1.0
  Cs  Cs4  1  0.84170241  0.75000000  0.07112144  1.0
  Cs  Cs5  1  0.34170241  0.75000000  0.42887856  1.0
  Cs  Cs6  1  0.15829759  0.25000000  0.92887856  1.0
  Cs  Cs7  1  0.65829759  0.25000000  0.57112144  1.0
  C  C8  1  0.78582428  0.75000000  0.41104221  1.0
  C  C9  1  0.28582428  0.75000000  0.08895779  1.0
  C  C10  1  0.21417572  0.25000000  0.58895779  1.0
  C  C11  1  0.71417572  0.25000000  0.91104221  1.0
  C  C12  1  0.67478699  0.75000000  0.34765529  1.0
  C  C13  1  0.17478699  0.75000000  0.15234471  1.0
  C  C14  1  0.32521301  0.25000000  0.65234471  1.0
  C  C15  1  0.82521301  0.25000000  0.84765529  1.0
