# generated using pymatgen
data_NaYGeO4
_symmetry_space_group_name_H-M   'P 1'
_cell_length_a   11.50844401
_cell_length_b   6.51093401
_cell_length_c   5.33152418
_cell_angle_alpha   90.00000000
_cell_angle_beta   90.00000000
_cell_angle_gamma   90.00000000
_symmetry_Int_Tables_number   1
_chemical_formula_structural   NaYGeO4
_chemical_formula_sum   'Na4 Y4 Ge4 O16'
_cell_volume   399.49494264
_cell_formula_units_Z   4
loop_
 _symmetry_equiv_pos_site_id
 _symmetry_equiv_pos_as_xyz
  1  'x, y, z'
loop_
 _atom_site_type_symbol
 _atom_site_label
 _atom_site_symmetry_multiplicity
 _atom_site_fract_x
 _atom_site_fract_y
 _atom_site_fract_z
 _atom_site_occupancy
  Na  Na0  1  0.00000000  0.50000000  0.00000000  1.0
  Na  Na1  1  0.00000000  0.00000000  0.00000000  1.0
  Na  Na2  1  0.50000000  0.50000000  0.50000000  1.0
  Na  Na3  1  0.50000000  0.00000000  0.50000000  1.0
  Y  Y4  1  0.77765582  0.25000000  0.49508030  1.0
  Y  Y5  1  0.27765582  0.25000000  1.00491970  1.0
  Y  Y6  1  0.22234418  0.75000000  0.50491970  1.0
  Y  Y7  1  0.72234418  0.75000000  -0.00491970  1.0
  Ge  Ge8  1  0.59787013  0.25000000  0.05328875  1.0
  Ge  Ge9  1  0.09787013  0.25000000  0.44671125  1.0
  Ge  Ge10  1  0.40212987  0.75000000  0.94671125  1.0
  Ge  Ge11  1  0.90212987  0.75000000  0.55328875  1.0
  O  O12  1  0.67464769  0.45757342  0.20691590  1.0
  O  O13  1  0.67464769  0.04242658  0.20691590  1.0
  O  O14  1  0.17464769  0.45757342  0.29308410  1.0
  O  O15  1  0.17464769  0.04242658  0.29308410  1.0
  O  O16  1  0.32535231  0.95757342  0.79308410  1.0
  O  O17  1  0.32535231  0.54242658  0.79308410  1.0
  O  O18  1  0.82535231  0.95757342  0.70691590  1.0
  O  O19  1  0.82535231  0.54242658  0.70691590  1.0
  O  O20  1  0.95462029  0.25000000  0.32801673  1.0
  O  O21  1  0.45462029  0.25000000  0.17198327  1.0
  O  O22  1  0.04537971  0.75000000  0.67198327  1.0
  O  O23  1  0.54537971  0.75000000  0.82801673  1.0
  O  O24  1  0.61139037  0.25000000  0.72648388  1.0
  O  O25  1  0.11139037  0.25000000  0.77351612  1.0
  O  O26  1  0.38860963  0.75000000  0.27351612  1.0
  O  O27  1  0.88860963  0.75000000  0.22648388  1.0
