# generated using pymatgen
data_SeOF2
_symmetry_space_group_name_H-M   'P 1'
_cell_length_a   5.80777797
_cell_length_b   8.17322273
_cell_length_c   6.43155645
_cell_angle_alpha   90.00000000
_cell_angle_beta   90.00000000
_cell_angle_gamma   90.00000000
_symmetry_Int_Tables_number   1
_chemical_formula_structural   SeOF2
_chemical_formula_sum   'Se4 O4 F8'
_cell_volume   305.29481295
_cell_formula_units_Z   4
loop_
 _symmetry_equiv_pos_site_id
 _symmetry_equiv_pos_as_xyz
  1  'x, y, z'
loop_
 _atom_site_type_symbol
 _atom_site_label
 _atom_site_symmetry_multiplicity
 _atom_site_fract_x
 _atom_site_fract_y
 _atom_site_fract_z
 _atom_site_occupancy
  Se  Se0  1  0.54491544  0.18551417  0.37331155  1.0
  Se  Se1  1  0.04491544  0.81448583  0.37331155  1.0
  Se  Se2  1  0.45508456  0.81448583  0.87331155  1.0
  Se  Se3  1  0.95508456  0.18551417  0.87331155  1.0
  O  O4  1  0.75082416  0.09673928  0.50204628  1.0
  O  O5  1  0.25082416  0.90326072  0.50204628  1.0
  O  O6  1  0.24917584  0.90326072  0.00204628  1.0
  O  O7  1  0.74917584  0.09673928  0.00204628  1.0
  F  F8  1  0.66034125  0.38120237  0.32214554  1.0
  F  F9  1  0.16034125  0.61879763  0.32214554  1.0
  F  F10  1  0.33965875  0.61879763  0.82214554  1.0
  F  F11  1  0.83965875  0.38120237  0.82214554  1.0
  F  F12  1  0.12930015  0.26273735  0.08049663  1.0
  F  F13  1  0.62930015  0.73726265  0.08049663  1.0
  F  F14  1  0.87069985  0.73726265  0.58049663  1.0
  F  F15  1  0.37069985  0.26273735  0.58049663  1.0
