# generated using pymatgen
data_KNaMg2Si4(O5F)2
_symmetry_space_group_name_H-M   'P 1'
_cell_length_a   5.30896985
_cell_length_b   5.30896985
_cell_length_c   10.50430950
_cell_angle_alpha   84.30147421
_cell_angle_beta   95.69852579
_cell_angle_gamma   60.52116207
_symmetry_Int_Tables_number   1
_chemical_formula_structural   KNaMg2Si4(O5F)2
_chemical_formula_sum   'K1 Na1 Mg2 Si4 O10 F2'
_cell_volume   252.68354682
_cell_formula_units_Z   1
loop_
 _symmetry_equiv_pos_site_id
 _symmetry_equiv_pos_as_xyz
  1  'x, y, z'
loop_
 _atom_site_type_symbol
 _atom_site_label
 _atom_site_symmetry_multiplicity
 _atom_site_fract_x
 _atom_site_fract_y
 _atom_site_fract_z
 _atom_site_occupancy
  K  K0  1  1.00000000  -0.00000000  0.00000000  1.0
  Na  Na1  1  0.50000000  0.50000000  0.50000000  1.0
  Mg  Mg2  1  0.83417678  0.83417678  0.50000000  1.0
  Mg  Mg3  1  0.16582322  0.16582322  0.50000000  1.0
  Si  Si4  1  1.58825410  -0.24771750  0.77032955  1.0
  Si  Si5  1  1.24771750  -0.58825410  0.77032955  1.0
  Si  Si6  1  0.75228250  0.58825410  0.22967045  1.0
  Si  Si7  1  0.41174590  0.24771750  0.22967045  1.0
  O  O8  1  1.54102681  -0.17625266  0.61534104  1.0
  O  O9  1  1.17625266  -0.54102681  0.61534104  1.0
  O  O10  1  0.82374734  0.54102681  0.38465896  1.0
  O  O11  1  0.45897319  0.17625266  0.38465896  1.0
  O  O12  1  0.43915367  0.05620332  0.83636629  1.0
  O  O13  1  0.94379668  0.56084633  0.83636629  1.0
  O  O14  1  1.05620332  -0.56084633  0.16363371  1.0
  O  O15  1  1.56084633  -0.05620332  0.16363371  1.0
  O  O16  1  1.44660002  -0.44660002  0.82609999  1.0
  O  O17  1  0.55339998  0.44660002  0.17390001  1.0
  F  F18  1  0.90636682  0.09363318  0.60627395  1.0
  F  F19  1  1.09363318  -0.09363318  0.39372605  1.0
