# generated using pymatgen
data_C4S3N5
_symmetry_space_group_name_H-M   'P 1'
_cell_length_a   7.40894883
_cell_length_b   12.28245753
_cell_length_c   9.98570519
_cell_angle_alpha   90.00000000
_cell_angle_beta   122.72369257
_cell_angle_gamma   90.00000000
_symmetry_Int_Tables_number   1
_chemical_formula_structural   C4S3N5
_chemical_formula_sum   'C16 S12 N20'
_cell_volume   764.47792028
_cell_formula_units_Z   4
loop_
 _symmetry_equiv_pos_site_id
 _symmetry_equiv_pos_as_xyz
  1  'x, y, z'
loop_
 _atom_site_type_symbol
 _atom_site_label
 _atom_site_symmetry_multiplicity
 _atom_site_fract_x
 _atom_site_fract_y
 _atom_site_fract_z
 _atom_site_occupancy
  C  C0  1  0.36777209  0.64417642  0.06526820  1.0
  C  C1  1  0.63222791  0.35582358  0.93473180  1.0
  C  C2  1  0.63222791  0.14417642  0.43473180  1.0
  C  C3  1  0.36777209  0.85582358  0.56526820  1.0
  C  C4  1  0.42163850  0.54460513  0.16119388  1.0
  C  C5  1  0.57836150  0.45539487  0.83880612  1.0
  C  C6  1  0.57836150  0.04460513  0.33880612  1.0
  C  C7  1  0.42163850  0.95539487  0.66119388  1.0
  C  C8  1  0.17856098  0.45409012  0.93841324  1.0
  C  C9  1  0.82143902  0.54590988  0.06158676  1.0
  C  C10  1  0.82143902  0.95409012  0.56158676  1.0
  C  C11  1  0.17856098  0.04590988  0.43841324  1.0
  C  C12  1  0.13170220  0.55319114  0.84355041  1.0
  C  C13  1  0.86829780  0.44680886  0.15644959  1.0
  C  C14  1  0.86829780  0.05319114  0.65644959  1.0
  C  C15  1  0.13170220  0.94680886  0.34355041  1.0
  S  S16  1  0.50784767  0.75910410  0.17332581  1.0
  S  S17  1  0.49215233  0.24089590  0.82667419  1.0
  S  S18  1  0.49215233  0.25910410  0.32667419  1.0
  S  S19  1  0.50784767  0.74089590  0.67332581  1.0
  S  S20  1  0.68858797  0.66764621  0.38207538  1.0
  S  S21  1  0.31141203  0.33235379  0.61792462  1.0
  S  S22  1  0.31141203  0.16764621  0.11792462  1.0
  S  S23  1  0.68858797  0.83235379  0.88207538  1.0
  S  S24  1  0.92583662  0.40827464  0.66694383  1.0
  S  S25  1  0.07416338  0.59172536  0.33305617  1.0
  S  S26  1  0.07416338  0.90827464  0.83305617  1.0
  S  S27  1  0.92583662  0.09172536  0.16694383  1.0
  N  N28  1  0.57781205  0.55075021  0.31592421  1.0
  N  N29  1  0.42218795  0.44924979  0.68407579  1.0
  N  N30  1  0.42218795  0.05075021  0.18407579  1.0
  N  N31  1  0.57781205  0.94924979  0.81592421  1.0
  N  N32  1  0.32100659  0.44997123  0.09602310  1.0
  N  N33  1  0.67899341  0.55002877  0.90397690  1.0
  N  N34  1  0.67899341  0.94997123  0.40397690  1.0
  N  N35  1  0.32100659  0.05002877  0.59602310  1.0
  N  N36  1  0.06786664  0.36659900  0.85121699  1.0
  N  N37  1  0.93213336  0.63340100  0.14878301  1.0
  N  N38  1  0.93213336  0.86659900  0.64878301  1.0
  N  N39  1  0.06786664  0.13340100  0.35121699  1.0
  N  N40  1  0.98954626  0.53774501  0.68753984  1.0
  N  N41  1  0.01045374  0.46225499  0.31246016  1.0
  N  N42  1  0.01045374  0.03774501  0.81246016  1.0
  N  N43  1  0.98954626  0.96225499  0.18753984  1.0
  N  N44  1  0.22675933  0.64964612  0.91023730  1.0
  N  N45  1  0.77324067  0.35035388  0.08976270  1.0
  N  N46  1  0.77324067  0.14964612  0.58976270  1.0
  N  N47  1  0.22675933  0.85035388  0.41023730  1.0
