# generated using pymatgen
data_CoPH6NO5
_symmetry_space_group_name_H-M   'P 1'
_cell_length_a   5.64911320
_cell_length_b   8.94778192
_cell_length_c   4.81294790
_cell_angle_alpha   90.00000000
_cell_angle_beta   90.00000000
_cell_angle_gamma   90.00000000
_symmetry_Int_Tables_number   1
_chemical_formula_structural   CoPH6NO5
_chemical_formula_sum   'Co2 P2 H12 N2 O10'
_cell_volume   243.28023616
_cell_formula_units_Z   2
loop_
 _symmetry_equiv_pos_site_id
 _symmetry_equiv_pos_as_xyz
  1  'x, y, z'
loop_
 _atom_site_type_symbol
 _atom_site_label
 _atom_site_symmetry_multiplicity
 _atom_site_fract_x
 _atom_site_fract_y
 _atom_site_fract_z
 _atom_site_occupancy
  O  O0  1  0.50000000  0.86192281  0.56165730  1.0
  O  O1  1  0.00000000  0.13807719  0.06165730  1.0
  O  O2  1  0.50000000  0.66392297  0.18902595  1.0
  O  O3  1  0.00000000  0.33607703  0.68902595  1.0
  O  O4  1  0.50000000  0.29859942  0.63184695  1.0
  O  O5  1  0.00000000  0.70140058  0.13184695  1.0
  O  O6  1  0.28016863  0.61448176  0.65217280  1.0
  O  O7  1  0.78016863  0.38551824  0.15217280  1.0
  O  O8  1  0.71983137  0.61448176  0.65217280  1.0
  O  O9  1  0.21983137  0.38551824  0.15217280  1.0
  N  N10  1  0.50000000  0.01954999  0.06056008  1.0
  N  N11  1  0.00000000  0.98045001  0.56056008  1.0
  H  H12  1  0.15087277  0.91468558  0.55644452  1.0
  H  H13  1  0.65087277  0.08531442  0.05644452  1.0
  H  H14  1  0.84912723  0.91468558  0.55644452  1.0
  H  H15  1  0.34912723  0.08531442  0.05644452  1.0
  H  H16  1  0.13871988  0.68420610  0.01158675  1.0
  H  H17  1  0.63871988  0.31579390  0.51158675  1.0
  H  H18  1  0.86128012  0.68420610  0.01158675  1.0
  H  H19  1  0.36128012  0.31579390  0.51158675  1.0
  H  H20  1  0.50000000  0.95469806  0.24348411  1.0
  H  H21  1  0.00000000  0.04530194  0.74348411  1.0
  H  H22  1  0.50000000  0.94942173  0.88447314  1.0
  H  H23  1  0.00000000  0.05057827  0.38447314  1.0
  Co  Co24  1  0.50000000  0.47484432  0.93789288  1.0
  Co  Co25  1  0.00000000  0.52515568  0.43789288  1.0
  P  P26  1  0.50000000  0.69005817  0.50385145  1.0
  P  P27  1  0.00000000  0.30994183  0.00385145  1.0
