# generated using pymatgen
data_LuAu3
_symmetry_space_group_name_H-M   'P 1'
_cell_length_a   4.98089623
_cell_length_b   6.06524187
_cell_length_c   5.12839766
_cell_angle_alpha   90.00000000
_cell_angle_beta   90.00000000
_cell_angle_gamma   90.00000000
_symmetry_Int_Tables_number   1
_chemical_formula_structural   LuAu3
_chemical_formula_sum   'Lu2 Au6'
_cell_volume   154.93063868
_cell_formula_units_Z   2
loop_
 _symmetry_equiv_pos_site_id
 _symmetry_equiv_pos_as_xyz
  1  'x, y, z'
loop_
 _atom_site_type_symbol
 _atom_site_label
 _atom_site_symmetry_multiplicity
 _atom_site_fract_x
 _atom_site_fract_y
 _atom_site_fract_z
 _atom_site_occupancy
  Lu  Lu0  1  0.50000000  0.00000000  0.15569551  1.0
  Lu  Lu1  1  0.00000000  0.50000000  0.84430449  1.0
  Au  Au2  1  0.50000000  0.74557840  0.66179717  1.0
  Au  Au3  1  0.50000000  0.25442160  0.66179717  1.0
  Au  Au4  1  0.00000000  0.24557840  0.33820283  1.0
  Au  Au5  1  0.00000000  0.75442160  0.33820283  1.0
  Au  Au6  1  0.50000000  0.50000000  0.16344692  1.0
  Au  Au7  1  0.00000000  0.00000000  0.83655308  1.0
