# generated using pymatgen
data_SmMgPd
_symmetry_space_group_name_H-M   'P 1'
_cell_length_a   7.58505313
_cell_length_b   7.58505313
_cell_length_c   4.21252177
_cell_angle_alpha   90.00000000
_cell_angle_beta   90.00000000
_cell_angle_gamma   120.00000000
_symmetry_Int_Tables_number   1
_chemical_formula_structural   SmMgPd
_chemical_formula_sum   'Sm3 Mg3 Pd3'
_cell_volume   209.88917666
_cell_formula_units_Z   3
loop_
 _symmetry_equiv_pos_site_id
 _symmetry_equiv_pos_as_xyz
  1  'x, y, z'
loop_
 _atom_site_type_symbol
 _atom_site_label
 _atom_site_symmetry_multiplicity
 _atom_site_fract_x
 _atom_site_fract_y
 _atom_site_fract_z
 _atom_site_occupancy
  Sm  Sm0  1  0.41654281  0.41654281  -0.00000000  1.0
  Sm  Sm1  1  -0.00000000  0.58345719  0.00000000  1.0
  Sm  Sm2  1  0.58345719  0.00000000  0.00000000  1.0
  Mg  Mg3  1  0.75981077  0.75981077  0.50000000  1.0
  Mg  Mg4  1  -0.00000000  0.24018923  0.50000000  1.0
  Mg  Mg5  1  0.24018923  0.00000000  0.50000000  1.0
  Pd  Pd6  1  0.33333333  0.66666667  0.50000000  1.0
  Pd  Pd7  1  0.66666667  0.33333333  0.50000000  1.0
  Pd  Pd8  1  0.00000000  -0.00000000  -0.00000000  1.0
