# generated using pymatgen
data_RbHSeO4
_symmetry_space_group_name_H-M   'P 1'
_cell_length_a   10.87308362
_cell_length_b   10.87308362
_cell_length_c   4.64991204
_cell_angle_alpha   78.49933104
_cell_angle_beta   101.50066896
_cell_angle_gamma   137.96228007
_symmetry_Int_Tables_number   1
_chemical_formula_structural   RbHSeO4
_chemical_formula_sum   'Rb3 H3 Se3 O12'
_cell_volume   359.61583417
_cell_formula_units_Z   3
loop_
 _symmetry_equiv_pos_site_id
 _symmetry_equiv_pos_as_xyz
  1  'x, y, z'
loop_
 _atom_site_type_symbol
 _atom_site_label
 _atom_site_symmetry_multiplicity
 _atom_site_fract_x
 _atom_site_fract_y
 _atom_site_fract_z
 _atom_site_occupancy
  Rb  Rb0  1  1.08218222  0.75199126  0.57908481  1.0
  Rb  Rb1  1  0.75199126  0.08218222  0.42091519  1.0
  Rb  Rb2  1  0.50553381  0.50553381  -0.00000000  1.0
  H  H3  1  1.14173459  0.45774581  0.85852798  1.0
  H  H4  1  0.45774581  0.14173459  0.14147202  1.0
  H  H5  1  0.11426855  0.11426855  0.50000000  1.0
  Se  Se6  1  1.25847264  0.59462976  0.30078300  1.0
  Se  Se7  1  0.59462976  0.25847264  0.69921700  1.0
  Se  Se8  1  -0.00708321  -0.00708321  0.00000000  1.0
  O  O9  1  1.09934907  0.15390110  0.70725250  1.0
  O  O10  1  0.15390110  0.09934907  0.29274750  1.0
  O  O11  1  1.09706329  0.48525938  0.53177661  1.0
  O  O12  1  0.48525938  0.09706329  0.46822339  1.0
  O  O13  1  0.76078352  0.29702483  0.90407867  1.0
  O  O14  1  0.29702483  -0.23921648  0.09592133  1.0
  O  O15  1  0.42440810  0.16295610  0.92647092  1.0
  O  O16  1  1.16295610  0.42440810  0.07352908  1.0
  O  O17  1  0.65782008  0.44513795  0.53195429  1.0
  O  O18  1  0.44513795  -0.34217992  0.46804571  1.0
  O  O19  1  0.94111126  0.81200991  0.95365938  1.0
  O  O20  1  0.81200991  -0.05888874  0.04634062  1.0
