# generated using pymatgen
data_Mg5Si2(O4F)2
_symmetry_space_group_name_H-M   'P 1'
_cell_length_a   7.87933131
_cell_length_b   4.77391413
_cell_length_c   10.36200419
_cell_angle_alpha   90.00000000
_cell_angle_beta   109.24830207
_cell_angle_gamma   90.00000000
_symmetry_Int_Tables_number   1
_chemical_formula_structural   Mg5Si2(O4F)2
_chemical_formula_sum   'Mg10 Si4 O16 F4'
_cell_volume   367.98080909
_cell_formula_units_Z   2
loop_
 _symmetry_equiv_pos_site_id
 _symmetry_equiv_pos_as_xyz
  1  'x, y, z'
loop_
 _atom_site_type_symbol
 _atom_site_label
 _atom_site_symmetry_multiplicity
 _atom_site_fract_x
 _atom_site_fract_y
 _atom_site_fract_z
 _atom_site_occupancy
  Mg  Mg0  1  0.80231063  0.50766644  0.17143602  1.0
  Mg  Mg1  1  0.80231063  0.99233356  0.67143602  1.0
  Mg  Mg2  1  0.19768937  0.00766644  0.32856398  1.0
  Mg  Mg3  1  0.19768937  0.49233356  0.82856398  1.0
  Mg  Mg4  1  0.00000000  0.50000000  0.50000000  1.0
  Mg  Mg5  1  0.00000000  0.00000000  0.00000000  1.0
  Mg  Mg6  1  0.42048107  0.00831635  0.11344215  1.0
  Mg  Mg7  1  0.42048107  0.49168365  0.61344215  1.0
  Mg  Mg8  1  0.57951893  0.50831635  0.38655785  1.0
  Mg  Mg9  1  0.57951893  0.99168365  0.88655785  1.0
  Si  Si10  1  0.79620024  0.07704767  0.35583234  1.0
  Si  Si11  1  0.79620024  0.42295233  0.85583234  1.0
  Si  Si12  1  0.20379976  0.57704767  0.14416766  1.0
  Si  Si13  1  0.20379976  0.92295233  0.64416766  1.0
  O  O14  1  0.79331160  0.73523585  0.35443497  1.0
  O  O15  1  0.79331160  0.76476416  0.85443497  1.0
  O  O16  1  0.20668840  0.23523584  0.14556503  1.0
  O  O17  1  0.20668840  0.26476416  0.64556503  1.0
  O  O18  1  0.97390215  0.22524900  0.33222100  1.0
  O  O19  1  0.97390215  0.27475100  0.83222100  1.0
  O  O20  1  0.02609785  0.72524900  0.16777900  1.0
  O  O21  1  0.02609785  0.77475100  0.66777900  1.0
  O  O22  1  0.62430223  0.23148090  0.23991606  1.0
  O  O23  1  0.62430223  0.26851910  0.73991606  1.0
  O  O24  1  0.37569777  0.73148090  0.26008394  1.0
  O  O25  1  0.37569777  0.76851910  0.76008394  1.0
  O  O26  1  0.79243442  0.22189608  0.50078463  1.0
  O  O27  1  0.79243442  0.27810392  0.00078463  1.0
  O  O28  1  0.20756558  0.72189608  0.99921537  1.0
  O  O29  1  0.20756558  0.77810392  0.49921537  1.0
  F  F30  1  0.39388156  0.27763689  0.43990480  1.0
  F  F31  1  0.39388156  0.22236311  0.93990480  1.0
  F  F32  1  0.60611844  0.77763689  0.06009520  1.0
  F  F33  1  0.60611844  0.72236311  0.56009520  1.0
