# generated using pymatgen
data_Lu(Al5Os)2
_symmetry_space_group_name_H-M   'P 1'
_cell_length_a   6.84147615
_cell_length_b   6.84147615
_cell_length_c   9.12647886
_cell_angle_alpha   90.00000000
_cell_angle_beta   90.00000000
_cell_angle_gamma   96.39757498
_symmetry_Int_Tables_number   1
_chemical_formula_structural   Lu(Al5Os)2
_chemical_formula_sum   'Lu2 Al20 Os4'
_cell_volume   424.51195027
_cell_formula_units_Z   2
loop_
 _symmetry_equiv_pos_site_id
 _symmetry_equiv_pos_as_xyz
  1  'x, y, z'
loop_
 _atom_site_type_symbol
 _atom_site_label
 _atom_site_symmetry_multiplicity
 _atom_site_fract_x
 _atom_site_fract_y
 _atom_site_fract_z
 _atom_site_occupancy
  Lu  Lu0  1  0.13088357  0.86911643  0.25000000  1.0
  Lu  Lu1  1  -0.13088357  1.13088357  0.75000000  1.0
  Al  Al2  1  0.14856275  0.41808924  0.25000000  1.0
  Al  Al3  1  -0.58191076  1.14856275  0.75000000  1.0
  Al  Al4  1  0.58191076  0.85143725  0.25000000  1.0
  Al  Al5  1  -0.14856275  1.58191076  0.75000000  1.0
  Al  Al6  1  -0.21666254  1.51948958  0.25000000  1.0
  Al  Al7  1  0.51948958  0.78333746  0.75000000  1.0
  Al  Al8  1  -0.51948958  1.21666254  0.25000000  1.0
  Al  Al9  1  0.21666254  0.48051042  0.75000000  1.0
  Al  Al10  1  0.15416635  0.84583365  0.89921591  1.0
  Al  Al11  1  0.15416635  0.84583365  0.60078409  1.0
  Al  Al12  1  -0.15416635  1.15416635  0.39921591  1.0
  Al  Al13  1  -0.15416635  1.15416635  0.10078409  1.0
  Al  Al14  1  0.37626064  0.62373936  0.45352502  1.0
  Al  Al15  1  0.37626064  0.62373936  0.04647498  1.0
  Al  Al16  1  -0.37626064  1.37626064  0.95352502  1.0
  Al  Al17  1  -0.37626064  1.37626064  0.54647498  1.0
  Al  Al18  1  0.77701970  0.77701970  0.50000000  1.0
  Al  Al19  1  0.77701970  0.77701970  0.00000000  1.0
  Al  Al20  1  0.22298030  0.22298030  0.50000000  1.0
  Al  Al21  1  0.22298030  0.22298030  0.00000000  1.0
  Os  Os22  1  -0.00000000  1.50000000  0.50000000  1.0
  Os  Os23  1  -0.00000000  1.50000000  0.00000000  1.0
  Os  Os24  1  0.50000000  1.00000000  0.00000000  1.0
  Os  Os25  1  0.50000000  1.00000000  0.50000000  1.0
