# generated using pymatgen
data_HfGa2Ni
_symmetry_space_group_name_H-M   'P 1'
_cell_length_a   9.61298775
_cell_length_b   9.61298775
_cell_length_c   9.61298775
_cell_angle_alpha   100.25826979
_cell_angle_beta   100.25826979
_cell_angle_gamma   130.07792333
_symmetry_Int_Tables_number   1
_chemical_formula_structural   HfGa2Ni
_chemical_formula_sum   'Hf10 Ga20 Ni10'
_cell_volume   616.23468203
_cell_formula_units_Z   10
loop_
 _symmetry_equiv_pos_site_id
 _symmetry_equiv_pos_as_xyz
  1  'x, y, z'
loop_
 _atom_site_type_symbol
 _atom_site_label
 _atom_site_symmetry_multiplicity
 _atom_site_fract_x
 _atom_site_fract_y
 _atom_site_fract_z
 _atom_site_occupancy
  Hf  Hf0  1  1.32901879  0.61563864  0.71338016  1.0
  Hf  Hf1  1  0.61563864  0.32901879  0.71338016  1.0
  Hf  Hf2  1  0.61563864  0.90225848  1.28661984  1.0
  Hf  Hf3  1  0.90225848  0.61563864  0.28661984  1.0
  Hf  Hf4  1  0.32604088  0.32604088  0.40560009  1.0
  Hf  Hf5  1  0.32604088  0.92044078  1.00000000  1.0
  Hf  Hf6  1  0.92044078  1.32604088  1.00000000  1.0
  Hf  Hf7  1  0.92044078  0.92044078  0.59439991  1.0
  Hf  Hf8  1  -0.00458399  -0.00458399  0.00000000  1.0
  Hf  Hf9  1  0.55467195  0.55467195  0.00000000  1.0
  Ga  Ga10  1  0.72955987  0.52008096  0.50634727  1.0
  Ga  Ga11  1  0.72955987  1.22321260  1.20947892  1.0
  Ga  Ga12  1  1.52008096  1.72955987  1.50634727  1.0
  Ga  Ga13  1  1.52008096  1.01373369  0.79052108  1.0
  Ga  Ga14  1  1.01373369  0.52008096  0.79052108  1.0
  Ga  Ga15  1  1.01373369  1.22321260  1.49365273  1.0
  Ga  Ga16  1  1.22321260  1.72955987  1.20947892  1.0
  Ga  Ga17  1  1.22321260  1.01373369  0.49365273  1.0
  Ga  Ga18  1  1.12451013  0.28317867  0.84133146  1.0
  Ga  Ga19  1  1.28317867  1.12451013  0.84133146  1.0
  Ga  Ga20  1  1.28317867  1.44184721  1.15866854  1.0
  Ga  Ga21  1  0.44184721  0.28317867  0.15866854  1.0
  Ga  Ga22  1  0.75371537  0.13617083  0.61754454  1.0
  Ga  Ga23  1  1.13617083  0.75371537  0.61754454  1.0
  Ga  Ga24  1  1.13617083  1.51862629  1.38245546  1.0
  Ga  Ga25  1  0.51862629  0.13617083  0.38245546  1.0
  Ga  Ga26  1  0.64214091  0.64214091  0.73497304  1.0
  Ga  Ga27  1  0.64214091  0.90716787  1.00000000  1.0
  Ga  Ga28  1  0.90716787  1.64214091  1.00000000  1.0
  Ga  Ga29  1  0.90716787  0.90716787  0.26502696  1.0
  Ni  Ni30  1  1.75571967  0.97205404  0.78366563  1.0
  Ni  Ni31  1  0.97205404  0.75571967  0.78366563  1.0
  Ni  Ni32  1  0.97205404  1.18838841  1.21633437  1.0
  Ni  Ni33  1  1.18838841  0.97205404  0.21633437  1.0
  Ni  Ni34  1  0.62362984  0.62362984  0.32484654  1.0
  Ni  Ni35  1  0.62362984  1.29878330  1.00000000  1.0
  Ni  Ni36  1  1.29878330  1.62362984  1.00000000  1.0
  Ni  Ni37  1  1.29878330  1.29878330  0.67515346  1.0
  Ni  Ni38  1  0.88953096  0.38953096  0.50000000  1.0
  Ni  Ni39  1  1.38953096  0.88953096  0.50000000  1.0
