# generated using pymatgen
data_SiH12C2(NF)6
_symmetry_space_group_name_H-M   'P 1'
_cell_length_a   7.28291084
_cell_length_b   7.28291084
_cell_length_c   6.51527116
_cell_angle_alpha   73.16505264
_cell_angle_beta   106.83494736
_cell_angle_gamma   119.99013438
_symmetry_Int_Tables_number   1
_chemical_formula_structural   SiH12C2(NF)6
_chemical_formula_sum   'Si1 H12 C2 N6 F6'
_cell_volume   282.07205940
_cell_formula_units_Z   1
loop_
 _symmetry_equiv_pos_site_id
 _symmetry_equiv_pos_as_xyz
  1  'x, y, z'
loop_
 _atom_site_type_symbol
 _atom_site_label
 _atom_site_symmetry_multiplicity
 _atom_site_fract_x
 _atom_site_fract_y
 _atom_site_fract_z
 _atom_site_occupancy
  Si  Si0  1  0.00000000  0.00000000  0.00000000  1.0
  H  H1  1  0.55680440  0.00256603  0.75684894  1.0
  H  H2  1  0.99743397  0.44319560  0.75684894  1.0
  H  H3  1  0.44319560  -0.00256603  0.24315106  1.0
  H  H4  1  1.00256603  0.55680440  0.24315106  1.0
  H  H5  1  0.31613173  0.00129350  0.75877377  1.0
  H  H6  1  0.99870650  0.68386827  0.75877377  1.0
  H  H7  1  0.68386827  -0.00129350  0.24122623  1.0
  H  H8  1  1.00129350  0.31613173  0.24122623  1.0
  H  H9  1  1.31663409  0.44412341  0.75382886  1.0
  H  H10  1  0.55587659  -0.31663409  0.75382886  1.0
  H  H11  1  0.68336591  0.55587659  0.24617114  1.0
  H  H12  1  0.44412341  0.31663409  0.24617114  1.0
  C  C13  1  0.28728813  -0.28728813  0.73614956  1.0
  C  C14  1  0.71271187  0.28728813  0.26385044  1.0
  N  N15  1  0.39156154  -0.39156154  0.72654044  1.0
  N  N16  1  0.60843846  0.39156154  0.27345956  1.0
  N  N17  1  0.39263604  -0.07493858  0.73636633  1.0
  N  N18  1  1.07493858  0.60736396  0.73636633  1.0
  N  N19  1  0.60736396  0.07493858  0.26363367  1.0
  N  N20  1  0.92506142  0.39263604  0.26363367  1.0
  F  F21  1  0.19464562  0.14006637  0.83757871  1.0
  F  F22  1  0.85993363  0.80535438  0.83757871  1.0
  F  F23  1  0.80535438  -0.14006637  0.16242129  1.0
  F  F24  1  1.14006637  0.19464562  0.16242129  1.0
  F  F25  1  0.86015762  0.13984238  0.83973539  1.0
  F  F26  1  0.13984238  -0.13984238  0.16026461  1.0
