# generated using pymatgen
data_GdCrTeO6
_symmetry_space_group_name_H-M   'P 1'
_cell_length_a   5.47616689
_cell_length_b   5.47616689
_cell_length_c   8.60265075
_cell_angle_alpha   90.00000000
_cell_angle_beta   90.00000000
_cell_angle_gamma   120.00000000
_symmetry_Int_Tables_number   1
_chemical_formula_structural   GdCrTeO6
_chemical_formula_sum   'Gd2 Cr2 Te2 O12'
_cell_volume   223.41702938
_cell_formula_units_Z   2
loop_
 _symmetry_equiv_pos_site_id
 _symmetry_equiv_pos_as_xyz
  1  'x, y, z'
loop_
 _atom_site_type_symbol
 _atom_site_label
 _atom_site_symmetry_multiplicity
 _atom_site_fract_x
 _atom_site_fract_y
 _atom_site_fract_z
 _atom_site_occupancy
  Gd  Gd0  1  0.66666667  0.33333333  0.25000000  1.0
  Gd  Gd1  1  0.33333333  0.66666667  0.75000000  1.0
  Cr  Cr2  1  0.00000000  0.00000000  -0.00000000  1.0
  Cr  Cr3  1  -0.00000000  -0.00000000  0.50000000  1.0
  Te  Te4  1  0.33333333  0.66666667  0.25000000  1.0
  Te  Te5  1  0.66666667  0.33333333  0.75000000  1.0
  O  O6  1  0.30409550  0.96088181  0.11941191  1.0
  O  O7  1  0.30409550  0.34321370  0.38058809  1.0
  O  O8  1  0.96088181  0.30409550  0.61941191  1.0
  O  O9  1  0.96088181  0.65678630  0.88058809  1.0
  O  O10  1  0.65678630  0.96088181  0.38058809  1.0
  O  O11  1  0.65678630  0.69590450  0.11941191  1.0
  O  O12  1  0.03911819  0.69590450  0.38058809  1.0
  O  O13  1  0.03911819  0.34321370  0.11941191  1.0
  O  O14  1  0.69590450  0.65678630  0.61941191  1.0
  O  O15  1  0.69590450  0.03911819  0.88058809  1.0
  O  O16  1  0.34321370  0.30409550  0.88058809  1.0
  O  O17  1  0.34321370  0.03911819  0.61941191  1.0
