# generated using pymatgen
data_Cs2SbBr6
_symmetry_space_group_name_H-M   'P 1'
_cell_length_a   13.73249624
_cell_length_b   13.73249624
_cell_length_c   13.73249624
_cell_angle_alpha   131.87389859
_cell_angle_beta   131.87389859
_cell_angle_gamma   70.42826341
_symmetry_Int_Tables_number   1
_chemical_formula_structural   Cs2SbBr6
_chemical_formula_sum   'Cs8 Sb4 Br24'
_cell_volume   1407.02628202
_cell_formula_units_Z   4
loop_
 _symmetry_equiv_pos_site_id
 _symmetry_equiv_pos_as_xyz
  1  'x, y, z'
loop_
 _atom_site_type_symbol
 _atom_site_label
 _atom_site_symmetry_multiplicity
 _atom_site_fract_x
 _atom_site_fract_y
 _atom_site_fract_z
 _atom_site_occupancy
  Cs  Cs0  1  1.62495755  1.62500000  1.49995755  1.0
  Cs  Cs1  1  1.12504245  1.62500000  1.00004245  1.0
  Cs  Cs2  1  1.37500000  0.87495755  0.99995755  1.0
  Cs  Cs3  1  0.87500000  0.87495755  0.49995755  1.0
  Cs  Cs4  1  1.62495755  1.12500000  0.99995755  1.0
  Cs  Cs5  1  1.12504245  1.12500000  0.50004245  1.0
  Cs  Cs6  1  1.37500000  1.37504245  1.50004245  1.0
  Cs  Cs7  1  0.87500000  1.37504245  1.00004245  1.0
  Sb  Sb8  1  0.50000000  0.50000000  1.00000000  1.0
  Sb  Sb9  1  1.25000000  0.75000000  0.50000000  1.0
  Sb  Sb10  1  0.00000000  0.00000000  0.00000000  1.0
  Sb  Sb11  1  0.75000000  1.25000000  0.50000000  1.0
  Br  Br12  1  -0.00001779  0.24318838  0.24320617  1.0
  Br  Br13  1  0.99318838  1.24998221  0.74320617  1.0
  Br  Br14  1  1.50677604  1.24998221  1.25679383  1.0
  Br  Br15  1  -0.00001779  0.75677604  0.75679383  1.0
  Br  Br16  1  0.75001779  1.00681162  0.25679383  1.0
  Br  Br17  1  1.75681162  1.00001779  0.75679383  1.0
  Br  Br18  1  1.24322396  1.00001779  0.24320617  1.0
  Br  Br19  1  0.75001779  1.49322396  0.74320617  1.0
  Br  Br20  1  1.49998895  1.74324919  1.24326024  1.0
  Br  Br21  1  1.49324919  0.74998895  0.74326024  1.0
  Br  Br22  1  1.00672871  0.74998895  0.25673976  1.0
  Br  Br23  1  1.49998895  1.25672871  0.75673976  1.0
  Br  Br24  1  1.25001105  1.50675081  1.25673976  1.0
  Br  Br25  1  0.25675081  0.50001105  0.75673976  1.0
  Br  Br26  1  0.74327129  0.50001105  1.24326024  1.0
  Br  Br27  1  1.25001105  0.99327129  0.74326024  1.0
  Br  Br28  1  0.12140336  0.12140336  0.00000000  1.0
  Br  Br29  1  0.87140336  1.37140336  0.50000000  1.0
  Br  Br30  1  0.62859664  1.12859664  0.50000000  1.0
  Br  Br31  1  0.87859664  0.87859664  -0.00000000  1.0
  Br  Br32  1  1.37858571  1.37858571  1.00000000  1.0
  Br  Br33  1  1.12858571  0.62858571  0.50000000  1.0
  Br  Br34  1  1.37141429  0.87141429  0.50000000  1.0
  Br  Br35  1  0.62141429  0.62141429  1.00000000  1.0
