# generated using pymatgen
data_CdI2
_symmetry_space_group_name_H-M   'P 1'
_cell_length_a   4.32839027
_cell_length_b   4.32839027
_cell_length_c   83.45795333
_cell_angle_alpha   90.00000000
_cell_angle_beta   90.00000000
_cell_angle_gamma   120.00000000
_symmetry_Int_Tables_number   1
_chemical_formula_structural   CdI2
_chemical_formula_sum   'Cd11 I22'
_cell_volume   1354.10139628
_cell_formula_units_Z   11
loop_
 _symmetry_equiv_pos_site_id
 _symmetry_equiv_pos_as_xyz
  1  'x, y, z'
loop_
 _atom_site_type_symbol
 _atom_site_label
 _atom_site_symmetry_multiplicity
 _atom_site_fract_x
 _atom_site_fract_y
 _atom_site_fract_z
 _atom_site_occupancy
  Cd  Cd0  1  0.00000000  0.00000000  0.02274667  1.0
  Cd  Cd1  1  0.00000000  0.00000000  0.11363646  1.0
  Cd  Cd2  1  0.00000000  0.00000000  0.20454724  1.0
  Cd  Cd3  1  0.00000000  0.00000000  0.38637343  1.0
  Cd  Cd4  1  0.00000000  0.00000000  0.56819188  1.0
  Cd  Cd5  1  0.00000000  0.00000000  0.65908040  1.0
  Cd  Cd6  1  0.00000000  0.00000000  0.84090578  1.0
  Cd  Cd7  1  0.66666667  0.33333333  0.29546838  1.0
  Cd  Cd8  1  0.66666667  0.33333333  0.47728858  1.0
  Cd  Cd9  1  0.66666667  0.33333333  0.75000059  1.0
  Cd  Cd10  1  0.66666667  0.33333333  0.93182628  1.0
  I  I11  1  0.00000000  0.00000000  0.31606727  1.0
  I  I12  1  0.00000000  0.00000000  0.49787907  1.0
  I  I13  1  0.00000000  0.00000000  0.77059092  1.0
  I  I14  1  0.00000000  0.00000000  0.95242454  1.0
  I  I15  1  0.66666667  0.33333333  0.04334525  1.0
  I  I16  1  0.66666667  0.33333333  0.13423588  1.0
  I  I17  1  0.66666667  0.33333333  0.22514710  1.0
  I  I18  1  0.66666667  0.33333333  0.40697167  1.0
  I  I19  1  0.66666667  0.33333333  0.58878998  1.0
  I  I20  1  0.66666667  0.33333333  0.67967185  1.0
  I  I21  1  0.66666667  0.33333333  0.86149586  1.0
  I  I22  1  0.33333333  0.66666667  0.00214860  1.0
  I  I23  1  0.33333333  0.66666667  0.09303668  1.0
  I  I24  1  0.33333333  0.66666667  0.18394739  1.0
  I  I25  1  0.33333333  0.66666667  0.27487003  1.0
  I  I26  1  0.33333333  0.66666667  0.36577553  1.0
  I  I27  1  0.33333333  0.66666667  0.45669855  1.0
  I  I28  1  0.33333333  0.66666667  0.54759412  1.0
  I  I29  1  0.33333333  0.66666667  0.63848904  1.0
  I  I30  1  0.33333333  0.66666667  0.72941060  1.0
  I  I31  1  0.33333333  0.66666667  0.82031603  1.0
  I  I32  1  0.33333333  0.66666667  0.91122834  1.0
