# generated using pymatgen
data_La5Sn4
_symmetry_space_group_name_H-M   'P 1'
_cell_length_a   8.54979439
_cell_length_b   16.35469387
_cell_length_c   8.64562251
_cell_angle_alpha   90.00000000
_cell_angle_beta   90.00000000
_cell_angle_gamma   90.00000000
_symmetry_Int_Tables_number   1
_chemical_formula_structural   La5Sn4
_chemical_formula_sum   'La20 Sn16'
_cell_volume   1208.91108347
_cell_formula_units_Z   4
loop_
 _symmetry_equiv_pos_site_id
 _symmetry_equiv_pos_as_xyz
  1  'x, y, z'
loop_
 _atom_site_type_symbol
 _atom_site_label
 _atom_site_symmetry_multiplicity
 _atom_site_fract_x
 _atom_site_fract_y
 _atom_site_fract_z
 _atom_site_occupancy
  La  La0  1  0.47589645  0.39959740  0.18101108  1.0
  La  La1  1  0.47589645  0.10040260  0.18101108  1.0
  La  La2  1  0.97589645  0.39959740  0.31898892  1.0
  La  La3  1  0.97589645  0.10040260  0.31898892  1.0
  La  La4  1  0.52410355  0.89959740  0.81898892  1.0
  La  La5  1  0.52410355  0.60040260  0.81898892  1.0
  La  La6  1  0.02410355  0.89959740  0.68101108  1.0
  La  La7  1  0.02410355  0.60040260  0.68101108  1.0
  La  La8  1  0.12148253  0.38243097  0.83919541  1.0
  La  La9  1  0.12148253  0.11756903  0.83919541  1.0
  La  La10  1  0.62148253  0.38243097  0.66080459  1.0
  La  La11  1  0.62148253  0.11756903  0.66080459  1.0
  La  La12  1  0.87851747  0.88243097  0.16080459  1.0
  La  La13  1  0.87851747  0.61756903  0.16080459  1.0
  La  La14  1  0.37851747  0.88243097  0.33919541  1.0
  La  La15  1  0.37851747  0.61756903  0.33919541  1.0
  La  La16  1  0.29183415  0.25000000  0.50473591  1.0
  La  La17  1  0.79183415  0.25000000  0.99526409  1.0
  La  La18  1  0.70816585  0.75000000  0.49526409  1.0
  La  La19  1  0.20816585  0.75000000  0.00473591  1.0
  Sn  Sn20  1  0.17304579  0.25000000  0.14008017  1.0
  Sn  Sn21  1  0.67304579  0.25000000  0.35991983  1.0
  Sn  Sn22  1  0.82695421  0.75000000  0.85991983  1.0
  Sn  Sn23  1  0.32695421  0.75000000  0.64008017  1.0
  Sn  Sn24  1  0.28193135  0.45660882  0.53335368  1.0
  Sn  Sn25  1  0.28193135  0.04339118  0.53335368  1.0
  Sn  Sn26  1  0.78193135  0.45660882  0.96664632  1.0
  Sn  Sn27  1  0.78193135  0.04339118  0.96664632  1.0
  Sn  Sn28  1  0.71806865  0.95660882  0.46664632  1.0
  Sn  Sn29  1  0.71806865  0.54339118  0.46664632  1.0
  Sn  Sn30  1  0.21806865  0.95660882  0.03335368  1.0
  Sn  Sn31  1  0.21806865  0.54339118  0.03335368  1.0
  Sn  Sn32  1  0.42051877  0.25000000  0.88791877  1.0
  Sn  Sn33  1  0.92051877  0.25000000  0.61208123  1.0
  Sn  Sn34  1  0.57948123  0.75000000  0.11208123  1.0
  Sn  Sn35  1  0.07948123  0.75000000  0.38791877  1.0
