# generated using pymatgen
data_CsAuF6
_symmetry_space_group_name_H-M   'P 1'
_cell_length_a   5.44345815
_cell_length_b   5.44345815
_cell_length_c   5.44345815
_cell_angle_alpha   96.89685080
_cell_angle_beta   96.89685080
_cell_angle_gamma   96.89685080
_symmetry_Int_Tables_number   1
_chemical_formula_structural   CsAuF6
_chemical_formula_sum   'Cs1 Au1 F6'
_cell_volume   157.48324901
_cell_formula_units_Z   1
loop_
 _symmetry_equiv_pos_site_id
 _symmetry_equiv_pos_as_xyz
  1  'x, y, z'
loop_
 _atom_site_type_symbol
 _atom_site_label
 _atom_site_symmetry_multiplicity
 _atom_site_fract_x
 _atom_site_fract_y
 _atom_site_fract_z
 _atom_site_occupancy
  Cs  Cs0  1  0.50000000  0.50000000  0.50000000  1.0
  Au  Au1  1  0.00000000  0.00000000  -0.00000000  1.0
  F  F2  1  0.79624659  0.71013238  0.07642122  1.0
  F  F3  1  1.28986762  -0.07642122  0.20375341  1.0
  F  F4  1  0.92357878  0.20375341  0.28986762  1.0
  F  F5  1  1.20375341  0.28986762  -0.07642122  1.0
  F  F6  1  0.71013238  1.07642122  -0.20375341  1.0
  F  F7  1  1.07642122  0.79624659  -0.28986762  1.0
