# generated using pymatgen
data_Rb3Au3Br8
_symmetry_space_group_name_H-M   'P 1'
_cell_length_a   7.62109590
_cell_length_b   7.62109590
_cell_length_c   19.39337563
_cell_angle_alpha   84.46568309
_cell_angle_beta   95.53431691
_cell_angle_gamma   116.27844403
_symmetry_Int_Tables_number   1
_chemical_formula_structural   Rb3Au3Br8
_chemical_formula_sum   'Rb6 Au6 Br16'
_cell_volume   1003.44754127
_cell_formula_units_Z   2
loop_
 _symmetry_equiv_pos_site_id
 _symmetry_equiv_pos_as_xyz
  1  'x, y, z'
loop_
 _atom_site_type_symbol
 _atom_site_label
 _atom_site_symmetry_multiplicity
 _atom_site_fract_x
 _atom_site_fract_y
 _atom_site_fract_z
 _atom_site_occupancy
  Rb  Rb0  1  1.69476939  0.32846187  0.08526027  1.0
  Rb  Rb1  1  0.67153813  -0.69476939  0.58526027  1.0
  Rb  Rb2  1  1.32846187  0.69476939  0.41473973  1.0
  Rb  Rb3  1  0.30523061  -0.32846187  0.91473973  1.0
  Rb  Rb4  1  0.99417461  -0.00582539  0.25000000  1.0
  Rb  Rb5  1  1.00582539  0.00582539  0.75000000  1.0
  Au  Au6  1  -0.00000000  0.00000000  0.50000000  1.0
  Au  Au7  1  0.00000000  0.00000000  0.00000000  1.0
  Au  Au8  1  1.64271855  0.39004550  0.31641930  1.0
  Au  Au9  1  0.60995450  -0.64271855  0.81641930  1.0
  Au  Au10  1  1.39004550  0.64271855  0.18358070  1.0
  Au  Au11  1  0.35728145  -0.39004550  0.68358070  1.0
  Br  Br12  1  0.71704833  -0.15338914  0.07743640  1.0
  Br  Br13  1  1.15338914  0.28295167  0.57743640  1.0
  Br  Br14  1  0.84661086  -0.28295167  0.42256360  1.0
  Br  Br15  1  1.28295167  0.15338914  0.92256360  1.0
  Br  Br16  1  1.80096502  0.15502683  0.43482366  1.0
  Br  Br17  1  0.84497317  -0.80096502  0.93482366  1.0
  Br  Br18  1  1.15502683  0.80096502  0.06517634  1.0
  Br  Br19  1  0.19903498  -0.15502683  0.56517634  1.0
  Br  Br20  1  0.50935282  -0.06327214  0.24813206  1.0
  Br  Br21  1  1.06327214  0.49064718  0.74813206  1.0
  Br  Br22  1  0.93672786  -0.49064718  0.25186794  1.0
  Br  Br23  1  1.49064718  0.06327214  0.75186794  1.0
  Br  Br24  1  1.34310418  0.25696934  0.37831808  1.0
  Br  Br25  1  0.74303066  -0.34310418  0.87831808  1.0
  Br  Br26  1  1.25696934  0.34310418  0.12168192  1.0
  Br  Br27  1  0.65689582  -0.25696934  0.62168192  1.0
