# generated using pymatgen
data_ZrOF4
_symmetry_space_group_name_H-M   'P 1'
_cell_length_a   8.15755102
_cell_length_b   8.15755102
_cell_length_c   8.15755102
_cell_angle_alpha   117.01316896
_cell_angle_beta   117.01316896
_cell_angle_gamma   95.25620398
_symmetry_Int_Tables_number   1
_chemical_formula_structural   ZrOF4
_chemical_formula_sum   'Zr4 O4 F16'
_cell_volume   399.36314928
_cell_formula_units_Z   4
loop_
 _symmetry_equiv_pos_site_id
 _symmetry_equiv_pos_as_xyz
  1  'x, y, z'
loop_
 _atom_site_type_symbol
 _atom_site_label
 _atom_site_symmetry_multiplicity
 _atom_site_fract_x
 _atom_site_fract_y
 _atom_site_fract_z
 _atom_site_occupancy
  F  F0  1  0.96196849  1.16624274  1.62658276  1.0
  F  F1  1  1.21034001  1.08375726  1.29572575  1.0
  F  F2  1  1.08538573  0.78965999  0.87341724  1.0
  F  F3  1  0.83375726  1.46034001  0.79572575  1.0
  F  F4  1  0.78803151  0.91461427  0.70427425  1.0
  F  F5  1  0.53965999  0.33538573  0.37341724  1.0
  F  F6  1  1.66461427  1.03803151  1.20427425  1.0
  F  F7  1  0.91624274  1.21196849  1.12658276  1.0
  F  F8  1  1.19863459  1.38020247  1.59881181  1.0
  F  F9  1  0.96860935  0.86979753  1.31843212  1.0
  F  F10  1  1.34982277  1.03139065  0.90118819  1.0
  F  F11  1  0.61979753  1.21860935  0.81843212  1.0
  F  F12  1  0.55136541  0.65017723  0.68156788  1.0
  F  F13  1  0.78139065  0.59982277  0.40118819  1.0
  F  F14  1  1.40017723  0.80136541  1.18156788  1.0
  F  F15  1  1.13020247  1.44863459  1.09881181  1.0
  O  O16  1  0.90244500  0.40244500  0.50000000  1.0
  O  O17  1  0.84755500  0.84755500  1.00000000  1.0
  O  O18  1  1.15244500  1.15244500  1.00000000  1.0
  O  O19  1  0.59755500  1.09755500  0.50000000  1.0
  Zr  Zr20  1  0.97303008  1.12500000  1.34803008  1.0
  Zr  Zr21  1  1.37500000  1.02696992  1.15196992  1.0
  Zr  Zr22  1  0.87500000  1.22303008  0.84803008  1.0
  Zr  Zr23  1  0.77696992  0.62500000  0.65196992  1.0
