# generated using pymatgen
data_CsAlPdF6
_symmetry_space_group_name_H-M   'P 1'
_cell_length_a   7.62911384
_cell_length_b   7.28464012
_cell_length_c   10.45464116
_cell_angle_alpha   90.00000000
_cell_angle_beta   90.00000000
_cell_angle_gamma   90.00000000
_symmetry_Int_Tables_number   1
_chemical_formula_structural   CsAlPdF6
_chemical_formula_sum   'Cs4 Al4 Pd4 F24'
_cell_volume   581.02032886
_cell_formula_units_Z   4
loop_
 _symmetry_equiv_pos_site_id
 _symmetry_equiv_pos_as_xyz
  1  'x, y, z'
loop_
 _atom_site_type_symbol
 _atom_site_label
 _atom_site_symmetry_multiplicity
 _atom_site_fract_x
 _atom_site_fract_y
 _atom_site_fract_z
 _atom_site_occupancy
  Pd  Pd0  1  0.75222521  0.75000000  0.25096485  1.0
  Pd  Pd1  1  0.25222521  0.75000000  0.24903515  1.0
  Pd  Pd2  1  0.24777479  0.25000000  0.74903515  1.0
  Pd  Pd3  1  0.74777479  0.25000000  0.75096485  1.0
  Al  Al4  1  0.00000000  0.00000000  0.00000000  1.0
  Al  Al5  1  0.00000000  0.50000000  0.00000000  1.0
  Al  Al6  1  0.50000000  0.00000000  0.50000000  1.0
  Al  Al7  1  0.50000000  0.50000000  0.50000000  1.0
  Cs  Cs8  1  0.99827417  0.75000000  0.63900070  1.0
  Cs  Cs9  1  0.49827417  0.75000000  0.86099930  1.0
  Cs  Cs10  1  0.00172583  0.25000000  0.36099930  1.0
  Cs  Cs11  1  0.50172583  0.25000000  0.13900070  1.0
  F  F12  1  0.83291574  0.51893325  0.12436584  1.0
  F  F13  1  0.83291574  0.98106675  0.12436584  1.0
  F  F14  1  0.33291574  0.51893325  0.37563416  1.0
  F  F15  1  0.33291574  0.98106675  0.37563416  1.0
  F  F16  1  0.16708426  0.01893325  0.87563416  1.0
  F  F17  1  0.16708426  0.48106675  0.87563416  1.0
  F  F18  1  0.66708426  0.01893325  0.62436584  1.0
  F  F19  1  0.66708426  0.48106675  0.62436584  1.0
  F  F20  1  0.67225280  0.97889104  0.37957930  1.0
  F  F21  1  0.67225280  0.52110896  0.37957930  1.0
  F  F22  1  0.17225280  0.97889104  0.12042070  1.0
  F  F23  1  0.17225280  0.52110896  0.12042070  1.0
  F  F24  1  0.32774720  0.47889104  0.62042070  1.0
  F  F25  1  0.32774720  0.02110896  0.62042070  1.0
  F  F26  1  0.82774720  0.47889104  0.87957930  1.0
  F  F27  1  0.82774720  0.02110896  0.87957930  1.0
  F  F28  1  0.49781847  0.75000000  0.52527890  1.0
  F  F29  1  -0.00218153  0.75000000  0.97472110  1.0
  F  F30  1  0.50218153  0.25000000  0.47472110  1.0
  F  F31  1  1.00218153  0.25000000  0.02527890  1.0
  F  F32  1  0.50288117  0.75000000  0.14975924  1.0
  F  F33  1  0.00288117  0.75000000  0.35024076  1.0
  F  F34  1  0.49711883  0.25000000  0.85024076  1.0
  F  F35  1  0.99711883  0.25000000  0.64975924  1.0
