# generated using pymatgen
data_Nd(Re2Si)2
_symmetry_space_group_name_H-M   'P 1'
_cell_length_a   7.28084929
_cell_length_b   15.51030022
_cell_length_c   4.15661514
_cell_angle_alpha   90.00000000
_cell_angle_beta   90.00000000
_cell_angle_gamma   90.00000000
_symmetry_Int_Tables_number   1
_chemical_formula_structural   Nd(Re2Si)2
_chemical_formula_sum   'Nd4 Re16 Si8'
_cell_volume   469.39889275
_cell_formula_units_Z   4
loop_
 _symmetry_equiv_pos_site_id
 _symmetry_equiv_pos_as_xyz
  1  'x, y, z'
loop_
 _atom_site_type_symbol
 _atom_site_label
 _atom_site_symmetry_multiplicity
 _atom_site_fract_x
 _atom_site_fract_y
 _atom_site_fract_z
 _atom_site_occupancy
  Nd  Nd0  1  0.07669285  0.88134297  0.50000000  1.0
  Nd  Nd1  1  0.57669285  0.61865703  0.00000000  1.0
  Nd  Nd2  1  0.92330715  0.11865703  0.50000000  1.0
  Nd  Nd3  1  0.42330715  0.38134297  0.00000000  1.0
  Re  Re4  1  0.48935354  0.79500981  0.50000000  1.0
  Re  Re5  1  0.98935354  0.70499019  0.00000000  1.0
  Re  Re6  1  0.51064646  0.20499019  0.50000000  1.0
  Re  Re7  1  0.01064646  0.29500981  0.00000000  1.0
  Re  Re8  1  0.36018149  0.05132857  0.50000000  1.0
  Re  Re9  1  0.86018149  0.44867143  0.00000000  1.0
  Re  Re10  1  0.63981851  0.94867143  0.50000000  1.0
  Re  Re11  1  0.13981851  0.55132857  0.00000000  1.0
  Re  Re12  1  0.23233625  0.67936552  0.50000000  1.0
  Re  Re13  1  0.73233625  0.82063448  0.00000000  1.0
  Re  Re14  1  0.76766375  0.32063448  0.50000000  1.0
  Re  Re15  1  0.26766375  0.17936552  0.00000000  1.0
  Re  Re16  1  0.93164776  0.58099766  0.50000000  1.0
  Re  Re17  1  0.43164776  0.91900234  0.00000000  1.0
  Re  Re18  1  0.06835224  0.41900234  0.50000000  1.0
  Re  Re19  1  0.56835224  0.08099766  0.00000000  1.0
  Si  Si20  1  0.33078390  0.52409956  0.50000000  1.0
  Si  Si21  1  0.83078390  0.97590044  0.00000000  1.0
  Si  Si22  1  0.66921610  0.47590044  0.50000000  1.0
  Si  Si23  1  0.16921610  0.02409956  0.00000000  1.0
  Si  Si24  1  0.79031873  0.72555648  0.50000000  1.0
  Si  Si25  1  0.29031873  0.77444352  0.00000000  1.0
  Si  Si26  1  0.20968127  0.27444352  0.50000000  1.0
  Si  Si27  1  0.70968127  0.22555648  0.00000000  1.0
