# generated using pymatgen
data_MgGaH5
_symmetry_space_group_name_H-M   'P 1'
_cell_length_a   6.61567584
_cell_length_b   6.96953082
_cell_length_c   10.23104135
_cell_angle_alpha   90.00000000
_cell_angle_beta   130.26445410
_cell_angle_gamma   90.00000000
_symmetry_Int_Tables_number   1
_chemical_formula_structural   MgGaH5
_chemical_formula_sum   'Mg4 Ga4 H20'
_cell_volume   359.96615123
_cell_formula_units_Z   4
loop_
 _symmetry_equiv_pos_site_id
 _symmetry_equiv_pos_as_xyz
  1  'x, y, z'
loop_
 _atom_site_type_symbol
 _atom_site_label
 _atom_site_symmetry_multiplicity
 _atom_site_fract_x
 _atom_site_fract_y
 _atom_site_fract_z
 _atom_site_occupancy
  Mg  Mg0  1  0.49531862  0.37055302  0.24426090  1.0
  Mg  Mg1  1  0.49531862  0.12944698  0.74426090  1.0
  Mg  Mg2  1  0.50468138  0.87055302  0.25573910  1.0
  Mg  Mg3  1  0.50468138  0.62944698  0.75573910  1.0
  Ga  Ga4  1  0.87150965  0.37409172  0.12136700  1.0
  Ga  Ga5  1  0.87150965  0.12590828  0.62136700  1.0
  Ga  Ga6  1  0.12849035  0.87409172  0.37863300  1.0
  Ga  Ga7  1  0.12849035  0.62590828  0.87863300  1.0
  H  H8  1  0.81277584  0.87707431  0.25721001  1.0
  H  H9  1  0.81277584  0.62292569  0.75721001  1.0
  H  H10  1  0.18722416  0.37707431  0.24278999  1.0
  H  H11  1  0.18722416  0.12292569  0.74278999  1.0
  H  H12  1  0.80241345  0.37106041  0.24487845  1.0
  H  H13  1  0.80241345  0.12893959  0.74487845  1.0
  H  H14  1  0.19758655  0.87106041  0.25512155  1.0
  H  H15  1  0.19758655  0.62893959  0.75512155  1.0
  H  H16  1  0.75422267  0.31206275  0.50200311  1.0
  H  H17  1  0.75422267  0.18793725  1.00200311  1.0
  H  H18  1  0.24577733  0.81206275  -0.00200311  1.0
  H  H19  1  0.24577733  0.68793725  0.49799689  1.0
  H  H20  1  0.43234509  0.11869111  0.18378985  1.0
  H  H21  1  0.43234509  0.38130889  0.68378985  1.0
  H  H22  1  0.56765491  0.61869111  0.31621015  1.0
  H  H23  1  0.56765491  0.88130889  0.81621015  1.0
  H  H24  1  0.24402603  0.06773556  0.49001400  1.0
  H  H25  1  0.24402603  0.43226444  0.99001400  1.0
  H  H26  1  0.75597397  0.56773556  0.00998600  1.0
  H  H27  1  0.75597397  0.93226444  0.50998600  1.0
