# generated using pymatgen
data_Ca3SiO
_symmetry_space_group_name_H-M   'P 1'
_cell_length_a   6.66748561
_cell_length_b   9.44387453
_cell_length_c   6.68525780
_cell_angle_alpha   90.00000000
_cell_angle_beta   90.00000000
_cell_angle_gamma   90.00000000
_symmetry_Int_Tables_number   1
_chemical_formula_structural   Ca3SiO
_chemical_formula_sum   'Ca12 Si4 O4'
_cell_volume   420.94994280
_cell_formula_units_Z   4
loop_
 _symmetry_equiv_pos_site_id
 _symmetry_equiv_pos_as_xyz
  1  'x, y, z'
loop_
 _atom_site_type_symbol
 _atom_site_label
 _atom_site_symmetry_multiplicity
 _atom_site_fract_x
 _atom_site_fract_y
 _atom_site_fract_z
 _atom_site_occupancy
  Ca  Ca0  1  0.26915749  0.47971148  0.76921550  1.0
  Ca  Ca1  1  0.26915749  0.02028852  0.76921550  1.0
  Ca  Ca2  1  0.76915749  0.47971148  0.73078450  1.0
  Ca  Ca3  1  0.76915749  0.02028852  0.73078450  1.0
  Ca  Ca4  1  0.73084251  0.97971148  0.23078450  1.0
  Ca  Ca5  1  0.73084251  0.52028852  0.23078450  1.0
  Ca  Ca6  1  0.23084251  0.97971148  0.26921550  1.0
  Ca  Ca7  1  0.23084251  0.52028852  0.26921550  1.0
  Ca  Ca8  1  -0.00288186  0.25000000  0.03981630  1.0
  Ca  Ca9  1  0.49711814  0.25000000  0.46018370  1.0
  Ca  Ca10  1  1.00288186  0.75000000  0.96018370  1.0
  Ca  Ca11  1  0.50288186  0.75000000  0.53981630  1.0
  Si  Si12  1  0.00914296  0.25000000  0.50146290  1.0
  Si  Si13  1  0.50914296  0.25000000  0.99853710  1.0
  Si  Si14  1  0.99085704  0.75000000  0.49853710  1.0
  Si  Si15  1  0.49085704  0.75000000  0.00146290  1.0
  O  O16  1  0.50000000  0.50000000  0.50000000  1.0
  O  O17  1  0.50000000  0.00000000  0.50000000  1.0
  O  O18  1  0.00000000  0.50000000  0.00000000  1.0
  O  O19  1  0.00000000  0.00000000  0.00000000  1.0
