# generated using pymatgen
data_NaPH6NO4F
_symmetry_space_group_name_H-M   'P 1'
_cell_length_a   4.98183331
_cell_length_b   9.17890399
_cell_length_c   7.86180362
_cell_angle_alpha   90.00000000
_cell_angle_beta   128.65291068
_cell_angle_gamma   90.00000000
_symmetry_Int_Tables_number   1
_chemical_formula_structural   NaPH6NO4F
_chemical_formula_sum   'Na2 P2 H12 N2 O8 F2'
_cell_volume   280.75151451
_cell_formula_units_Z   2
loop_
 _symmetry_equiv_pos_site_id
 _symmetry_equiv_pos_as_xyz
  1  'x, y, z'
loop_
 _atom_site_type_symbol
 _atom_site_label
 _atom_site_symmetry_multiplicity
 _atom_site_fract_x
 _atom_site_fract_y
 _atom_site_fract_z
 _atom_site_occupancy
  Na  Na0  1  0.52364338  0.95304158  0.80372701  1.0
  Na  Na1  1  0.52364338  0.04695842  0.30372701  1.0
  P  P2  1  0.92032818  0.77602941  0.31247482  1.0
  P  P3  1  0.92032818  0.22397059  0.81247482  1.0
  H  H4  1  0.87512308  0.80765096  0.66417856  1.0
  H  H5  1  0.87512308  0.19234904  0.16417856  1.0
  H  H6  1  0.63857205  0.51086459  0.34550046  1.0
  H  H7  1  0.63857205  0.48913541  0.84550046  1.0
  H  H8  1  0.51453873  0.36314790  0.41425339  1.0
  H  H9  1  0.51453873  0.63685210  0.91425339  1.0
  H  H10  1  0.28626412  0.52019021  0.33877404  1.0
  H  H11  1  0.28626412  0.47980979  0.83877404  1.0
  H  H12  1  0.27208113  0.42072044  0.15053017  1.0
  H  H13  1  0.27208113  0.57927956  0.65053017  1.0
  H  H14  1  0.11061340  0.79141576  0.91414662  1.0
  H  H15  1  0.11061340  0.20858424  0.41414662  1.0
  N  N16  1  0.43055508  0.45441904  0.31424698  1.0
  N  N17  1  0.43055508  0.54558096  0.81424698  1.0
  O  O18  1  -0.02467268  0.87160403  0.49075439  1.0
  O  O19  1  -0.02467268  0.12839597  0.99075439  1.0
  O  O20  1  0.99257698  0.61300301  0.36995673  1.0
  O  O21  1  0.99257698  0.38699699  0.86995673  1.0
  O  O22  1  0.86740809  0.78629293  0.78430400  1.0
  O  O23  1  0.86740809  0.21370707  0.28430400  1.0
  O  O24  1  0.59213685  0.80678934  0.08156290  1.0
  O  O25  1  0.59213685  0.19321066  0.58156290  1.0
  F  F26  1  0.22783162  0.82638737  0.30358992  1.0
  F  F27  1  0.22783162  0.17361263  0.80358992  1.0
