# generated using pymatgen
data_InAsH2O5
_symmetry_space_group_name_H-M   'P 1'
_cell_length_a   5.62507285
_cell_length_b   6.85593491
_cell_length_c   5.77530833
_cell_angle_alpha   98.32876390
_cell_angle_beta   107.08010319
_cell_angle_gamma   94.53420819
_symmetry_Int_Tables_number   1
_chemical_formula_structural   InAsH2O5
_chemical_formula_sum   'In2 As2 H4 O10'
_cell_volume   208.90857024
_cell_formula_units_Z   2
loop_
 _symmetry_equiv_pos_site_id
 _symmetry_equiv_pos_as_xyz
  1  'x, y, z'
loop_
 _atom_site_type_symbol
 _atom_site_label
 _atom_site_symmetry_multiplicity
 _atom_site_fract_x
 _atom_site_fract_y
 _atom_site_fract_z
 _atom_site_occupancy
  In  In0  1  -0.86362839  -0.28185057  -0.77290501  1.0
  In  In1  1  -0.13637161  -0.71814943  -0.22709499  1.0
  As  As2  1  -0.76260111  -0.75897558  -0.62011935  1.0
  As  As3  1  -0.23739889  -0.24102442  -0.37988065  1.0
  H  H4  1  -0.42402087  -0.28686428  -0.87440987  1.0
  H  H5  1  -0.57597913  -0.71313572  -0.12559013  1.0
  H  H6  1  -0.39689071  -0.75593715  -0.86545277  1.0
  H  H7  1  -0.60310929  -0.24406285  -0.13454723  1.0
  O  O8  1  -0.86065772  -0.61029225  -0.84863614  1.0
  O  O9  1  -0.13934228  -0.38970775  -0.15136386  1.0
  O  O10  1  -0.94383942  -0.98404883  -0.73906895  1.0
  O  O11  1  -0.05616058  -0.01595117  -0.26093105  1.0
  O  O12  1  -0.81360530  -0.64890422  -0.35093432  1.0
  O  O13  1  -0.18639470  -0.35109578  -0.64906568  1.0
  O  O14  1  -0.57910316  -0.22984372  -0.95499093  1.0
  O  O15  1  -0.42089684  -0.77015628  -0.04500907  1.0
  O  O16  1  -0.44205455  -0.75776586  -0.57102036  1.0
  O  O17  1  -0.55794545  -0.24223414  -0.42897964  1.0
