# generated using pymatgen
data_Na3InCl6
_symmetry_space_group_name_H-M   'P 1'
_cell_length_a   7.00781089
_cell_length_b   7.00781089
_cell_length_c   12.66185008
_cell_angle_alpha   90.00000000
_cell_angle_beta   90.00000000
_cell_angle_gamma   120.00000000
_symmetry_Int_Tables_number   1
_chemical_formula_structural   Na3InCl6
_chemical_formula_sum   'Na6 In2 Cl12'
_cell_volume   538.50847947
_cell_formula_units_Z   2
loop_
 _symmetry_equiv_pos_site_id
 _symmetry_equiv_pos_as_xyz
  1  'x, y, z'
loop_
 _atom_site_type_symbol
 _atom_site_label
 _atom_site_symmetry_multiplicity
 _atom_site_fract_x
 _atom_site_fract_y
 _atom_site_fract_z
 _atom_site_occupancy
  Na  Na0  1  0.33333333  0.66666667  0.03805897  1.0
  Na  Na1  1  0.33333333  0.66666667  0.46194103  1.0
  Na  Na2  1  0.66666667  0.33333333  0.53805897  1.0
  Na  Na3  1  0.66666667  0.33333333  0.96194103  1.0
  Na  Na4  1  0.00000000  0.00000000  0.25000000  1.0
  Na  Na5  1  0.00000000  0.00000000  0.75000000  1.0
  In  In6  1  0.66666667  0.33333333  0.25000000  1.0
  In  In7  1  0.33333333  0.66666667  0.75000000  1.0
  Cl  Cl8  1  0.68106828  0.63370923  0.12958360  1.0
  Cl  Cl9  1  0.68106828  0.04735905  0.37041640  1.0
  Cl  Cl10  1  0.63370923  0.68106828  0.62958360  1.0
  Cl  Cl11  1  0.63370923  0.95264095  0.87041640  1.0
  Cl  Cl12  1  0.95264095  0.63370923  0.37041640  1.0
  Cl  Cl13  1  0.95264095  0.31893172  0.12958360  1.0
  Cl  Cl14  1  0.36629077  0.31893172  0.37041640  1.0
  Cl  Cl15  1  0.36629077  0.04735905  0.12958360  1.0
  Cl  Cl16  1  0.31893172  0.95264095  0.62958360  1.0
  Cl  Cl17  1  0.31893172  0.36629077  0.87041640  1.0
  Cl  Cl18  1  0.04735905  0.68106828  0.87041640  1.0
  Cl  Cl19  1  0.04735905  0.36629077  0.62958360  1.0
