# generated using pymatgen
data_K2Sn2O3
_symmetry_space_group_name_H-M   'P 1'
_cell_length_a   7.35983595
_cell_length_b   7.35983595
_cell_length_c   7.35983595
_cell_angle_alpha   109.47122063
_cell_angle_beta   109.47122063
_cell_angle_gamma   109.47122063
_symmetry_Int_Tables_number   1
_chemical_formula_structural   K2Sn2O3
_chemical_formula_sum   'K4 Sn4 O6'
_cell_volume   306.88984086
_cell_formula_units_Z   2
loop_
 _symmetry_equiv_pos_site_id
 _symmetry_equiv_pos_as_xyz
  1  'x, y, z'
loop_
 _atom_site_type_symbol
 _atom_site_label
 _atom_site_symmetry_multiplicity
 _atom_site_fract_x
 _atom_site_fract_y
 _atom_site_fract_z
 _atom_site_occupancy
  K  K0  1  1.48229494  1.48229494  1.48229494  1.0
  K  K1  1  1.50000000  1.00000000  1.01770506  1.0
  K  K2  1  1.00000000  1.01770506  1.50000000  1.0
  K  K3  1  1.01770506  0.50000000  1.00000000  1.0
  Sn  Sn4  1  1.01100076  1.01100076  1.01100076  1.0
  Sn  Sn5  1  0.50000000  1.00000000  0.48899924  1.0
  Sn  Sn6  1  1.00000000  0.48899924  1.50000000  1.0
  Sn  Sn7  1  0.48899924  1.50000000  1.00000000  1.0
  O  O8  1  1.22832634  0.97832634  1.25000000  1.0
  O  O9  1  0.25000000  1.22832634  0.97832634  1.0
  O  O10  1  0.75000000  1.27167366  0.52167366  1.0
  O  O11  1  0.97832634  0.25000000  1.22832634  1.0
  O  O12  1  0.52167366  0.75000000  0.27167366  1.0
  O  O13  1  0.27167366  0.52167366  0.75000000  1.0
