# generated using pymatgen
data_Ca5Te3O14
_symmetry_space_group_name_H-M   'P 1'
_cell_length_a   7.53790420
_cell_length_b   7.53790420
_cell_length_c   10.67246141
_cell_angle_alpha   90.00000000
_cell_angle_beta   90.00000000
_cell_angle_gamma   89.81315846
_symmetry_Int_Tables_number   1
_chemical_formula_structural   Ca5Te3O14
_chemical_formula_sum   'Ca10 Te6 O28'
_cell_volume   606.40603016
_cell_formula_units_Z   2
loop_
 _symmetry_equiv_pos_site_id
 _symmetry_equiv_pos_as_xyz
  1  'x, y, z'
loop_
 _atom_site_type_symbol
 _atom_site_label
 _atom_site_symmetry_multiplicity
 _atom_site_fract_x
 _atom_site_fract_y
 _atom_site_fract_z
 _atom_site_occupancy
  Ca  Ca0  1  -0.24498931  1.24498931  0.27308169  1.0
  Ca  Ca1  1  0.25501069  0.74498931  0.22691831  1.0
  Ca  Ca2  1  0.24498931  0.75501069  0.72691831  1.0
  Ca  Ca3  1  -0.25501069  1.25501069  0.77308169  1.0
  Ca  Ca4  1  0.26814469  1.23185531  0.25000000  1.0
  Ca  Ca5  1  -0.23185531  0.73185531  0.25000000  1.0
  Ca  Ca6  1  0.23185531  1.26814469  0.75000000  1.0
  Ca  Ca7  1  -0.26814469  0.76814469  0.75000000  1.0
  Ca  Ca8  1  -0.00000000  1.00000000  0.50000000  1.0
  Ca  Ca9  1  -0.50000000  0.50000000  0.00000000  1.0
  Te  Te10  1  0.50000000  1.00000000  0.50000000  1.0
  Te  Te11  1  -0.00000000  1.50000000  -0.00000000  1.0
  Te  Te12  1  -0.00000000  1.50000000  0.50000000  1.0
  Te  Te13  1  0.50000000  1.00000000  0.00000000  1.0
  Te  Te14  1  -0.50000000  0.50000000  0.50000000  1.0
  Te  Te15  1  -0.00000000  1.00000000  0.00000000  1.0
  O  O16  1  0.49183808  1.25209781  0.42883851  1.0
  O  O17  1  -0.00816192  0.75209781  0.07116149  1.0
  O  O18  1  0.25209781  1.49183808  0.57116149  1.0
  O  O19  1  -0.24790219  0.99183808  0.92883851  1.0
  O  O20  1  -0.25209781  0.50816192  0.42883851  1.0
  O  O21  1  0.24790219  1.00816192  0.07116149  1.0
  O  O22  1  -0.49183808  0.74790219  0.57116149  1.0
  O  O23  1  0.00816192  1.24790219  0.92883851  1.0
  O  O24  1  -0.29210642  0.96643090  0.38592143  1.0
  O  O25  1  0.20789358  1.46643090  0.11407857  1.0
  O  O26  1  -0.03356910  0.70789358  0.61407857  1.0
  O  O27  1  0.46643090  1.20789358  0.88592143  1.0
  O  O28  1  0.03356910  1.29210642  0.38592143  1.0
  O  O29  1  -0.46643090  0.79210642  0.11407857  1.0
  O  O30  1  0.29210642  1.03356910  0.61407857  1.0
  O  O31  1  -0.20789358  0.53356910  0.88592143  1.0
  O  O32  1  0.31802961  0.96302523  0.36856535  1.0
  O  O33  1  -0.18197039  1.46302523  0.13143465  1.0
  O  O34  1  -0.03697477  1.31802961  0.63143465  1.0
  O  O35  1  0.46302523  0.81802961  0.86856535  1.0
  O  O36  1  0.03697477  0.68197039  0.36856535  1.0
  O  O37  1  -0.46302523  1.18197039  0.13143465  1.0
  O  O38  1  -0.31802961  1.03697477  0.63143465  1.0
  O  O39  1  0.18197039  0.53697477  0.86856535  1.0
  O  O40  1  -0.05794793  1.05794793  0.17246786  1.0
  O  O41  1  0.44205207  0.55794793  0.32753214  1.0
  O  O42  1  0.05794793  0.94205207  0.82753214  1.0
  O  O43  1  -0.44205207  1.44205207  0.67246786  1.0
