# generated using pymatgen
data_ScH3
_symmetry_space_group_name_H-M   'P 1'
_cell_length_a   5.81965945
_cell_length_b   5.81965945
_cell_length_c   6.11028842
_cell_angle_alpha   90.00000000
_cell_angle_beta   90.00000000
_cell_angle_gamma   120.00000000
_symmetry_Int_Tables_number   1
_chemical_formula_structural   ScH3
_chemical_formula_sum   'Sc6 H18'
_cell_volume   179.22041753
_cell_formula_units_Z   6
loop_
 _symmetry_equiv_pos_site_id
 _symmetry_equiv_pos_as_xyz
  1  'x, y, z'
loop_
 _atom_site_type_symbol
 _atom_site_label
 _atom_site_symmetry_multiplicity
 _atom_site_fract_x
 _atom_site_fract_y
 _atom_site_fract_z
 _atom_site_occupancy
  Sc  Sc0  1  0.67157693  0.00619255  0.74890336  1.0
  Sc  Sc1  1  0.33461563  0.32842307  0.74890336  1.0
  Sc  Sc2  1  0.99380745  0.66538437  0.74890336  1.0
  Sc  Sc3  1  0.32842307  0.99380745  0.24890336  1.0
  Sc  Sc4  1  0.66538437  0.67157693  0.24890336  1.0
  Sc  Sc5  1  0.00619255  0.33461563  0.24890336  1.0
  H  H6  1  0.30823981  0.00667816  0.90903459  1.0
  H  H7  1  0.69843836  0.69176019  0.90903459  1.0
  H  H8  1  0.99332184  0.30156164  0.90903459  1.0
  H  H9  1  0.69176019  0.99332184  0.40903459  1.0
  H  H10  1  0.30156164  0.30823981  0.40903459  1.0
  H  H11  1  0.00667816  0.69843836  0.40903459  1.0
  H  H12  1  0.62608303  0.96953528  0.08821751  1.0
  H  H13  1  0.34345226  0.37391697  0.08821751  1.0
  H  H14  1  0.03046472  0.65654774  0.08821751  1.0
  H  H15  1  0.37391697  0.03046472  0.58821751  1.0
  H  H16  1  0.65654774  0.62608303  0.58821751  1.0
  H  H17  1  0.96953528  0.34345226  0.58821751  1.0
  H  H18  1  0.00000000  0.00000000  0.68670883  1.0
  H  H19  1  0.00000000  0.00000000  0.18670883  1.0
  H  H20  1  0.33333333  0.66666667  0.76174533  1.0
  H  H21  1  0.66666667  0.33333333  0.26174533  1.0
  H  H22  1  0.66666667  0.33333333  0.81007947  1.0
  H  H23  1  0.33333333  0.66666667  0.31007947  1.0
