# generated using pymatgen
data_CsLi(BH4)2
_symmetry_space_group_name_H-M   'P 1'
_cell_length_a   8.11522692
_cell_length_b   8.11522692
_cell_length_c   7.98810431
_cell_angle_alpha   90.00000000
_cell_angle_beta   90.00000000
_cell_angle_gamma   146.85696739
_symmetry_Int_Tables_number   1
_chemical_formula_structural   CsLi(BH4)2
_chemical_formula_sum   'Cs2 Li2 B4 H16'
_cell_volume   287.61978029
_cell_formula_units_Z   2
loop_
 _symmetry_equiv_pos_site_id
 _symmetry_equiv_pos_as_xyz
  1  'x, y, z'
loop_
 _atom_site_type_symbol
 _atom_site_label
 _atom_site_symmetry_multiplicity
 _atom_site_fract_x
 _atom_site_fract_y
 _atom_site_fract_z
 _atom_site_occupancy
  Cs  Cs0  1  -0.63594634  0.63594634  0.46543478  1.0
  Cs  Cs1  1  -0.36405366  1.36405366  -0.03456522  1.0
  Li  Li2  1  -0.90674876  0.90674876  0.50269643  1.0
  Li  Li3  1  -0.09325124  1.09325124  1.00269643  1.0
  B  B4  1  -0.99069844  0.99069844  0.23258413  1.0
  B  B5  1  -0.00930156  1.00930156  0.73258413  1.0
  B  B6  1  -0.67524006  0.67524006  0.01722678  1.0
  B  B7  1  -0.32475994  1.32475994  0.51722678  1.0
  H  H8  1  -0.74219545  1.18044454  0.29584537  1.0
  H  H9  1  0.18044454  1.25780455  0.79584537  1.0
  H  H10  1  -0.18044454  1.74219545  0.29584537  1.0
  H  H11  1  -0.25780455  0.81955546  0.79584537  1.0
  H  H12  1  -0.48271505  0.91258155  0.09724891  1.0
  H  H13  1  -0.08741845  1.51728495  0.59724891  1.0
  H  H14  1  0.08741845  1.48271505  0.09724891  1.0
  H  H15  1  -0.51728495  1.08741845  0.59724891  1.0
  H  H16  1  -0.97244520  0.97244520  0.08306530  1.0
  H  H17  1  -0.02755480  1.02755480  0.58306530  1.0
  H  H18  1  -0.93079084  0.93079084  0.74968660  1.0
  H  H19  1  -0.06920916  1.06920916  0.24968660  1.0
  H  H20  1  -0.70841936  0.70841936  0.87795826  1.0
  H  H21  1  -0.29158064  1.29158064  0.37795826  1.0
  H  H22  1  -0.40339157  1.40339157  0.50515914  1.0
  H  H23  1  -0.59660843  0.59660843  1.00515914  1.0
