# generated using pymatgen
data_La2Sn5
_symmetry_space_group_name_H-M   'P 1'
_cell_length_a   18.12422903
_cell_length_b   18.12422903
_cell_length_c   4.74728810
_cell_angle_alpha   90.00000000
_cell_angle_beta   90.00000000
_cell_angle_gamma   165.11990944
_symmetry_Int_Tables_number   1
_chemical_formula_structural   La2Sn5
_chemical_formula_sum   'La4 Sn10'
_cell_volume   400.45578957
_cell_formula_units_Z   2
loop_
 _symmetry_equiv_pos_site_id
 _symmetry_equiv_pos_as_xyz
  1  'x, y, z'
loop_
 _atom_site_type_symbol
 _atom_site_label
 _atom_site_symmetry_multiplicity
 _atom_site_fract_x
 _atom_site_fract_y
 _atom_site_fract_z
 _atom_site_occupancy
  La  La0  1  -0.93129589  0.93129589  0.50000000  1.0
  La  La1  1  -0.06870411  1.06870411  0.50000000  1.0
  La  La2  1  -0.79708737  0.79708737  0.50000000  1.0
  La  La3  1  -0.20291263  1.20291263  0.50000000  1.0
  Sn  Sn4  1  -0.63732337  0.63732337  0.50000000  1.0
  Sn  Sn5  1  -0.36267663  1.36267663  0.50000000  1.0
  Sn  Sn6  1  -0.86242361  0.86242361  0.00000000  1.0
  Sn  Sn7  1  -0.13757639  1.13757639  0.00000000  1.0
  Sn  Sn8  1  -0.72130241  0.72130241  0.00000000  1.0
  Sn  Sn9  1  -0.27869759  1.27869759  0.00000000  1.0
  Sn  Sn10  1  -0.57159602  0.57159602  0.00000000  1.0
  Sn  Sn11  1  -0.42840398  1.42840398  0.00000000  1.0
  Sn  Sn12  1  0.50000000  0.50000000  0.50000000  1.0
  Sn  Sn13  1  0.00000000  0.00000000  0.00000000  1.0
