# generated using pymatgen
data_NaTe3
_symmetry_space_group_name_H-M   'P 1'
_cell_length_a   9.11722635
_cell_length_b   9.11722635
_cell_length_c   22.20512788
_cell_angle_alpha   90.00000000
_cell_angle_beta   90.00000000
_cell_angle_gamma   120.00000000
_symmetry_Int_Tables_number   1
_chemical_formula_structural   NaTe3
_chemical_formula_sum   'Na12 Te36'
_cell_volume   1598.48801613
_cell_formula_units_Z   12
loop_
 _symmetry_equiv_pos_site_id
 _symmetry_equiv_pos_as_xyz
  1  'x, y, z'
loop_
 _atom_site_type_symbol
 _atom_site_label
 _atom_site_symmetry_multiplicity
 _atom_site_fract_x
 _atom_site_fract_y
 _atom_site_fract_z
 _atom_site_occupancy
  Na  Na0  1  0.33333333  0.66666667  0.04055467  1.0
  Na  Na1  1  0.33333333  0.66666667  0.54055467  1.0
  Na  Na2  1  0.66666667  0.33333333  0.45944533  1.0
  Na  Na3  1  0.66666667  0.33333333  0.95944533  1.0
  Na  Na4  1  0.33333333  0.66666667  0.29215157  1.0
  Na  Na5  1  0.33333333  0.66666667  0.79215157  1.0
  Na  Na6  1  0.66666667  0.33333333  0.20784843  1.0
  Na  Na7  1  0.66666667  0.33333333  0.70784843  1.0
  Na  Na8  1  0.00000000  0.00000000  0.12405877  1.0
  Na  Na9  1  0.00000000  0.00000000  0.62405877  1.0
  Na  Na10  1  0.00000000  0.00000000  0.37594123  1.0
  Na  Na11  1  0.00000000  0.00000000  0.87594123  1.0
  Te  Te12  1  0.20556408  0.86773189  0.20645822  1.0
  Te  Te13  1  0.20556408  0.33783220  0.70645822  1.0
  Te  Te14  1  0.86773189  0.20556408  0.29354178  1.0
  Te  Te15  1  0.86773189  0.66216780  0.79354178  1.0
  Te  Te16  1  0.66216780  0.86773189  0.70645822  1.0
  Te  Te17  1  0.66216780  0.79443592  0.20645822  1.0
  Te  Te18  1  0.13226811  0.79443592  0.70645822  1.0
  Te  Te19  1  0.13226811  0.33783220  0.20645822  1.0
  Te  Te20  1  0.79443592  0.66216780  0.29354178  1.0
  Te  Te21  1  0.79443592  0.13226811  0.79354178  1.0
  Te  Te22  1  0.33783220  0.20556408  0.79354178  1.0
  Te  Te23  1  0.33783220  0.13226811  0.29354178  1.0
  Te  Te24  1  0.83163671  0.67070387  0.04068433  1.0
  Te  Te25  1  0.83163671  0.16093284  0.54068433  1.0
  Te  Te26  1  0.67070387  0.83163671  0.45931567  1.0
  Te  Te27  1  0.67070387  0.83906716  0.95931567  1.0
  Te  Te28  1  0.83906716  0.67070387  0.54068433  1.0
  Te  Te29  1  0.83906716  0.16836329  0.04068433  1.0
  Te  Te30  1  0.32929613  0.16836329  0.54068433  1.0
  Te  Te31  1  0.32929613  0.16093284  0.04068433  1.0
  Te  Te32  1  0.16836329  0.83906716  0.45931567  1.0
  Te  Te33  1  0.16836329  0.32929613  0.95931567  1.0
  Te  Te34  1  0.16093284  0.83163671  0.95931567  1.0
  Te  Te35  1  0.16093284  0.32929613  0.45931567  1.0
  Te  Te36  1  0.52693655  0.51717120  0.12089162  1.0
  Te  Te37  1  0.52693655  0.00976534  0.62089162  1.0
  Te  Te38  1  0.51717120  0.52693655  0.37910838  1.0
  Te  Te39  1  0.51717120  0.99023466  0.87910838  1.0
  Te  Te40  1  0.99023466  0.51717120  0.62089162  1.0
  Te  Te41  1  0.99023466  0.47306345  0.12089162  1.0
  Te  Te42  1  0.48282880  0.47306345  0.62089162  1.0
  Te  Te43  1  0.48282880  0.00976534  0.12089162  1.0
  Te  Te44  1  0.47306345  0.99023466  0.37910838  1.0
  Te  Te45  1  0.47306345  0.48282880  0.87910838  1.0
  Te  Te46  1  0.00976534  0.52693655  0.87910838  1.0
  Te  Te47  1  0.00976534  0.48282880  0.37910838  1.0
