# generated using pymatgen
data_Na3Ca2TaO4
_symmetry_space_group_name_H-M   'P 1'
_cell_length_a   14.35774822
_cell_length_b   14.35425764
_cell_length_c   7.18236965
_cell_angle_alpha   75.54044662
_cell_angle_beta   75.48652644
_cell_angle_gamma   28.97302694
_symmetry_Int_Tables_number   1
_chemical_formula_structural   Na3Ca2TaO4
_chemical_formula_sum   'Na12 Ca8 Ta4 O16'
_cell_volume   692.68292861
_cell_formula_units_Z   4
loop_
 _symmetry_equiv_pos_site_id
 _symmetry_equiv_pos_as_xyz
  1  'x, y, z'
loop_
 _atom_site_type_symbol
 _atom_site_label
 _atom_site_symmetry_multiplicity
 _atom_site_fract_x
 _atom_site_fract_y
 _atom_site_fract_z
 _atom_site_occupancy
  Na  Na0  1  0.45779291  0.45837179  1.28889506  1.0
  Na  Na1  1  -0.20505976  0.28889506  0.45837179  1.0
  Na  Na2  1  -0.20837179  0.79220709  0.45505976  1.0
  Na  Na3  1  -0.03889506  0.45505976  0.79220709  1.0
  Na  Na4  1  0.28889506  -0.20505976  1.45779291  1.0
  Na  Na5  1  0.45837179  0.45779291  -0.20505976  1.0
  Na  Na6  1  -0.54494024  0.96110494  0.79162821  1.0
  Na  Na7  1  -0.20779291  0.79162821  0.96110494  1.0
  Na  Na8  1  0.62500000  -0.37500000  1.12500000  1.0
  Na  Na9  1  -0.37500000  1.12500000  0.62500000  1.0
  Na  Na10  1  -0.37500000  0.62500000  0.62500000  1.0
  Na  Na11  1  1.12500000  -0.37500000  0.62500000  1.0
  Ca  Ca12  1  0.29355928  0.29394073  1.44539984  1.0
  Ca  Ca13  1  -0.03289985  0.44539984  0.29394073  1.0
  Ca  Ca14  1  -0.04394073  0.95644072  0.28289985  1.0
  Ca  Ca15  1  -0.19539984  0.28289985  0.95644072  1.0
  Ca  Ca16  1  0.44539984  -0.03289985  1.29355928  1.0
  Ca  Ca17  1  0.29394073  0.29355928  -0.03289985  1.0
  Ca  Ca18  1  -0.71710015  0.80460016  0.95605927  1.0
  Ca  Ca19  1  -0.04355928  0.95605927  0.80460016  1.0
  Ta  Ta20  1  0.12500000  0.12500000  1.62500000  1.0
  Ta  Ta21  1  0.12500000  0.62500000  1.12500000  1.0
  Ta  Ta22  1  0.12500000  0.12500000  1.12500000  1.0
  Ta  Ta23  1  0.62500000  0.12500000  1.12500000  1.0
  O  O24  1  0.05010317  0.04973734  1.72201778  1.0
  O  O25  1  0.17814171  0.72201778  0.04973734  1.0
  O  O26  1  -0.79973734  1.19989683  1.07185829  1.0
  O  O27  1  -0.47201778  1.07185829  1.19989683  1.0
  O  O28  1  0.72201778  0.17814171  1.05010317  1.0
  O  O29  1  0.04973734  0.05010317  0.17814171  1.0
  O  O30  1  0.07185829  0.52798222  0.20026266  1.0
  O  O31  1  0.19989683  0.20026266  0.52798222  1.0
  O  O32  1  -0.04869273  0.29775680  0.37586962  1.0
  O  O33  1  0.37506631  0.37586962  1.29775680  1.0
  O  O34  1  -0.04775680  0.29869273  0.87493369  1.0
  O  O35  1  -0.12586962  0.87493369  0.29869273  1.0
  O  O36  1  0.37586962  0.37506631  -0.04869273  1.0
  O  O37  1  0.29775680  -0.04869273  1.37506631  1.0
  O  O38  1  -0.12506631  0.87413038  0.95224320  1.0
  O  O39  1  -0.70130727  0.95224320  0.87413038  1.0
