# generated using pymatgen
data_Ag2S
_symmetry_space_group_name_H-M   'P 1'
_cell_length_a   4.34319474
_cell_length_b   7.89885881
_cell_length_c   8.68644306
_cell_angle_alpha   90.00000000
_cell_angle_beta   115.68688249
_cell_angle_gamma   90.00000000
_symmetry_Int_Tables_number   1
_chemical_formula_structural   Ag2S
_chemical_formula_sum   'Ag8 S4'
_cell_volume   268.55014049
_cell_formula_units_Z   4
loop_
 _symmetry_equiv_pos_site_id
 _symmetry_equiv_pos_as_xyz
  1  'x, y, z'
loop_
 _atom_site_type_symbol
 _atom_site_label
 _atom_site_symmetry_multiplicity
 _atom_site_fract_x
 _atom_site_fract_y
 _atom_site_fract_z
 _atom_site_occupancy
  Ag  Ag0  1  0.45080778  0.24988804  0.02461975  1.0
  Ag  Ag1  1  0.45080778  0.25011196  0.52461975  1.0
  Ag  Ag2  1  0.54919222  0.74988804  0.47538025  1.0
  Ag  Ag3  1  0.54919222  0.75011196  0.97538025  1.0
  Ag  Ag4  1  0.99965472  0.49996378  0.25005782  1.0
  Ag  Ag5  1  0.99965472  0.00003622  0.75005782  1.0
  Ag  Ag6  1  0.00034528  0.99996378  0.24994218  1.0
  Ag  Ag7  1  0.00034528  0.50003622  0.74994218  1.0
  S  S8  1  0.81229442  0.24981972  0.34378878  1.0
  S  S9  1  0.81229442  0.25018028  0.84378878  1.0
  S  S10  1  0.18770558  0.74981972  0.15621122  1.0
  S  S11  1  0.18770558  0.75018028  0.65621122  1.0
