# generated using pymatgen
data_Ba(MoSe)3
_symmetry_space_group_name_H-M   'P 1'
_cell_length_a   9.05052939
_cell_length_b   9.05052939
_cell_length_c   4.51308081
_cell_angle_alpha   90.00000000
_cell_angle_beta   90.00000000
_cell_angle_gamma   120.00000000
_symmetry_Int_Tables_number   1
_chemical_formula_structural   Ba(MoSe)3
_chemical_formula_sum   'Ba2 Mo6 Se6'
_cell_volume   320.14867420
_cell_formula_units_Z   2
loop_
 _symmetry_equiv_pos_site_id
 _symmetry_equiv_pos_as_xyz
  1  'x, y, z'
loop_
 _atom_site_type_symbol
 _atom_site_label
 _atom_site_symmetry_multiplicity
 _atom_site_fract_x
 _atom_site_fract_y
 _atom_site_fract_z
 _atom_site_occupancy
  Ba  Ba0  1  0.33333333  0.66666667  0.25000000  1.0
  Ba  Ba1  1  0.66666667  0.33333333  0.75000000  1.0
  Mo  Mo2  1  0.03592709  0.85112881  0.25000000  1.0
  Mo  Mo3  1  0.85112881  0.81520172  0.75000000  1.0
  Mo  Mo4  1  0.81520172  0.96407291  0.25000000  1.0
  Mo  Mo5  1  0.14887119  0.18479828  0.25000000  1.0
  Mo  Mo6  1  0.96407291  0.14887119  0.75000000  1.0
  Mo  Mo7  1  0.18479828  0.03592709  0.75000000  1.0
  Se  Se8  1  0.70038320  0.62848016  0.25000000  1.0
  Se  Se9  1  0.62848016  0.92809696  0.75000000  1.0
  Se  Se10  1  0.92809696  0.29961680  0.25000000  1.0
  Se  Se11  1  0.37151984  0.07190304  0.25000000  1.0
  Se  Se12  1  0.29961680  0.37151984  0.75000000  1.0
  Se  Se13  1  0.07190304  0.70038320  0.75000000  1.0
