# generated using pymatgen
data_LiMnAsO4
_symmetry_space_group_name_H-M   'P 1'
_cell_length_a   10.87141747
_cell_length_b   6.21348927
_cell_length_c   4.99343994
_cell_angle_alpha   90.00000000
_cell_angle_beta   90.00000000
_cell_angle_gamma   90.00000000
_symmetry_Int_Tables_number   1
_chemical_formula_structural   LiMnAsO4
_chemical_formula_sum   'Li4 Mn4 As4 O16'
_cell_volume   337.30405037
_cell_formula_units_Z   4
loop_
 _symmetry_equiv_pos_site_id
 _symmetry_equiv_pos_as_xyz
  1  'x, y, z'
loop_
 _atom_site_type_symbol
 _atom_site_label
 _atom_site_symmetry_multiplicity
 _atom_site_fract_x
 _atom_site_fract_y
 _atom_site_fract_z
 _atom_site_occupancy
  Li  Li0  1  0.00000000  0.50000000  -0.00000000  1.0
  Li  Li1  1  0.00000000  -0.00000000  -0.00000000  1.0
  Li  Li2  1  0.50000000  0.50000000  0.50000000  1.0
  Li  Li3  1  0.50000000  0.00000000  0.50000000  1.0
  Mn  Mn4  1  0.77705029  0.25000000  0.50982648  1.0
  Mn  Mn5  1  0.27705029  0.25000000  0.99017352  1.0
  Mn  Mn6  1  0.22294971  0.75000000  0.49017352  1.0
  Mn  Mn7  1  0.72294971  0.75000000  0.00982648  1.0
  As  As8  1  0.59110070  0.25000000  0.06893952  1.0
  As  As9  1  0.09110070  0.25000000  0.43106048  1.0
  As  As10  1  0.40889930  0.75000000  0.93106048  1.0
  As  As11  1  0.90889930  0.75000000  0.56893952  1.0
  O  O12  1  0.66694128  0.46780382  0.22192121  1.0
  O  O13  1  0.66694128  0.03219618  0.22192121  1.0
  O  O14  1  0.16694128  0.46780382  0.27807879  1.0
  O  O15  1  0.16694128  0.03219618  0.27807879  1.0
  O  O16  1  0.33305872  0.96780382  0.77807879  1.0
  O  O17  1  0.33305872  0.53219618  0.77807879  1.0
  O  O18  1  0.83305872  0.96780382  0.72192121  1.0
  O  O19  1  0.83305872  0.53219618  0.72192121  1.0
  O  O20  1  0.94538926  0.25000000  0.28465768  1.0
  O  O21  1  0.44538926  0.25000000  0.21534232  1.0
  O  O22  1  0.05461074  0.75000000  0.71534232  1.0
  O  O23  1  0.55461074  0.75000000  0.78465768  1.0
  O  O24  1  0.59405059  0.25000000  0.72346582  1.0
  O  O25  1  0.09405059  0.25000000  0.77653418  1.0
  O  O26  1  0.40594941  0.75000000  0.27653418  1.0
  O  O27  1  0.90594941  0.75000000  0.22346582  1.0
