# generated using pymatgen
data_Co3Sb4(OF)6
_symmetry_space_group_name_H-M   'P 1'
_cell_length_a   7.16570452
_cell_length_b   7.16570452
_cell_length_c   7.16570452
_cell_angle_alpha   109.47122063
_cell_angle_beta   109.47122063
_cell_angle_gamma   109.47122063
_symmetry_Int_Tables_number   1
_chemical_formula_structural   Co3Sb4(OF)6
_chemical_formula_sum   'Co3 Sb4 O6 F6'
_cell_volume   283.24013794
_cell_formula_units_Z   1
loop_
 _symmetry_equiv_pos_site_id
 _symmetry_equiv_pos_as_xyz
  1  'x, y, z'
loop_
 _atom_site_type_symbol
 _atom_site_label
 _atom_site_symmetry_multiplicity
 _atom_site_fract_x
 _atom_site_fract_y
 _atom_site_fract_z
 _atom_site_occupancy
  Co  Co0  1  0.50000000  0.50000000  -0.00000000  1.0
  Co  Co1  1  0.50000000  0.00000000  0.50000000  1.0
  Co  Co2  1  -0.00000000  0.50000000  0.50000000  1.0
  Sb  Sb3  1  0.67985782  0.67985782  0.67985782  1.0
  Sb  Sb4  1  1.00000000  1.00000000  0.32014218  1.0
  Sb  Sb5  1  1.00000000  0.32014218  1.00000000  1.0
  Sb  Sb6  1  0.32014218  1.00000000  1.00000000  1.0
  O  O7  1  0.74892454  0.74892454  -0.00000000  1.0
  O  O8  1  0.74892454  0.00000000  0.74892454  1.0
  O  O9  1  -0.00000000  0.74892454  0.74892454  1.0
  O  O10  1  0.25107546  -0.00000000  0.25107546  1.0
  O  O11  1  -0.00000000  0.25107546  0.25107546  1.0
  O  O12  1  0.25107546  0.25107546  -0.00000000  1.0
  F  F13  1  0.25000000  0.75000000  0.50000000  1.0
  F  F14  1  0.75000000  0.25000000  0.50000000  1.0
  F  F15  1  0.25000000  0.50000000  0.75000000  1.0
  F  F16  1  0.50000000  0.25000000  0.75000000  1.0
  F  F17  1  0.75000000  0.50000000  0.25000000  1.0
  F  F18  1  0.50000000  0.75000000  0.25000000  1.0
