# generated using pymatgen
data_NaP15
_symmetry_space_group_name_H-M   'P 1'
_cell_length_a   12.14469912
_cell_length_b   9.40597679
_cell_length_c   7.30118654
_cell_angle_alpha   109.82813168
_cell_angle_beta   97.59479737
_cell_angle_gamma   93.30092983
_symmetry_Int_Tables_number   1
_chemical_formula_structural   NaP15
_chemical_formula_sum   'Na2 P30'
_cell_volume   773.00090881
_cell_formula_units_Z   2
loop_
 _symmetry_equiv_pos_site_id
 _symmetry_equiv_pos_as_xyz
  1  'x, y, z'
loop_
 _atom_site_type_symbol
 _atom_site_label
 _atom_site_symmetry_multiplicity
 _atom_site_fract_x
 _atom_site_fract_y
 _atom_site_fract_z
 _atom_site_occupancy
  Na  Na0  1  -0.00026368  -0.78784808  -0.78663296  1.0
  Na  Na1  1  -0.99973632  -0.21215192  -0.21336704  1.0
  P  P2  1  -0.61097809  -0.66879873  -0.98392314  1.0
  P  P3  1  -0.38902191  -0.33120127  -0.01607686  1.0
  P  P4  1  -0.16629958  -0.55151833  -0.99426343  1.0
  P  P5  1  -0.83370042  -0.44848167  -0.00573657  1.0
  P  P6  1  -0.31965959  -0.09587806  -0.97956458  1.0
  P  P7  1  -0.68034041  -0.90412194  -0.02043542  1.0
  P  P8  1  -0.70628877  -0.24872804  -0.87806616  1.0
  P  P9  1  -0.29371123  -0.75127196  -0.12193384  1.0
  P  P10  1  -0.14041565  -0.08585240  -0.89392396  1.0
  P  P11  1  -0.85958435  -0.91414760  -0.10607604  1.0
  P  P12  1  -0.26673809  -0.39580642  -0.80262100  1.0
  P  P13  1  -0.73326191  -0.60419358  -0.19737900  1.0
  P  P14  1  -0.65179101  -0.54552718  -0.68979121  1.0
  P  P15  1  -0.34820899  -0.45447282  -0.31020879  1.0
  P  P16  1  -0.83235031  -0.14090535  -0.69894054  1.0
  P  P17  1  -0.16764969  -0.85909465  -0.30105946  1.0
  P  P18  1  -0.39032796  -0.00945046  -0.69911132  1.0
  P  P19  1  -0.60967204  -0.99054954  -0.30088868  1.0
  P  P20  1  -0.58127571  -0.31490251  -0.65896015  1.0
  P  P21  1  -0.41872429  -0.68509749  -0.34103985  1.0
  P  P22  1  -0.14370004  -0.18733796  -0.66778512  1.0
  P  P23  1  -0.85629996  -0.81266204  -0.33221488  1.0
  P  P24  1  -0.16615788  -0.71712213  -0.49458238  1.0
  P  P25  1  -0.83384212  -0.28287787  -0.50541762  1.0
  P  P26  1  -0.26916419  -0.07454775  -0.48435901  1.0
  P  P27  1  -0.73083581  -0.92545225  -0.51564099  1.0
  P  P28  1  -0.65141003  -0.23775601  -0.38100977  1.0
  P  P29  1  -0.34858997  -0.76224399  -0.61899023  1.0
  P  P30  1  -0.16559920  -0.48137198  -0.25957702  1.0
  P  P31  1  -0.83440080  -0.51862802  -0.74042298  1.0
