# generated using pymatgen
data_Zn3As2
_symmetry_space_group_name_H-M   'P 1'
_cell_length_a   8.44604628
_cell_length_b   8.44604628
_cell_length_c   11.89535700
_cell_angle_alpha   90.00000000
_cell_angle_beta   90.00000000
_cell_angle_gamma   90.00000000
_symmetry_Int_Tables_number   1
_chemical_formula_structural   Zn3As2
_chemical_formula_sum   'Zn24 As16'
_cell_volume   848.56359167
_cell_formula_units_Z   8
loop_
 _symmetry_equiv_pos_site_id
 _symmetry_equiv_pos_as_xyz
  1  'x, y, z'
loop_
 _atom_site_type_symbol
 _atom_site_label
 _atom_site_symmetry_multiplicity
 _atom_site_fract_x
 _atom_site_fract_y
 _atom_site_fract_z
 _atom_site_occupancy
  Zn  Zn0  1  0.27821029  0.50000000  0.61145308  1.0
  Zn  Zn1  1  0.72178971  0.50000000  0.61145308  1.0
  Zn  Zn2  1  0.77821029  0.00000000  0.88854692  1.0
  Zn  Zn3  1  0.22178971  0.00000000  0.88854692  1.0
  Zn  Zn4  1  0.50000000  0.27821029  0.38854692  1.0
  Zn  Zn5  1  0.50000000  0.72178971  0.38854692  1.0
  Zn  Zn6  1  0.00000000  0.77821029  0.11145308  1.0
  Zn  Zn7  1  0.00000000  0.22178971  0.11145308  1.0
  Zn  Zn8  1  0.21985565  0.50000000  0.88750388  1.0
  Zn  Zn9  1  0.78014435  0.50000000  0.88750388  1.0
  Zn  Zn10  1  0.71985565  0.00000000  0.61249612  1.0
  Zn  Zn11  1  0.28014435  0.00000000  0.61249612  1.0
  Zn  Zn12  1  0.50000000  0.21985565  0.11249612  1.0
  Zn  Zn13  1  0.50000000  0.78014435  0.11249612  1.0
  Zn  Zn14  1  0.00000000  0.71985565  0.38750388  1.0
  Zn  Zn15  1  0.00000000  0.28014435  0.38750388  1.0
  Zn  Zn16  1  0.25240312  0.50000000  0.14592455  1.0
  Zn  Zn17  1  0.74759688  0.50000000  0.14592455  1.0
  Zn  Zn18  1  0.75240312  0.00000000  0.35407545  1.0
  Zn  Zn19  1  0.24759688  0.00000000  0.35407545  1.0
  Zn  Zn20  1  0.50000000  0.25240312  0.85407545  1.0
  Zn  Zn21  1  0.50000000  0.74759688  0.85407545  1.0
  Zn  Zn22  1  0.00000000  0.75240312  0.64592455  1.0
  Zn  Zn23  1  0.00000000  0.24759688  0.64592455  1.0
  As  As24  1  0.50000000  0.50000000  0.74828739  1.0
  As  As25  1  0.00000000  0.00000000  0.75171261  1.0
  As  As26  1  0.50000000  0.50000000  0.25171261  1.0
  As  As27  1  0.00000000  0.00000000  0.24828739  1.0
  As  As28  1  0.00000000  0.50000000  0.74696952  1.0
  As  As29  1  0.50000000  0.00000000  0.75303048  1.0
  As  As30  1  0.50000000  0.00000000  0.25303048  1.0
  As  As31  1  0.00000000  0.50000000  0.24696952  1.0
  As  As32  1  0.24851871  0.24851871  0.50000000  1.0
  As  As33  1  0.75148129  0.75148129  0.50000000  1.0
  As  As34  1  0.74851871  0.74851871  -0.00000000  1.0
  As  As35  1  0.25148129  0.25148129  -0.00000000  1.0
  As  As36  1  0.75148129  0.24851871  0.50000000  1.0
  As  As37  1  0.24851871  0.75148129  0.50000000  1.0
  As  As38  1  0.25148129  0.74851871  0.00000000  1.0
  As  As39  1  0.74851871  0.25148129  0.00000000  1.0
