# generated using pymatgen
data_TlCuPS3
_symmetry_space_group_name_H-M   'P 1'
_cell_length_a   8.00931271
_cell_length_b   8.52782009
_cell_length_c   11.45417687
_cell_angle_alpha   90.00000000
_cell_angle_beta   131.82463157
_cell_angle_gamma   90.00000000
_symmetry_Int_Tables_number   1
_chemical_formula_structural   TlCuPS3
_chemical_formula_sum   'Tl4 Cu4 P4 S12'
_cell_volume   582.99365129
_cell_formula_units_Z   4
loop_
 _symmetry_equiv_pos_site_id
 _symmetry_equiv_pos_as_xyz
  1  'x, y, z'
loop_
 _atom_site_type_symbol
 _atom_site_label
 _atom_site_symmetry_multiplicity
 _atom_site_fract_x
 _atom_site_fract_y
 _atom_site_fract_z
 _atom_site_occupancy
  Tl  Tl0  1  0.15845996  0.96709056  0.25377830  1.0
  Tl  Tl1  1  0.84154004  0.46709056  0.24622170  1.0
  Tl  Tl2  1  0.84154004  0.03290944  0.74622170  1.0
  Tl  Tl3  1  0.15845996  0.53290944  0.75377830  1.0
  Cu  Cu4  1  0.40802296  0.67190281  0.24097344  1.0
  Cu  Cu5  1  0.59197704  0.17190281  0.25902656  1.0
  Cu  Cu6  1  0.59197704  0.32809719  0.75902656  1.0
  Cu  Cu7  1  0.40802296  0.82809719  0.74097344  1.0
  P  P8  1  0.56968066  0.88995825  0.07355796  1.0
  P  P9  1  0.43031934  0.38995825  0.42644204  1.0
  P  P10  1  0.43031934  0.11004175  0.92644204  1.0
  P  P11  1  0.56968066  0.61004175  0.57355796  1.0
  S  S12  1  0.69544757  0.76293034  -0.00649364  1.0
  S  S13  1  0.30455243  0.26293034  0.50649364  1.0
  S  S14  1  0.30455243  0.23706966  1.00649364  1.0
  S  S15  1  0.69544757  0.73706966  0.49350636  1.0
  S  S16  1  0.19364028  0.46756608  0.20135092  1.0
  S  S17  1  0.80635972  0.96756608  0.29864908  1.0
  S  S18  1  0.80635972  0.53243392  0.79864908  1.0
  S  S19  1  0.19364028  0.03243392  0.70135092  1.0
  S  S20  1  0.29846098  0.77621931  0.02252791  1.0
  S  S21  1  0.70153902  0.27621931  0.47747209  1.0
  S  S22  1  0.70153901  0.22378069  0.97747209  1.0
  S  S23  1  0.29846098  0.72378069  0.52252791  1.0
