# generated using pymatgen
data_K2ReF8
_symmetry_space_group_name_H-M   'P 1'
_cell_length_a   9.05809661
_cell_length_b   5.99162313
_cell_length_c   12.62255445
_cell_angle_alpha   90.00000000
_cell_angle_beta   90.00000000
_cell_angle_gamma   90.00000000
_symmetry_Int_Tables_number   1
_chemical_formula_structural   K2ReF8
_chemical_formula_sum   'K8 Re4 F32'
_cell_volume   685.06012577
_cell_formula_units_Z   4
loop_
 _symmetry_equiv_pos_site_id
 _symmetry_equiv_pos_as_xyz
  1  'x, y, z'
loop_
 _atom_site_type_symbol
 _atom_site_label
 _atom_site_symmetry_multiplicity
 _atom_site_fract_x
 _atom_site_fract_y
 _atom_site_fract_z
 _atom_site_occupancy
  K  K0  1  0.95444151  0.75000000  0.70640191  1.0
  K  K1  1  0.45444151  0.75000000  0.79359809  1.0
  K  K2  1  0.04555849  0.25000000  0.29359809  1.0
  K  K3  1  0.54555849  0.25000000  0.20640191  1.0
  K  K4  1  0.83456363  0.75000000  0.06011118  1.0
  K  K5  1  0.33456363  0.75000000  0.43988882  1.0
  K  K6  1  0.16543637  0.25000000  0.93988882  1.0
  K  K7  1  0.66543637  0.25000000  0.56011118  1.0
  Re  Re8  1  0.77709206  0.75000000  0.37767641  1.0
  Re  Re9  1  0.27709206  0.75000000  0.12232359  1.0
  Re  Re10  1  0.22290794  0.25000000  0.62232359  1.0
  Re  Re11  1  0.72290794  0.25000000  0.87767641  1.0
  F  F12  1  0.86071751  0.02271863  0.43471560  1.0
  F  F13  1  0.86071751  0.47728137  0.43471560  1.0
  F  F14  1  0.36071751  0.02271863  0.06528440  1.0
  F  F15  1  0.36071751  0.47728137  0.06528440  1.0
  F  F16  1  0.13928249  0.52271863  0.56528440  1.0
  F  F17  1  0.13928249  0.97728137  0.56528440  1.0
  F  F18  1  0.63928249  0.52271863  0.93471560  1.0
  F  F19  1  0.63928249  0.97728137  0.93471560  1.0
  F  F20  1  0.78140403  0.94899091  0.25273197  1.0
  F  F21  1  0.78140403  0.55100909  0.25273197  1.0
  F  F22  1  0.28140403  0.94899091  0.24726803  1.0
  F  F23  1  0.28140403  0.55100909  0.24726803  1.0
  F  F24  1  0.21859597  0.44899091  0.74726803  1.0
  F  F25  1  0.21859597  0.05100909  0.74726803  1.0
  F  F26  1  0.71859597  0.44899091  0.75273197  1.0
  F  F27  1  0.71859597  0.05100909  0.75273197  1.0
  F  F28  1  0.60340823  0.55164241  0.38893415  1.0
  F  F29  1  0.60340823  0.94835759  0.38893415  1.0
  F  F30  1  0.10340823  0.55164241  0.11106585  1.0
  F  F31  1  0.10340823  0.94835759  0.11106585  1.0
  F  F32  1  0.39659177  0.05164241  0.61106585  1.0
  F  F33  1  0.39659177  0.44835759  0.61106585  1.0
  F  F34  1  0.89659177  0.05164241  0.88893415  1.0
  F  F35  1  0.89659177  0.44835759  0.88893415  1.0
  F  F36  1  0.73214446  0.75000000  0.53064954  1.0
  F  F37  1  0.23214446  0.75000000  0.96935046  1.0
  F  F38  1  0.26785554  0.25000000  0.46935046  1.0
  F  F39  1  0.76785554  0.25000000  0.03064954  1.0
  F  F40  1  0.48403089  0.75000000  0.16368256  1.0
  F  F41  1  -0.01596911  0.75000000  0.33631744  1.0
  F  F42  1  0.51596911  0.25000000  0.83631744  1.0
  F  F43  1  0.01596911  0.25000000  0.66368256  1.0
