# generated using pymatgen
data_Na3GaS3
_symmetry_space_group_name_H-M   'P 1'
_cell_length_a   7.24432677
_cell_length_b   7.01747249
_cell_length_c   14.67105095
_cell_angle_alpha   90.00000000
_cell_angle_beta   119.26375237
_cell_angle_gamma   90.00000000
_symmetry_Int_Tables_number   1
_chemical_formula_structural   Na3GaS3
_chemical_formula_sum   'Na12 Ga4 S12'
_cell_volume   650.64639793
_cell_formula_units_Z   4
loop_
 _symmetry_equiv_pos_site_id
 _symmetry_equiv_pos_as_xyz
  1  'x, y, z'
loop_
 _atom_site_type_symbol
 _atom_site_label
 _atom_site_symmetry_multiplicity
 _atom_site_fract_x
 _atom_site_fract_y
 _atom_site_fract_z
 _atom_site_occupancy
  Na  Na0  1  0.43402528  0.03641536  0.70739115  1.0
  Na  Na1  1  0.43402528  0.46358464  0.20739115  1.0
  Na  Na2  1  0.56597472  0.53641536  0.79260885  1.0
  Na  Na3  1  0.56597472  0.96358464  0.29260885  1.0
  Na  Na4  1  0.19170765  0.50037273  0.89504708  1.0
  Na  Na5  1  0.19170765  -0.00037273  0.39504708  1.0
  Na  Na6  1  0.80829235  1.00037273  0.60495292  1.0
  Na  Na7  1  0.80829235  0.49962727  0.10495292  1.0
  Na  Na8  1  0.76884800  0.49926576  0.61050195  1.0
  Na  Na9  1  0.76884800  0.00073424  0.11050195  1.0
  Na  Na10  1  0.23115200  0.99926576  0.88949805  1.0
  Na  Na11  1  0.23115200  0.50073424  0.38949805  1.0
  Ga  Ga12  1  0.16631291  0.64383192  0.58164648  1.0
  Ga  Ga13  1  0.16631291  0.85616808  0.08164648  1.0
  Ga  Ga14  1  0.83368709  0.14383192  0.91835352  1.0
  Ga  Ga15  1  0.83368709  0.35616808  0.41835352  1.0
  S  S16  1  0.55325690  0.25837399  0.92903942  1.0
  S  S17  1  0.55325690  0.24162601  0.42903942  1.0
  S  S18  1  0.44674310  0.75837399  0.57096058  1.0
  S  S19  1  0.44674310  0.74162601  0.07096058  1.0
  S  S20  1  0.14959366  0.30813527  0.57183684  1.0
  S  S21  1  0.14959366  0.19186473  0.07183684  1.0
  S  S22  1  0.85040634  0.80813527  0.92816316  1.0
  S  S23  1  0.85040634  0.69186473  0.42816316  1.0
  S  S24  1  0.84409971  0.24656706  0.77451244  1.0
  S  S25  1  0.84409971  0.25343294  0.27451244  1.0
  S  S26  1  0.15590029  0.74656706  0.72548756  1.0
  S  S27  1  0.15590029  0.75343294  0.22548756  1.0
