# generated using pymatgen
data_K2BaCo(NO2)6
_symmetry_space_group_name_H-M   'P 1'
_cell_length_a   7.67939628
_cell_length_b   7.66244682
_cell_length_c   7.49869683
_cell_angle_alpha   60.85300169
_cell_angle_beta   60.62703512
_cell_angle_gamma   58.51996319
_symmetry_Int_Tables_number   1
_chemical_formula_structural   K2BaCo(NO2)6
_chemical_formula_sum   'K2 Ba1 Co1 N6 O12'
_cell_volume   311.69745886
_cell_formula_units_Z   1
loop_
 _symmetry_equiv_pos_site_id
 _symmetry_equiv_pos_as_xyz
  1  'x, y, z'
loop_
 _atom_site_type_symbol
 _atom_site_label
 _atom_site_symmetry_multiplicity
 _atom_site_fract_x
 _atom_site_fract_y
 _atom_site_fract_z
 _atom_site_occupancy
  O  O0  1  -0.65408801  0.65408801  1.14239494  1.0
  O  O1  1  0.14239494  -0.14239494  0.34591199  1.0
  O  O2  1  -0.14239494  0.14239494  1.65408801  1.0
  O  O3  1  0.65408801  -0.65408801  0.85760506  1.0
  O  O4  1  0.84387141  -0.35835758  0.35835758  1.0
  O  O5  1  0.35835758  0.15612859  -0.15612859  1.0
  O  O6  1  0.64164242  -0.15612859  0.15612859  1.0
  O  O7  1  1.15612859  -0.64164242  0.64164242  1.0
  O  O8  1  0.14695500  0.65887114  -0.14695500  1.0
  O  O9  1  0.34112886  -0.14695500  0.65887114  1.0
  O  O10  1  -0.34112886  1.14695500  0.34112886  1.0
  O  O11  1  -0.14695500  0.34112886  1.14695500  1.0
  K  K12  1  0.25000000  0.25000000  0.25000000  1.0
  K  K13  1  -0.25000000  0.75000000  0.75000000  1.0
  Co  Co14  1  0.00000000  -0.00000000  -0.00000000  1.0
  N  N15  1  0.18274797  -0.18274797  0.81725203  1.0
  N  N16  1  -0.18274797  0.18274797  1.18274797  1.0
  N  N17  1  0.18259135  -0.18259135  0.18259135  1.0
  N  N18  1  0.81740865  -0.81740865  0.81740865  1.0
  N  N19  1  0.80225642  -0.19774358  0.19774358  1.0
  N  N20  1  0.19774358  0.19774358  -0.19774358  1.0
  Ba  Ba21  1  0.50000000  -0.50000000  0.50000000  1.0
