# generated using pymatgen
data_WO3
_symmetry_space_group_name_H-M   'P 1'
_cell_length_a   7.53798839
_cell_length_b   7.71869266
_cell_length_c   10.90802688
_cell_angle_alpha   90.00000000
_cell_angle_beta   133.71786096
_cell_angle_gamma   90.00000000
_symmetry_Int_Tables_number   1
_chemical_formula_structural   WO3
_chemical_formula_sum   'W8 O24'
_cell_volume   458.70614579
_cell_formula_units_Z   8
loop_
 _symmetry_equiv_pos_site_id
 _symmetry_equiv_pos_as_xyz
  1  'x, y, z'
loop_
 _atom_site_type_symbol
 _atom_site_label
 _atom_site_symmetry_multiplicity
 _atom_site_fract_x
 _atom_site_fract_y
 _atom_site_fract_z
 _atom_site_occupancy
  W  W0  1  0.97085363  0.47387641  0.22067625  1.0
  W  W1  1  0.97085363  0.02612359  0.72067625  1.0
  W  W2  1  0.02914637  0.97387641  0.27932375  1.0
  W  W3  1  0.02914637  0.52612359  0.77932375  1.0
  W  W4  1  0.47073430  0.02653067  0.22091545  1.0
  W  W5  1  0.47073430  0.47346933  0.72091545  1.0
  W  W6  1  0.52926570  0.52653067  0.27908455  1.0
  W  W7  1  0.52926570  0.97346933  0.77908455  1.0
  O  O8  1  -0.00850199  0.24127601  0.24502376  1.0
  O  O9  1  -0.00850199  0.25872399  0.74502376  1.0
  O  O10  1  1.00850199  0.74127601  0.25497624  1.0
  O  O11  1  1.00850199  0.75872399  0.75497624  1.0
  O  O12  1  0.75542485  0.50351541  0.25506440  1.0
  O  O13  1  0.75542485  -0.00351541  0.75506440  1.0
  O  O14  1  0.24457515  1.00351541  0.24493560  1.0
  O  O15  1  0.24457515  0.49648459  0.74493560  1.0
  O  O16  1  0.75462638  -0.00344014  0.25495616  1.0
  O  O17  1  0.75462638  0.50344014  0.75495616  1.0
  O  O18  1  0.24537362  0.49655986  0.24504384  1.0
  O  O19  1  0.24537362  1.00344014  0.74504384  1.0
  O  O20  1  0.74067166  1.00951859  0.49585540  1.0
  O  O21  1  0.74067166  0.49048141  -0.00414460  1.0
  O  O22  1  0.25932834  0.50951859  0.00414460  1.0
  O  O23  1  0.25932834  -0.00951859  0.50414460  1.0
  O  O24  1  0.50242468  0.25874568  0.24898322  1.0
  O  O25  1  0.50242468  0.24125432  0.74898322  1.0
  O  O26  1  0.49757532  0.75874568  0.25101678  1.0
  O  O27  1  0.49757532  0.74125432  0.75101678  1.0
  O  O28  1  0.25110708  0.48636171  0.49588878  1.0
  O  O29  1  0.25110708  0.01363829  0.99588878  1.0
  O  O30  1  0.74889292  0.98636171  0.00411122  1.0
  O  O31  1  0.74889292  0.51363829  0.50411122  1.0
