# generated using pymatgen
data_MoP2PbO8
_symmetry_space_group_name_H-M   'P 1'
_cell_length_a   10.20043466
_cell_length_b   10.20043466
_cell_length_c   6.63150493
_cell_angle_alpha   81.75569451
_cell_angle_beta   98.24430549
_cell_angle_gamma   89.48289612
_symmetry_Int_Tables_number   1
_chemical_formula_structural   MoP2PbO8
_chemical_formula_sum   'Mo4 P8 Pb4 O32'
_cell_volume   675.50442429
_cell_formula_units_Z   4
loop_
 _symmetry_equiv_pos_site_id
 _symmetry_equiv_pos_as_xyz
  1  'x, y, z'
loop_
 _atom_site_type_symbol
 _atom_site_label
 _atom_site_symmetry_multiplicity
 _atom_site_fract_x
 _atom_site_fract_y
 _atom_site_fract_z
 _atom_site_occupancy
  P  P0  1  1.79341985  0.01740680  0.19842811  1.0
  P  P1  1  0.98259320  -0.79341985  0.69842811  1.0
  P  P2  1  1.01740680  0.79341985  0.30157189  1.0
  P  P3  1  0.20658015  -0.01740680  0.80157189  1.0
  P  P4  1  1.49374063  0.23471380  0.46445833  1.0
  P  P5  1  0.76528620  -0.49374063  0.96445833  1.0
  P  P6  1  1.23471380  0.49374063  0.03554167  1.0
  P  P7  1  0.50625937  -0.23471380  0.53554167  1.0
  O  O8  1  0.58983934  -0.31661070  0.41638529  1.0
  O  O9  1  1.31661070  0.41016066  0.91638529  1.0
  O  O10  1  0.68338930  -0.41016066  0.08361471  1.0
  O  O11  1  1.41016066  0.31661070  0.58361471  1.0
  O  O12  1  0.70916725  -0.01583441  1.00122544  1.0
  O  O13  1  1.01583441  0.29083275  0.50122544  1.0
  O  O14  1  0.98416559  -0.29083275  0.49877456  1.0
  O  O15  1  1.29083275  0.01583441  -0.00122544  1.0
  O  O16  1  0.71249564  -0.01133442  0.37642885  1.0
  O  O17  1  1.01133442  0.28750436  0.87642885  1.0
  O  O18  1  0.98866558  -0.28750436  0.12357115  1.0
  O  O19  1  1.28750436  0.01133442  0.62357115  1.0
  O  O20  1  1.84444307  0.15823793  0.17176740  1.0
  O  O21  1  0.84176207  -0.84444307  0.67176740  1.0
  O  O22  1  1.15823793  0.84444307  0.32823260  1.0
  O  O23  1  0.15555693  -0.15823793  0.82823260  1.0
  O  O24  1  0.42530579  -0.13069476  0.36518767  1.0
  O  O25  1  1.13069476  0.57469421  0.86518767  1.0
  O  O26  1  0.86930524  -0.57469421  0.13481233  1.0
  O  O27  1  1.57469421  0.13069476  0.63481233  1.0
  O  O28  1  1.58239635  0.32491299  0.33561159  1.0
  O  O29  1  0.67508701  -0.58239635  0.83561159  1.0
  O  O30  1  1.32491299  0.58239635  0.16438841  1.0
  O  O31  1  0.41760365  -0.32491299  0.66438841  1.0
  O  O32  1  1.40706479  0.15989923  0.30440443  1.0
  O  O33  1  0.84010077  -0.40706479  0.80440443  1.0
  O  O34  1  1.15989923  0.40706479  0.19559557  1.0
  O  O35  1  0.59293521  -0.15989923  0.69559557  1.0
  O  O36  1  0.92484057  -0.07515943  0.25000000  1.0
  O  O37  1  1.07515943  0.07515943  0.75000000  1.0
  O  O38  1  1.13265198  0.13265198  0.25000000  1.0
  O  O39  1  0.86734802  -0.13265198  0.75000000  1.0
  Mo  Mo40  1  1.27370223  0.01007033  0.31201570  1.0
  Mo  Mo41  1  0.98992967  -0.27370223  0.81201570  1.0
  Mo  Mo42  1  1.01007033  0.27370223  0.18798430  1.0
  Mo  Mo43  1  0.72629777  -0.01007033  0.68798430  1.0
  Pb  Pb44  1  0.48992783  -0.26161314  0.04087236  1.0
  Pb  Pb45  1  1.26161314  0.51007217  0.54087236  1.0
  Pb  Pb46  1  0.73838686  -0.51007217  0.45912764  1.0
  Pb  Pb47  1  1.51007217  0.26161314  0.95912764  1.0
