# generated using pymatgen
data_Mn3Nb2ZnO9
_symmetry_space_group_name_H-M   'P 1'
_cell_length_a   5.30871647
_cell_length_b   5.30871647
_cell_length_c   14.40002649
_cell_angle_alpha   90.00000000
_cell_angle_beta   90.00000000
_cell_angle_gamma   120.00000000
_symmetry_Int_Tables_number   1
_chemical_formula_structural   Mn3Nb2ZnO9
_chemical_formula_sum   'Mn6 Nb4 Zn2 O18'
_cell_volume   351.45763692
_cell_formula_units_Z   2
loop_
 _symmetry_equiv_pos_site_id
 _symmetry_equiv_pos_as_xyz
  1  'x, y, z'
loop_
 _atom_site_type_symbol
 _atom_site_label
 _atom_site_symmetry_multiplicity
 _atom_site_fract_x
 _atom_site_fract_y
 _atom_site_fract_z
 _atom_site_occupancy
  Mn  Mn0  1  0.66666667  0.33333333  0.15591613  1.0
  Mn  Mn1  1  0.66666667  0.33333333  0.65591613  1.0
  Mn  Mn2  1  0.66666667  0.33333333  0.37387095  1.0
  Mn  Mn3  1  0.66666667  0.33333333  0.87387095  1.0
  Mn  Mn4  1  0.33333333  0.66666667  0.34161110  1.0
  Mn  Mn5  1  0.33333333  0.66666667  0.84161110  1.0
  Nb  Nb6  1  -0.00000000  -0.00000000  -0.00379893  1.0
  Nb  Nb7  1  0.00000000  0.00000000  0.49620107  1.0
  Nb  Nb8  1  0.00000000  0.00000000  0.21426876  1.0
  Nb  Nb9  1  0.00000000  0.00000000  0.71426876  1.0
  Zn  Zn10  1  0.33333333  0.66666667  0.06315938  1.0
  Zn  Zn11  1  0.33333333  0.66666667  0.56315938  1.0
  O  O12  1  0.28015992  0.99449050  0.10493387  1.0
  O  O13  1  0.28015992  0.28566943  0.60493387  1.0
  O  O14  1  0.71433057  0.99449050  0.60493387  1.0
  O  O15  1  0.71433057  0.71984008  0.10493387  1.0
  O  O16  1  0.00550950  0.71984008  0.60493387  1.0
  O  O17  1  0.00550950  0.28566943  0.10493387  1.0
  O  O18  1  0.31306241  0.97713149  0.43950036  1.0
  O  O19  1  0.31306241  0.33593092  0.93950036  1.0
  O  O20  1  0.66406908  0.97713149  0.93950036  1.0
  O  O21  1  0.66406908  0.68693759  0.43950036  1.0
  O  O22  1  0.02286851  0.68693759  0.93950036  1.0
  O  O23  1  0.02286851  0.33593092  0.43950036  1.0
  O  O24  1  0.97636011  0.66343283  0.27028998  1.0
  O  O25  1  0.97636011  0.31292728  0.77028998  1.0
  O  O26  1  0.68707272  0.66343283  0.77028998  1.0
  O  O27  1  0.68707272  0.02363989  0.27028998  1.0
  O  O28  1  0.33656717  0.02363989  0.77028998  1.0
  O  O29  1  0.33656717  0.31292728  0.27028998  1.0
