# generated using pymatgen
data_AlCuSe2
_symmetry_space_group_name_H-M   'P 1'
_cell_length_a   6.85358680
_cell_length_b   6.85358680
_cell_length_c   6.85358680
_cell_angle_alpha   131.32672489
_cell_angle_beta   131.32672489
_cell_angle_gamma   71.29449317
_symmetry_Int_Tables_number   1
_chemical_formula_structural   AlCuSe2
_chemical_formula_sum   'Al2 Cu2 Se4'
_cell_volume   177.70536712
_cell_formula_units_Z   2
loop_
 _symmetry_equiv_pos_site_id
 _symmetry_equiv_pos_as_xyz
  1  'x, y, z'
loop_
 _atom_site_type_symbol
 _atom_site_label
 _atom_site_symmetry_multiplicity
 _atom_site_fract_x
 _atom_site_fract_y
 _atom_site_fract_z
 _atom_site_occupancy
  Al  Al0  1  0.75000000  0.25000000  0.50000000  1.0
  Al  Al1  1  1.00000000  1.00000000  1.00000000  1.0
  Cu  Cu2  1  0.25000000  0.75000000  0.50000000  1.0
  Cu  Cu3  1  0.50000000  0.50000000  0.00000000  1.0
  Se  Se4  1  1.12366752  1.12500000  1.49866752  1.0
  Se  Se5  1  1.37500000  0.87633248  1.00133248  1.0
  Se  Se6  1  0.87500000  1.37366752  0.99866752  1.0
  Se  Se7  1  0.62633248  0.62500000  0.50133248  1.0
