# generated using pymatgen
data_Ba2WO3F4
_symmetry_space_group_name_H-M   'P 1'
_cell_length_a   7.53496663
_cell_length_b   7.53496663
_cell_length_c   7.26226084
_cell_angle_alpha   63.13168503
_cell_angle_beta   116.86831497
_cell_angle_gamma   101.24284990
_symmetry_Int_Tables_number   1
_chemical_formula_structural   Ba2WO3F4
_chemical_formula_sum   'Ba4 W2 O6 F8'
_cell_volume   328.08094476
_cell_formula_units_Z   2
loop_
 _symmetry_equiv_pos_site_id
 _symmetry_equiv_pos_as_xyz
  1  'x, y, z'
loop_
 _atom_site_type_symbol
 _atom_site_label
 _atom_site_symmetry_multiplicity
 _atom_site_fract_x
 _atom_site_fract_y
 _atom_site_fract_z
 _atom_site_occupancy
  Ba  Ba0  1  1.55862973  -0.32160573  0.32290701  1.0
  Ba  Ba1  1  1.32160573  -0.55862973  0.82290701  1.0
  Ba  Ba2  1  0.32627738  0.02643010  0.49588042  1.0
  Ba  Ba3  1  0.97356990  0.67372262  0.99588042  1.0
  W  W4  1  0.79371772  0.14634029  0.37193750  1.0
  W  W5  1  0.85365971  0.20628228  0.87193750  1.0
  O  O6  1  0.90431293  0.90926014  0.50007118  1.0
  O  O7  1  0.09073986  0.09568707  0.00007118  1.0
  O  O8  1  0.54204552  0.09489687  0.21738372  1.0
  O  O9  1  0.90510313  0.45795448  0.71738372  1.0
  O  O10  1  0.86982808  0.25053310  0.11714200  1.0
  O  O11  1  0.74946690  0.13017192  0.61714200  1.0
  F  F12  1  1.74023421  -0.07122913  0.01679821  1.0
  F  F13  1  1.07122913  -0.74023421  0.51679821  1.0
  F  F14  1  1.22434849  -0.29649676  0.37749833  1.0
  F  F15  1  1.29649676  -0.22434849  0.87749833  1.0
  F  F16  1  0.54662514  0.28029520  0.72266673  1.0
  F  F17  1  0.71970480  0.45337486  0.22266673  1.0
  F  F18  1  1.29647731  -0.59452757  0.20421490  1.0
  F  F19  1  1.59452757  -0.29647731  0.70421490  1.0
