# generated using pymatgen
data_Co23C6
_symmetry_space_group_name_H-M   'P 1'
_cell_length_a   7.28125925
_cell_length_b   7.28125925
_cell_length_c   7.28125925
_cell_angle_alpha   60.00000000
_cell_angle_beta   60.00000000
_cell_angle_gamma   60.00000000
_symmetry_Int_Tables_number   1
_chemical_formula_structural   Co23C6
_chemical_formula_sum   'Co23 C6'
_cell_volume   272.96344170
_cell_formula_units_Z   1
loop_
 _symmetry_equiv_pos_site_id
 _symmetry_equiv_pos_as_xyz
  1  'x, y, z'
loop_
 _atom_site_type_symbol
 _atom_site_label
 _atom_site_symmetry_multiplicity
 _atom_site_fract_x
 _atom_site_fract_y
 _atom_site_fract_z
 _atom_site_occupancy
  Co  Co0  1  0.00000000  0.00000000  0.00000000  1.0
  Co  Co1  1  0.75000000  0.75000000  -0.25000000  1.0
  Co  Co2  1  1.25000000  0.25000000  0.25000000  1.0
  Co  Co3  1  0.61671532  0.61671532  1.14985405  1.0
  Co  Co4  1  0.61671532  1.14985405  -0.38328468  1.0
  Co  Co5  1  1.14985405  0.61671532  0.61671532  1.0
  Co  Co6  1  0.61671532  0.61671532  -0.38328468  1.0
  Co  Co7  1  0.38328468  1.38328468  -0.14985405  1.0
  Co  Co8  1  1.38328468  -0.14985405  0.38328468  1.0
  Co  Co9  1  -0.14985405  1.38328468  0.38328468  1.0
  Co  Co10  1  1.38328468  0.38328468  0.38328468  1.0
  Co  Co11  1  -0.00000000  0.00000000  0.33603218  1.0
  Co  Co12  1  0.66396782  1.00000000  -0.66396782  1.0
  Co  Co13  1  1.00000000  0.66396782  -0.66396782  1.0
  Co  Co14  1  0.66396782  -0.66396782  1.00000000  1.0
  Co  Co15  1  0.00000000  1.33603218  -0.00000000  1.0
  Co  Co16  1  1.00000000  0.33603218  -0.33603218  1.0
  Co  Co17  1  0.33603218  -0.33603218  1.00000000  1.0
  Co  Co18  1  0.33603218  1.00000000  -0.33603218  1.0
  Co  Co19  1  1.33603218  0.00000000  -0.00000000  1.0
  Co  Co20  1  -0.00000000  0.00000000  0.66396782  1.0
  Co  Co21  1  -0.00000000  1.66396782  0.00000000  1.0
  Co  Co22  1  1.66396782  -0.00000000  0.00000000  1.0
  C  C23  1  0.72335915  0.72335915  -0.72335915  1.0
  C  C24  1  0.27664085  -0.27664085  1.27664085  1.0
  C  C25  1  -0.27664085  0.27664085  0.27664085  1.0
  C  C26  1  0.27664085  1.27664085  -0.27664085  1.0
  C  C27  1  -0.27664085  0.27664085  0.72335915  1.0
  C  C28  1  -0.72335915  0.72335915  0.72335915  1.0
