# generated using pymatgen
data_LiYSn
_symmetry_space_group_name_H-M   'P 1'
_cell_length_a   9.36874990
_cell_length_b   9.36874990
_cell_length_c   7.34760763
_cell_angle_alpha   90.00000000
_cell_angle_beta   90.00000000
_cell_angle_gamma   120.00000000
_symmetry_Int_Tables_number   1
_chemical_formula_structural   LiYSn
_chemical_formula_sum   'Li8 Y8 Sn8'
_cell_volume   558.52147889
_cell_formula_units_Z   8
loop_
 _symmetry_equiv_pos_site_id
 _symmetry_equiv_pos_as_xyz
  1  'x, y, z'
loop_
 _atom_site_type_symbol
 _atom_site_label
 _atom_site_symmetry_multiplicity
 _atom_site_fract_x
 _atom_site_fract_y
 _atom_site_fract_z
 _atom_site_occupancy
  Li  Li0  1  0.33359436  0.16679718  0.19759139  1.0
  Li  Li1  1  0.16679718  0.33359436  0.69759139  1.0
  Li  Li2  1  0.16679718  0.83320282  0.69759139  1.0
  Li  Li3  1  0.83320282  0.16679718  0.19759139  1.0
  Li  Li4  1  0.83320282  0.66640564  0.19759139  1.0
  Li  Li5  1  0.66640564  0.83320282  0.69759139  1.0
  Li  Li6  1  0.33333333  0.66666667  0.30695781  1.0
  Li  Li7  1  0.66666667  0.33333333  0.80695781  1.0
  Y  Y8  1  0.02305788  0.51152894  -0.00939952  1.0
  Y  Y9  1  0.51152894  0.02305788  0.49060048  1.0
  Y  Y10  1  0.51152894  0.48847106  0.49060048  1.0
  Y  Y11  1  0.48847106  0.51152894  -0.00939952  1.0
  Y  Y12  1  0.48847106  0.97694212  -0.00939952  1.0
  Y  Y13  1  0.97694212  0.48847106  0.49060048  1.0
  Y  Y14  1  0.00000000  0.00000000  -0.01427121  1.0
  Y  Y15  1  0.00000000  0.00000000  0.48572879  1.0
  Sn  Sn16  1  0.66660493  0.83330247  0.25470967  1.0
  Sn  Sn17  1  0.83330247  0.66660493  0.75470967  1.0
  Sn  Sn18  1  0.83330247  0.16669753  0.75470967  1.0
  Sn  Sn19  1  0.16669753  0.83330247  0.25470967  1.0
  Sn  Sn20  1  0.16669753  0.33339507  0.25470967  1.0
  Sn  Sn21  1  0.33339507  0.16669753  0.75470967  1.0
  Sn  Sn22  1  0.33333333  0.66666667  0.72360881  1.0
  Sn  Sn23  1  0.66666667  0.33333333  0.22360881  1.0
