# generated using pymatgen
data_Ba3Nb4CoO15
_symmetry_space_group_name_H-M   'P 1'
_cell_length_a   12.53046611
_cell_length_b   12.53046611
_cell_length_c   4.04612404
_cell_angle_alpha   90.00000000
_cell_angle_beta   90.00000000
_cell_angle_gamma   90.00000000
_symmetry_Int_Tables_number   1
_chemical_formula_structural   Ba3Nb4CoO15
_chemical_formula_sum   'Ba6 Nb8 Co2 O30'
_cell_volume   635.29237874
_cell_formula_units_Z   2
loop_
 _symmetry_equiv_pos_site_id
 _symmetry_equiv_pos_as_xyz
  1  'x, y, z'
loop_
 _atom_site_type_symbol
 _atom_site_label
 _atom_site_symmetry_multiplicity
 _atom_site_fract_x
 _atom_site_fract_y
 _atom_site_fract_z
 _atom_site_occupancy
  Ba  Ba0  1  0.00000000  0.00000000  -0.00839699  1.0
  Ba  Ba1  1  0.50000000  0.50000000  -0.00839699  1.0
  Ba  Ba2  1  0.16197877  0.66197877  -0.00365109  1.0
  Ba  Ba3  1  0.33802123  0.16197877  -0.00365109  1.0
  Ba  Ba4  1  0.83802123  0.33802123  -0.00365109  1.0
  Ba  Ba5  1  0.66197877  0.83802123  -0.00365109  1.0
  Nb  Nb6  1  0.07245006  0.21952452  0.47631208  1.0
  Nb  Nb7  1  0.78047548  0.07245006  0.47631208  1.0
  Nb  Nb8  1  0.92754994  0.78047548  0.47631208  1.0
  Nb  Nb9  1  0.21952452  0.92754994  0.47631208  1.0
  Nb  Nb10  1  0.42754994  0.71952452  0.47631208  1.0
  Nb  Nb11  1  0.28047548  0.42754994  0.47631208  1.0
  Nb  Nb12  1  0.57245006  0.28047548  0.47631208  1.0
  Nb  Nb13  1  0.71952452  0.57245006  0.47631208  1.0
  O  O14  1  0.07593460  0.20964207  0.00986491  1.0
  O  O15  1  0.79035793  0.07593460  0.00986491  1.0
  O  O16  1  0.92406540  0.79035793  0.00986491  1.0
  O  O17  1  0.20964207  0.92406540  0.00986491  1.0
  O  O18  1  0.42406540  0.70964207  0.00986491  1.0
  O  O19  1  0.29035793  0.42406540  0.00986491  1.0
  O  O20  1  0.57593460  0.29035793  0.00986491  1.0
  O  O21  1  0.70964207  0.57593460  0.00986491  1.0
  O  O22  1  0.27923434  0.77923434  0.51201668  1.0
  O  O23  1  0.22076566  0.27923434  0.51201668  1.0
  O  O24  1  0.72076566  0.22076566  0.51201668  1.0
  O  O25  1  0.77923434  0.72076566  0.51201668  1.0
  O  O26  1  0.14323030  0.06763955  0.50949316  1.0
  O  O27  1  0.93236045  0.14323030  0.50949316  1.0
  O  O28  1  0.85676970  0.93236045  0.50949316  1.0
  O  O29  1  0.06763955  0.85676970  0.50949316  1.0
  O  O30  1  0.35676970  0.56763955  0.50949316  1.0
  O  O31  1  0.43236045  0.35676970  0.50949316  1.0
  O  O32  1  0.64323030  0.43236045  0.50949316  1.0
  O  O33  1  0.56763955  0.64323030  0.50949316  1.0
  O  O34  1  0.00000000  0.50000000  -0.02202617  1.0
  O  O35  1  0.50000000  0.00000000  -0.02202617  1.0
  O  O36  1  0.35100644  0.00310557  0.50606175  1.0
  O  O37  1  0.99689443  0.35100644  0.50606175  1.0
  O  O38  1  0.64899356  0.99689443  0.50606175  1.0
  O  O39  1  0.00310557  0.64899356  0.50606175  1.0
  O  O40  1  0.14899356  0.50310557  0.50606175  1.0
  O  O41  1  0.49689443  0.14899356  0.50606175  1.0
  O  O42  1  0.85100644  0.49689443  0.50606175  1.0
  O  O43  1  0.50310557  0.85100644  0.50606175  1.0
  Co  Co44  1  0.00000000  0.50000000  0.53896440  1.0
  Co  Co45  1  0.50000000  0.00000000  0.53896440  1.0
