# generated using pymatgen
data_ZrCrF6
_symmetry_space_group_name_H-M   'P 1'
_cell_length_a   11.76532698
_cell_length_b   8.09547070
_cell_length_c   5.96915277
_cell_angle_alpha   90.00000000
_cell_angle_beta   90.00000000
_cell_angle_gamma   90.00000000
_symmetry_Int_Tables_number   1
_chemical_formula_structural   ZrCrF6
_chemical_formula_sum   'Zr4 Cr4 F24'
_cell_volume   568.53708819
_cell_formula_units_Z   4
loop_
 _symmetry_equiv_pos_site_id
 _symmetry_equiv_pos_as_xyz
  1  'x, y, z'
loop_
 _atom_site_type_symbol
 _atom_site_label
 _atom_site_symmetry_multiplicity
 _atom_site_fract_x
 _atom_site_fract_y
 _atom_site_fract_z
 _atom_site_occupancy
  Zr  Zr0  1  0.87326682  0.25000000  0.28022171  1.0
  Zr  Zr1  1  0.37326682  0.25000000  0.21977829  1.0
  Zr  Zr2  1  0.12673318  0.75000000  0.71977829  1.0
  Zr  Zr3  1  0.62673318  0.75000000  0.78022171  1.0
  Cr  Cr4  1  0.62444360  0.25000000  0.75559838  1.0
  Cr  Cr5  1  0.12444360  0.25000000  0.74440162  1.0
  Cr  Cr6  1  0.37555640  0.75000000  0.24440162  1.0
  Cr  Cr7  1  0.87555640  0.75000000  0.25559838  1.0
  F  F8  1  0.75387628  0.25000000  0.53703736  1.0
  F  F9  1  0.25387628  0.25000000  0.96296264  1.0
  F  F10  1  0.24612372  0.75000000  0.46296264  1.0
  F  F11  1  0.74612372  0.75000000  0.03703736  1.0
  F  F12  1  0.87357259  0.50240997  0.27399226  1.0
  F  F13  1  0.87357259  -0.00240997  0.27399226  1.0
  F  F14  1  0.37357259  0.50240997  0.22600774  1.0
  F  F15  1  0.37357259  -0.00240997  0.22600774  1.0
  F  F16  1  0.12642741  1.00240997  0.72600774  1.0
  F  F17  1  0.12642741  0.49759003  0.72600774  1.0
  F  F18  1  0.62642741  1.00240997  0.77399226  1.0
  F  F19  1  0.62642741  0.49759003  0.77399226  1.0
  F  F20  1  0.99561659  0.25000000  0.05373438  1.0
  F  F21  1  0.49561659  0.25000000  0.44626562  1.0
  F  F22  1  0.00438341  0.75000000  0.94626562  1.0
  F  F23  1  0.50438341  0.75000000  0.55373438  1.0
  F  F24  1  0.99246505  0.25000000  0.53418276  1.0
  F  F25  1  0.49246505  0.25000000  0.96581724  1.0
  F  F26  1  0.00753495  0.75000000  0.46581724  1.0
  F  F27  1  0.50753495  0.75000000  0.03418276  1.0
  F  F28  1  0.74858897  0.25000000  0.05979442  1.0
  F  F29  1  0.24858897  0.25000000  0.44020558  1.0
  F  F30  1  0.25141103  0.75000000  0.94020558  1.0
  F  F31  1  0.75141103  0.75000000  0.55979442  1.0
