# generated using pymatgen
data_KCa4(BO3)3
_symmetry_space_group_name_H-M   'P 1'
_cell_length_a   6.66785143
_cell_length_b   6.66785143
_cell_length_c   10.70904593
_cell_angle_alpha   90.00000000
_cell_angle_beta   90.00000000
_cell_angle_gamma   58.82065287
_symmetry_Int_Tables_number   1
_chemical_formula_structural   KCa4(BO3)3
_chemical_formula_sum   'K2 Ca8 B6 O18'
_cell_volume   407.35071208
_cell_formula_units_Z   2
loop_
 _symmetry_equiv_pos_site_id
 _symmetry_equiv_pos_as_xyz
  1  'x, y, z'
loop_
 _atom_site_type_symbol
 _atom_site_label
 _atom_site_symmetry_multiplicity
 _atom_site_fract_x
 _atom_site_fract_y
 _atom_site_fract_z
 _atom_site_occupancy
  K  K0  1  -0.18360048  1.02327150  0.75000000  1.0
  K  K1  1  -0.02327150  0.18360048  0.25000000  1.0
  Ca  Ca2  1  -0.78235598  1.20886495  0.52951250  1.0
  Ca  Ca3  1  -0.20886495  0.78235598  0.02951250  1.0
  Ca  Ca4  1  -0.20886495  0.78235598  0.47048750  1.0
  Ca  Ca5  1  -0.78235598  1.20886495  0.97048750  1.0
  Ca  Ca6  1  -0.21169244  0.51837800  0.75000000  1.0
  Ca  Ca7  1  -0.51837800  1.21169244  0.25000000  1.0
  Ca  Ca8  1  -0.63567912  0.63567912  0.50000000  1.0
  Ca  Ca9  1  -0.63567912  0.63567912  0.00000000  1.0
  B  B10  1  -0.61239305  0.96173440  0.75000000  1.0
  B  B11  1  0.03826560  0.61239305  0.25000000  1.0
  B  B12  1  0.21888332  0.53960823  0.75000000  1.0
  B  B13  1  -0.53960823  0.78111668  0.25000000  1.0
  B  B14  1  -0.20844960  0.20844960  0.50000000  1.0
  B  B15  1  -0.20844960  0.20844960  0.00000000  1.0
  O  O16  1  -0.21306653  0.41491935  0.52741505  1.0
  O  O17  1  -0.41491935  1.21306653  0.02741505  1.0
  O  O18  1  -0.41491935  1.21306653  0.47258495  1.0
  O  O19  1  -0.21306653  0.41491935  0.97258495  1.0
  O  O20  1  -0.48880192  0.87471610  0.63824105  1.0
  O  O21  1  0.12528390  0.48880192  0.13824105  1.0
  O  O22  1  0.12528390  0.48880192  0.36175895  1.0
  O  O23  1  -0.48880192  0.87471610  0.86175895  1.0
  O  O24  1  -0.57386570  0.90508095  0.13780258  1.0
  O  O25  1  0.09491905  0.57386570  0.63780258  1.0
  O  O26  1  0.09491905  0.57386570  0.86219742  1.0
  O  O27  1  -0.57386570  0.90508095  0.36219742  1.0
  O  O28  1  -0.84329165  1.13956151  0.75000000  1.0
  O  O29  1  -0.13956151  0.84329165  0.25000000  1.0
  O  O30  1  0.44611166  0.48736158  0.75000000  1.0
  O  O31  1  -0.48736158  0.55388834  0.25000000  1.0
  O  O32  1  0.00154914  -0.00154914  0.50000000  1.0
  O  O33  1  0.00154914  -0.00154914  0.00000000  1.0
