# generated using pymatgen
data_RbGaH4
_symmetry_space_group_name_H-M   'P 1'
_cell_length_a   9.55158687
_cell_length_b   5.75955206
_cell_length_c   7.65229785
_cell_angle_alpha   90.00000000
_cell_angle_beta   90.00000000
_cell_angle_gamma   90.00000000
_symmetry_Int_Tables_number   1
_chemical_formula_structural   RbGaH4
_chemical_formula_sum   'Rb4 Ga4 H16'
_cell_volume   420.97480388
_cell_formula_units_Z   4
loop_
 _symmetry_equiv_pos_site_id
 _symmetry_equiv_pos_as_xyz
  1  'x, y, z'
loop_
 _atom_site_type_symbol
 _atom_site_label
 _atom_site_symmetry_multiplicity
 _atom_site_fract_x
 _atom_site_fract_y
 _atom_site_fract_z
 _atom_site_occupancy
  Rb  Rb0  1  0.31605617  0.75000000  0.16164191  1.0
  Rb  Rb1  1  0.81605617  0.75000000  0.33835809  1.0
  Rb  Rb2  1  0.68394383  0.25000000  0.83835809  1.0
  Rb  Rb3  1  0.18394383  0.25000000  0.66164191  1.0
  Ga  Ga4  1  0.44020433  0.75000000  0.69574777  1.0
  Ga  Ga5  1  0.94020433  0.75000000  0.80425223  1.0
  Ga  Ga6  1  0.55979567  0.25000000  0.30425223  1.0
  Ga  Ga7  1  0.05979567  0.25000000  0.19574777  1.0
  H  H8  1  0.41794768  0.97517802  0.81729719  1.0
  H  H9  1  0.41794768  0.52482198  0.81729719  1.0
  H  H10  1  0.91794768  0.97517802  0.68270281  1.0
  H  H11  1  0.91794768  0.52482198  0.68270281  1.0
  H  H12  1  0.58205232  0.47517802  0.18270281  1.0
  H  H13  1  0.58205232  0.02482198  0.18270281  1.0
  H  H14  1  0.08205232  0.47517802  0.31729719  1.0
  H  H15  1  0.08205232  0.02482198  0.31729719  1.0
  H  H16  1  0.32313173  0.75000000  0.54660436  1.0
  H  H17  1  0.82313173  0.75000000  0.95339564  1.0
  H  H18  1  0.67686827  0.25000000  0.45339564  1.0
  H  H19  1  0.17686827  0.25000000  0.04660436  1.0
  H  H20  1  0.09582289  0.75000000  0.87949590  1.0
  H  H21  1  0.59582289  0.75000000  0.62050410  1.0
  H  H22  1  0.90417711  0.25000000  0.12050410  1.0
  H  H23  1  0.40417711  0.25000000  0.37949590  1.0
