# generated using pymatgen
data_Fe2GeO5
_symmetry_space_group_name_H-M   'P 1'
_cell_length_a   5.94416265
_cell_length_b   8.60415778
_cell_length_c   7.65200135
_cell_angle_alpha   106.49690839
_cell_angle_beta   101.53463809
_cell_angle_gamma   88.87587877
_symmetry_Int_Tables_number   1
_chemical_formula_structural   Fe2GeO5
_chemical_formula_sum   'Fe8 Ge4 O20'
_cell_volume   367.38138222
_cell_formula_units_Z   4
loop_
 _symmetry_equiv_pos_site_id
 _symmetry_equiv_pos_as_xyz
  1  'x, y, z'
loop_
 _atom_site_type_symbol
 _atom_site_label
 _atom_site_symmetry_multiplicity
 _atom_site_fract_x
 _atom_site_fract_y
 _atom_site_fract_z
 _atom_site_occupancy
  Fe  Fe0  1  -0.04240348  -0.29475638  -0.67690121  1.0
  Fe  Fe1  1  -0.95759652  -0.70524362  -0.32309879  1.0
  Fe  Fe2  1  -0.14081745  -0.38406333  -0.10562677  1.0
  Fe  Fe3  1  -0.85918255  -0.61593667  -0.89437323  1.0
  Fe  Fe4  1  -0.33451583  -0.07903191  -0.88456624  1.0
  Fe  Fe5  1  -0.66548417  -0.92096809  -0.11543376  1.0
  Fe  Fe6  1  -0.55072860  -0.29941486  -0.70198022  1.0
  Fe  Fe7  1  -0.44927140  -0.70058514  -0.29801978  1.0
  Ge  Ge8  1  -0.20161424  -0.06422345  -0.29593877  1.0
  Ge  Ge9  1  -0.79838576  -0.93577655  -0.70406123  1.0
  Ge  Ge10  1  -0.30767356  -0.66837026  -0.71052919  1.0
  Ge  Ge11  1  -0.69232644  -0.33162974  -0.28947081  1.0
  O  O12  1  -0.04199975  -0.04966262  -0.70533853  1.0
  O  O13  1  -0.95800025  -0.95033738  -0.29466147  1.0
  O  O14  1  -0.06535476  -0.55794236  -0.71916977  1.0
  O  O15  1  -0.93464524  -0.44205764  -0.28083023  1.0
  O  O16  1  -0.16588975  -0.15354789  -0.10833181  1.0
  O  O17  1  -0.83411025  -0.84645211  -0.89166819  1.0
  O  O18  1  -0.24584209  -0.23387108  -0.50504713  1.0
  O  O19  1  -0.75415791  -0.76612892  -0.49495287  1.0
  O  O20  1  -0.24553195  -0.72416271  -0.49560195  1.0
  O  O21  1  -0.75446805  -0.27583729  -0.50439805  1.0
  O  O22  1  -0.30702125  -0.31460305  -0.86859991  1.0
  O  O23  1  -0.69297875  -0.68539695  -0.13140009  1.0
  O  O24  1  -0.37102579  -0.85376450  -0.89258525  1.0
  O  O25  1  -0.62897421  -0.14623550  -0.10741475  1.0
  O  O26  1  -0.54773291  -0.54314207  -0.72715648  1.0
  O  O27  1  -0.45226709  -0.45685793  -0.27284352  1.0
  O  O28  1  -0.56239620  -0.06566933  -0.71325322  1.0
  O  O29  1  -0.43760380  -0.93433067  -0.28674678  1.0
  O  O30  1  -0.87303097  -0.36523913  -0.86957736  1.0
  O  O31  1  -0.12696903  -0.63476087  -0.13042264  1.0
