# generated using pymatgen
data_Re3(TeBr)7
_symmetry_space_group_name_H-M   'P 1'
_cell_length_a   13.58316070
_cell_length_b   13.58316070
_cell_length_c   13.58316069
_cell_angle_alpha   46.42966131
_cell_angle_beta   46.42966131
_cell_angle_gamma   46.42966131
_symmetry_Int_Tables_number   1
_chemical_formula_structural   Re3(TeBr)7
_chemical_formula_sum   'Re6 Te14 Br14'
_cell_volume   1201.07974912
_cell_formula_units_Z   2
loop_
 _symmetry_equiv_pos_site_id
 _symmetry_equiv_pos_as_xyz
  1  'x, y, z'
loop_
 _atom_site_type_symbol
 _atom_site_label
 _atom_site_symmetry_multiplicity
 _atom_site_fract_x
 _atom_site_fract_y
 _atom_site_fract_z
 _atom_site_occupancy
  Re  Re0  1  0.15831186  0.87192809  -0.93817869  1.0
  Re  Re1  1  0.93817869  -0.15831186  0.12807191  1.0
  Re  Re2  1  1.12807191  -0.06182131  -0.15831186  1.0
  Re  Re3  1  0.84168814  0.12807191  -0.06182131  1.0
  Re  Re4  1  0.06182131  0.15831186  -0.12807191  1.0
  Re  Re5  1  0.87192809  0.06182131  -0.84168814  1.0
  Te  Te6  1  0.31661496  0.85995507  -0.38929450  1.0
  Te  Te7  1  0.38929450  0.68338504  -0.85995507  1.0
  Te  Te8  1  0.14004493  0.38929450  -0.31661496  1.0
  Te  Te9  1  0.68338504  0.14004493  -0.61070550  1.0
  Te  Te10  1  0.61070550  0.31661496  -0.14004493  1.0
  Te  Te11  1  0.85995507  0.61070550  -0.68338504  1.0
  Te  Te12  1  0.35071867  -0.03119691  -0.22804833  1.0
  Te  Te13  1  1.22804833  -0.35071867  0.03119691  1.0
  Te  Te14  1  1.03119691  0.22804833  -0.35071867  1.0
  Te  Te15  1  0.64928133  0.03119691  0.22804833  1.0
  Te  Te16  1  0.77195167  -0.64928133  -0.03119691  1.0
  Te  Te17  1  0.96880309  -0.22804833  -0.64928133  1.0
  Te  Te18  1  0.09203959  0.09203959  0.09203959  1.0
  Te  Te19  1  0.90796041  -0.09203959  -0.09203959  1.0
  Br  Br20  1  0.28956943  0.70020224  -0.62614696  1.0
  Br  Br21  1  0.62614696  0.71043057  -0.70020224  1.0
  Br  Br22  1  0.29979776  0.62614696  -0.28956943  1.0
  Br  Br23  1  0.71043057  0.29979776  -0.37385304  1.0
  Br  Br24  1  0.37385304  0.28956943  -0.29979776  1.0
  Br  Br25  1  0.70020224  0.37385304  -0.71043057  1.0
  Br  Br26  1  0.46026159  0.16012368  0.02638273  1.0
  Br  Br27  1  0.97361727  -0.46026159  -0.16012368  1.0
  Br  Br28  1  0.83987632  -0.02638273  -0.46026159  1.0
  Br  Br29  1  0.53973841  -0.16012368  -0.02638273  1.0
  Br  Br30  1  1.02638273  -0.53973841  0.16012368  1.0
  Br  Br31  1  1.16012368  0.02638273  -0.53973841  1.0
  Br  Br32  1  0.36110601  0.36110601  -0.63889399  1.0
  Br  Br33  1  0.63889399  0.63889399  -0.36110601  1.0
