# generated using pymatgen
data_RbCu2AsS3
_symmetry_space_group_name_H-M   'P 1'
_cell_length_a   9.59174255
_cell_length_b   8.03388519
_cell_length_c   9.19870484
_cell_angle_alpha   90.00000000
_cell_angle_beta   109.35616949
_cell_angle_gamma   90.00000000
_symmetry_Int_Tables_number   1
_chemical_formula_structural   RbCu2AsS3
_chemical_formula_sum   'Rb4 Cu8 As4 S12'
_cell_volume   668.77633460
_cell_formula_units_Z   4
loop_
 _symmetry_equiv_pos_site_id
 _symmetry_equiv_pos_as_xyz
  1  'x, y, z'
loop_
 _atom_site_type_symbol
 _atom_site_label
 _atom_site_symmetry_multiplicity
 _atom_site_fract_x
 _atom_site_fract_y
 _atom_site_fract_z
 _atom_site_occupancy
  Rb  Rb0  1  0.90664222  0.43785502  0.25402266  1.0
  Rb  Rb1  1  0.09335778  0.93785502  0.24597734  1.0
  Rb  Rb2  1  0.09335778  0.56214498  0.74597734  1.0
  Rb  Rb3  1  0.90664222  0.06214498  0.75402266  1.0
  Cu  Cu4  1  0.32396319  0.47484975  0.22132479  1.0
  Cu  Cu5  1  0.67603681  0.97484975  0.27867521  1.0
  Cu  Cu6  1  0.67603681  0.52515025  0.77867521  1.0
  Cu  Cu7  1  0.32396319  0.02515025  0.72132479  1.0
  Cu  Cu8  1  0.55642747  0.24907039  0.43856885  1.0
  Cu  Cu9  1  0.44357253  0.74907039  0.06143115  1.0
  Cu  Cu10  1  0.44357253  0.75092961  0.56143115  1.0
  Cu  Cu11  1  0.55642747  0.25092961  0.93856885  1.0
  As  As12  1  0.35670427  0.33822095  0.55313641  1.0
  As  As13  1  0.64329573  0.83822095  0.94686359  1.0
  As  As14  1  0.64329573  0.66177905  0.44686359  1.0
  As  As15  1  0.35670427  0.16177905  0.05313641  1.0
  S  S16  1  0.15503899  0.19865527  0.56352792  1.0
  S  S17  1  0.84496101  0.69865527  0.93647208  1.0
  S  S18  1  0.84496101  0.80134473  0.43647208  1.0
  S  S19  1  0.15503899  0.30134473  0.06352792  1.0
  S  S20  1  0.45440711  0.46761577  0.79564458  1.0
  S  S21  1  0.54559289  0.96761577  0.70435542  1.0
  S  S22  1  0.54559289  0.53238423  0.20435542  1.0
  S  S23  1  0.45440711  0.03238423  0.29564458  1.0
  S  S24  1  0.73933662  0.41114567  0.57619613  1.0
  S  S25  1  0.26066338  0.91114567  0.92380387  1.0
  S  S26  1  0.26066338  0.58885433  0.42380387  1.0
  S  S27  1  0.73933662  0.08885433  0.07619613  1.0
