# generated using pymatgen
data_Li5Si
_symmetry_space_group_name_H-M   'P 1'
_cell_length_a   4.44244620
_cell_length_b   4.44244620
_cell_length_c   11.06419269
_cell_angle_alpha   90.00000000
_cell_angle_beta   90.00000000
_cell_angle_gamma   120.00000000
_symmetry_Int_Tables_number   1
_chemical_formula_structural   Li5Si
_chemical_formula_sum   'Li10 Si2'
_cell_volume   189.10138794
_cell_formula_units_Z   2
loop_
 _symmetry_equiv_pos_site_id
 _symmetry_equiv_pos_as_xyz
  1  'x, y, z'
loop_
 _atom_site_type_symbol
 _atom_site_label
 _atom_site_symmetry_multiplicity
 _atom_site_fract_x
 _atom_site_fract_y
 _atom_site_fract_z
 _atom_site_occupancy
  Li  Li0  1  0.00000000  0.00000000  0.35181337  1.0
  Li  Li1  1  0.00000000  0.00000000  0.64818663  1.0
  Li  Li2  1  0.66666667  0.33333333  0.27377189  1.0
  Li  Li3  1  0.33333333  0.66666667  0.72622811  1.0
  Li  Li4  1  0.66666667  0.33333333  0.04786613  1.0
  Li  Li5  1  0.33333333  0.66666667  0.95213387  1.0
  Li  Li6  1  0.00000000  0.00000000  0.13208804  1.0
  Li  Li7  1  0.00000000  0.00000000  0.86791196  1.0
  Li  Li8  1  0.66666667  0.33333333  0.56723104  1.0
  Li  Li9  1  0.33333333  0.66666667  0.43276896  1.0
  Si  Si10  1  0.66666667  0.33333333  0.80500313  1.0
  Si  Si11  1  0.33333333  0.66666667  0.19499687  1.0
