# generated using pymatgen
data_Cs2Pd3Se4
_symmetry_space_group_name_H-M   'P 1'
_cell_length_a   8.09348357
_cell_length_b   8.09348357
_cell_length_c   6.53229272
_cell_angle_alpha   78.02167256
_cell_angle_beta   101.97832744
_cell_angle_gamma   48.31946193
_symmetry_Int_Tables_number   1
_chemical_formula_structural   Cs2Pd3Se4
_chemical_formula_sum   'Cs2 Pd3 Se4'
_cell_volume   275.44340457
_cell_formula_units_Z   1
loop_
 _symmetry_equiv_pos_site_id
 _symmetry_equiv_pos_as_xyz
  1  'x, y, z'
loop_
 _atom_site_type_symbol
 _atom_site_label
 _atom_site_symmetry_multiplicity
 _atom_site_fract_x
 _atom_site_fract_y
 _atom_site_fract_z
 _atom_site_occupancy
  Cs  Cs0  1  0.65205965  0.65205965  0.00000000  1.0
  Cs  Cs1  1  1.34794035  0.34794035  -0.00000000  1.0
  Pd  Pd2  1  0.50000000  -0.50000000  0.50000000  1.0
  Pd  Pd3  1  0.00000000  -0.00000000  0.50000000  1.0
  Pd  Pd4  1  0.00000000  0.00000000  0.00000000  1.0
  Se  Se5  1  1.72306972  0.05867941  0.66438376  1.0
  Se  Se6  1  0.94132059  0.27693028  0.66438376  1.0
  Se  Se7  1  1.05867941  0.72306972  0.33561624  1.0
  Se  Se8  1  1.27693028  -0.05867941  0.33561624  1.0
