# generated using pymatgen
data_Si4Ir3
_symmetry_space_group_name_H-M   'P 1'
_cell_length_a   19.00879027
_cell_length_b   3.72911022
_cell_length_c   5.83013806
_cell_angle_alpha   90.00000000
_cell_angle_beta   90.00000000
_cell_angle_gamma   90.00000000
_symmetry_Int_Tables_number   1
_chemical_formula_structural   Si4Ir3
_chemical_formula_sum   'Si16 Ir12'
_cell_volume   413.27443224
_cell_formula_units_Z   4
loop_
 _symmetry_equiv_pos_site_id
 _symmetry_equiv_pos_as_xyz
  1  'x, y, z'
loop_
 _atom_site_type_symbol
 _atom_site_label
 _atom_site_symmetry_multiplicity
 _atom_site_fract_x
 _atom_site_fract_y
 _atom_site_fract_z
 _atom_site_occupancy
  Si  Si0  1  0.26970089  0.75000000  0.28461668  1.0
  Si  Si1  1  0.76970089  0.75000000  0.21538332  1.0
  Si  Si2  1  0.73029911  0.25000000  0.71538332  1.0
  Si  Si3  1  0.23029911  0.25000000  0.78461668  1.0
  Si  Si4  1  0.45026923  0.75000000  0.02700208  1.0
  Si  Si5  1  0.95026923  0.75000000  0.47299792  1.0
  Si  Si6  1  0.54973077  0.25000000  0.97299792  1.0
  Si  Si7  1  0.04973077  0.25000000  0.52700208  1.0
  Si  Si8  1  0.40918099  0.75000000  0.57470765  1.0
  Si  Si9  1  0.90918099  0.75000000  0.92529235  1.0
  Si  Si10  1  0.59081901  0.25000000  0.42529235  1.0
  Si  Si11  1  0.09081901  0.25000000  0.07470765  1.0
  Si  Si12  1  0.14386818  0.75000000  0.61106506  1.0
  Si  Si13  1  0.64386818  0.75000000  0.88893494  1.0
  Si  Si14  1  0.85613182  0.25000000  0.38893494  1.0
  Si  Si15  1  0.35613182  0.25000000  0.11106506  1.0
  Ir  Ir16  1  0.32613782  0.75000000  0.89230499  1.0
  Ir  Ir17  1  0.82613782  0.75000000  0.60769501  1.0
  Ir  Ir18  1  0.67386218  0.25000000  0.10769501  1.0
  Ir  Ir19  1  0.17386218  0.25000000  0.39230499  1.0
  Ir  Ir20  1  0.17613133  0.75000000  -0.00006441  1.0
  Ir  Ir21  1  0.67613133  0.75000000  0.50006441  1.0
  Ir  Ir22  1  0.82386867  0.25000000  1.00006441  1.0
  Ir  Ir23  1  0.32386867  0.25000000  0.49993559  1.0
  Ir  Ir24  1  0.03130217  0.75000000  0.80434363  1.0
  Ir  Ir25  1  0.53130217  0.75000000  0.69565637  1.0
  Ir  Ir26  1  0.96869783  0.25000000  0.19565637  1.0
  Ir  Ir27  1  0.46869783  0.25000000  0.30434363  1.0
