# generated using pymatgen
data_BaCaSn
_symmetry_space_group_name_H-M   'P 1'
_cell_length_a   8.90851282
_cell_length_b   5.30937334
_cell_length_c   9.76654902
_cell_angle_alpha   90.00000000
_cell_angle_beta   90.00000000
_cell_angle_gamma   90.00000000
_symmetry_Int_Tables_number   1
_chemical_formula_structural   BaCaSn
_chemical_formula_sum   'Ba4 Ca4 Sn4'
_cell_volume   461.94429502
_cell_formula_units_Z   4
loop_
 _symmetry_equiv_pos_site_id
 _symmetry_equiv_pos_as_xyz
  1  'x, y, z'
loop_
 _atom_site_type_symbol
 _atom_site_label
 _atom_site_symmetry_multiplicity
 _atom_site_fract_x
 _atom_site_fract_y
 _atom_site_fract_z
 _atom_site_occupancy
  Ba  Ba0  1  0.97817006  0.75000000  0.68103411  1.0
  Ba  Ba1  1  0.47817006  0.75000000  0.81896589  1.0
  Ba  Ba2  1  0.02182994  0.25000000  0.31896589  1.0
  Ba  Ba3  1  0.52182994  0.25000000  0.18103411  1.0
  Ca  Ca4  1  0.85602777  0.75000000  0.07135392  1.0
  Ca  Ca5  1  0.35602777  0.75000000  0.42864608  1.0
  Ca  Ca6  1  0.14397223  0.25000000  0.92864608  1.0
  Ca  Ca7  1  0.64397223  0.25000000  0.57135392  1.0
  Sn  Sn8  1  0.72484703  0.75000000  0.39105895  1.0
  Sn  Sn9  1  0.22484703  0.75000000  0.10894105  1.0
  Sn  Sn10  1  0.27515297  0.25000000  0.60894105  1.0
  Sn  Sn11  1  0.77515297  0.25000000  0.89105895  1.0
