# generated using pymatgen
data_TiCoP
_symmetry_space_group_name_H-M   'P 1'
_cell_length_a   6.02656454
_cell_length_b   3.55047802
_cell_length_c   6.84323562
_cell_angle_alpha   90.00000000
_cell_angle_beta   90.00000000
_cell_angle_gamma   90.00000000
_symmetry_Int_Tables_number   1
_chemical_formula_structural   TiCoP
_chemical_formula_sum   'Ti4 Co4 P4'
_cell_volume   146.42597822
_cell_formula_units_Z   4
loop_
 _symmetry_equiv_pos_site_id
 _symmetry_equiv_pos_as_xyz
  1  'x, y, z'
loop_
 _atom_site_type_symbol
 _atom_site_label
 _atom_site_symmetry_multiplicity
 _atom_site_fract_x
 _atom_site_fract_y
 _atom_site_fract_z
 _atom_site_occupancy
  Ti  Ti0  1  0.97561511  0.75000000  0.67839885  1.0
  Ti  Ti1  1  0.47561511  0.75000000  0.82160115  1.0
  Ti  Ti2  1  0.02438489  0.25000000  0.32160115  1.0
  Ti  Ti3  1  0.52438489  0.25000000  0.17839885  1.0
  Co  Co4  1  0.86031969  0.75000000  0.06228198  1.0
  Co  Co5  1  0.36031969  0.75000000  0.43771802  1.0
  Co  Co6  1  0.13968031  0.25000000  0.93771802  1.0
  Co  Co7  1  0.63968031  0.25000000  0.56228198  1.0
  P  P8  1  0.73291550  0.75000000  0.37849406  1.0
  P  P9  1  0.23291550  0.75000000  0.12150594  1.0
  P  P10  1  0.26708450  0.25000000  0.62150594  1.0
  P  P11  1  0.76708450  0.25000000  0.87849406  1.0
