# generated using pymatgen
data_NaInBP2H3O10
_symmetry_space_group_name_H-M   'P 1'
_cell_length_a   6.78857549
_cell_length_b   6.78857549
_cell_length_c   9.50773924
_cell_angle_alpha   71.18335784
_cell_angle_beta   108.81664216
_cell_angle_gamma   100.85796441
_symmetry_Int_Tables_number   1
_chemical_formula_structural   NaInBP2H3O10
_chemical_formula_sum   'Na2 In2 B2 P4 H6 O20'
_cell_volume   390.83550169
_cell_formula_units_Z   2
loop_
 _symmetry_equiv_pos_site_id
 _symmetry_equiv_pos_as_xyz
  1  'x, y, z'
loop_
 _atom_site_type_symbol
 _atom_site_label
 _atom_site_symmetry_multiplicity
 _atom_site_fract_x
 _atom_site_fract_y
 _atom_site_fract_z
 _atom_site_occupancy
  Na  Na0  1  0.86871671  -0.13128329  0.75000000  1.0
  Na  Na1  1  1.13128329  0.13128329  0.25000000  1.0
  In  In2  1  0.50000000  0.00000000  0.00000000  1.0
  In  In3  1  1.00000000  -0.50000000  0.50000000  1.0
  B  B4  1  1.47416267  0.47416267  0.75000000  1.0
  B  B5  1  0.52583733  -0.47416267  0.25000000  1.0
  P  P6  1  0.28958127  -0.14952239  0.67149818  1.0
  P  P7  1  1.14952239  0.71041873  0.17149818  1.0
  P  P8  1  0.85047761  -0.71041873  0.82850182  1.0
  P  P9  1  1.71041873  0.14952239  0.32850182  1.0
  H  H10  1  1.29859819  0.35598398  0.90929535  1.0
  H  H11  1  0.64401602  -0.29859819  0.40929535  1.0
  H  H12  1  1.35598398  0.29859819  0.59070465  1.0
  H  H13  1  0.70140181  -0.35598398  0.09070465  1.0
  H  H14  1  0.50000000  -0.00000000  0.50000000  1.0
  H  H15  1  1.00000000  -0.50000000  0.00000000  1.0
  O  O16  1  0.46385446  -0.30648673  0.73930044  1.0
  O  O17  1  1.30648673  0.53614554  0.23930044  1.0
  O  O18  1  0.69351327  -0.53614554  0.76069956  1.0
  O  O19  1  1.53614554  0.30648673  0.26069956  1.0
  O  O20  1  0.63839472  -0.03299697  0.45749440  1.0
  O  O21  1  1.03299697  0.36160528  0.95749440  1.0
  O  O22  1  0.96700303  -0.36160528  0.04250560  1.0
  O  O23  1  1.36160528  0.03299697  0.54250560  1.0
  O  O24  1  1.74355807  0.07073595  0.89108800  1.0
  O  O25  1  0.92926405  -0.74355807  0.39108800  1.0
  O  O26  1  1.07073595  0.74355807  0.60891200  1.0
  O  O27  1  0.25644193  -0.07073595  0.10891200  1.0
  O  O28  1  0.27255214  -0.06774804  0.79976814  1.0
  O  O29  1  1.06774804  0.72744786  0.29976814  1.0
  O  O30  1  0.93225196  -0.72744786  0.70023186  1.0
  O  O31  1  1.72744786  0.06774804  0.20023186  1.0
  O  O32  1  1.42753069  0.33218179  0.89340260  1.0
  O  O33  1  0.66781821  -0.42753069  0.39340260  1.0
  O  O34  1  1.33218179  0.42753069  0.60659740  1.0
  O  O35  1  0.57246931  -0.33218179  0.10659740  1.0
