# generated using pymatgen
data_Na3AuS2
_symmetry_space_group_name_H-M   'P 1'
_cell_length_a   7.13620240
_cell_length_b   7.13620240
_cell_length_c   7.13620240
_cell_angle_alpha   65.37116390
_cell_angle_beta   65.37116390
_cell_angle_gamma   65.37116390
_symmetry_Int_Tables_number   1
_chemical_formula_structural   Na3AuS2
_chemical_formula_sum   'Na6 Au2 S4'
_cell_volume   287.01368235
_cell_formula_units_Z   2
loop_
 _symmetry_equiv_pos_site_id
 _symmetry_equiv_pos_as_xyz
  1  'x, y, z'
loop_
 _atom_site_type_symbol
 _atom_site_label
 _atom_site_symmetry_multiplicity
 _atom_site_fract_x
 _atom_site_fract_y
 _atom_site_fract_z
 _atom_site_occupancy
  Na  Na0  1  0.96582204  0.25000000  -0.46582204  1.0
  Na  Na1  1  0.46582204  0.03417796  -0.25000000  1.0
  Na  Na2  1  0.75000000  -0.53417796  0.03417796  1.0
  Na  Na3  1  0.25000000  0.53417796  -0.03417796  1.0
  Na  Na4  1  1.03417796  -0.25000000  -0.53417796  1.0
  Na  Na5  1  0.53417796  -0.03417796  0.25000000  1.0
  Au  Au6  1  0.50000000  0.50000000  -0.50000000  1.0
  Au  Au7  1  -0.00000000  -0.00000000  0.00000000  1.0
  S  S8  1  0.36147641  0.36147641  -0.63852359  1.0
  S  S9  1  0.86147641  0.86147641  -0.13852359  1.0
  S  S10  1  1.13852359  1.13852359  0.13852359  1.0
  S  S11  1  0.63852359  0.63852359  -0.36147641  1.0
