# generated using pymatgen
data_YSnIr
_symmetry_space_group_name_H-M   'P 1'
_cell_length_a   6.99626066
_cell_length_b   4.57196499
_cell_length_c   8.06129223
_cell_angle_alpha   90.00000000
_cell_angle_beta   90.00000000
_cell_angle_gamma   90.00000000
_symmetry_Int_Tables_number   1
_chemical_formula_structural   YSnIr
_chemical_formula_sum   'Y4 Sn4 Ir4'
_cell_volume   257.85380437
_cell_formula_units_Z   4
loop_
 _symmetry_equiv_pos_site_id
 _symmetry_equiv_pos_as_xyz
  1  'x, y, z'
loop_
 _atom_site_type_symbol
 _atom_site_label
 _atom_site_symmetry_multiplicity
 _atom_site_fract_x
 _atom_site_fract_y
 _atom_site_fract_z
 _atom_site_occupancy
  Y  Y0  1  0.97884320  0.75000000  0.68801876  1.0
  Y  Y1  1  0.47884320  0.75000000  0.81198124  1.0
  Y  Y2  1  0.02115680  0.25000000  0.31198124  1.0
  Y  Y3  1  0.52115680  0.25000000  0.18801876  1.0
  Sn  Sn4  1  0.83522280  0.75000000  0.07283320  1.0
  Sn  Sn5  1  0.33522280  0.75000000  0.42716680  1.0
  Sn  Sn6  1  0.16477720  0.25000000  0.92716680  1.0
  Sn  Sn7  1  0.66477720  0.25000000  0.57283320  1.0
  Ir  Ir8  1  0.73257683  0.75000000  0.39591902  1.0
  Ir  Ir9  1  0.23257683  0.75000000  0.10408098  1.0
  Ir  Ir10  1  0.26742317  0.25000000  0.60408098  1.0
  Ir  Ir11  1  0.76742317  0.25000000  0.89591902  1.0
