# generated using pymatgen
data_La2SbS5Br
_symmetry_space_group_name_H-M   'P 1'
_cell_length_a   9.01740061
_cell_length_b   5.49570628
_cell_length_c   18.09311510
_cell_angle_alpha   90.00000000
_cell_angle_beta   90.00000000
_cell_angle_gamma   90.00000000
_symmetry_Int_Tables_number   1
_chemical_formula_structural   La2SbS5Br
_chemical_formula_sum   'La8 Sb4 S20 Br4'
_cell_volume   896.64023674
_cell_formula_units_Z   4
loop_
 _symmetry_equiv_pos_site_id
 _symmetry_equiv_pos_as_xyz
  1  'x, y, z'
loop_
 _atom_site_type_symbol
 _atom_site_label
 _atom_site_symmetry_multiplicity
 _atom_site_fract_x
 _atom_site_fract_y
 _atom_site_fract_z
 _atom_site_occupancy
  La  La0  1  0.72504313  0.75000000  0.46839369  1.0
  La  La1  1  0.22504313  0.75000000  0.03160631  1.0
  La  La2  1  0.27495687  0.25000000  0.53160631  1.0
  La  La3  1  0.77495687  0.25000000  0.96839369  1.0
  La  La4  1  0.65855228  0.75000000  0.19935755  1.0
  La  La5  1  0.15855228  0.75000000  0.30064245  1.0
  La  La6  1  0.34144772  0.25000000  0.80064245  1.0
  La  La7  1  0.84144772  0.25000000  0.69935755  1.0
  Sb  Sb8  1  0.51704855  0.75000000  0.66763208  1.0
  Sb  Sb9  1  0.01704855  0.75000000  0.83236792  1.0
  Sb  Sb10  1  0.48295145  0.25000000  0.33236792  1.0
  Sb  Sb11  1  0.98295145  0.25000000  0.16763208  1.0
  S  S12  1  0.84790393  0.94028717  0.32613099  1.0
  S  S13  1  0.84790393  0.55971283  0.32613099  1.0
  S  S14  1  0.34790393  0.94028717  0.17386901  1.0
  S  S15  1  0.34790393  0.55971283  0.17386901  1.0
  S  S16  1  0.15209607  0.44028717  0.67386901  1.0
  S  S17  1  0.15209607  0.05971283  0.67386901  1.0
  S  S18  1  0.65209607  0.44028717  0.82613099  1.0
  S  S19  1  0.65209607  0.05971283  0.82613099  1.0
  S  S20  1  0.98562236  0.75000000  0.15652383  1.0
  S  S21  1  0.48562236  0.75000000  0.34347617  1.0
  S  S22  1  0.01437764  0.25000000  0.84347617  1.0
  S  S23  1  0.51437764  0.25000000  0.65652383  1.0
  S  S24  1  0.78432060  0.75000000  0.64058935  1.0
  S  S25  1  0.28432060  0.75000000  0.85941065  1.0
  S  S26  1  0.21567940  0.25000000  0.35941065  1.0
  S  S27  1  0.71567940  0.25000000  0.14058935  1.0
  S  S28  1  0.42582016  0.75000000  0.54162604  1.0
  S  S29  1  0.92582016  0.75000000  0.95837396  1.0
  S  S30  1  0.57417984  0.25000000  0.45837396  1.0
  S  S31  1  0.07417984  0.25000000  0.04162604  1.0
  Br  Br32  1  0.59860570  0.75000000  0.02824136  1.0
  Br  Br33  1  0.09860570  0.75000000  0.47175864  1.0
  Br  Br34  1  0.40139430  0.25000000  0.97175864  1.0
  Br  Br35  1  0.90139430  0.25000000  0.52824136  1.0
