# generated using pymatgen
data_KBe4(BO3)3
_symmetry_space_group_name_H-M   'P 1'
_cell_length_a   6.13720058
_cell_length_b   4.48221998
_cell_length_c   11.61851907
_cell_angle_alpha   90.00000000
_cell_angle_beta   90.69134971
_cell_angle_gamma   90.00000000
_symmetry_Int_Tables_number   1
_chemical_formula_structural   KBe4(BO3)3
_chemical_formula_sum   'K2 Be8 B6 O18'
_cell_volume   319.58224536
_cell_formula_units_Z   2
loop_
 _symmetry_equiv_pos_site_id
 _symmetry_equiv_pos_as_xyz
  1  'x, y, z'
loop_
 _atom_site_type_symbol
 _atom_site_label
 _atom_site_symmetry_multiplicity
 _atom_site_fract_x
 _atom_site_fract_y
 _atom_site_fract_z
 _atom_site_occupancy
  K  K0  1  0.50000000  0.75699381  0.25000000  1.0
  K  K1  1  0.50000000  0.24300619  0.75000000  1.0
  Be  Be2  1  0.98023021  0.84026409  0.12678215  1.0
  Be  Be3  1  0.98023021  0.15973591  0.62678215  1.0
  Be  Be4  1  0.01976979  0.84026409  0.37321785  1.0
  Be  Be5  1  0.01976979  0.15973591  0.87321785  1.0
  Be  Be6  1  0.73158993  0.32393014  0.06024958  1.0
  Be  Be7  1  0.73158993  0.67606986  0.56024958  1.0
  Be  Be8  1  0.26841007  0.32393014  0.43975042  1.0
  Be  Be9  1  0.26841007  0.67606986  0.93975042  1.0
  B  B10  1  0.69070423  0.84745648  0.96140218  1.0
  B  B11  1  0.69070423  0.15254352  0.46140218  1.0
  B  B12  1  0.30929577  0.84745648  0.53859782  1.0
  B  B13  1  0.30929577  0.15254352  0.03859782  1.0
  B  B14  1  -0.00000000  0.33789096  0.25000000  1.0
  B  B15  1  -0.00000000  0.66210904  0.75000000  1.0
  O  O16  1  0.90180626  0.81675035  0.66119212  1.0
  O  O17  1  0.90180626  0.18324965  0.16119212  1.0
  O  O18  1  0.09819374  0.81675035  0.83880788  1.0
  O  O19  1  0.09819374  0.18324965  0.33880788  1.0
  O  O20  1  0.78938463  0.67783408  0.04862603  1.0
  O  O21  1  0.78938463  0.32216592  0.54862603  1.0
  O  O22  1  0.21061537  0.67783408  0.45137397  1.0
  O  O23  1  0.21061537  0.32216592  0.95137397  1.0
  O  O24  1  0.78754589  0.87019566  0.44085827  1.0
  O  O25  1  0.78754589  0.12980434  0.94085827  1.0
  O  O26  1  0.21245411  0.87019566  0.05914173  1.0
  O  O27  1  0.21245411  0.12980434  0.55914173  1.0
  O  O28  1  0.51303488  0.75623792  0.90247818  1.0
  O  O29  1  0.51303488  0.24376208  0.40247818  1.0
  O  O30  1  0.48696512  0.75623792  0.59752182  1.0
  O  O31  1  0.48696512  0.24376208  0.09752182  1.0
  O  O32  1  -0.00000000  0.64787506  0.25000000  1.0
  O  O33  1  -0.00000000  0.35212494  0.75000000  1.0
