# generated using pymatgen
data_K2SN2O5
_symmetry_space_group_name_H-M   'P 1'
_cell_length_a   10.09834147
_cell_length_b   8.23318587
_cell_length_c   7.22540347
_cell_angle_alpha   90.00000000
_cell_angle_beta   90.00000000
_cell_angle_gamma   90.00000000
_symmetry_Int_Tables_number   1
_chemical_formula_structural   K2SN2O5
_chemical_formula_sum   'K8 S4 N8 O20'
_cell_volume   600.73104404
_cell_formula_units_Z   4
loop_
 _symmetry_equiv_pos_site_id
 _symmetry_equiv_pos_as_xyz
  1  'x, y, z'
loop_
 _atom_site_type_symbol
 _atom_site_label
 _atom_site_symmetry_multiplicity
 _atom_site_fract_x
 _atom_site_fract_y
 _atom_site_fract_z
 _atom_site_occupancy
  K  K0  1  0.68979401  0.48876731  0.44673161  1.0
  K  K1  1  0.68979401  0.01123269  0.44673161  1.0
  K  K2  1  0.18979401  0.48876731  0.05326839  1.0
  K  K3  1  0.18979401  0.01123269  0.05326839  1.0
  K  K4  1  0.31020599  0.98876731  0.55326839  1.0
  K  K5  1  0.31020599  0.51123269  0.55326839  1.0
  K  K6  1  0.81020599  0.98876731  0.94673161  1.0
  K  K7  1  0.81020599  0.51123269  0.94673161  1.0
  S  S8  1  0.99878310  0.25000000  0.64500730  1.0
  S  S9  1  0.49878310  0.25000000  0.85499270  1.0
  S  S10  1  0.00121690  0.75000000  0.35499270  1.0
  S  S11  1  0.50121690  0.75000000  0.14500730  1.0
  N  N12  1  0.53769451  0.25000000  0.09665463  1.0
  N  N13  1  0.03769451  0.25000000  0.40334537  1.0
  N  N14  1  0.46230549  0.75000000  0.90334537  1.0
  N  N15  1  0.96230549  0.75000000  0.59665463  1.0
  N  N16  1  0.93864157  0.25000000  0.28769080  1.0
  N  N17  1  0.43864157  0.25000000  0.21230920  1.0
  N  N18  1  0.06135843  0.75000000  0.71230920  1.0
  N  N19  1  0.56135843  0.75000000  0.78769080  1.0
  O  O20  1  0.66315126  0.25000000  0.13789355  1.0
  O  O21  1  0.16315126  0.25000000  0.36210645  1.0
  O  O22  1  0.33684874  0.75000000  0.86210645  1.0
  O  O23  1  0.83684874  0.75000000  0.63789355  1.0
  O  O24  1  0.85322900  0.25000000  0.65671803  1.0
  O  O25  1  0.35322900  0.25000000  0.84328197  1.0
  O  O26  1  0.14677100  0.75000000  0.34328197  1.0
  O  O27  1  0.64677100  0.75000000  0.15671803  1.0
  O  O28  1  0.97437260  0.25000000  0.11617742  1.0
  O  O29  1  0.47437260  0.25000000  0.38382258  1.0
  O  O30  1  0.02562740  0.75000000  0.88382258  1.0
  O  O31  1  0.52562740  0.75000000  0.61617742  1.0
  O  O32  1  0.93894738  0.89951626  0.28805735  1.0
  O  O33  1  0.93894738  0.60048374  0.28805735  1.0
  O  O34  1  0.43894738  0.89951626  0.21194265  1.0
  O  O35  1  0.43894738  0.60048374  0.21194265  1.0
  O  O36  1  0.06105262  0.39951626  0.71194265  1.0
  O  O37  1  0.06105262  0.10048374  0.71194265  1.0
  O  O38  1  0.56105262  0.39951626  0.78805735  1.0
  O  O39  1  0.56105262  0.10048374  0.78805735  1.0
