# generated using pymatgen
data_Rb2MoSeO6
_symmetry_space_group_name_H-M   'P 1'
_cell_length_a   7.98304378
_cell_length_b   6.32514057
_cell_length_c   14.92034571
_cell_angle_alpha   90.00000000
_cell_angle_beta   90.00000000
_cell_angle_gamma   90.00000000
_symmetry_Int_Tables_number   1
_chemical_formula_structural   Rb2MoSeO6
_chemical_formula_sum   'Rb8 Mo4 Se4 O24'
_cell_volume   753.38605726
_cell_formula_units_Z   4
loop_
 _symmetry_equiv_pos_site_id
 _symmetry_equiv_pos_as_xyz
  1  'x, y, z'
loop_
 _atom_site_type_symbol
 _atom_site_label
 _atom_site_symmetry_multiplicity
 _atom_site_fract_x
 _atom_site_fract_y
 _atom_site_fract_z
 _atom_site_occupancy
  Rb  Rb0  1  0.87962608  0.75000000  0.54090036  1.0
  Rb  Rb1  1  0.37962608  0.75000000  0.95909964  1.0
  Rb  Rb2  1  0.12037392  0.25000000  0.45909964  1.0
  Rb  Rb3  1  0.62037392  0.25000000  0.04090036  1.0
  Rb  Rb4  1  0.84838693  0.75000000  0.80547140  1.0
  Rb  Rb5  1  0.34838693  0.75000000  0.69452860  1.0
  Rb  Rb6  1  0.15161307  0.25000000  0.19452860  1.0
  Rb  Rb7  1  0.65161307  0.25000000  0.30547140  1.0
  Mo  Mo8  1  0.89065219  0.75000000  0.26830720  1.0
  Mo  Mo9  1  0.39065219  0.75000000  0.23169280  1.0
  Mo  Mo10  1  0.10934781  0.25000000  0.73169280  1.0
  Mo  Mo11  1  0.60934781  0.25000000  0.76830720  1.0
  Se  Se12  1  0.91473097  0.75000000  0.06605483  1.0
  Se  Se13  1  0.41473097  0.75000000  0.43394517  1.0
  Se  Se14  1  0.08526903  0.25000000  0.93394517  1.0
  Se  Se15  1  0.58526903  0.25000000  0.56605483  1.0
  O  O16  1  0.94539949  0.97266161  0.33196136  1.0
  O  O17  1  0.94539949  0.52733839  0.33196136  1.0
  O  O18  1  0.44539949  0.97266161  0.16803864  1.0
  O  O19  1  0.44539949  0.52733839  0.16803864  1.0
  O  O20  1  0.05460051  0.47266161  0.66803864  1.0
  O  O21  1  0.05460051  0.02733839  0.66803864  1.0
  O  O22  1  0.55460051  0.47266161  0.83196136  1.0
  O  O23  1  0.55460051  0.02733839  0.83196136  1.0
  O  O24  1  0.88562991  0.95079602  0.14523275  1.0
  O  O25  1  0.88562991  0.54920398  0.14523275  1.0
  O  O26  1  0.38562991  0.95079602  0.35476725  1.0
  O  O27  1  0.38562991  0.54920398  0.35476725  1.0
  O  O28  1  0.11437009  0.45079602  0.85476725  1.0
  O  O29  1  0.11437009  0.04920398  0.85476725  1.0
  O  O30  1  0.61437009  0.45079602  0.64523275  1.0
  O  O31  1  0.61437009  0.04920398  0.64523275  1.0
  O  O32  1  0.66787753  0.75000000  0.27593219  1.0
  O  O33  1  0.16787753  0.75000000  0.22406781  1.0
  O  O34  1  0.33212247  0.25000000  0.72406781  1.0
  O  O35  1  0.83212247  0.25000000  0.77593219  1.0
  O  O36  1  0.24419064  0.75000000  0.49960766  1.0
  O  O37  1  0.74419064  0.75000000  1.00039234  1.0
  O  O38  1  0.75580936  0.25000000  0.50039234  1.0
  O  O39  1  0.25580936  0.25000000  -0.00039234  1.0
