# generated using pymatgen
data_Ba(NO2)2
_symmetry_space_group_name_H-M   'P 1'
_cell_length_a   6.86074248
_cell_length_b   7.86985776
_cell_length_c   8.40360098
_cell_angle_alpha   90.00000000
_cell_angle_beta   90.00000000
_cell_angle_gamma   90.00000000
_symmetry_Int_Tables_number   1
_chemical_formula_structural   Ba(NO2)2
_chemical_formula_sum   'Ba4 N8 O16'
_cell_volume   453.73619469
_cell_formula_units_Z   4
loop_
 _symmetry_equiv_pos_site_id
 _symmetry_equiv_pos_as_xyz
  1  'x, y, z'
loop_
 _atom_site_type_symbol
 _atom_site_label
 _atom_site_symmetry_multiplicity
 _atom_site_fract_x
 _atom_site_fract_y
 _atom_site_fract_z
 _atom_site_occupancy
  Ba  Ba0  1  0.38908553  0.54311105  0.53836296  1.0
  Ba  Ba1  1  0.88908553  0.95688895  0.46163704  1.0
  Ba  Ba2  1  0.61091447  0.04311105  0.96163704  1.0
  Ba  Ba3  1  0.11091447  0.45688895  0.03836296  1.0
  N  N4  1  0.39188133  0.96408669  0.64068420  1.0
  N  N5  1  0.89188133  0.53591331  0.35931580  1.0
  N  N6  1  0.60811867  0.46408669  0.85931580  1.0
  N  N7  1  0.10811867  0.03591331  0.14068420  1.0
  N  N8  1  0.98488225  0.77220469  0.77478231  1.0
  N  N9  1  0.48488225  0.72779531  0.22521769  1.0
  N  N10  1  0.01511775  0.27220469  0.72521769  1.0
  N  N11  1  0.51511775  0.22779531  0.27478231  1.0
  O  O12  1  0.28549791  0.90748013  0.53207056  1.0
  O  O13  1  0.78549791  0.59251987  0.46792944  1.0
  O  O14  1  0.71450209  0.40748013  0.96792944  1.0
  O  O15  1  0.21450209  0.09251987  0.03207056  1.0
  O  O16  1  0.45021678  0.37893047  0.83770858  1.0
  O  O17  1  0.95021678  0.12106953  0.16229142  1.0
  O  O18  1  0.54978322  0.87893047  0.66229142  1.0
  O  O19  1  0.04978322  0.62106953  0.33770858  1.0
  O  O20  1  0.40517563  0.71575138  0.09108235  1.0
  O  O21  1  0.90517563  0.78424862  0.90891765  1.0
  O  O22  1  0.59482437  0.21575138  0.40891765  1.0
  O  O23  1  0.09482437  0.28424862  0.59108235  1.0
  O  O24  1  0.11732326  0.65912714  0.76553761  1.0
  O  O25  1  0.61732326  0.84087286  0.23446239  1.0
  O  O26  1  0.88267674  0.15912714  0.73446239  1.0
  O  O27  1  0.38267674  0.34087286  0.26553761  1.0
