# generated using pymatgen
data_YNiGe
_symmetry_space_group_name_H-M   'P 1'
_cell_length_a   6.93811453
_cell_length_b   4.23302643
_cell_length_c   7.30361501
_cell_angle_alpha   90.00000000
_cell_angle_beta   90.00000000
_cell_angle_gamma   90.00000000
_symmetry_Int_Tables_number   1
_chemical_formula_structural   YNiGe
_chemical_formula_sum   'Y4 Ni4 Ge4'
_cell_volume   214.50149187
_cell_formula_units_Z   4
loop_
 _symmetry_equiv_pos_site_id
 _symmetry_equiv_pos_as_xyz
  1  'x, y, z'
loop_
 _atom_site_type_symbol
 _atom_site_label
 _atom_site_symmetry_multiplicity
 _atom_site_fract_x
 _atom_site_fract_y
 _atom_site_fract_z
 _atom_site_occupancy
  Y  Y0  1  1.00740970  0.75000000  0.70647676  1.0
  Y  Y1  1  0.50740970  0.75000000  0.79352324  1.0
  Y  Y2  1  -0.00740970  0.25000000  0.29352324  1.0
  Y  Y3  1  0.49259030  0.25000000  0.20647676  1.0
  Ni  Ni4  1  0.80776547  0.75000000  0.08159583  1.0
  Ni  Ni5  1  0.30776547  0.75000000  0.41840417  1.0
  Ni  Ni6  1  0.19223453  0.25000000  0.91840417  1.0
  Ni  Ni7  1  0.69223453  0.25000000  0.58159583  1.0
  Ge  Ge8  1  0.69688979  0.75000000  0.41139002  1.0
  Ge  Ge9  1  0.19688979  0.75000000  0.08860998  1.0
  Ge  Ge10  1  0.30311021  0.25000000  0.58860998  1.0
  Ge  Ge11  1  0.80311021  0.25000000  0.91139002  1.0
