# generated using pymatgen
data_Ca(YS2)2
_symmetry_space_group_name_H-M   'P 1'
_cell_length_a   13.01552405
_cell_length_b   3.90130983
_cell_length_c   13.15425074
_cell_angle_alpha   90.00000000
_cell_angle_beta   90.00000000
_cell_angle_gamma   90.00000000
_symmetry_Int_Tables_number   1
_chemical_formula_structural   Ca(YS2)2
_chemical_formula_sum   'Ca4 Y8 S16'
_cell_volume   667.94117600
_cell_formula_units_Z   4
loop_
 _symmetry_equiv_pos_site_id
 _symmetry_equiv_pos_as_xyz
  1  'x, y, z'
loop_
 _atom_site_type_symbol
 _atom_site_label
 _atom_site_symmetry_multiplicity
 _atom_site_fract_x
 _atom_site_fract_y
 _atom_site_fract_z
 _atom_site_occupancy
  Ca  Ca0  1  0.62965896  0.75000000  0.41882382  1.0
  Ca  Ca1  1  0.12965896  0.75000000  0.08117618  1.0
  Ca  Ca2  1  0.37034104  0.25000000  0.58117618  1.0
  Ca  Ca3  1  0.87034104  0.25000000  0.91882382  1.0
  Y  Y4  1  0.89193785  0.75000000  0.58343232  1.0
  Y  Y5  1  0.39193785  0.75000000  0.91656768  1.0
  Y  Y6  1  0.10806215  0.25000000  0.41656768  1.0
  Y  Y7  1  0.60806215  0.25000000  0.08343232  1.0
  Y  Y8  1  0.85379330  0.75000000  0.20323929  1.0
  Y  Y9  1  0.35379330  0.75000000  0.29676071  1.0
  Y  Y10  1  0.14620670  0.25000000  0.79676071  1.0
  Y  Y11  1  0.64620670  0.25000000  0.70323929  1.0
  S  S12  1  0.96701353  0.75000000  0.38286532  1.0
  S  S13  1  0.46701353  0.75000000  0.11713468  1.0
  S  S14  1  0.03298647  0.25000000  0.61713468  1.0
  S  S15  1  0.53298647  0.25000000  0.88286532  1.0
  S  S16  1  0.78203548  0.75000000  0.76311482  1.0
  S  S17  1  0.28203548  0.75000000  0.73688518  1.0
  S  S18  1  0.21796452  0.25000000  0.23688518  1.0
  S  S19  1  0.71796452  0.25000000  0.26311482  1.0
  S  S20  1  0.74402297  0.75000000  0.02566814  1.0
  S  S21  1  0.24402297  0.75000000  0.47433186  1.0
  S  S22  1  0.25597703  0.25000000  0.97433186  1.0
  S  S23  1  0.75597703  0.25000000  0.52566814  1.0
  S  S24  1  0.52886296  0.75000000  0.61770788  1.0
  S  S25  1  0.02886296  0.75000000  0.88229212  1.0
  S  S26  1  0.47113704  0.25000000  0.38229212  1.0
  S  S27  1  0.97113704  0.25000000  0.11770788  1.0
