# generated using pymatgen
data_BaMnP2O7
_symmetry_space_group_name_H-M   'P 1'
_cell_length_a   5.48453759
_cell_length_b   7.67228190
_cell_length_c   7.53060091
_cell_angle_alpha   102.74929789
_cell_angle_beta   93.95962152
_cell_angle_gamma   92.07109395
_symmetry_Int_Tables_number   1
_chemical_formula_structural   BaMnP2O7
_chemical_formula_sum   'Ba2 Mn2 P4 O14'
_cell_volume   307.89898808
_cell_formula_units_Z   2
loop_
 _symmetry_equiv_pos_site_id
 _symmetry_equiv_pos_as_xyz
  1  'x, y, z'
loop_
 _atom_site_type_symbol
 _atom_site_label
 _atom_site_symmetry_multiplicity
 _atom_site_fract_x
 _atom_site_fract_y
 _atom_site_fract_z
 _atom_site_occupancy
  Ba  Ba0  1  -0.70683689  -0.93593308  -0.27917196  1.0
  Ba  Ba1  1  -0.29316311  -0.06406692  -0.72082804  1.0
  Mn  Mn2  1  -0.30250995  -0.60279829  -0.88223064  1.0
  Mn  Mn3  1  -0.69749005  -0.39720171  -0.11776936  1.0
  P  P4  1  -0.79985490  -0.78767983  -0.76680654  1.0
  P  P5  1  -0.20014510  -0.21232017  -0.23319346  1.0
  P  P6  1  -0.78822649  -0.39663061  -0.68744661  1.0
  P  P7  1  -0.21177351  -0.60336939  -0.31255339  1.0
  O  O8  1  -0.94701774  -0.61048705  -0.22980040  1.0
  O  O9  1  -0.05298226  -0.38951295  -0.77019960  1.0
  O  O10  1  -0.79178721  -0.92454212  -0.64708273  1.0
  O  O11  1  -0.20821279  -0.07545788  -0.35291727  1.0
  O  O12  1  -0.76815246  -0.58925359  -0.62972438  1.0
  O  O13  1  -0.23184754  -0.41074641  -0.37027562  1.0
  O  O14  1  -0.60312887  -0.40127810  -0.83932323  1.0
  O  O15  1  -0.39687113  -0.59872190  -0.16067677  1.0
  O  O16  1  -0.58222441  -0.80298788  -0.88977325  1.0
  O  O17  1  -0.41777559  -0.19701212  -0.11022675  1.0
  O  O18  1  -0.28865858  -0.74594719  -0.48119036  1.0
  O  O19  1  -0.71134142  -0.25405281  -0.51880964  1.0
  O  O20  1  -0.04855637  -0.79954705  -0.87943703  1.0
  O  O21  1  -0.95144363  -0.20045295  -0.12056297  1.0
