# generated using pymatgen
data_Lu7Te
_symmetry_space_group_name_H-M   'P 1'
_cell_length_a   6.37552135
_cell_length_b   6.37552135
_cell_length_c   19.97161212
_cell_angle_alpha   90.00000000
_cell_angle_beta   90.00000000
_cell_angle_gamma   146.10373259
_symmetry_Int_Tables_number   1
_chemical_formula_structural   Lu7Te
_chemical_formula_sum   'Lu14 Te2'
_cell_volume   452.72887613
_cell_formula_units_Z   2
loop_
 _symmetry_equiv_pos_site_id
 _symmetry_equiv_pos_as_xyz
  1  'x, y, z'
loop_
 _atom_site_type_symbol
 _atom_site_label
 _atom_site_symmetry_multiplicity
 _atom_site_fract_x
 _atom_site_fract_y
 _atom_site_fract_z
 _atom_site_occupancy
  Lu  Lu0  1  0.01874819  0.98125181  0.88997332  1.0
  Lu  Lu1  1  0.01874819  0.98125181  0.61002668  1.0
  Lu  Lu2  1  -0.01874819  0.01874819  0.38997332  1.0
  Lu  Lu3  1  -0.01874819  0.01874819  0.11002668  1.0
  Lu  Lu4  1  0.24646359  0.75353641  0.35665143  1.0
  Lu  Lu5  1  0.24646359  0.75353641  0.14334857  1.0
  Lu  Lu6  1  -0.24646359  0.24646359  0.85665143  1.0
  Lu  Lu7  1  -0.24646359  0.24646359  0.64334857  1.0
  Lu  Lu8  1  0.35847527  0.64152473  0.98806547  1.0
  Lu  Lu9  1  0.35847527  0.64152473  0.51193453  1.0
  Lu  Lu10  1  -0.35847527  0.35847527  0.48806547  1.0
  Lu  Lu11  1  -0.35847527  0.35847527  0.01193453  1.0
  Lu  Lu12  1  0.43387310  0.56612690  0.75000000  1.0
  Lu  Lu13  1  -0.43387310  0.43387310  0.25000000  1.0
  Te  Te14  1  0.14888068  0.85111932  0.75000000  1.0
  Te  Te15  1  -0.14888068  0.14888068  0.25000000  1.0
