# generated using pymatgen
data_H4C3(N5O)2
_symmetry_space_group_name_H-M   'P 1'
_cell_length_a   8.29640780
_cell_length_b   7.86601227
_cell_length_c   7.33879775
_cell_angle_alpha   97.59143043
_cell_angle_beta   100.19642254
_cell_angle_gamma   94.94162620
_symmetry_Int_Tables_number   1
_chemical_formula_structural   H4C3(N5O)2
_chemical_formula_sum   'H8 C6 N20 O4'
_cell_volume   464.27823869
_cell_formula_units_Z   2
loop_
 _symmetry_equiv_pos_site_id
 _symmetry_equiv_pos_as_xyz
  1  'x, y, z'
loop_
 _atom_site_type_symbol
 _atom_site_label
 _atom_site_symmetry_multiplicity
 _atom_site_fract_x
 _atom_site_fract_y
 _atom_site_fract_z
 _atom_site_occupancy
  H  H0  1  -0.18789655  -0.77675458  -0.84445102  1.0
  H  H1  1  -0.81210345  -0.22324542  -0.15554898  1.0
  H  H2  1  -0.44532865  -0.60996564  -0.79457312  1.0
  H  H3  1  -0.55467135  -0.39003436  -0.20542688  1.0
  H  H4  1  -0.80366221  -0.34236301  -0.42487968  1.0
  H  H5  1  -0.19633779  -0.65763699  -0.57512032  1.0
  H  H6  1  -0.84712069  -0.47775642  -0.28962333  1.0
  H  H7  1  -0.15287931  -0.52224358  -0.71037667  1.0
  C  C8  1  -0.81971622  -0.69867842  -0.94198948  1.0
  C  C9  1  -0.18028378  -0.30132158  -0.05801052  1.0
  C  C10  1  -0.65400079  -0.72128354  -0.69929808  1.0
  C  C11  1  -0.34599921  -0.27871646  -0.30070192  1.0
  C  C12  1  -0.96724599  -0.71282432  -0.08448901  1.0
  C  C13  1  -0.03275401  -0.28717568  -0.91551099  1.0
  N  N14  1  -0.67593043  -0.62732514  -0.97217016  1.0
  N  N15  1  -0.32406957  -0.37267486  -0.02782984  1.0
  N  N16  1  -0.88095488  -0.20911801  -0.91856467  1.0
  N  N17  1  -0.11904512  -0.79088199  -0.08143533  1.0
  N  N18  1  -0.57144580  -0.64297793  -0.81456422  1.0
  N  N19  1  -0.42855420  -0.35702207  -0.18543578  1.0
  N  N20  1  -0.81316738  -0.75764268  -0.77452587  1.0
  N  N21  1  -0.18683262  -0.24235732  -0.22547413  1.0
  N  N22  1  -0.77788420  -0.21761237  -0.75755053  1.0
  N  N23  1  -0.22211580  -0.78238763  -0.24244947  1.0
  N  N24  1  -1.02131040  -0.34693116  -0.75208659  1.0
  N  N25  1  0.02131040  -0.65306884  -0.24791341  1.0
  N  N26  1  -0.86487723  -0.30097020  -0.65992375  1.0
  N  N27  1  -0.13512277  -0.69902980  -0.34007625  1.0
  N  N28  1  -0.56996651  -0.75104930  -0.52840015  1.0
  N  N29  1  -0.43003349  -0.24895070  -0.47159985  1.0
  N  N30  1  -0.64362952  -0.84314286  -0.43809170  1.0
  N  N31  1  -0.35637048  -0.15685714  -0.56190830  1.0
  N  N32  1  -0.69318037  -0.92503125  -0.33939672  1.0
  N  N33  1  -0.30681963  -0.07496875  -0.66060328  1.0
  O  O34  1  -0.17026137  -0.87323236  -0.94995433  1.0
  O  O35  1  -0.82973863  -0.12676764  -0.05004567  1.0
  O  O36  1  -0.22385049  -0.63094348  -0.70614215  1.0
  O  O37  1  -0.77614951  -0.36905652  -0.29385785  1.0
