# generated using pymatgen
data_CaSiSnO5
_symmetry_space_group_name_H-M   'P 1'
_cell_length_a   5.63215415
_cell_length_b   5.63215415
_cell_length_c   7.26305665
_cell_angle_alpha   75.99128270
_cell_angle_beta   104.00871730
_cell_angle_gamma   74.18105307
_symmetry_Int_Tables_number   1
_chemical_formula_structural   CaSiSnO5
_chemical_formula_sum   'Ca2 Si2 Sn2 O10'
_cell_volume   203.02640341
_cell_formula_units_Z   2
loop_
 _symmetry_equiv_pos_site_id
 _symmetry_equiv_pos_as_xyz
  1  'x, y, z'
loop_
 _atom_site_type_symbol
 _atom_site_label
 _atom_site_symmetry_multiplicity
 _atom_site_fract_x
 _atom_site_fract_y
 _atom_site_fract_z
 _atom_site_occupancy
  Ca  Ca0  1  0.66299827  -0.33700173  0.25000000  1.0
  Ca  Ca1  1  1.33700173  0.33700173  0.75000000  1.0
  Si  Si2  1  1.31920669  0.31920669  0.25000000  1.0
  Si  Si3  1  0.68079331  -0.31920669  0.75000000  1.0
  Sn  Sn4  1  -0.00000000  0.00000000  0.50000000  1.0
  Sn  Sn5  1  0.00000000  0.00000000  0.00000000  1.0
  O  O6  1  0.91095797  -0.08904203  0.25000000  1.0
  O  O7  1  1.08904203  0.08904203  0.75000000  1.0
  O  O8  1  1.32326794  0.10484441  0.12815068  1.0
  O  O9  1  0.89515559  -0.32326794  0.62815068  1.0
  O  O10  1  1.10484441  0.32326794  0.37184932  1.0
  O  O11  1  0.67673206  -0.10484441  0.87184932  1.0
  O  O12  1  1.60923480  0.26054369  0.41104377  1.0
  O  O13  1  0.73945631  -0.60923480  0.91104377  1.0
  O  O14  1  1.26054369  0.60923480  0.08895623  1.0
  O  O15  1  0.39076520  -0.26054369  0.58895623  1.0
