# generated using pymatgen
data_Sr3TaGa3(GeO7)2
_symmetry_space_group_name_H-M   'P 1'
_cell_length_a   8.48997387
_cell_length_b   8.48997387
_cell_length_c   5.16516502
_cell_angle_alpha   90.00000000
_cell_angle_beta   90.00000000
_cell_angle_gamma   120.00000000
_symmetry_Int_Tables_number   1
_chemical_formula_structural   Sr3TaGa3(GeO7)2
_chemical_formula_sum   'Sr3 Ta1 Ga3 Ge2 O14'
_cell_volume   322.42413249
_cell_formula_units_Z   1
loop_
 _symmetry_equiv_pos_site_id
 _symmetry_equiv_pos_as_xyz
  1  'x, y, z'
loop_
 _atom_site_type_symbol
 _atom_site_label
 _atom_site_symmetry_multiplicity
 _atom_site_fract_x
 _atom_site_fract_y
 _atom_site_fract_z
 _atom_site_occupancy
  Sr  Sr0  1  0.42284947  0.42284947  -0.00000000  1.0
  Sr  Sr1  1  -0.00000000  0.57715053  0.00000000  1.0
  Sr  Sr2  1  0.57715053  -0.00000000  0.00000000  1.0
  Ta  Ta3  1  -0.00000000  -0.00000000  0.00000000  1.0
  Ga  Ga4  1  0.75050695  0.75050695  0.50000000  1.0
  Ga  Ga5  1  -0.00000000  0.24949305  0.50000000  1.0
  Ga  Ga6  1  0.24949305  0.00000000  0.50000000  1.0
  Ge  Ge7  1  0.33333333  0.66666667  0.53100899  1.0
  Ge  Ge8  1  0.66666667  0.33333333  0.46899101  1.0
  O  O9  1  0.09096399  0.87278201  0.23129605  1.0
  O  O10  1  0.87278201  0.09096399  0.76870395  1.0
  O  O11  1  0.78181802  0.90903601  0.23129605  1.0
  O  O12  1  0.12721799  0.21818198  0.23129605  1.0
  O  O13  1  0.90903601  0.78181802  0.76870395  1.0
  O  O14  1  0.21818198  0.12721799  0.76870395  1.0
  O  O15  1  0.69231340  0.53490325  0.31775737  1.0
  O  O16  1  0.53490325  0.69231340  0.68224263  1.0
  O  O17  1  0.84258985  0.30768660  0.31775737  1.0
  O  O18  1  0.46509675  0.15741015  0.31775737  1.0
  O  O19  1  0.30768660  0.84258985  0.68224263  1.0
  O  O20  1  0.15741015  0.46509675  0.68224263  1.0
  O  O21  1  0.33333333  0.66666667  0.19577819  1.0
  O  O22  1  0.66666667  0.33333333  0.80422181  1.0
