# generated using pymatgen
data_P4Os
_symmetry_space_group_name_H-M   'P 1'
_cell_length_a   4.72321021
_cell_length_b   4.71223181
_cell_length_c   7.15853217
_cell_angle_alpha   90.00000000
_cell_angle_beta   99.60261152
_cell_angle_gamma   90.00000000
_symmetry_Int_Tables_number   1
_chemical_formula_structural   P4Os
_chemical_formula_sum   'P8 Os2'
_cell_volume   157.09404529
_cell_formula_units_Z   2
loop_
 _symmetry_equiv_pos_site_id
 _symmetry_equiv_pos_as_xyz
  1  'x, y, z'
loop_
 _atom_site_type_symbol
 _atom_site_label
 _atom_site_symmetry_multiplicity
 _atom_site_fract_x
 _atom_site_fract_y
 _atom_site_fract_z
 _atom_site_occupancy
  P  P0  1  0.78504180  0.19037659  0.25147919  1.0
  P  P1  1  0.78504180  0.30962341  0.75147919  1.0
  P  P2  1  0.21495820  0.69037659  0.24852081  1.0
  P  P3  1  0.21495820  0.80962341  0.74852081  1.0
  P  P4  1  0.62273895  0.84743760  0.41116778  1.0
  P  P5  1  0.62273895  0.65256240  0.91116778  1.0
  P  P6  1  0.37726105  0.34743760  0.08883222  1.0
  P  P7  1  0.37726105  0.15256240  0.58883222  1.0
  Os  Os8  1  0.00000000  0.50000000  0.50000000  1.0
  Os  Os9  1  0.00000000  0.00000000  0.00000000  1.0
