# generated using pymatgen
data_Ba2Li(BO2)5
_symmetry_space_group_name_H-M   'P 1'
_cell_length_a   4.45368317
_cell_length_b   14.84627684
_cell_length_c   6.75811156
_cell_angle_alpha   90.00000000
_cell_angle_beta   104.22022911
_cell_angle_gamma   90.00000000
_symmetry_Int_Tables_number   1
_chemical_formula_structural   Ba2Li(BO2)5
_chemical_formula_sum   'Ba4 Li2 B10 O20'
_cell_volume   433.15839305
_cell_formula_units_Z   2
loop_
 _symmetry_equiv_pos_site_id
 _symmetry_equiv_pos_as_xyz
  1  'x, y, z'
loop_
 _atom_site_type_symbol
 _atom_site_label
 _atom_site_symmetry_multiplicity
 _atom_site_fract_x
 _atom_site_fract_y
 _atom_site_fract_z
 _atom_site_occupancy
  Ba  Ba0  1  0.83345869  0.91301281  0.69813579  1.0
  Ba  Ba1  1  0.83345869  0.58698719  0.69813579  1.0
  Ba  Ba2  1  0.16654131  0.41301281  0.30186421  1.0
  Ba  Ba3  1  0.16654131  0.08698719  0.30186421  1.0
  Li  Li4  1  0.50854178  0.25000000  0.02038379  1.0
  Li  Li5  1  0.49145822  0.75000000  0.97961621  1.0
  B  B6  1  0.93694056  0.33522342  0.81906755  1.0
  B  B7  1  0.93694056  0.16477658  0.81906755  1.0
  B  B8  1  0.06305944  0.83522342  0.18093245  1.0
  B  B9  1  0.06305944  0.66477658  0.18093245  1.0
  B  B10  1  0.44918777  0.41896588  0.81949567  1.0
  B  B11  1  0.44918777  0.08103412  0.81949567  1.0
  B  B12  1  0.55081223  0.91896588  0.18050433  1.0
  B  B13  1  0.55081223  0.58103412  0.18050433  1.0
  B  B14  1  0.72743987  0.25000000  0.49348675  1.0
  B  B15  1  0.27256013  0.75000000  0.50651325  1.0
  O  O16  1  0.82994839  0.33130726  0.59243383  1.0
  O  O17  1  0.82994839  0.16869274  0.59243383  1.0
  O  O18  1  0.17005161  0.83130726  0.40756617  1.0
  O  O19  1  0.17005161  0.66869274  0.40756617  1.0
  O  O20  1  0.77487909  0.41109936  0.89346440  1.0
  O  O21  1  0.77487909  0.08890064  0.89346440  1.0
  O  O22  1  0.22512091  0.91109936  0.10653560  1.0
  O  O23  1  0.22512091  0.58890064  0.10653560  1.0
  O  O24  1  0.32899671  0.48608728  0.69091655  1.0
  O  O25  1  0.32899671  0.01391272  0.69091655  1.0
  O  O26  1  0.67100329  0.98608728  0.30908345  1.0
  O  O27  1  0.67100329  0.51391272  0.30908345  1.0
  O  O28  1  0.27638364  0.35394208  0.89058581  1.0
  O  O29  1  0.27638364  0.14605792  0.89058581  1.0
  O  O30  1  0.72361636  0.85394208  0.10941419  1.0
  O  O31  1  0.72361636  0.64605792  0.10941419  1.0
  O  O32  1  0.87497713  0.25000000  0.91174302  1.0
  O  O33  1  0.12502287  0.75000000  0.08825698  1.0
  O  O34  1  0.53945379  0.25000000  0.30394303  1.0
  O  O35  1  0.46054621  0.75000000  0.69605697  1.0
