# generated using pymatgen
data_LiScI3
_symmetry_space_group_name_H-M   'P 1'
_cell_length_a   7.45038851
_cell_length_b   7.45038851
_cell_length_c   6.68991605
_cell_angle_alpha   90.00000000
_cell_angle_beta   90.00000000
_cell_angle_gamma   120.00000000
_symmetry_Int_Tables_number   1
_chemical_formula_structural   LiScI3
_chemical_formula_sum   'Li2 Sc2 I6'
_cell_volume   321.59489043
_cell_formula_units_Z   2
loop_
 _symmetry_equiv_pos_site_id
 _symmetry_equiv_pos_as_xyz
  1  'x, y, z'
loop_
 _atom_site_type_symbol
 _atom_site_label
 _atom_site_symmetry_multiplicity
 _atom_site_fract_x
 _atom_site_fract_y
 _atom_site_fract_z
 _atom_site_occupancy
  Li  Li0  1  0.33333333  0.66666667  0.50000000  1.0
  Li  Li1  1  0.33333333  0.66666667  0.00000000  1.0
  Sc  Sc2  1  0.00000000  0.00000000  0.50000000  1.0
  Sc  Sc3  1  0.00000000  0.00000000  0.00000000  1.0
  I  I4  1  0.32987479  0.99879194  0.25000000  1.0
  I  I5  1  0.32987479  0.33108285  0.75000000  1.0
  I  I6  1  0.66891715  0.99879194  0.75000000  1.0
  I  I7  1  0.66891715  0.67012521  0.25000000  1.0
  I  I8  1  0.00120806  0.67012521  0.75000000  1.0
  I  I9  1  0.00120806  0.33108285  0.25000000  1.0
