# generated using pymatgen
data_Sb2Te2S
_symmetry_space_group_name_H-M   'P 1'
_cell_length_a   10.50620349
_cell_length_b   10.50620349
_cell_length_c   10.50620349
_cell_angle_alpha   23.02798625
_cell_angle_beta   23.02798625
_cell_angle_gamma   23.02798625
_symmetry_Int_Tables_number   1
_chemical_formula_structural   Sb2Te2S
_chemical_formula_sum   'Sb2 Te2 S1'
_cell_volume   155.74969865
_cell_formula_units_Z   1
loop_
 _symmetry_equiv_pos_site_id
 _symmetry_equiv_pos_as_xyz
  1  'x, y, z'
loop_
 _atom_site_type_symbol
 _atom_site_label
 _atom_site_symmetry_multiplicity
 _atom_site_fract_x
 _atom_site_fract_y
 _atom_site_fract_z
 _atom_site_occupancy
  Sb  Sb0  1  1.61187714  0.61187714  0.61187714  1.0
  Sb  Sb1  1  1.38812286  0.38812286  0.38812286  1.0
  Te  Te2  1  0.77882978  0.77882978  0.77882978  1.0
  Te  Te3  1  1.22117022  1.22117022  0.22117022  1.0
  S  S4  1  0.00000000  -0.00000000  0.00000000  1.0
