# generated using pymatgen
data_La3NbO7
_symmetry_space_group_name_H-M   'P 1'
_cell_length_a   6.78420829
_cell_length_b   6.78420829
_cell_length_c   7.83821668
_cell_angle_alpha   90.00000000
_cell_angle_beta   90.00000000
_cell_angle_gamma   68.37604226
_symmetry_Int_Tables_number   1
_chemical_formula_structural   La3NbO7
_chemical_formula_sum   'La6 Nb2 O14'
_cell_volume   335.36846852
_cell_formula_units_Z   2
loop_
 _symmetry_equiv_pos_site_id
 _symmetry_equiv_pos_as_xyz
  1  'x, y, z'
loop_
 _atom_site_type_symbol
 _atom_site_label
 _atom_site_symmetry_multiplicity
 _atom_site_fract_x
 _atom_site_fract_y
 _atom_site_fract_z
 _atom_site_occupancy
  La  La0  1  0.07015803  0.47683833  0.25000000  1.0
  La  La1  1  -0.52316167  1.07015803  0.75000000  1.0
  La  La2  1  0.52316167  0.92984197  0.25000000  1.0
  La  La3  1  -0.07015803  1.52316167  0.75000000  1.0
  La  La4  1  0.00000000  0.00000000  0.50000000  1.0
  La  La5  1  0.00000000  0.00000000  0.00000000  1.0
  Nb  Nb6  1  0.50000000  0.50000000  0.50000000  1.0
  Nb  Nb7  1  0.50000000  0.50000000  0.00000000  1.0
  O  O8  1  -0.18923315  1.43824284  0.46828420  1.0
  O  O9  1  -0.18923315  1.43824284  0.03171580  1.0
  O  O10  1  0.43824284  0.81076685  0.96828420  1.0
  O  O11  1  0.43824284  0.81076685  0.53171580  1.0
  O  O12  1  -0.43824284  1.18923315  0.46828420  1.0
  O  O13  1  -0.43824284  1.18923315  0.03171580  1.0
  O  O14  1  0.18923315  0.56175716  0.96828420  1.0
  O  O15  1  0.18923315  0.56175716  0.53171580  1.0
  O  O16  1  -0.10696518  1.84644745  0.25000000  1.0
  O  O17  1  0.84644745  0.89303482  0.75000000  1.0
  O  O18  1  -0.84644745  1.10696518  0.25000000  1.0
  O  O19  1  0.10696518  0.15355255  0.75000000  1.0
  O  O20  1  0.43906256  0.56093744  0.25000000  1.0
  O  O21  1  -0.43906256  1.43906256  0.75000000  1.0
