# generated using pymatgen
data_Mo2PO4
_symmetry_space_group_name_H-M   'P 1'
_cell_length_a   8.62492567
_cell_length_b   8.62492567
_cell_length_c   5.24050350
_cell_angle_alpha   90.00000000
_cell_angle_beta   90.00000000
_cell_angle_gamma   90.00000000
_symmetry_Int_Tables_number   1
_chemical_formula_structural   Mo2PO4
_chemical_formula_sum   'Mo8 P4 O16'
_cell_volume   389.83761155
_cell_formula_units_Z   4
loop_
 _symmetry_equiv_pos_site_id
 _symmetry_equiv_pos_as_xyz
  1  'x, y, z'
loop_
 _atom_site_type_symbol
 _atom_site_label
 _atom_site_symmetry_multiplicity
 _atom_site_fract_x
 _atom_site_fract_y
 _atom_site_fract_z
 _atom_site_occupancy
  Mo  Mo0  1  0.02179820  0.26163131  0.69825418  1.0
  Mo  Mo1  1  0.52179820  0.76163131  0.30174582  1.0
  Mo  Mo2  1  0.26163131  0.97820180  0.30174582  1.0
  Mo  Mo3  1  0.76163131  0.47820180  0.69825418  1.0
  Mo  Mo4  1  0.97820180  0.73836869  0.69825418  1.0
  Mo  Mo5  1  0.47820180  0.23836869  0.30174582  1.0
  Mo  Mo6  1  0.73836869  0.02179820  0.30174582  1.0
  Mo  Mo7  1  0.23836869  0.52179820  0.69825418  1.0
  P  P8  1  0.25000000  0.75000000  0.00000000  1.0
  P  P9  1  0.75000000  0.25000000  0.00000000  1.0
  P  P10  1  0.75000000  0.75000000  0.00000000  1.0
  P  P11  1  0.25000000  0.25000000  0.00000000  1.0
  O  O12  1  0.21043891  1.06197117  0.95756465  1.0
  O  O13  1  0.71043891  0.56197117  0.04243535  1.0
  O  O14  1  1.06197117  0.78956109  0.04243535  1.0
  O  O15  1  0.56197117  0.28956109  0.95756465  1.0
  O  O16  1  0.78956109  -0.06197117  0.95756465  1.0
  O  O17  1  0.28956109  0.43802883  0.04243535  1.0
  O  O18  1  -0.06197117  0.21043891  0.04243535  1.0
  O  O19  1  0.43802883  0.71043891  0.95756465  1.0
  O  O20  1  0.13115740  0.17200488  0.45028467  1.0
  O  O21  1  0.63115740  0.67200488  0.54971533  1.0
  O  O22  1  0.17200488  0.86884260  0.54971533  1.0
  O  O23  1  0.67200488  0.36884260  0.45028467  1.0
  O  O24  1  0.86884260  0.82799512  0.45028467  1.0
  O  O25  1  0.36884260  0.32799512  0.54971533  1.0
  O  O26  1  0.82799512  0.13115740  0.54971533  1.0
  O  O27  1  0.32799512  0.63115740  0.45028467  1.0
