# generated using pymatgen
data_Tl2AgBr3
_symmetry_space_group_name_H-M   'P 1'
_cell_length_a   8.70830674
_cell_length_b   8.70830674
_cell_length_c   8.70830674
_cell_angle_alpha   71.35443164
_cell_angle_beta   71.35443164
_cell_angle_gamma   71.35443164
_symmetry_Int_Tables_number   1
_chemical_formula_structural   Tl2AgBr3
_chemical_formula_sum   'Tl6 Ag3 Br9'
_cell_volume   575.22697109
_cell_formula_units_Z   3
loop_
 _symmetry_equiv_pos_site_id
 _symmetry_equiv_pos_as_xyz
  1  'x, y, z'
loop_
 _atom_site_type_symbol
 _atom_site_label
 _atom_site_symmetry_multiplicity
 _atom_site_fract_x
 _atom_site_fract_y
 _atom_site_fract_z
 _atom_site_occupancy
  Tl  Tl0  1  0.67497049  0.44197282  -0.88632551  1.0
  Tl  Tl1  1  0.55802718  0.88632551  -0.67497049  1.0
  Tl  Tl2  1  0.88632551  0.32502951  -0.44197282  1.0
  Tl  Tl3  1  0.32502951  0.55802718  -0.11367449  1.0
  Tl  Tl4  1  0.44197282  0.11367449  -0.32502951  1.0
  Tl  Tl5  1  0.11367449  0.67497049  -0.55802718  1.0
  Ag  Ag6  1  0.83876466  0.83876466  -0.16123534  1.0
  Ag  Ag7  1  1.16123534  1.16123534  0.16123534  1.0
  Ag  Ag8  1  0.00000000  0.00000000  0.00000000  1.0
  Br  Br9  1  0.67127929  0.14775819  -0.08744286  1.0
  Br  Br10  1  0.85224181  0.08744286  -0.67127929  1.0
  Br  Br11  1  1.08744286  -0.67127929  -0.14775819  1.0
  Br  Br12  1  0.32872071  -0.14775819  0.08744286  1.0
  Br  Br13  1  1.14775819  -0.08744286  -0.32872071  1.0
  Br  Br14  1  0.91255714  -0.32872071  0.14775819  1.0
  Br  Br15  1  0.70266994  0.70266994  -0.29733006  1.0
  Br  Br16  1  1.29733006  1.29733006  0.29733006  1.0
  Br  Br17  1  0.50000000  0.50000000  -0.50000000  1.0
