# generated using pymatgen
data_Na2Ti6O13
_symmetry_space_group_name_H-M   'P 1'
_cell_length_a   7.85874801
_cell_length_b   7.85874801
_cell_length_c   9.27527875
_cell_angle_alpha   81.11054922
_cell_angle_beta   98.88945078
_cell_angle_gamma   152.35852687
_symmetry_Int_Tables_number   1
_chemical_formula_structural   Na2Ti6O13
_chemical_formula_sum   'Na2 Ti6 O13'
_cell_volume   262.37542719
_cell_formula_units_Z   1
loop_
 _symmetry_equiv_pos_site_id
 _symmetry_equiv_pos_as_xyz
  1  'x, y, z'
loop_
 _atom_site_type_symbol
 _atom_site_label
 _atom_site_symmetry_multiplicity
 _atom_site_fract_x
 _atom_site_fract_y
 _atom_site_fract_z
 _atom_site_occupancy
  Na  Na0  1  0.53776806  0.46223194  0.73157312  1.0
  Na  Na1  1  0.46223194  -0.46223194  0.26842688  1.0
  Ti  Ti2  1  0.88531585  0.11468415  0.90478031  1.0
  Ti  Ti3  1  0.11468415  -0.11468415  0.09521969  1.0
  Ti  Ti4  1  0.83380309  0.16619691  0.56414163  1.0
  Ti  Ti5  1  0.16619691  -0.16619691  0.43585837  1.0
  Ti  Ti6  1  0.22689172  -0.22689172  0.77018051  1.0
  Ti  Ti7  1  0.77310828  0.22689172  0.22981949  1.0
  O  O8  1  0.92899247  0.07100753  0.70867690  1.0
  O  O9  1  0.07100753  -0.07100753  0.29132310  1.0
  O  O10  1  0.87325818  0.12674182  0.38671318  1.0
  O  O11  1  0.12674182  -0.12674182  0.61328682  1.0
  O  O12  1  0.75882523  0.24117477  0.75509444  1.0
  O  O13  1  0.24117477  -0.24117477  0.24490556  1.0
  O  O14  1  0.70238324  0.29761676  0.42886300  1.0
  O  O15  1  0.29761676  -0.29761676  0.57113700  1.0
  O  O16  1  0.35580320  -0.35580320  0.88347549  1.0
  O  O17  1  0.64419680  0.35580320  0.11652451  1.0
  O  O18  1  0.16217126  -0.16217126  0.91174183  1.0
  O  O19  1  0.83782874  0.16217126  0.08825817  1.0
  O  O20  1  0.00000000  0.00000000  0.00000000  1.0
