# generated using pymatgen
data_K2SbCl3F2
_symmetry_space_group_name_H-M   'P 1'
_cell_length_a   8.00204732
_cell_length_b   8.24685667
_cell_length_c   12.93434760
_cell_angle_alpha   90.00000000
_cell_angle_beta   90.00000000
_cell_angle_gamma   90.00000000
_symmetry_Int_Tables_number   1
_chemical_formula_structural   K2SbCl3F2
_chemical_formula_sum   'K8 Sb4 Cl12 F8'
_cell_volume   853.56006899
_cell_formula_units_Z   4
loop_
 _symmetry_equiv_pos_site_id
 _symmetry_equiv_pos_as_xyz
  1  'x, y, z'
loop_
 _atom_site_type_symbol
 _atom_site_label
 _atom_site_symmetry_multiplicity
 _atom_site_fract_x
 _atom_site_fract_y
 _atom_site_fract_z
 _atom_site_occupancy
  K  K0  1  0.48741632  0.84568889  0.84621922  1.0
  K  K1  1  0.98741632  0.65431111  0.15378078  1.0
  K  K2  1  0.51258368  0.34568889  0.65378078  1.0
  K  K3  1  0.01258368  0.15431111  0.34621922  1.0
  K  K4  1  0.45889160  0.96373976  0.20714613  1.0
  K  K5  1  0.95889160  0.53626024  0.79285387  1.0
  K  K6  1  0.54110840  0.46373976  0.29285387  1.0
  K  K7  1  0.04110840  0.03626024  0.70714613  1.0
  Sb  Sb8  1  0.37856496  0.88158653  0.52371297  1.0
  Sb  Sb9  1  0.87856496  0.61841347  0.47628703  1.0
  Sb  Sb10  1  0.62143504  0.38158653  0.97628703  1.0
  Sb  Sb11  1  0.12143504  0.11841347  0.02371297  1.0
  Cl  Cl12  1  0.27000308  0.66074865  0.65244499  1.0
  Cl  Cl13  1  0.77000308  0.83925135  0.34755501  1.0
  Cl  Cl14  1  0.72999692  0.16074865  0.84755501  1.0
  Cl  Cl15  1  0.22999692  0.33925135  0.15244499  1.0
  Cl  Cl16  1  0.08795281  0.83876453  0.91971185  1.0
  Cl  Cl17  1  0.58795281  0.66123547  0.08028815  1.0
  Cl  Cl18  1  0.91204719  0.33876453  0.58028815  1.0
  Cl  Cl19  1  0.41204719  0.16123547  0.41971185  1.0
  Cl  Cl20  1  0.76092496  0.78553652  0.64883164  1.0
  Cl  Cl21  1  0.26092496  0.71446348  0.35116836  1.0
  Cl  Cl22  1  0.23907504  0.28553652  0.85116836  1.0
  Cl  Cl23  1  0.73907504  0.21446348  0.14883164  1.0
  F  F24  1  0.13867846  0.95133169  0.51909433  1.0
  F  F25  1  0.63867846  0.54866831  0.48090567  1.0
  F  F26  1  0.86132154  0.45133169  0.98090567  1.0
  F  F27  1  0.36132154  0.04866831  0.01909433  1.0
  F  F28  1  0.11548208  0.97318862  0.15452453  1.0
  F  F29  1  0.61548208  0.52681138  0.84547547  1.0
  F  F30  1  0.88451792  0.47318862  0.34547547  1.0
  F  F31  1  0.38451792  0.02681138  0.65452453  1.0
