# generated using pymatgen
data_KGa(SeO3)2
_symmetry_space_group_name_H-M   'P 1'
_cell_length_a   15.13872597
_cell_length_b   5.40816059
_cell_length_c   7.54300881
_cell_angle_alpha   90.00000000
_cell_angle_beta   90.00000000
_cell_angle_gamma   90.00000000
_symmetry_Int_Tables_number   1
_chemical_formula_structural   KGa(SeO3)2
_chemical_formula_sum   'K4 Ga4 Se8 O24'
_cell_volume   617.56620365
_cell_formula_units_Z   4
loop_
 _symmetry_equiv_pos_site_id
 _symmetry_equiv_pos_as_xyz
  1  'x, y, z'
loop_
 _atom_site_type_symbol
 _atom_site_label
 _atom_site_symmetry_multiplicity
 _atom_site_fract_x
 _atom_site_fract_y
 _atom_site_fract_z
 _atom_site_occupancy
  K  K0  1  0.39102520  0.75000000  0.06705858  1.0
  K  K1  1  0.89102520  0.75000000  0.43294142  1.0
  K  K2  1  0.60897480  0.25000000  0.93294142  1.0
  K  K3  1  0.10897480  0.25000000  0.56705858  1.0
  Ga  Ga4  1  0.12883168  0.75000000  0.18659614  1.0
  Ga  Ga5  1  0.62883168  0.75000000  0.31340386  1.0
  Ga  Ga6  1  0.87116832  0.25000000  0.81340386  1.0
  Ga  Ga7  1  0.37116832  0.25000000  0.68659614  1.0
  Se  Se8  1  0.47646124  0.75000000  0.61392500  1.0
  Se  Se9  1  0.97646124  0.75000000  0.88607500  1.0
  Se  Se10  1  0.52353876  0.25000000  0.38607500  1.0
  Se  Se11  1  0.02353876  0.25000000  0.11392500  1.0
  Se  Se12  1  0.27470656  0.75000000  0.49172296  1.0
  Se  Se13  1  0.77470656  0.75000000  0.00827704  1.0
  Se  Se14  1  0.72529344  0.25000000  0.50827704  1.0
  Se  Se15  1  0.22529344  0.25000000  0.99172296  1.0
  O  O16  1  0.46637840  0.99690539  0.75775564  1.0
  O  O17  1  0.46637840  0.50309461  0.75775564  1.0
  O  O18  1  0.96637840  0.99690539  0.74224436  1.0
  O  O19  1  0.96637840  0.50309461  0.74224436  1.0
  O  O20  1  0.53362160  0.49690539  0.24224436  1.0
  O  O21  1  0.53362160  0.00309461  0.24224436  1.0
  O  O22  1  0.03362160  0.49690539  0.25775564  1.0
  O  O23  1  0.03362160  0.00309461  0.25775564  1.0
  O  O24  1  0.27715590  0.99584315  0.63856958  1.0
  O  O25  1  0.27715590  0.50415685  0.63856958  1.0
  O  O26  1  0.77715590  0.99584315  0.86143042  1.0
  O  O27  1  0.77715590  0.50415685  0.86143042  1.0
  O  O28  1  0.72284410  0.49584315  0.36143042  1.0
  O  O29  1  0.72284410  0.00415685  0.36143042  1.0
  O  O30  1  0.22284410  0.49584315  0.13856958  1.0
  O  O31  1  0.22284410  0.00415685  0.13856958  1.0
  O  O32  1  0.08869370  0.75000000  0.92950457  1.0
  O  O33  1  0.58869370  0.75000000  0.57049543  1.0
  O  O34  1  0.91130630  0.25000000  0.07049543  1.0
  O  O35  1  0.41130630  0.25000000  0.42950457  1.0
  O  O36  1  0.66306250  0.75000000  0.05793987  1.0
  O  O37  1  0.16306250  0.75000000  0.44206013  1.0
  O  O38  1  0.33693750  0.25000000  0.94206013  1.0
  O  O39  1  0.83693750  0.25000000  0.55793987  1.0
