# generated using pymatgen
data_RbBe3ZnF9
_symmetry_space_group_name_H-M   'P 1'
_cell_length_a   6.79591442
_cell_length_b   6.79591442
_cell_length_c   9.83039665
_cell_angle_alpha   90.00000000
_cell_angle_beta   90.00000000
_cell_angle_gamma   120.00000000
_symmetry_Int_Tables_number   1
_chemical_formula_structural   RbBe3ZnF9
_chemical_formula_sum   'Rb2 Be6 Zn2 F18'
_cell_volume   393.18548353
_cell_formula_units_Z   2
loop_
 _symmetry_equiv_pos_site_id
 _symmetry_equiv_pos_as_xyz
  1  'x, y, z'
loop_
 _atom_site_type_symbol
 _atom_site_label
 _atom_site_symmetry_multiplicity
 _atom_site_fract_x
 _atom_site_fract_y
 _atom_site_fract_z
 _atom_site_occupancy
  Rb  Rb0  1  -0.00000000  0.00000000  0.50000000  1.0
  Rb  Rb1  1  -0.00000000  -0.00000000  0.00000000  1.0
  Be  Be2  1  0.59915686  0.54208907  0.25000000  1.0
  Be  Be3  1  0.59915686  0.05706779  0.75000000  1.0
  Be  Be4  1  0.94293221  0.54208907  0.75000000  1.0
  Be  Be5  1  0.94293221  0.40084314  0.25000000  1.0
  Be  Be6  1  0.45791093  0.40084314  0.75000000  1.0
  Be  Be7  1  0.45791093  0.05706779  0.25000000  1.0
  Zn  Zn8  1  0.33333333  0.66666667  0.50000000  1.0
  Zn  Zn9  1  0.33333333  0.66666667  -0.00000000  1.0
  F  F10  1  0.07984524  0.42197750  0.38042509  1.0
  F  F11  1  0.07984524  0.42197750  0.11957491  1.0
  F  F12  1  0.07984524  0.65786774  0.88042509  1.0
  F  F13  1  0.07984524  0.65786774  0.61957491  1.0
  F  F14  1  0.34213226  0.42197750  0.88042509  1.0
  F  F15  1  0.34213226  0.42197750  0.61957491  1.0
  F  F16  1  0.34213226  0.92015476  0.38042509  1.0
  F  F17  1  0.34213226  0.92015476  0.11957491  1.0
  F  F18  1  0.57802250  0.92015476  0.88042509  1.0
  F  F19  1  0.57802250  0.92015476  0.61957491  1.0
  F  F20  1  0.57802250  0.65786774  0.38042509  1.0
  F  F21  1  0.57802250  0.65786774  0.11957491  1.0
  F  F22  1  0.84951295  0.57329250  0.25000000  1.0
  F  F23  1  0.84951295  0.27622046  0.75000000  1.0
  F  F24  1  0.72377954  0.57329250  0.75000000  1.0
  F  F25  1  0.72377954  0.15048705  0.25000000  1.0
  F  F26  1  0.42670750  0.15048705  0.75000000  1.0
  F  F27  1  0.42670750  0.27622046  0.25000000  1.0
