# generated using pymatgen
data_Y2MgRu
_symmetry_space_group_name_H-M   'P 1'
_cell_length_a   3.44389471
_cell_length_b   3.44389471
_cell_length_c   8.17660607
_cell_angle_alpha   90.00000000
_cell_angle_beta   90.00000000
_cell_angle_gamma   90.00000000
_symmetry_Int_Tables_number   1
_chemical_formula_structural   Y2MgRu
_chemical_formula_sum   'Y2 Mg1 Ru1'
_cell_volume   96.97790648
_cell_formula_units_Z   1
loop_
 _symmetry_equiv_pos_site_id
 _symmetry_equiv_pos_as_xyz
  1  'x, y, z'
loop_
 _atom_site_type_symbol
 _atom_site_label
 _atom_site_symmetry_multiplicity
 _atom_site_fract_x
 _atom_site_fract_y
 _atom_site_fract_z
 _atom_site_occupancy
  Y  Y0  1  0.50000000  0.50000000  0.79900237  1.0
  Y  Y1  1  0.50000000  0.50000000  0.20099763  1.0
  Mg  Mg2  1  0.00000000  0.00000000  0.50000000  1.0
  Ru  Ru3  1  0.00000000  0.00000000  0.00000000  1.0
