# generated using pymatgen
data_Zn2Ni21B20
_symmetry_space_group_name_H-M   'P 1'
_cell_length_a   8.76438369
_cell_length_b   8.76438369
_cell_length_c   8.76438369
_cell_angle_alpha   131.53782756
_cell_angle_beta   131.53782756
_cell_angle_gamma   70.95996482
_symmetry_Int_Tables_number   1
_chemical_formula_structural   Zn2Ni21B20
_chemical_formula_sum   'Zn2 Ni21 B20'
_cell_volume   369.37784363
_cell_formula_units_Z   1
loop_
 _symmetry_equiv_pos_site_id
 _symmetry_equiv_pos_as_xyz
  1  'x, y, z'
loop_
 _atom_site_type_symbol
 _atom_site_label
 _atom_site_symmetry_multiplicity
 _atom_site_fract_x
 _atom_site_fract_y
 _atom_site_fract_z
 _atom_site_occupancy
  Zn  Zn0  1  0.81006483  0.81006483  1.00000000  1.0
  Zn  Zn1  1  0.18993517  0.18993517  -0.00000000  1.0
  Ni  Ni2  1  0.59948361  0.89935476  0.70012886  1.0
  Ni  Ni3  1  0.80077410  0.10064524  0.70012886  1.0
  Ni  Ni4  1  1.19922590  0.89935476  1.29987114  1.0
  Ni  Ni5  1  0.40051639  0.10064524  0.29987114  1.0
  Ni  Ni6  1  0.89935476  0.59948361  0.70012886  1.0
  Ni  Ni7  1  0.10064524  0.80077410  0.70012886  1.0
  Ni  Ni8  1  0.89935476  1.19922590  1.29987114  1.0
  Ni  Ni9  1  0.10064524  0.40051639  0.29987114  1.0
  Ni  Ni10  1  0.50000000  0.75984909  1.25984909  1.0
  Ni  Ni11  1  0.75984909  0.50000000  1.25984909  1.0
  Ni  Ni12  1  0.24015091  0.50000000  0.74015091  1.0
  Ni  Ni13  1  0.50000000  0.24015091  0.74015091  1.0
  Ni  Ni14  1  0.50000000  0.50000000  0.50000000  1.0
  Ni  Ni15  1  1.00000000  1.00000000  1.50000000  1.0
  Ni  Ni16  1  1.00000000  0.50000000  1.00000000  1.0
  Ni  Ni17  1  0.50000000  1.00000000  1.00000000  1.0
  Ni  Ni18  1  0.63853017  0.63853017  1.00000000  1.0
  Ni  Ni19  1  0.36146983  0.36146983  -0.00000000  1.0
  Ni  Ni20  1  0.25000000  0.75000000  0.50000000  1.0
  Ni  Ni21  1  0.75000000  0.25000000  0.50000000  1.0
  Ni  Ni22  1  -0.00000000  0.00000000  -0.00000000  1.0
  B  B23  1  0.35428553  0.65402359  0.70026195  1.0
  B  B24  1  1.04623836  0.34597641  0.70026195  1.0
  B  B25  1  0.95376164  0.65402359  1.29973805  1.0
  B  B26  1  0.64571447  0.34597641  0.29973805  1.0
  B  B27  1  0.65402359  0.35428553  0.70026195  1.0
  B  B28  1  0.34597641  1.04623836  0.70026195  1.0
  B  B29  1  0.65402359  0.95376164  1.29973805  1.0
  B  B30  1  0.34597641  0.64571447  0.29973805  1.0
  B  B31  1  0.60082517  0.60082517  0.41327690  1.0
  B  B32  1  0.81245173  0.81245173  1.41327690  1.0
  B  B33  1  1.18754827  0.60082517  1.00000000  1.0
  B  B34  1  0.39917483  0.81245173  1.00000000  1.0
  B  B35  1  0.60082517  1.18754827  1.00000000  1.0
  B  B36  1  0.81245173  0.39917483  1.00000000  1.0
  B  B37  1  1.18754827  1.18754827  1.58672310  1.0
  B  B38  1  0.39917483  0.39917483  0.58672310  1.0
  B  B39  1  0.79760356  0.79760356  1.59520712  1.0
  B  B40  1  0.20239644  0.79760356  1.00000000  1.0
  B  B41  1  0.79760356  0.20239644  1.00000000  1.0
  B  B42  1  0.20239644  0.20239644  0.40479288  1.0
