# generated using pymatgen
data_Ba2TiOF6
_symmetry_space_group_name_H-M   'P 1'
_cell_length_a   7.47795115
_cell_length_b   7.47795115
_cell_length_c   7.30220556
_cell_angle_alpha   62.53778919
_cell_angle_beta   117.46221081
_cell_angle_gamma   101.85148553
_symmetry_Int_Tables_number   1
_chemical_formula_structural   Ba2TiOF6
_chemical_formula_sum   'Ba4 Ti2 O2 F12'
_cell_volume   321.48186617
_cell_formula_units_Z   2
loop_
 _symmetry_equiv_pos_site_id
 _symmetry_equiv_pos_as_xyz
  1  'x, y, z'
loop_
 _atom_site_type_symbol
 _atom_site_label
 _atom_site_symmetry_multiplicity
 _atom_site_fract_x
 _atom_site_fract_y
 _atom_site_fract_z
 _atom_site_occupancy
  Ba  Ba0  1  1.56257492  -0.32092735  0.32067942  1.0
  Ba  Ba1  1  1.32092735  -0.56257492  0.82067942  1.0
  Ba  Ba2  1  0.32031139  0.02965239  0.47719141  1.0
  Ba  Ba3  1  0.97034761  0.67968861  0.97719141  1.0
  Ti  Ti4  1  0.81172527  0.17533516  0.39352308  1.0
  Ti  Ti5  1  0.82466484  0.18827473  0.89352308  1.0
  O  O6  1  0.87502772  0.24947524  0.11465064  1.0
  O  O7  1  0.75052476  0.12497228  0.61465064  1.0
  F  F8  1  0.90112807  0.90742087  0.49821060  1.0
  F  F9  1  0.09257913  0.09887193  -0.00178940  1.0
  F  F10  1  1.75281564  -0.08674897  0.03163041  1.0
  F  F11  1  1.08674897  -0.75281564  0.53163041  1.0
  F  F12  1  1.22006674  -0.29792432  0.36622081  1.0
  F  F13  1  1.29792432  -0.22006674  0.86622081  1.0
  F  F14  1  0.54135629  0.09622847  0.21385399  1.0
  F  F15  1  0.90377153  0.45864371  0.71385399  1.0
  F  F16  1  0.54343884  0.27894322  0.71832214  1.0
  F  F17  1  0.72105678  0.45656116  0.21832214  1.0
  F  F18  1  1.30123039  -0.58997944  0.19581750  1.0
  F  F19  1  1.58997944  -0.30123039  0.69581750  1.0
