# generated using pymatgen
data_CrPbO3
_symmetry_space_group_name_H-M   'P 1'
_cell_length_a   7.78709680
_cell_length_b   7.78311118
_cell_length_c   7.71809210
_cell_angle_alpha   90.00000000
_cell_angle_beta   90.00000000
_cell_angle_gamma   90.00000000
_symmetry_Int_Tables_number   1
_chemical_formula_structural   CrPbO3
_chemical_formula_sum   'Cr8 Pb8 O24'
_cell_volume   467.77689293
_cell_formula_units_Z   8
loop_
 _symmetry_equiv_pos_site_id
 _symmetry_equiv_pos_as_xyz
  1  'x, y, z'
loop_
 _atom_site_type_symbol
 _atom_site_label
 _atom_site_symmetry_multiplicity
 _atom_site_fract_x
 _atom_site_fract_y
 _atom_site_fract_z
 _atom_site_occupancy
  Cr  Cr0  1  0.25000000  0.25000000  0.00000000  1.0
  Cr  Cr1  1  0.25000000  0.75000000  0.00000000  1.0
  Cr  Cr2  1  0.75000000  0.25000000  0.00000000  1.0
  Cr  Cr3  1  0.75000000  0.75000000  0.00000000  1.0
  Cr  Cr4  1  0.25000000  0.25000000  0.50000000  1.0
  Cr  Cr5  1  0.25000000  0.75000000  0.50000000  1.0
  Cr  Cr6  1  0.75000000  0.25000000  0.50000000  1.0
  Cr  Cr7  1  0.75000000  0.75000000  0.50000000  1.0
  Pb  Pb8  1  0.00000000  0.50000000  0.74972351  1.0
  Pb  Pb9  1  0.50000000  0.00000000  0.25027649  1.0
  Pb  Pb10  1  0.50000000  0.50000000  0.75134164  1.0
  Pb  Pb11  1  0.00000000  0.00000000  0.24865836  1.0
  Pb  Pb12  1  0.00000000  0.50000000  0.24980062  1.0
  Pb  Pb13  1  0.50000000  0.00000000  0.75019938  1.0
  Pb  Pb14  1  0.50000000  0.50000000  0.25119812  1.0
  Pb  Pb15  1  0.00000000  0.00000000  0.74880188  1.0
  O  O16  1  0.77566264  0.50000000  0.99626411  1.0
  O  O17  1  0.22433736  0.50000000  0.99626411  1.0
  O  O18  1  0.72433736  0.00000000  0.00373589  1.0
  O  O19  1  0.27566264  0.00000000  0.00373589  1.0
  O  O20  1  0.72369424  0.50000000  0.50367098  1.0
  O  O21  1  0.27630576  0.50000000  0.50367098  1.0
  O  O22  1  0.77630576  0.00000000  0.49632902  1.0
  O  O23  1  0.22369424  0.00000000  0.49632902  1.0
  O  O24  1  0.74765780  0.24636731  0.74996895  1.0
  O  O25  1  0.74765780  0.75363269  0.74996895  1.0
  O  O26  1  0.25234220  0.24636731  0.74996895  1.0
  O  O27  1  0.25234220  0.75363269  0.74996895  1.0
  O  O28  1  0.75234220  0.25363269  0.25003105  1.0
  O  O29  1  0.75234220  0.74636731  0.25003105  1.0
  O  O30  1  0.24765780  0.25363269  0.25003105  1.0
  O  O31  1  0.24765780  0.74636731  0.25003105  1.0
  O  O32  1  0.50000000  0.72421546  0.00235882  1.0
  O  O33  1  0.50000000  0.27578454  0.00235882  1.0
  O  O34  1  0.00000000  0.77578454  0.99764118  1.0
  O  O35  1  0.00000000  0.22421546  0.99764118  1.0
  O  O36  1  0.50000000  0.77638056  0.49757042  1.0
  O  O37  1  0.50000000  0.22361944  0.49757042  1.0
  O  O38  1  0.00000000  0.72361944  0.50242958  1.0
  O  O39  1  0.00000000  0.27638056  0.50242958  1.0
