# generated using pymatgen
data_Na2BH4ClO4
_symmetry_space_group_name_H-M   'P 1'
_cell_length_a   7.35019905
_cell_length_b   7.35019905
_cell_length_c   4.85904799
_cell_angle_alpha   90.00000000
_cell_angle_beta   90.00000000
_cell_angle_gamma   90.00000000
_symmetry_Int_Tables_number   1
_chemical_formula_structural   Na2BH4ClO4
_chemical_formula_sum   'Na4 B2 H8 Cl2 O8'
_cell_volume   262.51213838
_cell_formula_units_Z   2
loop_
 _symmetry_equiv_pos_site_id
 _symmetry_equiv_pos_as_xyz
  1  'x, y, z'
loop_
 _atom_site_type_symbol
 _atom_site_label
 _atom_site_symmetry_multiplicity
 _atom_site_fract_x
 _atom_site_fract_y
 _atom_site_fract_z
 _atom_site_occupancy
  Na  Na0  1  0.75000000  0.25000000  0.50000000  1.0
  Na  Na1  1  0.25000000  0.25000000  0.50000000  1.0
  Na  Na2  1  0.75000000  0.75000000  0.50000000  1.0
  Na  Na3  1  0.25000000  0.75000000  0.50000000  1.0
  B  B4  1  0.00000000  0.00000000  0.00000000  1.0
  B  B5  1  0.50000000  0.50000000  0.00000000  1.0
  H  H6  1  0.76696622  0.50000000  0.93709356  1.0
  H  H7  1  0.23303378  0.50000000  0.93709356  1.0
  H  H8  1  0.00000000  0.26696622  0.93709356  1.0
  H  H9  1  0.00000000  0.73303378  0.93709356  1.0
  H  H10  1  0.73303378  0.00000000  0.06290644  1.0
  H  H11  1  0.26696622  0.00000000  0.06290644  1.0
  H  H12  1  0.50000000  0.23303378  0.06290644  1.0
  H  H13  1  0.50000000  0.76696622  0.06290644  1.0
  Cl  Cl14  1  0.00000000  0.50000000  0.25018627  1.0
  Cl  Cl15  1  0.50000000  0.00000000  0.74981373  1.0
  O  O16  1  0.66149934  0.50000000  0.81409770  1.0
  O  O17  1  0.33850066  0.50000000  0.81409770  1.0
  O  O18  1  0.00000000  0.16149934  0.81409770  1.0
  O  O19  1  0.00000000  0.83850066  0.81409770  1.0
  O  O20  1  0.83850066  0.00000000  0.18590230  1.0
  O  O21  1  0.16149934  0.00000000  0.18590230  1.0
  O  O22  1  0.50000000  0.33850066  0.18590230  1.0
  O  O23  1  0.50000000  0.66149934  0.18590230  1.0
