# generated using pymatgen
data_ZrCuF6
_symmetry_space_group_name_H-M   'P 1'
_cell_length_a   5.73566839
_cell_length_b   5.73566839
_cell_length_c   5.73566839
_cell_angle_alpha   59.92795258
_cell_angle_beta   59.92795258
_cell_angle_gamma   59.92795258
_symmetry_Int_Tables_number   1
_chemical_formula_structural   ZrCuF6
_chemical_formula_sum   'Zr1 Cu1 F6'
_cell_volume   133.20691999
_cell_formula_units_Z   1
loop_
 _symmetry_equiv_pos_site_id
 _symmetry_equiv_pos_as_xyz
  1  'x, y, z'
loop_
 _atom_site_type_symbol
 _atom_site_label
 _atom_site_symmetry_multiplicity
 _atom_site_fract_x
 _atom_site_fract_y
 _atom_site_fract_z
 _atom_site_occupancy
  Zr  Zr0  1  0.50000000  0.50000000  -0.50000000  1.0
  Cu  Cu1  1  0.00000000  0.00000000  0.00000000  1.0
  F  F2  1  0.23682627  0.74919392  -0.73515223  1.0
  F  F3  1  0.73515223  -0.23682627  0.25080608  1.0
  F  F4  1  1.25080608  -0.26484777  -0.23682627  1.0
  F  F5  1  0.76317373  0.25080608  -0.26484777  1.0
  F  F6  1  0.26484777  0.23682627  -0.25080608  1.0
  F  F7  1  0.74919392  0.26484777  -0.76317373  1.0
