# generated using pymatgen
data_PH2F3
_symmetry_space_group_name_H-M   'P 1'
_cell_length_a   5.38686237
_cell_length_b   5.38686237
_cell_length_c   6.29992810
_cell_angle_alpha   90.00000000
_cell_angle_beta   90.00000000
_cell_angle_gamma   110.09449976
_symmetry_Int_Tables_number   1
_chemical_formula_structural   PH2F3
_chemical_formula_sum   'P2 H4 F6'
_cell_volume   171.68477731
_cell_formula_units_Z   2
loop_
 _symmetry_equiv_pos_site_id
 _symmetry_equiv_pos_as_xyz
  1  'x, y, z'
loop_
 _atom_site_type_symbol
 _atom_site_label
 _atom_site_symmetry_multiplicity
 _atom_site_fract_x
 _atom_site_fract_y
 _atom_site_fract_z
 _atom_site_occupancy
  P  P0  1  0.18649137  0.81350863  0.26335912  1.0
  P  P1  1  -0.18649137  1.18649137  0.76335912  1.0
  H  H2  1  -0.08138489  1.67251377  0.30018170  1.0
  H  H3  1  0.67251377  0.91861511  0.80018170  1.0
  H  H4  1  -0.67251377  1.08138489  0.30018170  1.0
  H  H5  1  0.08138489  0.32748623  0.80018170  1.0
  F  F6  1  0.10961937  0.89038063  0.02107895  1.0
  F  F7  1  -0.10961937  1.10961937  0.52107895  1.0
  F  F8  1  0.25861421  0.74138579  0.50675153  1.0
  F  F9  1  -0.25861421  1.25861421  0.00675153  1.0
  F  F10  1  0.35144610  0.64855390  0.16284700  1.0
  F  F11  1  -0.35144610  1.35144610  0.66284700  1.0
