# generated using pymatgen
data_As3Pb5BrO12
_symmetry_space_group_name_H-M   'P 1'
_cell_length_a   10.68779631
_cell_length_b   10.68779631
_cell_length_c   7.45545474
_cell_angle_alpha   90.00000000
_cell_angle_beta   90.00000000
_cell_angle_gamma   120.00000000
_symmetry_Int_Tables_number   1
_chemical_formula_structural   As3Pb5BrO12
_chemical_formula_sum   'As6 Pb10 Br2 O24'
_cell_volume   737.53240384
_cell_formula_units_Z   2
loop_
 _symmetry_equiv_pos_site_id
 _symmetry_equiv_pos_as_xyz
  1  'x, y, z'
loop_
 _atom_site_type_symbol
 _atom_site_label
 _atom_site_symmetry_multiplicity
 _atom_site_fract_x
 _atom_site_fract_y
 _atom_site_fract_z
 _atom_site_occupancy
  As  As0  1  0.38326728  0.96919864  0.25000000  1.0
  As  As1  1  0.96919864  0.58593136  0.75000000  1.0
  As  As2  1  0.58593136  0.61673272  0.25000000  1.0
  As  As3  1  0.03080136  0.41406864  0.25000000  1.0
  As  As4  1  0.61673272  0.03080136  0.75000000  1.0
  As  As5  1  0.41406864  0.38326728  0.75000000  1.0
  Pb  Pb6  1  0.02871724  0.76104200  0.25000000  1.0
  Pb  Pb7  1  0.76104200  0.73232476  0.75000000  1.0
  Pb  Pb8  1  0.73232476  0.97128276  0.25000000  1.0
  Pb  Pb9  1  0.23895800  0.26767524  0.25000000  1.0
  Pb  Pb10  1  0.97128276  0.23895800  0.75000000  1.0
  Pb  Pb11  1  0.26767524  0.02871724  0.75000000  1.0
  Pb  Pb12  1  0.33333333  0.66666667  0.50639091  1.0
  Pb  Pb13  1  0.33333333  0.66666667  -0.00639091  1.0
  Pb  Pb14  1  0.66666667  0.33333333  0.00639091  1.0
  Pb  Pb15  1  0.66666667  0.33333333  0.49360909  1.0
  Br  Br16  1  -0.00000000  -0.00000000  0.50000000  1.0
  Br  Br17  1  0.00000000  -0.00000000  -0.00000000  1.0
  O  O18  1  0.26824474  0.90732110  0.43527075  1.0
  O  O19  1  0.26824474  0.90732110  0.06472925  1.0
  O  O20  1  0.90732110  0.63907637  0.93527075  1.0
  O  O21  1  0.90732110  0.63907637  0.56472925  1.0
  O  O22  1  0.63907637  0.73175526  0.43527075  1.0
  O  O23  1  0.63907637  0.73175526  0.06472925  1.0
  O  O24  1  0.09267890  0.36092363  0.43527075  1.0
  O  O25  1  0.09267890  0.36092363  0.06472925  1.0
  O  O26  1  0.73175526  0.09267890  0.93527075  1.0
  O  O27  1  0.73175526  0.09267890  0.56472925  1.0
  O  O28  1  0.36092363  0.26824474  0.93527075  1.0
  O  O29  1  0.36092363  0.26824474  0.56472925  1.0
  O  O30  1  0.47383684  0.86903934  0.25000000  1.0
  O  O31  1  0.86903934  0.39520250  0.75000000  1.0
  O  O32  1  0.39520250  0.52616316  0.25000000  1.0
  O  O33  1  0.13096066  0.60479750  0.25000000  1.0
  O  O34  1  0.52616316  0.13096066  0.75000000  1.0
  O  O35  1  0.60479750  0.47383684  0.75000000  1.0
  O  O36  1  0.64892388  0.49609807  0.25000000  1.0
  O  O37  1  0.49609807  0.84717418  0.75000000  1.0
  O  O38  1  0.84717418  0.35107612  0.25000000  1.0
  O  O39  1  0.50390193  0.15282582  0.25000000  1.0
  O  O40  1  0.35107612  0.50390193  0.75000000  1.0
  O  O41  1  0.15282582  0.64892388  0.75000000  1.0
