# generated using pymatgen
data_Ba2H2C4O9
_symmetry_space_group_name_H-M   'P 1'
_cell_length_a   6.28009412
_cell_length_b   9.55695801
_cell_length_c   8.85266589
_cell_angle_alpha   64.25762553
_cell_angle_beta   83.34299581
_cell_angle_gamma   83.83707385
_symmetry_Int_Tables_number   1
_chemical_formula_structural   Ba2H2C4O9
_chemical_formula_sum   'Ba4 H4 C8 O18'
_cell_volume   474.40116172
_cell_formula_units_Z   2
loop_
 _symmetry_equiv_pos_site_id
 _symmetry_equiv_pos_as_xyz
  1  'x, y, z'
loop_
 _atom_site_type_symbol
 _atom_site_label
 _atom_site_symmetry_multiplicity
 _atom_site_fract_x
 _atom_site_fract_y
 _atom_site_fract_z
 _atom_site_occupancy
  Ba  Ba0  1  -0.79150104  -0.42253665  -0.86074717  1.0
  Ba  Ba1  1  -0.20849896  -0.57746335  -0.13925283  1.0
  Ba  Ba2  1  -0.27835521  -0.79428247  -0.53392322  1.0
  Ba  Ba3  1  -0.72164479  -0.20571753  -0.46607678  1.0
  H  H4  1  -0.83491814  -0.01923337  -0.97615391  1.0
  H  H5  1  -0.16508186  -0.98076663  -0.02384609  1.0
  H  H6  1  -0.27051140  -0.94490623  -0.87227515  1.0
  H  H7  1  -0.72948860  -0.05509377  -0.12772485  1.0
  C  C8  1  -0.85522793  -0.81451780  -0.77552016  1.0
  C  C9  1  -0.14477207  -0.18548220  -0.22447984  1.0
  C  C10  1  -0.81395843  -0.67512019  -0.41866518  1.0
  C  C11  1  -0.18604157  -0.32487981  -0.58133482  1.0
  C  C12  1  -0.67379338  -0.62095804  -0.32258352  1.0
  C  C13  1  -0.32620662  -0.37904196  -0.67741648  1.0
  C  C14  1  -0.60470113  -0.81388043  -0.78821593  1.0
  C  C15  1  -0.39529887  -0.18611957  -0.21178407  1.0
  O  O16  1  -0.99053347  -0.30562138  -0.63262574  1.0
  O  O17  1  -0.00946653  -0.69437862  -0.36737426  1.0
  O  O18  1  -0.96071410  -0.68654941  -0.85462271  1.0
  O  O19  1  -0.03928590  -0.31345059  -0.14537729  1.0
  O  O20  1  -0.93758542  -0.94100568  -0.68022209  1.0
  O  O21  1  -0.06241458  -0.05899432  -0.31977791  1.0
  O  O22  1  -0.76600666  -0.52927019  -0.26256775  1.0
  O  O23  1  -0.23399334  -0.47072981  -0.73743225  1.0
  O  O24  1  -0.72169758  -0.69147173  -0.54605400  1.0
  O  O25  1  -0.27830242  -0.30852827  -0.45394600  1.0
  O  O26  1  -0.52098077  -0.68431363  -0.86861723  1.0
  O  O27  1  -0.47901923  -0.31568637  -0.13138277  1.0
  O  O28  1  -0.52213677  -0.33140325  -0.68511155  1.0
  O  O29  1  -0.47786323  -0.66859675  -0.31488845  1.0
  O  O30  1  -0.50131177  -0.94286594  -0.70925133  1.0
  O  O31  1  -0.49868823  -0.05713406  -0.29074867  1.0
  O  O32  1  -0.18791537  -0.90107265  -0.98234908  1.0
  O  O33  1  -0.81208463  -0.09892735  -0.01765092  1.0
