# generated using pymatgen
data_CrH4C4NO10
_symmetry_space_group_name_H-M   'P 1'
_cell_length_a   5.06907220
_cell_length_b   5.06907220
_cell_length_c   9.63124418
_cell_angle_alpha   100.74188720
_cell_angle_beta   79.25811280
_cell_angle_gamma   86.10747674
_symmetry_Int_Tables_number   1
_chemical_formula_structural   CrH4C4NO10
_chemical_formula_sum   'Cr1 H4 C4 N1 O10'
_cell_volume   237.52835219
_cell_formula_units_Z   1
loop_
 _symmetry_equiv_pos_site_id
 _symmetry_equiv_pos_as_xyz
  1  'x, y, z'
loop_
 _atom_site_type_symbol
 _atom_site_label
 _atom_site_symmetry_multiplicity
 _atom_site_fract_x
 _atom_site_fract_y
 _atom_site_fract_z
 _atom_site_occupancy
  Cr  Cr0  1  0.50000000  -0.50000000  0.50000000  1.0
  H  H1  1  1.67750968  0.10073501  0.61391683  1.0
  H  H2  1  0.89926499  -0.67750968  0.61391683  1.0
  H  H3  1  1.10073501  0.67750968  0.38608317  1.0
  H  H4  1  0.32249032  -0.10073501  0.38608317  1.0
  C  C5  1  0.35255849  -0.14993453  0.76523733  1.0
  C  C6  1  1.14993453  0.64744151  0.76523733  1.0
  C  C7  1  0.85006547  -0.64744151  0.23476267  1.0
  C  C8  1  1.64744151  0.14993453  0.23476267  1.0
  N  N9  1  0.00000000  -0.00000000  -0.00000000  1.0
  O  O10  1  0.54376137  -0.18556358  0.64948360  1.0
  O  O11  1  1.18556358  0.45623863  0.64948360  1.0
  O  O12  1  0.81443642  -0.45623863  0.35051640  1.0
  O  O13  1  1.45623863  0.18556358  0.35051640  1.0
  O  O14  1  0.32009887  0.04184075  0.87024084  1.0
  O  O15  1  0.95815925  0.67990113  0.87024084  1.0
  O  O16  1  1.04184075  -0.67990113  0.12975916  1.0
  O  O17  1  1.67990113  -0.04184075  0.12975916  1.0
  O  O18  1  0.74769099  -0.74769099  0.57018043  1.0
  O  O19  1  0.25230901  -0.25230901  0.42981957  1.0
