# generated using pymatgen
data_AsSe6IF6
_symmetry_space_group_name_H-M   'P 1'
_cell_length_a   9.38089152
_cell_length_b   7.28408131
_cell_length_c   12.04206441
_cell_angle_alpha   90.00000000
_cell_angle_beta   119.97600529
_cell_angle_gamma   90.00000000
_symmetry_Int_Tables_number   1
_chemical_formula_structural   AsSe6IF6
_chemical_formula_sum   'As2 Se12 I2 F12'
_cell_volume   712.77988077
_cell_formula_units_Z   2
loop_
 _symmetry_equiv_pos_site_id
 _symmetry_equiv_pos_as_xyz
  1  'x, y, z'
loop_
 _atom_site_type_symbol
 _atom_site_label
 _atom_site_symmetry_multiplicity
 _atom_site_fract_x
 _atom_site_fract_y
 _atom_site_fract_z
 _atom_site_occupancy
  As  As0  1  -0.00000000  0.00000000  0.50000000  1.0
  As  As1  1  0.00000000  0.00000000  0.00000000  1.0
  Se  Se2  1  0.76094922  0.56935253  0.11399956  1.0
  Se  Se3  1  0.76094922  0.43064747  0.61399956  1.0
  Se  Se4  1  0.23905078  0.56935253  0.38600044  1.0
  Se  Se5  1  0.23905078  0.43064747  0.88600044  1.0
  Se  Se6  1  0.66525153  0.25999464  0.11394482  1.0
  Se  Se7  1  0.66525153  0.74000536  0.61394482  1.0
  Se  Se8  1  0.33474847  0.25999464  0.38605518  1.0
  Se  Se9  1  0.33474847  0.74000536  0.88605518  1.0
  Se  Se10  1  0.44240377  0.75634857  0.39297661  1.0
  Se  Se11  1  0.44240377  0.24365143  0.89297661  1.0
  Se  Se12  1  0.55759623  0.75634857  0.10702339  1.0
  Se  Se13  1  0.55759623  0.24365143  0.60702339  1.0
  I  I14  1  0.50000000  0.28202710  0.25000000  1.0
  I  I15  1  0.50000000  0.71797290  0.75000000  1.0
  F  F16  1  0.94915965  0.79691654  0.90212950  1.0
  F  F17  1  0.94915965  0.20308346  0.40212950  1.0
  F  F18  1  0.05084035  0.79691654  0.59787050  1.0
  F  F19  1  0.05084035  0.20308346  0.09787050  1.0
  F  F20  1  0.79961968  0.90510941  0.39269435  1.0
  F  F21  1  0.79961968  0.09489059  0.89269435  1.0
  F  F22  1  0.20038032  0.90510941  0.10730565  1.0
  F  F23  1  0.20038032  0.09489059  0.60730565  1.0
  F  F24  1  0.92013657  0.89615609  0.09313168  1.0
  F  F25  1  0.92013657  0.10384391  0.59313168  1.0
  F  F26  1  0.07986343  0.89615609  0.40686832  1.0
  F  F27  1  0.07986343  0.10384391  0.90686832  1.0
