# generated using pymatgen
data_Ba(FeSe2)2
_symmetry_space_group_name_H-M   'P 1'
_cell_length_a   6.33197078
_cell_length_b   6.33197078
_cell_length_c   6.33197078
_cell_angle_alpha   100.33791624
_cell_angle_beta   100.33791624
_cell_angle_gamma   129.87340373
_symmetry_Int_Tables_number   1
_chemical_formula_structural   Ba(FeSe2)2
_chemical_formula_sum   'Ba1 Fe2 Se4'
_cell_volume   176.49227989
_cell_formula_units_Z   1
loop_
 _symmetry_equiv_pos_site_id
 _symmetry_equiv_pos_as_xyz
  1  'x, y, z'
loop_
 _atom_site_type_symbol
 _atom_site_label
 _atom_site_symmetry_multiplicity
 _atom_site_fract_x
 _atom_site_fract_y
 _atom_site_fract_z
 _atom_site_occupancy
  Ba  Ba0  1  0.00000000  0.00000000  0.00000000  1.0
  Fe  Fe1  1  1.25000000  0.75000000  0.50000000  1.0
  Fe  Fe2  1  0.75000000  0.25000000  0.50000000  1.0
  Se  Se3  1  0.79757576  0.62033384  0.41790960  1.0
  Se  Se4  1  0.62033384  0.20242424  0.82275808  1.0
  Se  Se5  1  1.20242424  1.37966616  1.58209040  1.0
  Se  Se6  1  0.37966616  0.79757576  1.17724192  1.0
