# generated using pymatgen
data_Na2HgO2
_symmetry_space_group_name_H-M   'P 1'
_cell_length_a   7.15673450
_cell_length_b   7.15673450
_cell_length_c   7.15673450
_cell_angle_alpha   151.90643216
_cell_angle_beta   151.90643216
_cell_angle_gamma   40.14995833
_symmetry_Int_Tables_number   1
_chemical_formula_structural   Na2HgO2
_chemical_formula_sum   'Na2 Hg1 O2'
_cell_volume   81.12846124
_cell_formula_units_Z   1
loop_
 _symmetry_equiv_pos_site_id
 _symmetry_equiv_pos_as_xyz
  1  'x, y, z'
loop_
 _atom_site_type_symbol
 _atom_site_label
 _atom_site_symmetry_multiplicity
 _atom_site_fract_x
 _atom_site_fract_y
 _atom_site_fract_z
 _atom_site_occupancy
  Na  Na0  1  0.67599497  0.67599497  1.00000000  1.0
  Na  Na1  1  0.32400503  0.32400503  0.00000000  1.0
  Hg  Hg2  1  0.00000000  0.00000000  0.00000000  1.0
  O  O3  1  0.85183199  0.85183199  1.00000000  1.0
  O  O4  1  0.14816801  0.14816801  0.00000000  1.0
