# generated using pymatgen
data_Ca2Ga2Si(HO4)2
_symmetry_space_group_name_H-M   'P 1'
_cell_length_a   7.81400672
_cell_length_b   7.81400672
_cell_length_c   7.81400672
_cell_angle_alpha   109.48080733
_cell_angle_beta   109.48080733
_cell_angle_gamma   109.45204894
_symmetry_Int_Tables_number   1
_chemical_formula_structural   Ca2Ga2Si(HO4)2
_chemical_formula_sum   'Ca4 Ga4 Si2 H4 O16'
_cell_volume   367.28180449
_cell_formula_units_Z   2
loop_
 _symmetry_equiv_pos_site_id
 _symmetry_equiv_pos_as_xyz
  1  'x, y, z'
loop_
 _atom_site_type_symbol
 _atom_site_label
 _atom_site_symmetry_multiplicity
 _atom_site_fract_x
 _atom_site_fract_y
 _atom_site_fract_z
 _atom_site_occupancy
  Ca  Ca0  1  0.53089811  1.03088726  0.77734491  1.0
  Ca  Ca1  1  0.24644680  0.46910189  0.49998915  1.0
  Ca  Ca2  1  1.25354235  1.75355320  1.22265509  1.0
  Ca  Ca3  1  0.96911274  0.74645765  0.50001085  1.0
  Ga  Ga4  1  0.75000594  0.99395213  1.24396763  1.0
  Ga  Ga5  1  0.49396169  0.24999406  0.24394619  1.0
  Ga  Ga6  1  0.74998450  1.50603831  0.75603237  1.0
  Ga  Ga7  1  1.00604787  1.25001550  0.75605381  1.0
  Si  Si8  1  0.50000000  0.50000000  -0.00000000  1.0
  Si  Si9  1  -0.00000000  -0.00000000  -0.00000000  1.0
  H  H10  1  0.27619190  0.77618745  0.86784627  1.0
  H  H11  1  1.59165437  1.72380810  1.49999556  1.0
  H  H12  1  0.90834118  1.40834563  1.13215373  1.0
  H  H13  1  1.22381255  1.09165882  1.50000444  1.0
  O  O14  1  0.24883081  0.74882362  0.72817782  1.0
  O  O15  1  0.47934701  0.75116919  0.49999281  1.0
  O  O16  1  1.02064580  0.52065299  1.27182218  1.0
  O  O17  1  1.25117638  0.97935420  1.50000719  1.0
  O  O18  1  0.80959766  1.02061431  1.03634425  1.0
  O  O19  1  0.22674659  0.19040234  0.21101665  1.0
  O  O20  1  0.98427006  0.77325341  0.96365575  1.0
  O  O21  1  0.97938569  1.01572994  1.78898335  1.0
  O  O22  1  0.50939372  1.00938430  1.20049520  1.0
  O  O23  1  0.69110149  0.49060628  0.49999058  1.0
  O  O24  1  0.80888909  0.30889851  0.79950480  1.0
  O  O25  1  0.99061570  1.19111091  1.50000942  1.0
  O  O26  1  0.52058894  1.30957528  1.03631022  1.0
  O  O27  1  1.51572129  1.47941106  1.78898634  1.0
  O  O28  1  1.27326506  1.48427871  0.96368978  1.0
  O  O29  1  0.69042472  0.72673494  1.21101366  1.0
