# generated using pymatgen
data_Cs2AgI3
_symmetry_space_group_name_H-M   'P 1'
_cell_length_a   14.93914553
_cell_length_b   5.07028280
_cell_length_c   15.53496803
_cell_angle_alpha   90.00000000
_cell_angle_beta   90.00000000
_cell_angle_gamma   90.00000000
_symmetry_Int_Tables_number   1
_chemical_formula_structural   Cs2AgI3
_chemical_formula_sum   'Cs8 Ag4 I12'
_cell_volume   1176.70691384
_cell_formula_units_Z   4
loop_
 _symmetry_equiv_pos_site_id
 _symmetry_equiv_pos_as_xyz
  1  'x, y, z'
loop_
 _atom_site_type_symbol
 _atom_site_label
 _atom_site_symmetry_multiplicity
 _atom_site_fract_x
 _atom_site_fract_y
 _atom_site_fract_z
 _atom_site_occupancy
  Cs  Cs0  1  0.98894108  0.75000000  0.67765451  1.0
  Cs  Cs1  1  0.48894108  0.75000000  0.82234549  1.0
  Cs  Cs2  1  0.01105892  0.25000000  0.32234549  1.0
  Cs  Cs3  1  0.51105892  0.25000000  0.17765451  1.0
  Cs  Cs4  1  0.82285789  0.75000000  0.01762859  1.0
  Cs  Cs5  1  0.32285789  0.75000000  0.48237141  1.0
  Cs  Cs6  1  0.17714211  0.25000000  0.98237141  1.0
  Cs  Cs7  1  0.67714211  0.25000000  0.51762859  1.0
  Ag  Ag8  1  0.74357418  0.75000000  0.30659316  1.0
  Ag  Ag9  1  0.24357418  0.75000000  0.19340684  1.0
  Ag  Ag10  1  0.25642582  0.25000000  0.69340684  1.0
  Ag  Ag11  1  0.75642582  0.25000000  0.80659316  1.0
  I  I12  1  0.86564200  0.75000000  0.44888953  1.0
  I  I13  1  0.36564200  0.75000000  0.05111047  1.0
  I  I14  1  0.13435800  0.25000000  0.55111047  1.0
  I  I15  1  0.63435800  0.25000000  0.94888953  1.0
  I  I16  1  0.72710705  0.75000000  0.71389141  1.0
  I  I17  1  0.22710705  0.75000000  0.78610859  1.0
  I  I18  1  0.27289295  0.25000000  0.28610859  1.0
  I  I19  1  0.77289295  0.25000000  0.21389141  1.0
  I  I20  1  0.56003219  0.75000000  0.36251840  1.0
  I  I21  1  0.06003219  0.75000000  0.13748160  1.0
  I  I22  1  0.43996781  0.25000000  0.63748160  1.0
  I  I23  1  0.93996781  0.25000000  0.86251840  1.0
