# generated using pymatgen
data_YCl3
_symmetry_space_group_name_H-M   'P 1'
_cell_length_a   6.99959178
_cell_length_b   6.99959178
_cell_length_c   6.88978729
_cell_angle_alpha   80.02976747
_cell_angle_beta   99.97023253
_cell_angle_gamma   59.91814510
_symmetry_Int_Tables_number   1
_chemical_formula_structural   YCl3
_chemical_formula_sum   'Y2 Cl6'
_cell_volume   273.97722989
_cell_formula_units_Z   2
loop_
 _symmetry_equiv_pos_site_id
 _symmetry_equiv_pos_as_xyz
  1  'x, y, z'
loop_
 _atom_site_type_symbol
 _atom_site_label
 _atom_site_symmetry_multiplicity
 _atom_site_fract_x
 _atom_site_fract_y
 _atom_site_fract_z
 _atom_site_occupancy
  Y  Y0  1  0.83433606  -0.16566394  0.00000000  1.0
  Y  Y1  1  1.16566394  0.16566394  0.00000000  1.0
  Cl  Cl2  1  0.42234154  -0.04802026  0.77084553  1.0
  Cl  Cl3  1  1.04802026  0.57765846  0.77084553  1.0
  Cl  Cl4  1  0.95197974  -0.57765846  0.22915447  1.0
  Cl  Cl5  1  1.57765846  0.04802026  0.22915447  1.0
  Cl  Cl6  1  0.79536787  -0.79536787  0.76937426  1.0
  Cl  Cl7  1  0.20463213  -0.20463213  0.23062574  1.0
