# generated using pymatgen
data_HC3N7
_symmetry_space_group_name_H-M   'P 1'
_cell_length_a   5.64580307
_cell_length_b   5.03905859
_cell_length_c   22.28815766
_cell_angle_alpha   90.00000000
_cell_angle_beta   96.37049623
_cell_angle_gamma   90.00000000
_symmetry_Int_Tables_number   1
_chemical_formula_structural   HC3N7
_chemical_formula_sum   'H4 C12 N28'
_cell_volume   630.17229150
_cell_formula_units_Z   4
loop_
 _symmetry_equiv_pos_site_id
 _symmetry_equiv_pos_as_xyz
  1  'x, y, z'
loop_
 _atom_site_type_symbol
 _atom_site_label
 _atom_site_symmetry_multiplicity
 _atom_site_fract_x
 _atom_site_fract_y
 _atom_site_fract_z
 _atom_site_occupancy
  H  H0  1  0.81105928  0.96723820  0.05792808  1.0
  H  H1  1  0.81105928  0.53276180  0.55792808  1.0
  H  H2  1  0.18894072  0.46723820  0.44207192  1.0
  H  H3  1  0.18894072  0.03276180  0.94207192  1.0
  C  C4  1  0.91181469  0.24535012  0.12939140  1.0
  C  C5  1  0.91181469  0.25464988  0.62939140  1.0
  C  C6  1  0.08818531  0.74535012  0.37060860  1.0
  C  C7  1  0.08818531  0.75464988  0.87060860  1.0
  C  C8  1  0.81668250  0.91006215  0.41494950  1.0
  C  C9  1  0.81668250  0.58993785  0.91494950  1.0
  C  C10  1  0.18331750  0.41006215  0.08505050  1.0
  C  C11  1  0.18331750  0.08993785  0.58505050  1.0
  C  C12  1  0.62279913  0.07400647  0.42730887  1.0
  C  C13  1  0.62279913  0.42599353  0.92730887  1.0
  C  C14  1  0.37720087  0.57400647  0.07269113  1.0
  C  C15  1  0.37720087  0.92599353  0.57269113  1.0
  N  N16  1  0.92215518  0.93289097  0.36296077  1.0
  N  N17  1  0.92215518  0.56710903  0.86296077  1.0
  N  N18  1  0.07784482  0.43289097  0.13703923  1.0
  N  N19  1  0.07784482  0.06710903  0.63703923  1.0
  N  N20  1  0.91955661  0.11869822  0.07591737  1.0
  N  N21  1  0.91955661  0.38130178  0.57591737  1.0
  N  N22  1  0.08044339  0.61869822  0.42408263  1.0
  N  N23  1  0.08044339  0.88130178  0.92408263  1.0
  N  N24  1  0.90680836  0.72202063  0.45344699  1.0
  N  N25  1  0.90680836  0.77797937  0.95344699  1.0
  N  N26  1  0.09319164  0.22202063  0.04655301  1.0
  N  N27  1  0.09319164  0.27797937  0.54655301  1.0
  N  N28  1  0.74583116  0.17500177  0.16768515  1.0
  N  N29  1  0.74583116  0.32499823  0.66768515  1.0
  N  N30  1  0.25416884  0.67500177  0.33231485  1.0
  N  N31  1  0.25416884  0.82499823  0.83231485  1.0
  N  N32  1  0.73649595  0.31634945  0.21281738  1.0
  N  N33  1  0.73649595  0.18365055  0.71281738  1.0
  N  N34  1  0.26350405  0.81634945  0.28718262  1.0
  N  N35  1  0.26350405  0.68365055  0.78718262  1.0
  N  N36  1  0.70644044  0.42738849  0.25570270  1.0
  N  N37  1  0.70644044  0.07261151  0.75570270  1.0
  N  N38  1  0.29355956  0.92738849  0.24429730  1.0
  N  N39  1  0.29355956  0.57261151  0.74429730  1.0
  N  N40  1  0.46327024  0.20990503  0.43570853  1.0
  N  N41  1  0.46327024  0.29009497  0.93570853  1.0
  N  N42  1  0.53672976  0.70990503  0.06429147  1.0
  N  N43  1  0.53672976  0.79009497  0.56429147  1.0
