# generated using pymatgen
data_Ba2Zn(BO2)6
_symmetry_space_group_name_H-M   'P 1'
_cell_length_a   12.41916966
_cell_length_b   7.19574929
_cell_length_c   7.24940477
_cell_angle_alpha   119.71795113
_cell_angle_beta   99.33104301
_cell_angle_gamma   86.58579635
_symmetry_Int_Tables_number   1
_chemical_formula_structural   Ba2Zn(BO2)6
_chemical_formula_sum   'Ba4 Zn2 B12 O24'
_cell_volume   555.02902609
_cell_formula_units_Z   2
loop_
 _symmetry_equiv_pos_site_id
 _symmetry_equiv_pos_as_xyz
  1  'x, y, z'
loop_
 _atom_site_type_symbol
 _atom_site_label
 _atom_site_symmetry_multiplicity
 _atom_site_fract_x
 _atom_site_fract_y
 _atom_site_fract_z
 _atom_site_occupancy
  Ba  Ba0  1  -0.78056667  0.32065120  -0.40965755  1.0
  Ba  Ba1  1  -0.21943333  -0.32065120  -0.59034245  1.0
  Ba  Ba2  1  -0.54915028  -0.33640623  -0.68031850  1.0
  Ba  Ba3  1  -0.45084972  0.33640623  -0.31968150  1.0
  Zn  Zn4  1  -0.08688535  0.02863610  -0.86581690  1.0
  Zn  Zn5  1  -0.91311465  -0.02863610  -0.13418310  1.0
  B  B6  1  -0.62578156  0.77983916  -0.21201544  1.0
  B  B7  1  -0.37421844  -0.77983916  -0.78798456  1.0
  B  B8  1  -0.62700413  0.03320934  -0.82450334  1.0
  B  B9  1  -0.37299587  -0.03320934  -0.17549666  1.0
  B  B10  1  -0.37760646  -0.17042622  -0.92405494  1.0
  B  B11  1  -0.62239354  0.17042622  -0.07594506  1.0
  B  B12  1  -0.88746934  -0.18772962  -0.81933538  1.0
  B  B13  1  -0.11253066  0.18772962  -0.18066462  1.0
  B  B14  1  -0.86692133  -0.57037473  -0.94516177  1.0
  B  B15  1  -0.13307867  0.57037473  -0.05483823  1.0
  B  B16  1  -0.87307756  -0.31859934  -0.56408927  1.0
  B  B17  1  -0.12692244  0.31859934  -0.43591073  1.0
  O  O18  1  -0.62049647  0.58217562  -0.37495437  1.0
  O  O19  1  -0.37950353  -0.58217562  -0.62504563  1.0
  O  O20  1  -0.11993392  0.29397084  -0.62864672  1.0
  O  O21  1  -0.88006608  -0.29397084  -0.37135328  1.0
  O  O22  1  -0.91228042  -0.02133333  -0.85581910  1.0
  O  O23  1  -0.08771958  0.02133333  -0.14418090  1.0
  O  O24  1  -0.37556227  0.04250898  -0.75511923  1.0
  O  O25  1  -0.62443773  -0.04250898  -0.24488077  1.0
  O  O26  1  -0.62564231  0.06382970  -0.62722160  1.0
  O  O27  1  -0.37435769  -0.06382970  -0.37277840  1.0
  O  O28  1  -0.13123175  -0.23374613  -0.88457754  1.0
  O  O29  1  -0.86876825  0.23374613  -0.11542246  1.0
  O  O30  1  -0.87192908  -0.39413489  -0.98179939  1.0
  O  O31  1  -0.12807092  0.39413489  -0.01820061  1.0
  O  O32  1  -0.38299218  -0.33746789  -0.89388582  1.0
  O  O33  1  -0.61700782  0.33746789  -0.10611418  1.0
  O  O34  1  -0.87833273  -0.14898744  -0.60842965  1.0
  O  O35  1  -0.12166727  0.14898744  -0.39157035  1.0
  O  O36  1  -0.86115989  -0.52656199  -0.73320551  1.0
  O  O37  1  -0.13884011  0.52656199  -0.26679449  1.0
  O  O38  1  -0.36850917  -0.82338506  -0.99837896  1.0
  O  O39  1  -0.63149083  0.82338506  -0.00162104  1.0
  O  O40  1  -0.62318841  -0.79695074  -0.86734823  1.0
  O  O41  1  -0.37681159  0.79695074  -0.13265177  1.0
