# generated using pymatgen
data_CdP(CO2)2
_symmetry_space_group_name_H-M   'P 1'
_cell_length_a   6.05455349
_cell_length_b   7.82156774
_cell_length_c   5.37240285
_cell_angle_alpha   90.00000000
_cell_angle_beta   90.00000000
_cell_angle_gamma   90.00000000
_symmetry_Int_Tables_number   1
_chemical_formula_structural   CdP(CO2)2
_chemical_formula_sum   'Cd2 P2 C4 O8'
_cell_volume   254.41604801
_cell_formula_units_Z   2
loop_
 _symmetry_equiv_pos_site_id
 _symmetry_equiv_pos_as_xyz
  1  'x, y, z'
loop_
 _atom_site_type_symbol
 _atom_site_label
 _atom_site_symmetry_multiplicity
 _atom_site_fract_x
 _atom_site_fract_y
 _atom_site_fract_z
 _atom_site_occupancy
  P  P0  1  0.50000000  0.78326534  0.74330078  1.0
  P  P1  1  0.00000000  0.21673466  0.24330078  1.0
  C  C2  1  0.50000000  0.40553606  0.84214713  1.0
  C  C3  1  0.00000000  0.59446394  0.34214713  1.0
  C  C4  1  0.50000000  0.56663559  0.81086222  1.0
  C  C5  1  0.00000000  0.43336441  0.31086222  1.0
  O  O6  1  0.29540798  0.86553791  0.87409892  1.0
  O  O7  1  0.70459202  0.86553791  0.87409892  1.0
  O  O8  1  0.79540798  0.13446209  0.37409892  1.0
  O  O9  1  0.20459202  0.13446209  0.37409892  1.0
  O  O10  1  0.50000000  0.25409722  0.87011176  1.0
  O  O11  1  0.00000000  0.74590278  0.37011176  1.0
  O  O12  1  0.50000000  0.79429092  0.46048712  1.0
  O  O13  1  0.00000000  0.20570908  -0.03951288  1.0
  Cd  Cd14  1  0.50000000  0.01201160  0.19409316  1.0
  Cd  Cd15  1  0.00000000  0.98798840  0.69409316  1.0
