# generated using pymatgen
data_CsYC4O9
_symmetry_space_group_name_H-M   'P 1'
_cell_length_a   8.79393905
_cell_length_b   6.44965114
_cell_length_c   12.44249304
_cell_angle_alpha   90.00000000
_cell_angle_beta   134.96951501
_cell_angle_gamma   90.00000000
_symmetry_Int_Tables_number   1
_chemical_formula_structural   CsYC4O9
_chemical_formula_sum   'Cs2 Y2 C8 O18'
_cell_volume   499.27869430
_cell_formula_units_Z   2
loop_
 _symmetry_equiv_pos_site_id
 _symmetry_equiv_pos_as_xyz
  1  'x, y, z'
loop_
 _atom_site_type_symbol
 _atom_site_label
 _atom_site_symmetry_multiplicity
 _atom_site_fract_x
 _atom_site_fract_y
 _atom_site_fract_z
 _atom_site_occupancy
  Y  Y0  1  0.00000000  0.98518768  0.25000000  1.0
  Y  Y1  1  -0.00000000  0.01481232  0.75000000  1.0
  C  C2  1  0.93307209  0.89712964  0.96468032  1.0
  C  C3  1  0.93307209  0.10287036  0.46468032  1.0
  C  C4  1  0.06692791  0.89712964  0.53531968  1.0
  C  C5  1  0.06692791  0.10287036  0.03531968  1.0
  C  C6  1  0.50387761  0.89706311  0.46851140  1.0
  C  C7  1  0.50387761  0.10293689  0.96851140  1.0
  C  C8  1  0.49612239  0.89706311  0.03148860  1.0
  C  C9  1  0.49612239  0.10293689  0.53148860  1.0
  O  O10  1  0.87400130  0.82410246  0.02499314  1.0
  O  O11  1  0.87400130  0.17589754  0.52499314  1.0
  O  O12  1  0.12599870  0.82410246  0.47500686  1.0
  O  O13  1  0.12599870  0.17589754  0.97500686  1.0
  O  O14  1  0.89241960  0.82173471  0.85336047  1.0
  O  O15  1  0.89241960  0.17826529  0.35336047  1.0
  O  O16  1  0.10758040  0.82173471  0.64663953  1.0
  O  O17  1  0.10758040  0.17826529  0.14663953  1.0
  O  O18  1  0.67565439  0.82407416  0.15086168  1.0
  O  O19  1  0.67565439  0.17592584  0.65086168  1.0
  O  O20  1  0.32434561  0.82407416  0.34913832  1.0
  O  O21  1  0.32434561  0.17592584  0.84913832  1.0
  O  O22  1  0.31404424  0.82158981  0.96064999  1.0
  O  O23  1  0.31404424  0.17841019  0.46064999  1.0
  O  O24  1  0.68595576  0.82158981  0.53935001  1.0
  O  O25  1  0.68595576  0.17841019  0.03935001  1.0
  O  O26  1  0.00000000  0.60872601  0.25000000  1.0
  O  O27  1  -0.00000000  0.39127399  0.75000000  1.0
  Cs  Cs28  1  0.50000000  0.49993575  0.25000000  1.0
  Cs  Cs29  1  0.50000000  0.50006425  0.75000000  1.0
