# generated using pymatgen
data_Pb2N2O7F2
_symmetry_space_group_name_H-M   'P 1'
_cell_length_a   8.44486915
_cell_length_b   8.44486915
_cell_length_c   5.37776128
_cell_angle_alpha   90.00000000
_cell_angle_beta   90.00000000
_cell_angle_gamma   35.07737995
_symmetry_Int_Tables_number   1
_chemical_formula_structural   Pb2N2O7F2
_chemical_formula_sum   'Pb2 N2 O7 F2'
_cell_volume   220.40179105
_cell_formula_units_Z   1
loop_
 _symmetry_equiv_pos_site_id
 _symmetry_equiv_pos_as_xyz
  1  'x, y, z'
loop_
 _atom_site_type_symbol
 _atom_site_label
 _atom_site_symmetry_multiplicity
 _atom_site_fract_x
 _atom_site_fract_y
 _atom_site_fract_z
 _atom_site_occupancy
  Pb  Pb0  1  -0.05335506  1.84013721  0.00000000  1.0
  Pb  Pb1  1  0.15986279  1.05335506  0.00000000  1.0
  O  O2  1  0.70505889  1.03019656  0.50000000  1.0
  O  O3  1  -0.03019656  1.29494111  0.50000000  1.0
  O  O4  1  0.32007166  1.32191064  0.70309585  1.0
  O  O5  1  -0.32191064  1.67992834  0.29690415  1.0
  O  O6  1  0.32007166  1.32191064  0.29690415  1.0
  O  O7  1  -0.32191064  1.67992834  0.70309585  1.0
  O  O8  1  -0.27438740  0.27438740  0.00000000  1.0
  F  F9  1  -0.80731496  0.80731496  0.24680878  1.0
  F  F10  1  -0.80731496  0.80731496  0.75319122  1.0
  N  N11  1  0.44580317  1.22747795  0.50000000  1.0
  N  N12  1  -0.22747795  1.55419683  0.50000000  1.0
