# generated using pymatgen
data_KNaCuP2O7
_symmetry_space_group_name_H-M   'P 1'
_cell_length_a   5.19080271
_cell_length_b   14.35921929
_cell_length_c   10.56073480
_cell_angle_alpha   90.00000000
_cell_angle_beta   117.28991364
_cell_angle_gamma   90.00000000
_symmetry_Int_Tables_number   1
_chemical_formula_structural   KNaCuP2O7
_chemical_formula_sum   'K4 Na4 Cu4 P8 O28'
_cell_volume   699.54180009
_cell_formula_units_Z   4
loop_
 _symmetry_equiv_pos_site_id
 _symmetry_equiv_pos_as_xyz
  1  'x, y, z'
loop_
 _atom_site_type_symbol
 _atom_site_label
 _atom_site_symmetry_multiplicity
 _atom_site_fract_x
 _atom_site_fract_y
 _atom_site_fract_z
 _atom_site_occupancy
  K  K0  1  0.62832501  0.60076726  0.38310771  1.0
  K  K1  1  0.37167499  0.10076726  0.11689229  1.0
  K  K2  1  0.37167499  0.39923274  0.61689229  1.0
  K  K3  1  0.62832501  0.89923274  0.88310771  1.0
  Na  Na4  1  0.07642727  0.29614571  0.83775046  1.0
  Na  Na5  1  0.92357273  0.79614571  0.66224954  1.0
  Na  Na6  1  0.92357273  0.70385429  0.16224954  1.0
  Na  Na7  1  0.07642727  0.20385429  0.33775046  1.0
  Cu  Cu8  1  0.44846172  0.33904626  0.21908326  1.0
  Cu  Cu9  1  0.55153828  0.83904626  0.28091674  1.0
  Cu  Cu10  1  0.55153828  0.66095374  0.78091674  1.0
  Cu  Cu11  1  0.44846172  0.16095374  0.71908326  1.0
  P  P12  1  0.97533727  0.45381452  0.25078708  1.0
  P  P13  1  0.02466273  0.95381452  0.24921292  1.0
  P  P14  1  0.02466273  0.54618548  0.74921292  1.0
  P  P15  1  0.97533727  0.04618548  0.75078708  1.0
  P  P16  1  0.77736439  0.31621816  0.03668922  1.0
  P  P17  1  0.22263561  0.81621816  0.46331078  1.0
  P  P18  1  0.22263561  0.68378184  0.96331078  1.0
  P  P19  1  0.77736439  0.18378184  0.53668922  1.0
  O  O20  1  0.04785385  0.55632653  0.26362954  1.0
  O  O21  1  0.95214615  0.05632653  0.23637046  1.0
  O  O22  1  0.95214615  0.44367347  0.73637046  1.0
  O  O23  1  0.04785385  0.94367347  0.76362954  1.0
  O  O24  1  0.75975666  0.43013337  0.31103091  1.0
  O  O25  1  0.24024334  0.93013337  0.18896909  1.0
  O  O26  1  0.24024334  0.56986663  0.68896909  1.0
  O  O27  1  0.75975666  0.06986663  0.81103091  1.0
  O  O28  1  0.24131382  0.38694848  0.32151251  1.0
  O  O29  1  0.75868618  0.88694848  0.17848749  1.0
  O  O30  1  0.75868618  0.61305152  0.67848749  1.0
  O  O31  1  0.24131382  0.11305152  0.82151251  1.0
  O  O32  1  0.81557061  0.42687986  0.08000023  1.0
  O  O33  1  0.18442939  0.92687986  0.41999977  1.0
  O  O34  1  0.18442939  0.57312014  0.91999977  1.0
  O  O35  1  0.81557061  0.07312014  0.58000023  1.0
  O  O36  1  0.56840418  0.30908388  0.87921054  1.0
  O  O37  1  0.43159582  0.80908388  0.62078946  1.0
  O  O38  1  0.43159582  0.69091612  0.12078946  1.0
  O  O39  1  0.56840418  0.19091612  0.37921054  1.0
  O  O40  1  0.66901788  0.26963810  0.13680507  1.0
  O  O41  1  0.33098212  0.76963810  0.36319493  1.0
  O  O42  1  0.33098212  0.73036190  0.86319493  1.0
  O  O43  1  0.66901788  0.23036190  0.63680507  1.0
  O  O44  1  0.08520979  0.27936582  0.07056151  1.0
  O  O45  1  0.91479021  0.77936582  0.42943849  1.0
  O  O46  1  0.91479021  0.72063418  0.92943849  1.0
  O  O47  1  0.08520979  0.22063418  0.57056151  1.0
