# generated using pymatgen
data_LaSn2
_symmetry_space_group_name_H-M   'P 1'
_cell_length_a   8.44305090
_cell_length_b   8.44305090
_cell_length_c   4.74347032
_cell_angle_alpha   90.00000000
_cell_angle_beta   90.00000000
_cell_angle_gamma   148.49586410
_symmetry_Int_Tables_number   1
_chemical_formula_structural   LaSn2
_chemical_formula_sum   'La2 Sn4'
_cell_volume   176.69784722
_cell_formula_units_Z   2
loop_
 _symmetry_equiv_pos_site_id
 _symmetry_equiv_pos_as_xyz
  1  'x, y, z'
loop_
 _atom_site_type_symbol
 _atom_site_label
 _atom_site_symmetry_multiplicity
 _atom_site_fract_x
 _atom_site_fract_y
 _atom_site_fract_z
 _atom_site_occupancy
  La  La0  1  -0.85450320  0.85450320  0.50000000  1.0
  La  La1  1  -0.14549680  1.14549680  0.50000000  1.0
  Sn  Sn2  1  -0.68447471  0.68447471  0.00000000  1.0
  Sn  Sn3  1  -0.31552529  1.31552529  0.00000000  1.0
  Sn  Sn4  1  0.50000000  0.50000000  0.50000000  1.0
  Sn  Sn5  1  0.00000000  0.00000000  0.00000000  1.0
