# generated using pymatgen
data_Sr6GdSc(BO3)6
_symmetry_space_group_name_H-M   'P 1'
_cell_length_a   7.85124127
_cell_length_b   7.85124127
_cell_length_c   7.85124127
_cell_angle_alpha   105.14064630
_cell_angle_beta   105.14064630
_cell_angle_gamma   105.14064630
_symmetry_Int_Tables_number   1
_chemical_formula_structural   Sr6GdSc(BO3)6
_chemical_formula_sum   'Sr6 Gd1 Sc1 B6 O18'
_cell_volume   421.82964977
_cell_formula_units_Z   1
loop_
 _symmetry_equiv_pos_site_id
 _symmetry_equiv_pos_as_xyz
  1  'x, y, z'
loop_
 _atom_site_type_symbol
 _atom_site_label
 _atom_site_symmetry_multiplicity
 _atom_site_fract_x
 _atom_site_fract_y
 _atom_site_fract_z
 _atom_site_occupancy
  Sr  Sr0  1  0.76713283  0.65094782  0.14125691  1.0
  Sr  Sr1  1  1.34905218  -0.14125691  0.23286717  1.0
  Sr  Sr2  1  0.85874309  0.23286717  0.34905218  1.0
  Sr  Sr3  1  1.23286717  0.34905218  -0.14125691  1.0
  Sr  Sr4  1  0.65094782  1.14125691  -0.23286717  1.0
  Sr  Sr5  1  1.14125691  0.76713283  -0.34905218  1.0
  Gd  Gd6  1  0.50000000  0.50000000  0.50000000  1.0
  Sc  Sc7  1  0.00000000  0.00000000  0.00000000  1.0
  B  B8  1  1.54420115  0.79329192  -0.11327975  1.0
  B  B9  1  1.20670808  0.11327975  -0.54420115  1.0
  B  B10  1  1.11327975  -0.54420115  0.20670808  1.0
  B  B11  1  0.45579885  0.20670808  0.11327975  1.0
  B  B12  1  0.79329192  0.88672025  0.54420115  1.0
  B  B13  1  0.88672025  1.54420115  -0.20670808  1.0
  O  O14  1  0.72061709  0.93317185  -0.00326065  1.0
  O  O15  1  1.06682815  0.00326065  -0.72061709  1.0
  O  O16  1  1.00326065  -0.72061709  0.06682815  1.0
  O  O17  1  0.27938291  0.06682815  0.00326065  1.0
  O  O18  1  0.93317185  0.99673935  -0.27938291  1.0
  O  O19  1  0.99673935  0.72061709  -0.06682815  1.0
  O  O20  1  1.47382020  0.76610471  -0.30432830  1.0
  O  O21  1  1.23389529  0.30432830  -0.47382020  1.0
  O  O22  1  1.30432830  -0.47382020  0.23389529  1.0
  O  O23  1  0.52617980  0.23389529  0.30432830  1.0
  O  O24  1  0.76610471  0.69567170  0.47382020  1.0
  O  O25  1  0.69567170  1.47382020  -0.23389529  1.0
  O  O26  1  0.55495699  0.30990322  0.03148386  1.0
  O  O27  1  0.69009678  0.96851614  0.44504301  1.0
  O  O28  1  0.96851614  1.44504301  -0.30990322  1.0
  O  O29  1  1.44504301  0.69009678  -0.03148386  1.0
  O  O30  1  1.30990322  0.03148386  -0.44504301  1.0
  O  O31  1  1.03148386  -0.44504301  0.30990322  1.0
