# generated using pymatgen
data_Ir2S3
_symmetry_space_group_name_H-M   'P 1'
_cell_length_a   8.52750342
_cell_length_b   6.05960984
_cell_length_c   6.18539742
_cell_angle_alpha   90.00000000
_cell_angle_beta   90.00000000
_cell_angle_gamma   90.00000000
_symmetry_Int_Tables_number   1
_chemical_formula_structural   Ir2S3
_chemical_formula_sum   'Ir8 S12'
_cell_volume   319.62016652
_cell_formula_units_Z   4
loop_
 _symmetry_equiv_pos_site_id
 _symmetry_equiv_pos_as_xyz
  1  'x, y, z'
loop_
 _atom_site_type_symbol
 _atom_site_label
 _atom_site_symmetry_multiplicity
 _atom_site_fract_x
 _atom_site_fract_y
 _atom_site_fract_z
 _atom_site_occupancy
  Ir  Ir0  1  0.10822143  0.25087379  0.52942156  1.0
  Ir  Ir1  1  0.10822143  0.74912621  0.02942156  1.0
  Ir  Ir2  1  0.60822143  0.75087379  0.97057844  1.0
  Ir  Ir3  1  0.60822143  0.24912621  0.47057844  1.0
  Ir  Ir4  1  0.89177857  0.25087379  0.97057844  1.0
  Ir  Ir5  1  0.89177857  0.74912621  0.47057844  1.0
  Ir  Ir6  1  0.39177857  0.75087379  0.52942156  1.0
  Ir  Ir7  1  0.39177857  0.24912621  0.02942156  1.0
  S  S8  1  0.14998411  0.39053165  0.89103910  1.0
  S  S9  1  0.14998411  0.60946835  0.39103910  1.0
  S  S10  1  0.64998411  0.89053165  0.60896090  1.0
  S  S11  1  0.64998411  0.10946835  0.10896090  1.0
  S  S12  1  0.85001589  0.39053165  0.60896090  1.0
  S  S13  1  0.85001589  0.60946835  0.10896090  1.0
  S  S14  1  0.35001589  0.89053165  0.89103910  1.0
  S  S15  1  0.35001589  0.10946835  0.39103910  1.0
  S  S16  1  0.50000000  0.45595331  0.75000000  1.0
  S  S17  1  0.50000000  0.54404669  0.25000000  1.0
  S  S18  1  0.00000000  0.95595331  0.75000000  1.0
  S  S19  1  0.00000000  0.04404669  0.25000000  1.0
