# generated using pymatgen
data_Rb2Ge2Se5
_symmetry_space_group_name_H-M   'P 1'
_cell_length_a   12.23360889
_cell_length_b   12.23360889
_cell_length_c   9.12609319
_cell_angle_alpha   89.94584693
_cell_angle_beta   90.05415307
_cell_angle_gamma   90.05067930
_symmetry_Int_Tables_number   1
_chemical_formula_structural   Rb2Ge2Se5
_chemical_formula_sum   'Rb8 Ge8 Se20'
_cell_volume   1365.82018101
_cell_formula_units_Z   4
loop_
 _symmetry_equiv_pos_site_id
 _symmetry_equiv_pos_as_xyz
  1  'x, y, z'
loop_
 _atom_site_type_symbol
 _atom_site_label
 _atom_site_symmetry_multiplicity
 _atom_site_fract_x
 _atom_site_fract_y
 _atom_site_fract_z
 _atom_site_occupancy
  Rb  Rb0  1  1.25073126  -0.04297554  0.93233432  1.0
  Rb  Rb1  1  1.04297554  -0.25073126  0.43233432  1.0
  Rb  Rb2  1  0.95702446  0.25073126  0.56766568  1.0
  Rb  Rb3  1  0.74926874  0.04297554  0.06766568  1.0
  Rb  Rb4  1  0.54288382  0.25009230  0.56731444  1.0
  Rb  Rb5  1  0.74990770  0.45711618  0.06731444  1.0
  Rb  Rb6  1  1.25009230  -0.45711618  0.93268556  1.0
  Rb  Rb7  1  1.45711618  -0.25009230  0.43268556  1.0
  Ge  Ge8  1  1.58975421  -0.25004860  0.89848462  1.0
  Ge  Ge9  1  1.25004860  -0.58975421  0.39848462  1.0
  Ge  Ge10  1  0.74995140  0.58975421  0.60151538  1.0
  Ge  Ge11  1  0.41024579  0.25004860  0.10151538  1.0
  Ge  Ge12  1  1.75017185  -0.08897801  0.60179184  1.0
  Ge  Ge13  1  1.08897801  -0.75017185  0.10179184  1.0
  Ge  Ge14  1  0.91102199  0.75017185  0.89820816  1.0
  Ge  Ge15  1  0.24982815  0.08897801  0.39820816  1.0
  Se  Se16  1  1.74997367  -0.24942438  0.44462123  1.0
  Se  Se17  1  1.24942438  -0.74997367  0.94462123  1.0
  Se  Se18  1  0.75057562  0.74997367  0.05537877  1.0
  Se  Se19  1  0.25002633  0.24942438  0.55537877  1.0
  Se  Se20  1  1.58657778  -0.08621081  0.75021926  1.0
  Se  Se21  1  1.08621081  -0.58657778  0.25021926  1.0
  Se  Se22  1  0.91378919  0.58657778  0.74978074  1.0
  Se  Se23  1  0.41342222  0.08621081  0.24978074  1.0
  Se  Se24  1  0.74996548  0.06486202  0.45788232  1.0
  Se  Se25  1  0.93513798  0.25003452  0.95788232  1.0
  Se  Se26  1  1.06486202  -0.25003452  0.04211768  1.0
  Se  Se27  1  1.25003452  -0.06486202  0.54211768  1.0
  Se  Se28  1  0.56380550  0.25020662  0.95743800  1.0
  Se  Se29  1  0.74979338  0.43619450  0.45743800  1.0
  Se  Se30  1  1.25020662  -0.43619450  0.54256200  1.0
  Se  Se31  1  1.43619450  -0.25020662  0.04256200  1.0
  Se  Se32  1  0.91401771  0.91401771  0.75000000  1.0
  Se  Se33  1  0.08598229  0.08598229  0.25000000  1.0
  Se  Se34  1  0.58640798  0.58640798  0.75000000  1.0
  Se  Se35  1  0.41359202  0.41359202  0.25000000  1.0
