# generated using pymatgen
data_K(IrO2)4
_symmetry_space_group_name_H-M   'P 1'
_cell_length_a   7.27968228
_cell_length_b   7.27968228
_cell_length_c   10.04387547
_cell_angle_alpha   46.35988492
_cell_angle_beta   133.64011508
_cell_angle_gamma   154.58578173
_symmetry_Int_Tables_number   1
_chemical_formula_structural   K(IrO2)4
_chemical_formula_sum   'K1 Ir4 O8'
_cell_volume   161.44193219
_cell_formula_units_Z   1
loop_
 _symmetry_equiv_pos_site_id
 _symmetry_equiv_pos_as_xyz
  1  'x, y, z'
loop_
 _atom_site_type_symbol
 _atom_site_label
 _atom_site_symmetry_multiplicity
 _atom_site_fract_x
 _atom_site_fract_y
 _atom_site_fract_z
 _atom_site_occupancy
  K  K0  1  0.00000000  0.00000000  0.00000000  1.0
  Ir  Ir1  1  0.66720718  -0.66720718  0.81547992  1.0
  Ir  Ir2  1  0.33279282  -0.33279282  0.18452008  1.0
  Ir  Ir3  1  1.14834901  -0.14834901  0.48121433  1.0
  Ir  Ir4  1  0.85165099  0.14834901  0.51878567  1.0
  O  O5  1  0.95278157  0.04721843  0.29217080  1.0
  O  O6  1  1.04721843  -0.04721843  0.70782920  1.0
  O  O7  1  0.33903981  -0.33903981  0.38624802  1.0
  O  O8  1  0.66096019  -0.66096019  0.61375198  1.0
  O  O9  1  0.35040753  -0.35040753  0.64914981  1.0
  O  O10  1  0.64959247  -0.64959247  0.35085019  1.0
  O  O11  1  0.70111982  0.29888018  0.05142046  1.0
  O  O12  1  1.29888018  -0.29888018  0.94857954  1.0
