# generated using pymatgen
data_CoO4
_symmetry_space_group_name_H-M   'P 1'
_cell_length_a   5.25685148
_cell_length_b   5.80373094
_cell_length_c   5.14959153
_cell_angle_alpha   90.00000000
_cell_angle_beta   77.24895986
_cell_angle_gamma   90.00000000
_symmetry_Int_Tables_number   1
_chemical_formula_structural   CoO4
_chemical_formula_sum   'Co2 O8'
_cell_volume   153.23608367
_cell_formula_units_Z   2
loop_
 _symmetry_equiv_pos_site_id
 _symmetry_equiv_pos_as_xyz
  1  'x, y, z'
loop_
 _atom_site_type_symbol
 _atom_site_label
 _atom_site_symmetry_multiplicity
 _atom_site_fract_x
 _atom_site_fract_y
 _atom_site_fract_z
 _atom_site_occupancy
  Co  Co0  1  0.32095044  0.75000000  0.62816748  1.0
  Co  Co1  1  0.67904956  0.25000000  0.37183252  1.0
  O  O2  1  0.16406407  0.51885408  0.73855426  1.0
  O  O3  1  0.83593593  0.01885408  0.26144574  1.0
  O  O4  1  0.83593593  0.48114592  0.26144574  1.0
  O  O5  1  0.16406407  0.98114592  0.73855426  1.0
  O  O6  1  0.60083047  0.75000000  0.70984697  1.0
  O  O7  1  0.39916953  0.25000000  0.29015303  1.0
  O  O8  1  0.38064866  0.75000000  0.30611183  1.0
  O  O9  1  0.61935134  0.25000000  0.69388817  1.0
