# generated using pymatgen
data_CrO2
_symmetry_space_group_name_H-M   'P 1'
_cell_length_a   4.32387521
_cell_length_b   5.39474943
_cell_length_c   4.87362235
_cell_angle_alpha   90.00000000
_cell_angle_beta   90.00000000
_cell_angle_gamma   90.00000000
_symmetry_Int_Tables_number   1
_chemical_formula_structural   CrO2
_chemical_formula_sum   'Cr4 O8'
_cell_volume   113.68320350
_cell_formula_units_Z   4
loop_
 _symmetry_equiv_pos_site_id
 _symmetry_equiv_pos_as_xyz
  1  'x, y, z'
loop_
 _atom_site_type_symbol
 _atom_site_label
 _atom_site_symmetry_multiplicity
 _atom_site_fract_x
 _atom_site_fract_y
 _atom_site_fract_z
 _atom_site_occupancy
  Cr  Cr0  1  0.50000000  0.35323055  0.25000000  1.0
  Cr  Cr1  1  -0.00000000  0.14676945  0.75000000  1.0
  Cr  Cr2  1  0.50000000  0.64676945  0.75000000  1.0
  Cr  Cr3  1  -0.00000000  0.85323055  0.25000000  1.0
  O  O4  1  0.23332435  0.11810338  0.41740568  1.0
  O  O5  1  0.26667565  0.38189662  0.91740568  1.0
  O  O6  1  0.73332435  0.38189662  0.58259432  1.0
  O  O7  1  0.76667565  0.11810338  0.08259432  1.0
  O  O8  1  0.76667565  0.88189662  0.58259432  1.0
  O  O9  1  0.73332435  0.61810338  0.08259432  1.0
  O  O10  1  0.26667565  0.61810338  0.41740568  1.0
  O  O11  1  0.23332435  0.88189662  0.91740568  1.0
