# generated using pymatgen
data_AgW3Br7
_symmetry_space_group_name_H-M   'P 1'
_cell_length_a   10.05368037
_cell_length_b   16.07662074
_cell_length_c   10.22564140
_cell_angle_alpha   90.00000000
_cell_angle_beta   121.21431690
_cell_angle_gamma   90.00000000
_symmetry_Int_Tables_number   1
_chemical_formula_structural   AgW3Br7
_chemical_formula_sum   'Ag4 W12 Br28'
_cell_volume   1413.49982318
_cell_formula_units_Z   4
loop_
 _symmetry_equiv_pos_site_id
 _symmetry_equiv_pos_as_xyz
  1  'x, y, z'
loop_
 _atom_site_type_symbol
 _atom_site_label
 _atom_site_symmetry_multiplicity
 _atom_site_fract_x
 _atom_site_fract_y
 _atom_site_fract_z
 _atom_site_occupancy
  Ag  Ag0  1  0.58640678  0.28873287  0.41363562  1.0
  Ag  Ag1  1  0.58640678  0.21126713  0.91363562  1.0
  Ag  Ag2  1  0.41359322  0.78873287  0.08636438  1.0
  Ag  Ag3  1  0.41359322  0.71126713  0.58636438  1.0
  W  W4  1  0.90839262  0.03860162  0.29635917  1.0
  W  W5  1  0.90839262  0.46139838  0.79635917  1.0
  W  W6  1  0.09160738  0.53860162  0.20364083  1.0
  W  W7  1  0.09160738  0.96139838  0.70364083  1.0
  W  W8  1  0.86626599  0.90823066  0.43153671  1.0
  W  W9  1  0.86626599  0.59176934  0.93153671  1.0
  W  W10  1  0.13373401  0.40823066  0.06846329  1.0
  W  W11  1  0.13373401  0.09176934  0.56846329  1.0
  W  W12  1  0.85571245  0.43991836  0.02297056  1.0
  W  W13  1  0.85571245  0.06008164  0.52297056  1.0
  W  W14  1  0.14428755  0.93991836  0.47702944  1.0
  W  W15  1  0.14428755  0.56008164  0.97702944  1.0
  Br  Br16  1  0.91813577  0.88665847  0.20441307  1.0
  Br  Br17  1  0.91813577  0.61334153  0.70441307  1.0
  Br  Br18  1  0.08186423  0.38665847  0.29558693  1.0
  Br  Br19  1  0.08186423  0.11334153  0.79558693  1.0
  Br  Br20  1  0.89641584  0.19047456  0.38655405  1.0
  Br  Br21  1  0.89641584  0.30952544  0.88655405  1.0
  Br  Br22  1  0.10358416  0.69047456  0.11344595  1.0
  Br  Br23  1  0.10358416  0.80952544  0.61344595  1.0
  Br  Br24  1  0.78447205  0.41222752  0.50810375  1.0
  Br  Br25  1  0.78447205  0.08777248  1.00810375  1.0
  Br  Br26  1  0.21552795  0.91222752  -0.00810375  1.0
  Br  Br27  1  0.21552795  0.58777248  0.49189625  1.0
  Br  Br28  1  0.68708762  0.77398874  0.34128639  1.0
  Br  Br29  1  0.68708762  0.72601126  0.84128639  1.0
  Br  Br30  1  0.31291238  0.27398874  0.15871361  1.0
  Br  Br31  1  0.31291238  0.22601126  0.65871361  1.0
  Br  Br32  1  0.64853863  0.35765162  0.05798783  1.0
  Br  Br33  1  0.64853863  0.14234838  0.55798783  1.0
  Br  Br34  1  0.35146137  0.85765162  0.44201217  1.0
  Br  Br35  1  0.35146137  0.64234838  0.94201217  1.0
  Br  Br36  1  0.62942019  0.00667970  0.25056952  1.0
  Br  Br37  1  0.62942019  0.49332030  0.75056952  1.0
  Br  Br38  1  0.37057981  0.50667970  0.24943048  1.0
  Br  Br39  1  0.37057981  -0.00667970  0.74943048  1.0
  Br  Br40  1  0.18710001  0.07004174  0.34259302  1.0
  Br  Br41  1  0.18710001  0.42995826  0.84259302  1.0
  Br  Br42  1  0.81289999  0.57004174  0.15740698  1.0
  Br  Br43  1  0.81289999  0.92995826  0.65740698  1.0
