# generated using pymatgen
data_GaCuSe2
_symmetry_space_group_name_H-M   'P 1'
_cell_length_a   6.90863880
_cell_length_b   6.90863880
_cell_length_c   6.90863880
_cell_angle_alpha   131.54440010
_cell_angle_beta   131.54440010
_cell_angle_gamma   70.94955625
_symmetry_Int_Tables_number   1
_chemical_formula_structural   GaCuSe2
_chemical_formula_sum   'Ga2 Cu2 Se4'
_cell_volume   180.88459104
_cell_formula_units_Z   2
loop_
 _symmetry_equiv_pos_site_id
 _symmetry_equiv_pos_as_xyz
  1  'x, y, z'
loop_
 _atom_site_type_symbol
 _atom_site_label
 _atom_site_symmetry_multiplicity
 _atom_site_fract_x
 _atom_site_fract_y
 _atom_site_fract_z
 _atom_site_occupancy
  Ga  Ga0  1  0.75000000  0.25000000  0.50000000  1.0
  Ga  Ga1  1  1.00000000  1.00000000  1.00000000  1.0
  Cu  Cu2  1  0.25000000  0.75000000  0.50000000  1.0
  Cu  Cu3  1  0.50000000  0.50000000  0.00000000  1.0
  Se  Se4  1  1.13118151  1.12500000  1.50618151  1.0
  Se  Se5  1  1.37500000  0.86881849  0.99381849  1.0
  Se  Se6  1  0.87500000  1.38118151  1.00618151  1.0
  Se  Se7  1  0.61881849  0.62500000  0.49381849  1.0
