# generated using pymatgen
data_NaGeAu3
_symmetry_space_group_name_H-M   'P 1'
_cell_length_a   9.14834882
_cell_length_b   9.14834882
_cell_length_c   9.14834882
_cell_angle_alpha   90.00000000
_cell_angle_beta   90.00000000
_cell_angle_gamma   90.00000000
_symmetry_Int_Tables_number   1
_chemical_formula_structural   NaGeAu3
_chemical_formula_sum   'Na8 Ge8 Au24'
_cell_volume   765.64622767
_cell_formula_units_Z   8
loop_
 _symmetry_equiv_pos_site_id
 _symmetry_equiv_pos_as_xyz
  1  'x, y, z'
loop_
 _atom_site_type_symbol
 _atom_site_label
 _atom_site_symmetry_multiplicity
 _atom_site_fract_x
 _atom_site_fract_y
 _atom_site_fract_z
 _atom_site_occupancy
  Na  Na0  1  0.40137500  0.90137500  0.59862500  1.0
  Na  Na1  1  0.40137500  0.59862500  0.09862500  1.0
  Na  Na2  1  0.90137500  0.90137500  0.90137500  1.0
  Na  Na3  1  0.90137500  0.59862500  0.40137500  1.0
  Na  Na4  1  0.59862500  0.40137500  0.90137500  1.0
  Na  Na5  1  0.59862500  0.09862500  0.40137500  1.0
  Na  Na6  1  0.09862500  0.40137500  0.59862500  1.0
  Na  Na7  1  0.09862500  0.09862500  0.09862500  1.0
  Ge  Ge8  1  0.11209615  0.61209615  0.88790385  1.0
  Ge  Ge9  1  0.11209615  0.88790385  0.38790385  1.0
  Ge  Ge10  1  0.61209615  0.61209615  0.61209615  1.0
  Ge  Ge11  1  0.61209615  0.88790385  0.11209615  1.0
  Ge  Ge12  1  0.88790385  0.11209615  0.61209615  1.0
  Ge  Ge13  1  0.88790385  0.38790385  0.11209615  1.0
  Ge  Ge14  1  0.38790385  0.11209615  0.88790385  1.0
  Ge  Ge15  1  0.38790385  0.38790385  0.38790385  1.0
  Au  Au16  1  0.36062030  0.58951222  0.73117259  1.0
  Au  Au17  1  0.36062030  0.91048778  0.23117259  1.0
  Au  Au18  1  0.86062030  0.58951222  0.76882741  1.0
  Au  Au19  1  0.86062030  0.91048778  0.26882741  1.0
  Au  Au20  1  0.08951222  0.76882741  0.63937970  1.0
  Au  Au21  1  0.08951222  0.73117259  0.13937970  1.0
  Au  Au22  1  0.58951222  0.76882741  0.86062030  1.0
  Au  Au23  1  0.58951222  0.73117259  0.36062030  1.0
  Au  Au24  1  0.26882741  0.86062030  0.91048778  1.0
  Au  Au25  1  0.26882741  0.63937970  0.41048778  1.0
  Au  Au26  1  0.76882741  0.86062030  0.58951222  1.0
  Au  Au27  1  0.76882741  0.63937970  0.08951222  1.0
  Au  Au28  1  0.63937970  0.08951222  0.76882741  1.0
  Au  Au29  1  0.63937970  0.41048778  0.26882741  1.0
  Au  Au30  1  0.13937970  0.08951222  0.73117259  1.0
  Au  Au31  1  0.13937970  0.41048778  0.23117259  1.0
  Au  Au32  1  0.91048778  0.26882741  0.86062030  1.0
  Au  Au33  1  0.91048778  0.23117259  0.36062030  1.0
  Au  Au34  1  0.41048778  0.26882741  0.63937970  1.0
  Au  Au35  1  0.41048778  0.23117259  0.13937970  1.0
  Au  Au36  1  0.73117259  0.36062030  0.58951222  1.0
  Au  Au37  1  0.73117259  0.13937970  0.08951222  1.0
  Au  Au38  1  0.23117259  0.36062030  0.91048778  1.0
  Au  Au39  1  0.23117259  0.13937970  0.41048778  1.0
