# generated using pymatgen
data_Ti4O5
_symmetry_space_group_name_H-M   'P 1'
_cell_length_a   5.13126731
_cell_length_b   5.13126731
_cell_length_c   5.13126731
_cell_angle_alpha   99.50585628
_cell_angle_beta   99.50585628
_cell_angle_gamma   132.04415950
_symmetry_Int_Tables_number   1
_chemical_formula_structural   Ti4O5
_chemical_formula_sum   'Ti4 O5'
_cell_volume   91.67488937
_cell_formula_units_Z   1
loop_
 _symmetry_equiv_pos_site_id
 _symmetry_equiv_pos_as_xyz
  1  'x, y, z'
loop_
 _atom_site_type_symbol
 _atom_site_label
 _atom_site_symmetry_multiplicity
 _atom_site_fract_x
 _atom_site_fract_y
 _atom_site_fract_z
 _atom_site_occupancy
  Ti  Ti0  1  0.89231360  0.71633441  0.60864802  1.0
  Ti  Ti1  1  0.71633441  0.10768640  0.82402081  1.0
  Ti  Ti2  1  1.10768640  1.28366559  1.39135198  1.0
  Ti  Ti3  1  0.28366559  0.89231360  1.17597919  1.0
  O  O4  1  0.00000000  0.00000000  0.00000000  1.0
  O  O5  1  0.59194973  0.80949387  1.40144361  1.0
  O  O6  1  0.80949387  1.40805027  1.21754414  1.0
  O  O7  1  0.40805027  0.19050613  0.59855639  1.0
  O  O8  1  1.19050613  0.59194973  0.78245586  1.0
