# generated using pymatgen
data_BaSb3
_symmetry_space_group_name_H-M   'P 1'
_cell_length_a   6.97066308
_cell_length_b   6.97066308
_cell_length_c   6.56670406
_cell_angle_alpha   72.29508171
_cell_angle_beta   107.70491829
_cell_angle_gamma   103.79845553
_symmetry_Int_Tables_number   1
_chemical_formula_structural   BaSb3
_chemical_formula_sum   'Ba2 Sb6'
_cell_volume   285.79400628
_cell_formula_units_Z   2
loop_
 _symmetry_equiv_pos_site_id
 _symmetry_equiv_pos_as_xyz
  1  'x, y, z'
loop_
 _atom_site_type_symbol
 _atom_site_label
 _atom_site_symmetry_multiplicity
 _atom_site_fract_x
 _atom_site_fract_y
 _atom_site_fract_z
 _atom_site_occupancy
  Ba  Ba0  1  0.83477414  0.16522586  0.67884960  1.0
  Ba  Ba1  1  1.16522586  -0.16522586  0.32115040  1.0
  Sb  Sb2  1  0.35734821  0.08179239  0.79707279  1.0
  Sb  Sb3  1  0.91820761  0.64265179  0.79707279  1.0
  Sb  Sb4  1  1.08179239  -0.64265179  0.20292721  1.0
  Sb  Sb5  1  1.64265179  -0.08179239  0.20292721  1.0
  Sb  Sb6  1  1.48708654  -0.48708654  0.77134009  1.0
  Sb  Sb7  1  0.51291346  0.48708654  0.22865991  1.0
