# generated using pymatgen
data_GdSiOs2C
_symmetry_space_group_name_H-M   'P 1'
_cell_length_a   5.88652403
_cell_length_b   5.88652403
_cell_length_c   7.15280383
_cell_angle_alpha   90.00000000
_cell_angle_beta   90.00000000
_cell_angle_gamma   141.28474098
_symmetry_Int_Tables_number   1
_chemical_formula_structural   GdSiOs2C
_chemical_formula_sum   'Gd2 Si2 Os4 C2'
_cell_volume   155.01976909
_cell_formula_units_Z   2
loop_
 _symmetry_equiv_pos_site_id
 _symmetry_equiv_pos_as_xyz
  1  'x, y, z'
loop_
 _atom_site_type_symbol
 _atom_site_label
 _atom_site_symmetry_multiplicity
 _atom_site_fract_x
 _atom_site_fract_y
 _atom_site_fract_z
 _atom_site_occupancy
  Gd  Gd0  1  0.45145955  0.54854045  0.75000000  1.0
  Gd  Gd1  1  -0.45145955  0.45145955  0.25000000  1.0
  Si  Si2  1  -0.26955061  0.26955061  0.75000000  1.0
  Si  Si3  1  0.26955061  0.73044939  0.25000000  1.0
  Os  Os4  1  0.16561279  0.83438721  0.94089245  1.0
  Os  Os5  1  0.16561279  0.83438721  0.55910755  1.0
  Os  Os6  1  -0.16561279  0.16561279  0.44089245  1.0
  Os  Os7  1  -0.16561279  0.16561279  0.05910755  1.0
  C  C8  1  0.00000000  0.00000000  0.00000000  1.0
  C  C9  1  0.00000000  0.00000000  0.50000000  1.0
