# generated using pymatgen
data_Ca5Zn3
_symmetry_space_group_name_H-M   'P 1'
_cell_length_a   9.47868840
_cell_length_b   9.47868840
_cell_length_c   9.47868840
_cell_angle_alpha   130.97391190
_cell_angle_beta   130.97391190
_cell_angle_gamma   71.85453083
_symmetry_Int_Tables_number   1
_chemical_formula_structural   Ca5Zn3
_chemical_formula_sum   'Ca10 Zn6'
_cell_volume   474.84305946
_cell_formula_units_Z   2
loop_
 _symmetry_equiv_pos_site_id
 _symmetry_equiv_pos_as_xyz
  1  'x, y, z'
loop_
 _atom_site_type_symbol
 _atom_site_label
 _atom_site_symmetry_multiplicity
 _atom_site_fract_x
 _atom_site_fract_y
 _atom_site_fract_z
 _atom_site_occupancy
  Ca  Ca0  1  1.18217430  0.68217430  1.15880424  1.0
  Ca  Ca1  1  0.47662993  0.97662993  1.15880424  1.0
  Ca  Ca2  1  1.02337007  1.18217430  1.50000000  1.0
  Ca  Ca3  1  0.31782570  0.47662993  0.50000000  1.0
  Ca  Ca4  1  0.68217430  0.52337007  0.50000000  1.0
  Ca  Ca5  1  0.97662993  0.81782570  1.50000000  1.0
  Ca  Ca6  1  0.52337007  1.02337007  0.84119576  1.0
  Ca  Ca7  1  0.81782570  0.31782570  0.84119576  1.0
  Ca  Ca8  1  0.00000000  0.00000000  0.00000000  1.0
  Ca  Ca9  1  0.50000000  0.50000000  1.00000000  1.0
  Zn  Zn10  1  0.88291699  0.38291699  1.26583397  1.0
  Zn  Zn11  1  0.61708301  0.88291699  1.50000000  1.0
  Zn  Zn12  1  0.38291699  0.11708301  0.50000000  1.0
  Zn  Zn13  1  0.11708301  0.61708301  0.73416603  1.0
  Zn  Zn14  1  0.75000000  0.75000000  1.00000000  1.0
  Zn  Zn15  1  0.25000000  0.25000000  -0.00000000  1.0
