# generated using pymatgen
data_Pd(NO3)2
_symmetry_space_group_name_H-M   'P 1'
_cell_length_a   5.34721668
_cell_length_b   5.96268260
_cell_length_c   8.22060236
_cell_angle_alpha   90.00000000
_cell_angle_beta   105.17194585
_cell_angle_gamma   90.00000000
_symmetry_Int_Tables_number   1
_chemical_formula_structural   Pd(NO3)2
_chemical_formula_sum   'Pd2 N4 O12'
_cell_volume   252.96799132
_cell_formula_units_Z   2
loop_
 _symmetry_equiv_pos_site_id
 _symmetry_equiv_pos_as_xyz
  1  'x, y, z'
loop_
 _atom_site_type_symbol
 _atom_site_label
 _atom_site_symmetry_multiplicity
 _atom_site_fract_x
 _atom_site_fract_y
 _atom_site_fract_z
 _atom_site_occupancy
  Pd  Pd0  1  0.00000000  -0.00000000  0.00000000  1.0
  Pd  Pd1  1  0.00000000  0.50000000  0.50000000  1.0
  N  N2  1  0.25921250  0.31502384  0.82036609  1.0
  N  N3  1  0.25921250  0.18497616  0.32036609  1.0
  N  N4  1  0.74078750  0.68497616  0.17963391  1.0
  N  N5  1  0.74078750  0.81502384  0.67963391  1.0
  O  O6  1  0.28844454  0.18820053  0.95116101  1.0
  O  O7  1  0.28844454  0.31179947  0.45116101  1.0
  O  O8  1  0.71155546  0.81179947  0.04883899  1.0
  O  O9  1  0.71155546  0.68820053  0.54883899  1.0
  O  O10  1  0.03236342  0.31145555  0.71250641  1.0
  O  O11  1  0.03236342  0.18854445  0.21250641  1.0
  O  O12  1  0.96763658  0.68854445  0.28749359  1.0
  O  O13  1  0.96763658  0.81145555  0.78749359  1.0
  O  O14  1  0.43802143  0.42915538  0.80320804  1.0
  O  O15  1  0.43802143  0.07084462  0.30320804  1.0
  O  O16  1  0.56197857  0.57084462  0.19679196  1.0
  O  O17  1  0.56197857  0.92915538  0.69679196  1.0
