# generated using pymatgen
data_NaAl6Fe3Si6B3O31
_symmetry_space_group_name_H-M   'P 1'
_cell_length_a   9.55385640
_cell_length_b   9.55385640
_cell_length_c   9.55385640
_cell_angle_alpha   113.70793581
_cell_angle_beta   113.70793581
_cell_angle_gamma   113.70793581
_symmetry_Int_Tables_number   1
_chemical_formula_structural   NaAl6Fe3Si6B3O31
_chemical_formula_sum   'Na1 Al6 Fe3 Si6 B3 O31'
_cell_volume   541.09052529
_cell_formula_units_Z   1
loop_
 _symmetry_equiv_pos_site_id
 _symmetry_equiv_pos_as_xyz
  1  'x, y, z'
loop_
 _atom_site_type_symbol
 _atom_site_label
 _atom_site_symmetry_multiplicity
 _atom_site_fract_x
 _atom_site_fract_y
 _atom_site_fract_z
 _atom_site_occupancy
  B  B0  1  0.77064627  0.43464665  0.43464665  1.0
  B  B1  1  0.43464665  0.77064627  -0.56535335  1.0
  B  B2  1  0.43464665  0.43464665  -0.22935373  1.0
  Fe  Fe3  1  0.43752777  1.24125486  -0.56247223  1.0
  Fe  Fe4  1  0.43752777  0.43752777  0.24125486  1.0
  Fe  Fe5  1  1.24125486  0.43752777  0.43752777  1.0
  Na  Na6  1  0.76651007  0.76651007  0.76651007  1.0
  Si  Si7  1  0.19038253  0.80750568  -1.00077315  1.0
  Si  Si8  1  0.99922685  1.19038253  -0.19249432  1.0
  Si  Si9  1  0.80750568  -0.00077315  0.19038253  1.0
  Si  Si10  1  0.80750568  0.19038253  -0.00077315  1.0
  Si  Si11  1  0.99922685  0.80750568  0.19038253  1.0
  Si  Si12  1  0.19038253  -0.00077315  -0.19249432  1.0
  Al  Al13  1  0.65034098  1.09505880  -0.57096065  1.0
  Al  Al14  1  0.42903935  0.65034098  -0.90494120  1.0
  Al  Al15  1  1.09505880  0.42903935  0.65034098  1.0
  Al  Al16  1  1.09505880  0.65034098  0.42903935  1.0
  Al  Al17  1  0.42903935  0.09505880  -0.34965902  1.0
  Al  Al18  1  0.65034098  0.42903935  0.09505880  1.0
  O  O19  1  1.10670730  0.82621998  0.82621998  1.0
  O  O20  1  0.82621998  1.10670730  -0.17378002  1.0
  O  O21  1  0.82621998  0.82621998  0.10670730  1.0
  O  O22  1  1.01081836  1.73525676  0.01081836  1.0
  O  O23  1  1.01081836  1.01081836  0.73525676  1.0
  O  O24  1  0.73525676  0.01081836  0.01081836  1.0
  O  O25  1  0.41233287  1.02895105  -0.77656504  1.0
  O  O26  1  1.22343496  1.41233287  0.02895105  1.0
  O  O27  1  1.02895105  0.22343496  0.41233287  1.0
  O  O28  1  1.02895105  0.41233287  0.22343496  1.0
  O  O29  1  1.22343496  1.02895105  0.41233287  1.0
  O  O30  1  0.41233287  0.22343496  0.02895105  1.0
  O  O31  1  1.20828407  0.63562043  0.91948739  1.0
  O  O32  1  0.91948739  1.20828407  -0.36437957  1.0
  O  O33  1  0.63562043  -0.08051261  0.20828407  1.0
  O  O34  1  0.63562043  0.20828407  -0.08051261  1.0
  O  O35  1  0.91948739  0.63562043  0.20828407  1.0
  O  O36  1  1.20828407  0.91948739  0.63562043  1.0
  O  O37  1  0.83120320  0.34655984  0.49522638  1.0
  O  O38  1  0.49522638  0.83120320  -0.65344016  1.0
  O  O39  1  1.34655984  0.49522638  0.83120320  1.0
  O  O40  1  1.34655984  0.83120320  0.49522638  1.0
  O  O41  1  0.49522638  0.34655984  -0.16879680  1.0
  O  O42  1  0.83120320  0.49522638  0.34655984  1.0
  O  O43  1  0.26649628  0.26649628  0.26649628  1.0
  O  O44  1  0.64425006  0.45624854  0.45624854  1.0
  O  O45  1  0.45624854  0.64425006  -0.54375146  1.0
  O  O46  1  0.45624854  0.45624854  -0.35574994  1.0
  O  O47  1  0.59677241  1.21323221  -0.40322759  1.0
  O  O48  1  0.59677241  0.59677241  0.21323221  1.0
  O  O49  1  1.21323221  0.59677241  0.59677241  1.0
