# generated using pymatgen
data_Ba11In6O3
_symmetry_space_group_name_H-M   'P 1'
_cell_length_a   12.39303037
_cell_length_b   12.39303037
_cell_length_c   12.39303037
_cell_angle_alpha   101.87678976
_cell_angle_beta   101.87678976
_cell_angle_gamma   126.04244689
_symmetry_Int_Tables_number   1
_chemical_formula_structural   Ba11In6O3
_chemical_formula_sum   'Ba22 In12 O6'
_cell_volume   1371.57341737
_cell_formula_units_Z   2
loop_
 _symmetry_equiv_pos_site_id
 _symmetry_equiv_pos_as_xyz
  1  'x, y, z'
loop_
 _atom_site_type_symbol
 _atom_site_label
 _atom_site_symmetry_multiplicity
 _atom_site_fract_x
 _atom_site_fract_y
 _atom_site_fract_z
 _atom_site_occupancy
  Ba  Ba0  1  1.17423427  0.67423427  1.24938723  1.0
  Ba  Ba1  1  1.57515297  1.07515297  1.24938723  1.0
  Ba  Ba2  1  0.92484703  1.17423427  0.50000000  1.0
  Ba  Ba3  1  0.32576573  0.57515297  0.50000000  1.0
  Ba  Ba4  1  1.67423427  1.42484703  1.50000000  1.0
  Ba  Ba5  1  1.07515297  0.82576573  1.50000000  1.0
  Ba  Ba6  1  0.42484703  0.92484703  0.75061277  1.0
  Ba  Ba7  1  0.82576573  1.32576573  0.75061277  1.0
  Ba  Ba8  1  1.12390948  1.12390948  0.74781895  1.0
  Ba  Ba9  1  0.62390948  0.62390948  0.74781895  1.0
  Ba  Ba10  1  0.87609052  0.62390948  1.00000000  1.0
  Ba  Ba11  1  1.37609052  1.12390948  1.00000000  1.0
  Ba  Ba12  1  1.62390948  0.87609052  1.00000000  1.0
  Ba  Ba13  1  1.12390948  0.37609052  1.00000000  1.0
  Ba  Ba14  1  0.37609052  0.37609052  0.25218105  1.0
  Ba  Ba15  1  0.87609052  0.87609052  0.25218105  1.0
  Ba  Ba16  1  0.77059296  0.27059296  1.04118592  1.0
  Ba  Ba17  1  0.72940704  0.77059296  0.50000000  1.0
  Ba  Ba18  1  1.27059296  1.22940704  1.50000000  1.0
  Ba  Ba19  1  0.22940704  0.72940704  0.95881408  1.0
  Ba  Ba20  1  0.50000000  0.50000000  0.00000000  1.0
  Ba  Ba21  1  0.00000000  0.00000000  0.00000000  1.0
  In  In22  1  1.50058325  1.25926608  1.75984933  1.0
  In  In23  1  -0.00058325  0.75926608  0.75868283  1.0
  In  In24  1  0.75926608  1.00058325  0.75984933  1.0
  In  In25  1  0.74073392  0.50058325  1.24131717  1.0
  In  In26  1  1.00058325  0.24073392  1.24131717  1.0
  In  In27  1  0.49941675  0.74073392  0.24015067  1.0
  In  In28  1  0.25926608  0.49941675  0.75868283  1.0
  In  In29  1  1.24073392  0.99941675  1.24015067  1.0
  In  In30  1  0.93374109  0.43374109  1.36748219  1.0
  In  In31  1  0.56625891  0.93374109  0.50000000  1.0
  In  In32  1  1.43374109  1.06625891  1.50000000  1.0
  In  In33  1  0.06625891  0.56625891  0.63251781  1.0
  O  O34  1  1.00000000  1.00000000  0.50000000  1.0
  O  O35  1  0.50000000  0.50000000  0.50000000  1.0
  O  O36  1  1.00000000  0.50000000  1.00000000  1.0
  O  O37  1  1.50000000  1.00000000  1.00000000  1.0
  O  O38  1  0.25000000  0.25000000  0.00000000  1.0
  O  O39  1  0.75000000  0.75000000  0.00000000  1.0
