# generated using pymatgen
data_K2Sb4O11
_symmetry_space_group_name_H-M   'P 1'
_cell_length_a   10.63756498
_cell_length_b   10.63756498
_cell_length_c   7.30608091
_cell_angle_alpha   85.12000134
_cell_angle_beta   94.87999866
_cell_angle_gamma   137.66363038
_symmetry_Int_Tables_number   1
_chemical_formula_structural   K2Sb4O11
_chemical_formula_sum   'K4 Sb8 O22'
_cell_volume   554.47273840
_cell_formula_units_Z   2
loop_
 _symmetry_equiv_pos_site_id
 _symmetry_equiv_pos_as_xyz
  1  'x, y, z'
loop_
 _atom_site_type_symbol
 _atom_site_label
 _atom_site_symmetry_multiplicity
 _atom_site_fract_x
 _atom_site_fract_y
 _atom_site_fract_z
 _atom_site_occupancy
  K  K0  1  0.74214796  0.25785204  0.50263276  1.0
  K  K1  1  0.25785204  -0.25785204  0.49736724  1.0
  K  K2  1  0.51208792  0.48791208  0.76109637  1.0
  K  K3  1  0.48791208  -0.48791208  0.23890363  1.0
  Sb  Sb4  1  0.43229387  0.08351103  0.93568404  1.0
  Sb  Sb5  1  0.91648897  0.56770613  0.93568404  1.0
  Sb  Sb6  1  1.08351103  0.43229387  0.06431596  1.0
  Sb  Sb7  1  0.56770613  -0.08351103  0.06431596  1.0
  Sb  Sb8  1  0.92832377  0.07167623  0.40230483  1.0
  Sb  Sb9  1  0.07167623  -0.07167623  0.59769517  1.0
  Sb  Sb10  1  0.92411804  0.07588196  0.88230369  1.0
  Sb  Sb11  1  0.07588196  -0.07588196  0.11769631  1.0
  O  O12  1  0.65561396  -0.16815307  0.93022411  1.0
  O  O13  1  1.16815307  0.34438604  0.93022411  1.0
  O  O14  1  0.83184693  0.65561396  0.06977589  1.0
  O  O15  1  0.34438604  0.16815307  0.06977589  1.0
  O  O16  1  0.47466257  -0.05254781  0.83181844  1.0
  O  O17  1  1.05254781  0.52533743  0.83181844  1.0
  O  O18  1  0.94745219  0.47466257  0.16818156  1.0
  O  O19  1  0.52533743  0.05254781  0.16818156  1.0
  O  O20  1  0.32751746  0.06888707  0.68735821  1.0
  O  O21  1  0.93111293  0.67248254  0.68735821  1.0
  O  O22  1  1.06888707  0.32751746  0.31264179  1.0
  O  O23  1  0.67248254  -0.06888707  0.31264179  1.0
  O  O24  1  0.97672998  0.02327002  0.15493829  1.0
  O  O25  1  0.02327002  -0.02327002  0.84506171  1.0
  O  O26  1  0.88127869  0.11872131  0.63172969  1.0
  O  O27  1  0.11872131  -0.11872131  0.36827031  1.0
  O  O28  1  0.83316745  0.16683255  0.98896767  1.0
  O  O29  1  0.16683255  -0.16683255  0.01103233  1.0
  O  O30  1  0.65947274  0.34052726  0.85153021  1.0
  O  O31  1  0.34052726  -0.34052726  0.14846979  1.0
  O  O32  1  0.82727589  0.82727589  0.50000000  1.0
  O  O33  1  0.17272411  0.17272411  0.50000000  1.0
