# generated using pymatgen
data_BaBiO3
_symmetry_space_group_name_H-M   'P 1'
_cell_length_a   6.24409637
_cell_length_b   6.23309997
_cell_length_c   10.75837373
_cell_angle_alpha   90.00000000
_cell_angle_beta   125.20839496
_cell_angle_gamma   90.00000000
_symmetry_Int_Tables_number   1
_chemical_formula_structural   BaBiO3
_chemical_formula_sum   'Ba4 Bi4 O12'
_cell_volume   342.11687393
_cell_formula_units_Z   4
loop_
 _symmetry_equiv_pos_site_id
 _symmetry_equiv_pos_as_xyz
  1  'x, y, z'
loop_
 _atom_site_type_symbol
 _atom_site_label
 _atom_site_symmetry_multiplicity
 _atom_site_fract_x
 _atom_site_fract_y
 _atom_site_fract_z
 _atom_site_occupancy
  Ba  Ba0  1  0.75790299  0.48020927  0.75056601  1.0
  Ba  Ba1  1  0.75790299  0.01979073  0.25056601  1.0
  Ba  Ba2  1  0.24209701  0.98020927  0.74943399  1.0
  Ba  Ba3  1  0.24209701  0.51979073  0.24943399  1.0
  Bi  Bi4  1  0.50000000  0.00000000  0.50000000  1.0
  Bi  Bi5  1  0.50000000  0.50000000  0.00000000  1.0
  Bi  Bi6  1  0.00000000  0.00000000  0.00000000  1.0
  Bi  Bi7  1  0.00000000  0.50000000  0.50000000  1.0
  O  O8  1  0.68488865  0.01468010  0.75938906  1.0
  O  O9  1  0.68488865  0.48531990  0.25938906  1.0
  O  O10  1  0.31511135  0.51468010  0.74061094  1.0
  O  O11  1  0.31511135  0.98531990  0.24061094  1.0
  O  O12  1  0.17670813  0.73576301  0.95846465  1.0
  O  O13  1  0.17670813  0.76423699  0.45846465  1.0
  O  O14  1  0.82329187  0.23576301  0.54153535  1.0
  O  O15  1  0.82329187  0.26423699  0.04153535  1.0
  O  O16  1  0.22204836  0.22110546  0.96012962  1.0
  O  O17  1  0.22204836  0.27889454  0.46012962  1.0
  O  O18  1  0.77795164  0.72110546  0.53987038  1.0
  O  O19  1  0.77795164  0.77889454  0.03987038  1.0
