# generated using pymatgen
data_LaSn2Rh
_symmetry_space_group_name_H-M   'P 1'
_cell_length_a   8.95647661
_cell_length_b   8.95647661
_cell_length_c   9.75534544
_cell_angle_alpha   90.00000000
_cell_angle_beta   90.00000000
_cell_angle_gamma   149.69146965
_symmetry_Int_Tables_number   1
_chemical_formula_structural   LaSn2Rh
_chemical_formula_sum   'La4 Sn8 Rh4'
_cell_volume   394.92318047
_cell_formula_units_Z   4
loop_
 _symmetry_equiv_pos_site_id
 _symmetry_equiv_pos_as_xyz
  1  'x, y, z'
loop_
 _atom_site_type_symbol
 _atom_site_label
 _atom_site_symmetry_multiplicity
 _atom_site_fract_x
 _atom_site_fract_y
 _atom_site_fract_z
 _atom_site_occupancy
  La  La0  1  -0.20439571  0.20439571  0.75000000  1.0
  La  La1  1  0.20439571  0.79560429  0.25000000  1.0
  La  La2  1  0.00000000  0.00000000  0.00000000  1.0
  La  La3  1  0.00000000  0.00000000  0.50000000  1.0
  Sn  Sn4  1  0.19775622  0.80224378  0.91058758  1.0
  Sn  Sn5  1  0.19775622  0.80224378  0.58941242  1.0
  Sn  Sn6  1  -0.19775622  0.19775622  0.41058758  1.0
  Sn  Sn7  1  -0.19775622  0.19775622  0.08941242  1.0
  Sn  Sn8  1  0.42603883  0.57396117  0.75000000  1.0
  Sn  Sn9  1  -0.42603883  0.42603883  0.25000000  1.0
  Sn  Sn10  1  -0.40878894  0.40878894  0.75000000  1.0
  Sn  Sn11  1  0.40878894  0.59121106  0.25000000  1.0
  Rh  Rh12  1  0.35338348  0.64661652  0.99571698  1.0
  Rh  Rh13  1  0.35338348  0.64661652  0.50428302  1.0
  Rh  Rh14  1  -0.35338348  0.35338348  0.49571698  1.0
  Rh  Rh15  1  -0.35338348  0.35338348  0.00428302  1.0
