# generated using pymatgen
data_Cs2Cd3S3O16
_symmetry_space_group_name_H-M   'P 1'
_cell_length_a   11.07652048
_cell_length_b   11.07652048
_cell_length_c   9.46122091
_cell_angle_alpha   90.00000000
_cell_angle_beta   90.00000000
_cell_angle_gamma   47.08172925
_symmetry_Int_Tables_number   1
_chemical_formula_structural   Cs2Cd3S3O16
_chemical_formula_sum   'Cs4 Cd6 S6 O32'
_cell_volume   850.07691385
_cell_formula_units_Z   2
loop_
 _symmetry_equiv_pos_site_id
 _symmetry_equiv_pos_as_xyz
  1  'x, y, z'
loop_
 _atom_site_type_symbol
 _atom_site_label
 _atom_site_symmetry_multiplicity
 _atom_site_fract_x
 _atom_site_fract_y
 _atom_site_fract_z
 _atom_site_occupancy
  Cs  Cs0  1  -0.64225271  1.26461884  0.44623850  1.0
  Cs  Cs1  1  0.26461884  0.35774729  0.94623850  1.0
  Cs  Cs2  1  -0.26461884  0.64225271  0.44623850  1.0
  Cs  Cs3  1  -0.35774729  0.73538116  0.94623850  1.0
  S  S4  1  -0.63174331  0.96818401  0.23312116  1.0
  S  S5  1  -0.03181599  0.36825669  0.73312116  1.0
  S  S6  1  0.03181599  0.63174331  0.23312116  1.0
  S  S7  1  -0.36825669  1.03181599  0.73312116  1.0
  S  S8  1  -0.31822436  0.31822436  0.35101192  1.0
  S  S9  1  -0.68177564  0.68177564  0.85101192  1.0
  O  O10  1  -0.56718114  0.79741107  0.24468312  1.0
  O  O11  1  -0.20258893  0.43281886  0.74468312  1.0
  O  O12  1  0.20258893  0.56718114  0.24468312  1.0
  O  O13  1  -0.43281886  1.20258893  0.74468312  1.0
  O  O14  1  -0.75035095  1.07614975  0.35098322  1.0
  O  O15  1  0.07614975  0.24964905  0.85098322  1.0
  O  O16  1  -0.07614975  0.75035095  0.35098322  1.0
  O  O17  1  -0.24964905  0.92385025  0.85098322  1.0
  O  O18  1  -0.71662436  1.04323851  0.09260306  1.0
  O  O19  1  0.04323851  0.28337564  0.59260306  1.0
  O  O20  1  -0.04323851  0.71662436  0.09260306  1.0
  O  O21  1  -0.28337564  0.95676149  0.59260306  1.0
  O  O22  1  -0.28254182  1.16015743  0.34184713  1.0
  O  O23  1  0.16015743  0.71745818  0.84184713  1.0
  O  O24  1  -0.16015743  0.28254182  0.34184713  1.0
  O  O25  1  -0.71745818  0.83984257  0.84184713  1.0
  O  O26  1  -0.35232975  1.14115755  0.12504527  1.0
  O  O27  1  0.14115755  0.64767025  0.62504527  1.0
  O  O28  1  -0.14115755  0.35232975  0.12504527  1.0
  O  O29  1  -0.64767025  0.85884245  0.62504527  1.0
  O  O30  1  -0.87826216  0.87826216  0.37815413  1.0
  O  O31  1  -0.12173784  0.12173784  0.87815413  1.0
  O  O32  1  -0.92523721  0.92523721  0.12659772  1.0
  O  O33  1  -0.07476279  0.07476279  0.62659772  1.0
  O  O34  1  -0.39934633  0.39934633  0.48949157  1.0
  O  O35  1  -0.60065367  0.60065367  -0.01050843  1.0
  O  O36  1  -0.49248633  0.95925022  0.24021044  1.0
  O  O37  1  -0.04074978  0.50751367  0.74021044  1.0
  O  O38  1  0.04074978  0.49248633  0.24021044  1.0
  O  O39  1  -0.50751367  1.04074978  0.74021044  1.0
  O  O40  1  -0.43034175  0.43034175  0.23410816  1.0
  O  O41  1  -0.56965825  0.56965825  0.73410816  1.0
  Cd  Cd42  1  -0.89812178  1.06265624  0.49957544  1.0
  Cd  Cd43  1  0.06265624  0.10187822  0.99957544  1.0
  Cd  Cd44  1  -0.06265624  0.89812178  0.49957544  1.0
  Cd  Cd45  1  -0.10187822  0.93734376  0.99957544  1.0
  Cd  Cd46  1  -0.69024430  0.69024430  0.21882183  1.0
  Cd  Cd47  1  -0.30975570  0.30975570  0.71882183  1.0
