# generated using pymatgen
data_XeO3
_symmetry_space_group_name_H-M   'P 1'
_cell_length_a   8.49040414
_cell_length_b   8.49040414
_cell_length_c   8.49040414
_cell_angle_alpha   86.85763623
_cell_angle_beta   86.85763623
_cell_angle_gamma   86.85763623
_symmetry_Int_Tables_number   1
_chemical_formula_structural   XeO3
_chemical_formula_sum   'Xe8 O24'
_cell_volume   609.38373849
_cell_formula_units_Z   8
loop_
 _symmetry_equiv_pos_site_id
 _symmetry_equiv_pos_as_xyz
  1  'x, y, z'
loop_
 _atom_site_type_symbol
 _atom_site_label
 _atom_site_symmetry_multiplicity
 _atom_site_fract_x
 _atom_site_fract_y
 _atom_site_fract_z
 _atom_site_occupancy
  Xe  Xe0  1  1.22843611  1.22843611  0.22843611  1.0
  Xe  Xe1  1  0.72843611  0.72843611  -0.27156389  1.0
  Xe  Xe2  1  0.21796132  0.14127968  -0.26822431  1.0
  Xe  Xe3  1  0.14127968  0.73177569  -0.78203868  1.0
  Xe  Xe4  1  0.73177569  0.21796132  -0.85872032  1.0
  Xe  Xe5  1  0.71796132  0.23177569  -0.35872032  1.0
  Xe  Xe6  1  0.23177569  0.64127968  -0.28203868  1.0
  Xe  Xe7  1  0.64127968  0.71796132  -0.76822431  1.0
  O  O8  1  0.28763988  0.12164617  -0.06608844  1.0
  O  O9  1  0.12164617  0.93391156  -0.71236012  1.0
  O  O10  1  0.93391156  0.28763988  -0.87835383  1.0
  O  O11  1  0.78763988  0.43391156  -0.37835383  1.0
  O  O12  1  0.43391156  0.62164617  -0.21236012  1.0
  O  O13  1  0.62164617  0.78763988  -0.56608844  1.0
  O  O14  1  1.28148262  -0.05071427  -0.34845252  1.0
  O  O15  1  0.94928573  -0.34845252  0.28148262  1.0
  O  O16  1  0.65154748  0.28148262  -0.05071427  1.0
  O  O17  1  0.78148262  0.15154748  -0.55071427  1.0
  O  O18  1  0.15154748  0.44928573  -0.21851738  1.0
  O  O19  1  0.44928573  0.78148262  -0.84845252  1.0
  O  O20  1  1.15005160  1.25266482  0.43250520  1.0
  O  O21  1  1.25266482  1.43250520  0.15005160  1.0
  O  O22  1  1.43250520  1.15005160  0.25266482  1.0
  O  O23  1  0.65005160  0.93250520  -0.24733518  1.0
  O  O24  1  0.93250520  0.75266482  -0.34994840  1.0
  O  O25  1  0.75266482  0.65005160  -0.06749480  1.0
  O  O26  1  1.00263892  1.13115307  0.76300016  1.0
  O  O27  1  1.13115307  1.76300016  0.00263892  1.0
  O  O28  1  1.76300016  1.00263892  0.13115307  1.0
  O  O29  1  0.50263892  0.26300016  -0.36884693  1.0
  O  O30  1  0.26300016  0.63115307  -0.49736108  1.0
  O  O31  1  0.63115307  0.50263892  -0.73699984  1.0
