# generated using pymatgen
data_ZrFeSb
_symmetry_space_group_name_H-M   'P 1'
_cell_length_a   6.88043305
_cell_length_b   4.27080814
_cell_length_c   7.44075866
_cell_angle_alpha   90.00000000
_cell_angle_beta   90.00000000
_cell_angle_gamma   90.00000000
_symmetry_Int_Tables_number   1
_chemical_formula_structural   ZrFeSb
_chemical_formula_sum   'Zr4 Fe4 Sb4'
_cell_volume   218.64676379
_cell_formula_units_Z   4
loop_
 _symmetry_equiv_pos_site_id
 _symmetry_equiv_pos_as_xyz
  1  'x, y, z'
loop_
 _atom_site_type_symbol
 _atom_site_label
 _atom_site_symmetry_multiplicity
 _atom_site_fract_x
 _atom_site_fract_y
 _atom_site_fract_z
 _atom_site_occupancy
  Zr  Zr0  1  0.99888036  0.75000000  0.71548536  1.0
  Zr  Zr1  1  0.49888036  0.75000000  0.78451464  1.0
  Zr  Zr2  1  0.00111964  0.25000000  0.28451464  1.0
  Zr  Zr3  1  0.50111964  0.25000000  0.21548536  1.0
  Fe  Fe4  1  0.86095386  0.75000000  0.06870723  1.0
  Fe  Fe5  1  0.36095386  0.75000000  0.43129277  1.0
  Fe  Fe6  1  0.13904614  0.25000000  0.93129277  1.0
  Fe  Fe7  1  0.63904614  0.25000000  0.56870723  1.0
  Sb  Sb8  1  0.73400266  0.75000000  0.39956192  1.0
  Sb  Sb9  1  0.23400266  0.75000000  0.10043808  1.0
  Sb  Sb10  1  0.26599734  0.25000000  0.60043808  1.0
  Sb  Sb11  1  0.76599734  0.25000000  0.89956192  1.0
