# generated using pymatgen
data_HfPbO3
_symmetry_space_group_name_H-M   'P 1'
_cell_length_a   5.90681480
_cell_length_b   11.79454837
_cell_length_c   8.24758311
_cell_angle_alpha   90.00000000
_cell_angle_beta   90.00000000
_cell_angle_gamma   90.00000000
_symmetry_Int_Tables_number   1
_chemical_formula_structural   HfPbO3
_chemical_formula_sum   'Hf8 Pb8 O24'
_cell_volume   574.59437493
_cell_formula_units_Z   8
loop_
 _symmetry_equiv_pos_site_id
 _symmetry_equiv_pos_as_xyz
  1  'x, y, z'
loop_
 _atom_site_type_symbol
 _atom_site_label
 _atom_site_symmetry_multiplicity
 _atom_site_fract_x
 _atom_site_fract_y
 _atom_site_fract_z
 _atom_site_occupancy
  Hf  Hf0  1  0.25832929  0.62382899  0.75032026  1.0
  Hf  Hf1  1  0.25832929  0.62382899  0.24967974  1.0
  Hf  Hf2  1  0.75832929  0.87617101  0.75032026  1.0
  Hf  Hf3  1  0.75832929  0.87617101  0.24967974  1.0
  Hf  Hf4  1  0.74167071  0.37617101  0.75032026  1.0
  Hf  Hf5  1  0.74167071  0.37617101  0.24967974  1.0
  Hf  Hf6  1  0.24167071  0.12382899  0.75032026  1.0
  Hf  Hf7  1  0.24167071  0.12382899  0.24967974  1.0
  Pb  Pb8  1  0.29129737  0.87014217  0.50000000  1.0
  Pb  Pb9  1  0.79129737  0.62985783  0.50000000  1.0
  Pb  Pb10  1  0.70870263  0.12985783  0.50000000  1.0
  Pb  Pb11  1  0.20870263  0.37014217  0.50000000  1.0
  Pb  Pb12  1  0.29692713  0.87516170  0.00000000  1.0
  Pb  Pb13  1  0.79692713  0.62483830  0.00000000  1.0
  Pb  Pb14  1  0.70307287  0.12483830  0.00000000  1.0
  Pb  Pb15  1  0.20307287  0.37516170  0.00000000  1.0
  O  O16  1  0.47541724  0.75895536  0.72201781  1.0
  O  O17  1  0.47541724  0.75895536  0.27798219  1.0
  O  O18  1  0.97541724  0.74104464  0.72201781  1.0
  O  O19  1  0.97541724  0.74104464  0.27798219  1.0
  O  O20  1  0.52458276  0.24104464  0.72201781  1.0
  O  O21  1  0.52458276  0.24104464  0.27798219  1.0
  O  O22  1  0.02458276  0.25895536  0.72201781  1.0
  O  O23  1  0.02458276  0.25895536  0.27798219  1.0
  O  O24  1  0.21025761  0.59804772  0.50000000  1.0
  O  O25  1  0.71025761  0.90195228  0.50000000  1.0
  O  O26  1  0.78974239  0.40195228  0.50000000  1.0
  O  O27  1  0.28974239  0.09804772  0.50000000  1.0
  O  O28  1  0.23103256  0.65352875  0.00000000  1.0
  O  O29  1  0.73103256  0.84647125  -0.00000000  1.0
  O  O30  1  0.76896744  0.34647125  0.00000000  1.0
  O  O31  1  0.26896744  0.15352875  -0.00000000  1.0
  O  O32  1  0.50000000  0.00000000  0.79060976  1.0
  O  O33  1  0.50000000  0.00000000  0.20939024  1.0
  O  O34  1  0.00000000  0.50000000  0.79060976  1.0
  O  O35  1  0.00000000  0.50000000  0.20939024  1.0
  O  O36  1  0.50000000  0.50000000  0.76959612  1.0
  O  O37  1  0.50000000  0.50000000  0.23040388  1.0
  O  O38  1  0.00000000  0.00000000  0.76959612  1.0
  O  O39  1  0.00000000  0.00000000  0.23040388  1.0
