# generated using pymatgen
data_Sc3Ga5
_symmetry_space_group_name_H-M   'P 1'
_cell_length_a   10.99070475
_cell_length_b   9.28483448
_cell_length_c   5.76612985
_cell_angle_alpha   90.00000000
_cell_angle_beta   90.00000000
_cell_angle_gamma   90.00000000
_symmetry_Int_Tables_number   1
_chemical_formula_structural   Sc3Ga5
_chemical_formula_sum   'Sc12 Ga20'
_cell_volume   588.41552932
_cell_formula_units_Z   4
loop_
 _symmetry_equiv_pos_site_id
 _symmetry_equiv_pos_as_xyz
  1  'x, y, z'
loop_
 _atom_site_type_symbol
 _atom_site_label
 _atom_site_symmetry_multiplicity
 _atom_site_fract_x
 _atom_site_fract_y
 _atom_site_fract_z
 _atom_site_occupancy
  Sc  Sc0  1  0.64530623  0.49353202  0.10861879  1.0
  Sc  Sc1  1  0.64530623  0.00646798  0.10861879  1.0
  Sc  Sc2  1  0.14530623  0.49353202  0.39138121  1.0
  Sc  Sc3  1  0.14530623  0.00646798  0.39138121  1.0
  Sc  Sc4  1  0.35469377  0.99353202  0.89138121  1.0
  Sc  Sc5  1  0.35469377  0.50646798  0.89138121  1.0
  Sc  Sc6  1  0.85469377  0.99353202  0.60861879  1.0
  Sc  Sc7  1  0.85469377  0.50646798  0.60861879  1.0
  Sc  Sc8  1  0.93535945  0.25000000  0.15092578  1.0
  Sc  Sc9  1  0.43535945  0.25000000  0.34907422  1.0
  Sc  Sc10  1  0.06464055  0.75000000  0.84907422  1.0
  Sc  Sc11  1  0.56464055  0.75000000  0.65092578  1.0
  Ga  Ga12  1  0.75086059  0.25000000  0.84242582  1.0
  Ga  Ga13  1  0.25086059  0.25000000  0.65757418  1.0
  Ga  Ga14  1  0.24913941  0.75000000  0.15757418  1.0
  Ga  Ga15  1  0.74913941  0.75000000  0.34242582  1.0
  Ga  Ga16  1  0.90458051  0.95204739  0.12418925  1.0
  Ga  Ga17  1  0.90458051  0.54795261  0.12418925  1.0
  Ga  Ga18  1  0.40458051  0.95204739  0.37581075  1.0
  Ga  Ga19  1  0.40458051  0.54795261  0.37581075  1.0
  Ga  Ga20  1  0.09541949  0.45204739  0.87581075  1.0
  Ga  Ga21  1  0.09541949  0.04795261  0.87581075  1.0
  Ga  Ga22  1  0.59541949  0.45204739  0.62418925  1.0
  Ga  Ga23  1  0.59541949  0.04795261  0.62418925  1.0
  Ga  Ga24  1  0.99353618  0.25000000  0.61895384  1.0
  Ga  Ga25  1  0.49353618  0.25000000  0.88104616  1.0
  Ga  Ga26  1  0.00646382  0.75000000  0.38104616  1.0
  Ga  Ga27  1  0.50646382  0.75000000  0.11895384  1.0
  Ga  Ga28  1  0.70824702  0.25000000  0.37782658  1.0
  Ga  Ga29  1  0.20824702  0.25000000  0.12217342  1.0
  Ga  Ga30  1  0.29175298  0.75000000  0.62217342  1.0
  Ga  Ga31  1  0.79175298  0.75000000  0.87782658  1.0
