# generated using pymatgen
data_CrBr3
_symmetry_space_group_name_H-M   'P 1'
_cell_length_a   6.44610674
_cell_length_b   6.44610674
_cell_length_c   20.85419654
_cell_angle_alpha   90.00000000
_cell_angle_beta   90.00000000
_cell_angle_gamma   120.00000000
_symmetry_Int_Tables_number   1
_chemical_formula_structural   CrBr3
_chemical_formula_sum   'Cr6 Br18'
_cell_volume   750.44536341
_cell_formula_units_Z   6
loop_
 _symmetry_equiv_pos_site_id
 _symmetry_equiv_pos_as_xyz
  1  'x, y, z'
loop_
 _atom_site_type_symbol
 _atom_site_label
 _atom_site_symmetry_multiplicity
 _atom_site_fract_x
 _atom_site_fract_y
 _atom_site_fract_z
 _atom_site_occupancy
  Cr  Cr0  1  0.33333333  0.66666667  -0.00001047  1.0
  Cr  Cr1  1  0.33333333  0.66666667  0.66677457  1.0
  Cr  Cr2  1  0.66666667  0.33333333  0.33322543  1.0
  Cr  Cr3  1  0.66666667  0.33333333  0.00001047  1.0
  Cr  Cr4  1  -0.00000000  -0.00000000  0.66677577  1.0
  Cr  Cr5  1  -0.00000000  -0.00000000  0.33322423  1.0
  Br  Br6  1  0.35909852  0.35903030  0.93109072  1.0
  Br  Br7  1  -0.00006822  0.64090148  0.93109072  1.0
  Br  Br8  1  0.64096970  1.00006822  0.93109072  1.0
  Br  Br9  1  0.35903030  -0.00006822  0.06890928  1.0
  Br  Br10  1  0.64090148  0.64096970  0.06890928  1.0
  Br  Br11  1  1.00006822  0.35909852  0.06890928  1.0
  Br  Br12  1  0.33328232  0.30759638  0.26431805  1.0
  Br  Br13  1  -0.02568594  0.66671768  0.26431805  1.0
  Br  Br14  1  0.69240362  1.02568594  0.26431805  1.0
  Br  Br15  1  0.33338467  0.02577193  0.40213792  1.0
  Br  Br16  1  0.69238726  0.66661533  0.40213792  1.0
  Br  Br17  1  -0.02577193  0.30761274  0.40213792  1.0
  Br  Br18  1  0.30761274  0.33338467  0.59786208  1.0
  Br  Br19  1  0.02577193  0.69238726  0.59786208  1.0
  Br  Br20  1  0.66661533  -0.02577193  0.59786208  1.0
  Br  Br21  1  0.30759638  -0.02568594  0.73568195  1.0
  Br  Br22  1  0.66671768  0.69240362  0.73568195  1.0
  Br  Br23  1  1.02568594  0.33328232  0.73568195  1.0
