# generated using pymatgen
data_BaEu2PtO5
_symmetry_space_group_name_H-M   'P 1'
_cell_length_a   6.77622531
_cell_length_b   6.77622531
_cell_length_c   5.95276048
_cell_angle_alpha   90.00000000
_cell_angle_beta   90.00000000
_cell_angle_gamma   90.00000000
_symmetry_Int_Tables_number   1
_chemical_formula_structural   BaEu2PtO5
_chemical_formula_sum   'Ba2 Eu4 Pt2 O10'
_cell_volume   273.33426849
_cell_formula_units_Z   2
loop_
 _symmetry_equiv_pos_site_id
 _symmetry_equiv_pos_as_xyz
  1  'x, y, z'
loop_
 _atom_site_type_symbol
 _atom_site_label
 _atom_site_symmetry_multiplicity
 _atom_site_fract_x
 _atom_site_fract_y
 _atom_site_fract_z
 _atom_site_occupancy
  Pt  Pt0  1  0.00000000  0.50000000  0.00000000  1.0
  Pt  Pt1  1  0.50000000  0.00000000  0.00000000  1.0
  O  O2  1  0.14044473  0.35957134  0.24801368  1.0
  O  O3  1  0.35955527  0.85957134  0.24801368  1.0
  O  O4  1  0.64042866  0.14044473  0.75198632  1.0
  O  O5  1  0.85957134  0.64044473  0.75198632  1.0
  O  O6  1  0.85955527  0.64042866  0.24801368  1.0
  O  O7  1  0.64044473  0.14042866  0.24801368  1.0
  O  O8  1  0.35957134  0.85955527  0.75198632  1.0
  O  O9  1  0.14042866  0.35955527  0.75198632  1.0
  O  O10  1  0.50000000  0.50000000  0.50000000  1.0
  O  O11  1  0.00000000  0.00000000  0.50000000  1.0
  Ba  Ba12  1  0.50000000  0.50000000  0.00000000  1.0
  Ba  Ba13  1  0.00000000  0.00000000  0.00000000  1.0
  Eu  Eu14  1  0.82247754  0.32247754  0.50000000  1.0
  Eu  Eu15  1  0.67752246  0.82247754  0.50000000  1.0
  Eu  Eu16  1  0.17752246  0.67752246  0.50000000  1.0
  Eu  Eu17  1  0.32247754  0.17752246  0.50000000  1.0
