# generated using pymatgen
data_ZnSeO10
_symmetry_space_group_name_H-M   'P 1'
_cell_length_a   6.20623632
_cell_length_b   6.20623632
_cell_length_c   17.34083947
_cell_angle_alpha   90.00000000
_cell_angle_beta   90.00000000
_cell_angle_gamma   90.00000000
_symmetry_Int_Tables_number   1
_chemical_formula_structural   ZnSeO10
_chemical_formula_sum   'Zn4 Se4 O40'
_cell_volume   667.92351805
_cell_formula_units_Z   4
loop_
 _symmetry_equiv_pos_site_id
 _symmetry_equiv_pos_as_xyz
  1  'x, y, z'
loop_
 _atom_site_type_symbol
 _atom_site_label
 _atom_site_symmetry_multiplicity
 _atom_site_fract_x
 _atom_site_fract_y
 _atom_site_fract_z
 _atom_site_occupancy
  Zn  Zn0  1  0.69170582  0.30829418  0.25000000  1.0
  Zn  Zn1  1  0.19170582  0.19170582  0.50000000  1.0
  Zn  Zn2  1  0.30829418  0.69170582  0.75000000  1.0
  Zn  Zn3  1  0.80829418  0.80829418  0.00000000  1.0
  O  O4  1  0.46917633  0.89400788  0.81853286  1.0
  O  O5  1  0.96917633  0.60599212  0.93146714  1.0
  O  O6  1  0.10599212  0.53082367  0.68146714  1.0
  O  O7  1  0.60599212  0.96917633  0.06853286  1.0
  O  O8  1  0.53082367  0.10599212  0.31853286  1.0
  O  O9  1  0.03082367  0.39400788  0.43146714  1.0
  O  O10  1  0.89400788  0.46917633  0.18146714  1.0
  O  O11  1  0.39400788  0.03082367  0.56853286  1.0
  O  O12  1  0.45366416  0.50565052  0.83526310  1.0
  O  O13  1  0.95366416  0.99434948  0.91473690  1.0
  O  O14  1  0.49434948  0.54633584  0.66473690  1.0
  O  O15  1  0.99434948  0.95366416  0.08526310  1.0
  O  O16  1  0.54633584  0.49434948  0.33526310  1.0
  O  O17  1  0.04633584  0.00565052  0.41473690  1.0
  O  O18  1  0.50565052  0.45366416  0.16473690  1.0
  O  O19  1  0.00565052  0.04633584  0.58526310  1.0
  O  O20  1  0.56406852  0.72176450  0.91660756  1.0
  O  O21  1  1.06406852  0.77823550  0.83339244  1.0
  O  O22  1  0.27823550  0.43593148  0.58339244  1.0
  O  O23  1  0.77823550  1.06406852  0.16660756  1.0
  O  O24  1  0.43593148  0.27823550  0.41660756  1.0
  O  O25  1  -0.06406852  0.22176450  0.33339244  1.0
  O  O26  1  0.72176450  0.56406852  0.08339244  1.0
  O  O27  1  0.22176450  -0.06406852  0.66660756  1.0
  O  O28  1  -0.09935823  0.79017335  0.24241185  1.0
  O  O29  1  0.40064177  0.70982665  0.50758815  1.0
  O  O30  1  0.20982665  1.09935823  0.25758815  1.0
  O  O31  1  0.70982665  0.40064177  0.49241185  1.0
  O  O32  1  1.09935823  0.20982665  0.74241185  1.0
  O  O33  1  0.59935823  0.29017335  0.00758815  1.0
  O  O34  1  0.79017335  -0.09935823  0.75758815  1.0
  O  O35  1  0.29017335  0.59935823  0.99241185  1.0
  O  O36  1  0.30848661  0.75180007  0.17099047  1.0
  O  O37  1  0.80848661  0.74819993  0.57900953  1.0
  O  O38  1  0.24819993  0.69151339  0.32900953  1.0
  O  O39  1  0.74819993  0.80848661  0.42099047  1.0
  O  O40  1  0.69151339  0.24819993  0.67099047  1.0
  O  O41  1  0.19151339  0.25180007  0.07900953  1.0
  O  O42  1  0.75180007  0.30848661  0.82900953  1.0
  O  O43  1  0.25180007  0.19151339  0.92099047  1.0
  Se  Se44  1  0.17446121  0.82553879  0.25000000  1.0
  Se  Se45  1  0.67446121  0.67446121  0.50000000  1.0
  Se  Se46  1  0.82553879  0.17446121  0.75000000  1.0
  Se  Se47  1  0.32553879  0.32553879  -0.00000000  1.0
