# generated using pymatgen
data_NaMn2Si3BH2O11
_symmetry_space_group_name_H-M   'P 1'
_cell_length_a   8.97337587
_cell_length_b   7.63605488
_cell_length_c   6.90943749
_cell_angle_alpha   102.79849376
_cell_angle_beta   103.44527395
_cell_angle_gamma   99.92801269
_symmetry_Int_Tables_number   1
_chemical_formula_structural   NaMn2Si3BH2O11
_chemical_formula_sum   'Na2 Mn4 Si6 B2 H4 O22'
_cell_volume   436.33285208
_cell_formula_units_Z   2
loop_
 _symmetry_equiv_pos_site_id
 _symmetry_equiv_pos_as_xyz
  1  'x, y, z'
loop_
 _atom_site_type_symbol
 _atom_site_label
 _atom_site_symmetry_multiplicity
 _atom_site_fract_x
 _atom_site_fract_y
 _atom_site_fract_z
 _atom_site_occupancy
  B  B0  1  -0.96950310  -0.63053218  -0.78950092  1.0
  B  B1  1  -0.03049690  -0.36946782  -0.21049908  1.0
  Si  Si2  1  -0.61651357  -0.97123728  -0.77053251  1.0
  Si  Si3  1  -0.38348643  -0.02876272  -0.22946749  1.0
  Si  Si4  1  -0.77289949  -0.76077484  -0.48886372  1.0
  Si  Si5  1  -0.22710051  -0.23922516  -0.51113628  1.0
  Si  Si6  1  -0.78577382  -0.75600514  -0.04559356  1.0
  Si  Si7  1  -0.21422618  -0.24399486  -0.95440644  1.0
  H  H8  1  -0.19045675  -0.71332551  -0.97421424  1.0
  H  H9  1  -0.80954325  -0.28667449  -0.02578576  1.0
  H  H10  1  -0.92397413  -0.36590999  -0.79825837  1.0
  H  H11  1  -0.07602587  -0.63409001  -0.20174163  1.0
  O  O12  1  -0.94602808  -0.71690783  -0.99092266  1.0
  O  O13  1  -0.05397192  -0.28309217  -0.00907734  1.0
  O  O14  1  -0.72945766  -0.93420797  -0.97869603  1.0
  O  O15  1  -0.27054234  -0.06579203  -0.02130397  1.0
  O  O16  1  -0.60433734  -0.18586945  -0.82872393  1.0
  O  O17  1  -0.39566266  -0.81413055  -0.17127607  1.0
  O  O18  1  -0.14109565  -0.63620838  -0.83158810  1.0
  O  O19  1  -0.85890435  -0.36379162  -0.16841190  1.0
  O  O20  1  -0.87401012  -0.43297925  -0.70429984  1.0
  O  O21  1  -0.12598988  -0.56702075  -0.29570016  1.0
  O  O22  1  -0.44983087  -0.81381379  -0.68386191  1.0
  O  O23  1  -0.55016913  -0.18618621  -0.31613809  1.0
  O  O24  1  -0.92910635  -0.73354685  -0.63974756  1.0
  O  O25  1  -0.07089365  -0.26645315  -0.36025244  1.0
  O  O26  1  -0.71712175  -0.94587790  -0.59516468  1.0
  O  O27  1  -0.28287825  -0.05412210  -0.40483532  1.0
  O  O28  1  -0.62735184  -0.57863155  -0.41621332  1.0
  O  O29  1  -0.37264816  -0.42136845  -0.58378668  1.0
  O  O30  1  -0.83122136  -0.82230696  -0.29970794  1.0
  O  O31  1  -0.16877864  -0.17769304  -0.70029206  1.0
  O  O32  1  -0.63721287  -0.57552237  -0.94428843  1.0
  O  O33  1  -0.36278713  -0.42447763  -0.05571157  1.0
  Mn  Mn34  1  -0.61054548  -0.37287233  -0.63373913  1.0
  Mn  Mn35  1  -0.38945452  -0.62712767  -0.36626087  1.0
  Mn  Mn36  1  -0.40562724  -0.63155299  -0.87569920  1.0
  Mn  Mn37  1  -0.59437276  -0.36844701  -0.12430080  1.0
  Na  Na38  1  -0.18227396  -0.84758566  -0.61473109  1.0
  Na  Na39  1  -0.81772604  -0.15241434  -0.38526891  1.0
