# generated using pymatgen
data_CaV2P2(H4O7)2
_symmetry_space_group_name_H-M   'P 1'
_cell_length_a   6.39421368
_cell_length_b   6.39429085
_cell_length_c   6.69716294
_cell_angle_alpha   93.91327773
_cell_angle_beta   107.09029360
_cell_angle_gamma   89.53450510
_symmetry_Int_Tables_number   1
_chemical_formula_structural   CaV2P2(H4O7)2
_chemical_formula_sum   'Ca1 V2 P2 H8 O14'
_cell_volume   261.10136057
_cell_formula_units_Z   1
loop_
 _symmetry_equiv_pos_site_id
 _symmetry_equiv_pos_as_xyz
  1  'x, y, z'
loop_
 _atom_site_type_symbol
 _atom_site_label
 _atom_site_symmetry_multiplicity
 _atom_site_fract_x
 _atom_site_fract_y
 _atom_site_fract_z
 _atom_site_occupancy
  Ca  Ca0  1  -0.04114942  -0.73996175  -0.71752876  1.0
  V  V1  1  -0.07256159  -0.03220298  -0.26084507  1.0
  V  V2  1  -0.50587996  -0.52111893  -0.08148264  1.0
  P  P3  1  -0.53785503  -0.03080075  -0.16615335  1.0
  P  P4  1  -0.03764420  -0.53179047  -0.18262595  1.0
  H  H5  1  -0.03608501  -0.18421303  -0.65057367  1.0
  H  H6  1  -0.27838610  -0.12490096  -0.76521781  1.0
  H  H7  1  -0.82096673  -0.39412764  -0.78912088  1.0
  H  H8  1  -0.74946698  -0.39037587  -0.53775143  1.0
  H  H9  1  -0.30723421  -0.43349677  -0.57529209  1.0
  H  H10  1  -0.47448525  -0.62370227  -0.66049834  1.0
  H  H11  1  -0.62996636  -0.88803900  -0.79574642  1.0
  H  H12  1  -0.56686877  -0.91019865  -0.54688660  1.0
  O  O13  1  -0.01267884  0.01253237  -0.01077860  1.0
  O  O14  1  -0.40296346  -0.01993985  -0.32604782  1.0
  O  O15  1  -0.77876222  -0.06084213  -0.30064808  1.0
  O  O16  1  -0.15082819  -0.07664943  -0.64446612  1.0
  O  O17  1  -0.46133801  -0.21024822  -0.01356347  1.0
  O  O18  1  -0.11326666  -0.34257672  -0.31823417  1.0
  O  O19  1  -0.87615923  -0.38677706  -0.66466538  1.0
  O  O20  1  -0.80057143  -0.49991261  -0.03208140  1.0
  O  O21  1  -0.37079256  -0.53049128  -0.70018297  1.0
  O  O22  1  -0.58022208  -0.52416467  -0.33136151  1.0
  O  O23  1  -0.18055728  -0.55755025  -0.03237944  1.0
  O  O24  1  -0.05932502  -0.72871795  -0.34003782  1.0
  O  O25  1  -0.50194897  -0.82670255  -0.01643536  1.0
  O  O26  1  -0.65593645  -0.83013056  -0.66529485  1.0
