# generated using pymatgen
data_Eu(BOs)4
_symmetry_space_group_name_H-M   'P 1'
_cell_length_a   7.58878234
_cell_length_b   7.58878234
_cell_length_c   4.01449083
_cell_angle_alpha   90.00000000
_cell_angle_beta   90.00000000
_cell_angle_gamma   90.00000000
_symmetry_Int_Tables_number   1
_chemical_formula_structural   Eu(BOs)4
_chemical_formula_sum   'Eu2 B8 Os8'
_cell_volume   231.19299062
_cell_formula_units_Z   2
loop_
 _symmetry_equiv_pos_site_id
 _symmetry_equiv_pos_as_xyz
  1  'x, y, z'
loop_
 _atom_site_type_symbol
 _atom_site_label
 _atom_site_symmetry_multiplicity
 _atom_site_fract_x
 _atom_site_fract_y
 _atom_site_fract_z
 _atom_site_occupancy
  Eu  Eu0  1  0.00000000  0.00000000  0.00000000  1.0
  Eu  Eu1  1  0.50000000  0.50000000  0.50000000  1.0
  B  B2  1  0.66419017  0.78212660  0.11256862  1.0
  B  B3  1  0.33580983  0.21787340  0.11256862  1.0
  B  B4  1  0.28212660  0.83580983  0.61256862  1.0
  B  B5  1  0.71787340  0.16419017  0.61256862  1.0
  B  B6  1  0.83580983  0.71787340  0.38743138  1.0
  B  B7  1  0.16419017  0.28212660  0.38743138  1.0
  B  B8  1  0.21787340  0.66419017  0.88743138  1.0
  B  B9  1  0.78212660  0.33580983  0.88743138  1.0
  Os  Os10  1  0.14485481  0.39139908  0.88594789  1.0
  Os  Os11  1  0.85514519  0.60860092  0.88594789  1.0
  Os  Os12  1  0.89139908  0.35514519  0.38594789  1.0
  Os  Os13  1  0.10860092  0.64485481  0.38594789  1.0
  Os  Os14  1  0.35514519  0.10860092  0.61405211  1.0
  Os  Os15  1  0.64485481  0.89139908  0.61405211  1.0
  Os  Os16  1  0.60860092  0.14485481  0.11405211  1.0
  Os  Os17  1  0.39139908  0.85514519  0.11405211  1.0
