# generated using pymatgen
data_Be17Ru3
_symmetry_space_group_name_H-M   'P 1'
_cell_length_a   9.79634717
_cell_length_b   9.79634717
_cell_length_c   9.79634717
_cell_angle_alpha   109.47122063
_cell_angle_beta   109.47122063
_cell_angle_gamma   109.47122063
_symmetry_Int_Tables_number   1
_chemical_formula_structural   Be17Ru3
_chemical_formula_sum   'Be68 Ru12'
_cell_volume   723.72006267
_cell_formula_units_Z   4
loop_
 _symmetry_equiv_pos_site_id
 _symmetry_equiv_pos_as_xyz
  1  'x, y, z'
loop_
 _atom_site_type_symbol
 _atom_site_label
 _atom_site_symmetry_multiplicity
 _atom_site_fract_x
 _atom_site_fract_y
 _atom_site_fract_z
 _atom_site_occupancy
  Be  Be0  1  1.54466252  1.08763293  0.85969255  1.0
  Be  Be1  1  0.54466252  0.68496996  0.45702958  1.0
  Be  Be2  1  1.22794038  1.08763293  0.54297042  1.0
  Be  Be3  1  1.22794038  0.68496996  1.14030745  1.0
  Be  Be4  1  0.45702958  0.77205962  0.91236707  1.0
  Be  Be5  1  0.45702958  0.54466252  0.68496996  1.0
  Be  Be6  1  0.85969255  0.77205962  0.31503004  1.0
  Be  Be7  1  0.85969255  1.54466252  1.08763293  1.0
  Be  Be8  1  0.68496996  1.14030745  1.22794038  1.0
  Be  Be9  1  0.68496996  0.45702958  0.54466252  1.0
  Be  Be10  1  0.91236707  1.14030745  1.45533748  1.0
  Be  Be11  1  0.91236707  0.45702958  0.77205962  1.0
  Be  Be12  1  0.77205962  0.31503004  0.85969255  1.0
  Be  Be13  1  0.77205962  0.91236707  0.45702958  1.0
  Be  Be14  1  0.45533748  0.31503004  0.54297042  1.0
  Be  Be15  1  1.45533748  0.91236707  1.14030745  1.0
  Be  Be16  1  1.14030745  1.45533748  0.91236707  1.0
  Be  Be17  1  1.14030745  1.22794038  0.68496996  1.0
  Be  Be18  1  0.54297042  0.45533748  0.31503004  1.0
  Be  Be19  1  0.54297042  1.22794038  1.08763293  1.0
  Be  Be20  1  1.08763293  0.54297042  1.22794038  1.0
  Be  Be21  1  1.08763293  0.85969255  1.54466252  1.0
  Be  Be22  1  0.31503004  0.54297042  0.45533748  1.0
  Be  Be23  1  0.31503004  0.85969255  0.77205962  1.0
  Be  Be24  1  0.76914500  0.09360603  0.86275103  1.0
  Be  Be25  1  0.76914500  0.90639397  0.67553897  1.0
  Be  Be26  1  0.23085500  0.09360603  0.32446103  1.0
  Be  Be27  1  1.23085500  0.90639397  1.13724897  1.0
  Be  Be28  1  0.67553897  0.76914500  0.90639397  1.0
  Be  Be29  1  0.86275103  0.76914500  0.09360603  1.0
  Be  Be30  1  0.90639397  1.13724897  1.23085500  1.0
  Be  Be31  1  0.90639397  0.67553897  0.76914500  1.0
  Be  Be32  1  1.13724897  1.23085500  0.90639397  1.0
  Be  Be33  1  0.32446103  0.23085500  0.09360603  1.0
  Be  Be34  1  0.09360603  0.32446103  0.23085500  1.0
  Be  Be35  1  0.09360603  0.86275103  0.76914500  1.0
  Be  Be36  1  0.59534304  0.34941745  0.94476049  1.0
  Be  Be37  1  0.59534304  0.65058255  0.24592558  1.0
  Be  Be38  1  0.40465696  0.34941745  0.75407442  1.0
  Be  Be39  1  1.40465696  0.65058255  1.05523951  1.0
  Be  Be40  1  0.24592558  0.59534304  0.65058255  1.0
  Be  Be41  1  0.94476049  0.59534304  0.34941745  1.0
  Be  Be42  1  0.65058255  1.05523951  1.40465696  1.0
  Be  Be43  1  0.65058255  0.24592558  0.59534304  1.0
  Be  Be44  1  1.05523951  1.40465696  0.65058255  1.0
  Be  Be45  1  0.75407442  0.40465696  0.34941745  1.0
  Be  Be46  1  0.34941745  0.75407442  0.40465696  1.0
  Be  Be47  1  0.34941745  0.94476049  0.59534304  1.0
  Be  Be48  1  0.66928250  1.00000000  1.00000000  1.0
  Be  Be49  1  0.66928250  0.66928250  0.66928250  1.0
  Be  Be50  1  1.00000000  1.00000000  0.33071750  1.0
  Be  Be51  1  1.00000000  0.66928250  1.00000000  1.0
  Be  Be52  1  1.00000000  0.33071750  1.00000000  1.0
  Be  Be53  1  1.00000000  1.00000000  0.66928250  1.0
  Be  Be54  1  0.33071750  0.33071750  0.33071750  1.0
  Be  Be55  1  0.33071750  1.00000000  1.00000000  1.0
  Be  Be56  1  0.80468192  0.30468192  0.50000000  1.0
  Be  Be57  1  0.50000000  0.19531808  0.69531808  1.0
  Be  Be58  1  0.50000000  0.80468192  0.30468192  1.0
  Be  Be59  1  0.30468192  0.50000000  0.80468192  1.0
  Be  Be60  1  0.69531808  0.50000000  0.19531808  1.0
  Be  Be61  1  0.19531808  0.69531808  0.50000000  1.0
  Be  Be62  1  0.59737981  0.59737981  -0.00000000  1.0
  Be  Be63  1  0.00000000  0.40262019  0.40262019  1.0
  Be  Be64  1  0.00000000  0.59737981  0.59737981  1.0
  Be  Be65  1  0.59737981  0.00000000  0.59737981  1.0
  Be  Be66  1  0.40262019  -0.00000000  0.40262019  1.0
  Be  Be67  1  0.40262019  0.40262019  -0.00000000  1.0
  Ru  Ru68  1  0.81206561  1.30136322  1.11342883  1.0
  Ru  Ru69  1  0.81206561  0.69863678  0.51070239  1.0
  Ru  Ru70  1  0.18793439  0.30136322  0.48929761  1.0
  Ru  Ru71  1  0.18793439  0.69863678  0.88657117  1.0
  Ru  Ru72  1  0.51070239  0.81206561  0.69863678  1.0
  Ru  Ru73  1  1.11342883  0.81206561  1.30136322  1.0
  Ru  Ru74  1  0.69863678  0.88657117  0.18793439  1.0
  Ru  Ru75  1  0.69863678  0.51070239  0.81206561  1.0
  Ru  Ru76  1  0.88657117  0.18793439  0.69863678  1.0
  Ru  Ru77  1  0.48929761  0.18793439  0.30136322  1.0
  Ru  Ru78  1  0.30136322  0.48929761  0.18793439  1.0
  Ru  Ru79  1  1.30136322  1.11342883  0.81206561  1.0
