# generated using pymatgen
data_AlCu4
_symmetry_space_group_name_H-M   'P 1'
_cell_length_a   6.32026307
_cell_length_b   6.32026307
_cell_length_c   6.32026307
_cell_angle_alpha   90.00000000
_cell_angle_beta   90.00000000
_cell_angle_gamma   90.00000000
_symmetry_Int_Tables_number   1
_chemical_formula_structural   AlCu4
_chemical_formula_sum   'Al4 Cu16'
_cell_volume   252.46749245
_cell_formula_units_Z   4
loop_
 _symmetry_equiv_pos_site_id
 _symmetry_equiv_pos_as_xyz
  1  'x, y, z'
loop_
 _atom_site_type_symbol
 _atom_site_label
 _atom_site_symmetry_multiplicity
 _atom_site_fract_x
 _atom_site_fract_y
 _atom_site_fract_z
 _atom_site_occupancy
  Al  Al0  1  0.43978016  0.93978016  0.56021984  1.0
  Al  Al1  1  0.93978016  0.56021984  0.43978016  1.0
  Al  Al2  1  0.56021984  0.43978016  0.93978016  1.0
  Al  Al3  1  0.06021984  0.06021984  0.06021984  1.0
  Cu  Cu4  1  0.37534056  0.79865925  0.95253967  1.0
  Cu  Cu5  1  0.87534056  0.70134075  0.04746033  1.0
  Cu  Cu6  1  0.29865925  0.54746033  0.62465944  1.0
  Cu  Cu7  1  0.79865925  0.95253967  0.37534056  1.0
  Cu  Cu8  1  0.04746033  0.87534056  0.70134075  1.0
  Cu  Cu9  1  0.54746033  0.62465944  0.29865925  1.0
  Cu  Cu10  1  0.62465944  0.29865925  0.54746033  1.0
  Cu  Cu11  1  0.12465944  0.20134075  0.45253967  1.0
  Cu  Cu12  1  0.70134075  0.04746033  0.87534056  1.0
  Cu  Cu13  1  0.20134075  0.45253967  0.12465944  1.0
  Cu  Cu14  1  0.95253967  0.37534056  0.79865925  1.0
  Cu  Cu15  1  0.45253967  0.12465944  0.20134075  1.0
  Cu  Cu16  1  0.80921834  0.30921834  0.19078166  1.0
  Cu  Cu17  1  0.30921834  0.19078166  0.80921834  1.0
  Cu  Cu18  1  0.19078166  0.80921834  0.30921834  1.0
  Cu  Cu19  1  0.69078166  0.69078166  0.69078166  1.0
