# generated using pymatgen
data_LiB5(PbO5)2
_symmetry_space_group_name_H-M   'P 1'
_cell_length_a   4.45801766
_cell_length_b   14.44022782
_cell_length_c   7.02419779
_cell_angle_alpha   90.00000000
_cell_angle_beta   108.63161546
_cell_angle_gamma   90.00000000
_symmetry_Int_Tables_number   1
_chemical_formula_structural   LiB5(PbO5)2
_chemical_formula_sum   'Li2 B10 Pb4 O20'
_cell_volume   428.48346684
_cell_formula_units_Z   2
loop_
 _symmetry_equiv_pos_site_id
 _symmetry_equiv_pos_as_xyz
  1  'x, y, z'
loop_
 _atom_site_type_symbol
 _atom_site_label
 _atom_site_symmetry_multiplicity
 _atom_site_fract_x
 _atom_site_fract_y
 _atom_site_fract_z
 _atom_site_occupancy
  Li  Li0  1  0.59157908  0.25000000  0.01388985  1.0
  Li  Li1  1  0.40842092  0.75000000  0.98611015  1.0
  B  B2  1  0.98219585  0.33679672  0.80617890  1.0
  B  B3  1  0.98219585  0.16320328  0.80617890  1.0
  B  B4  1  0.01780415  0.83679672  0.19382110  1.0
  B  B5  1  0.01780415  0.66320328  0.19382110  1.0
  B  B6  1  0.48312366  0.42112170  0.80761581  1.0
  B  B7  1  0.48312366  0.07887830  0.80761581  1.0
  B  B8  1  0.51687634  0.92112170  0.19238419  1.0
  B  B9  1  0.51687634  0.57887830  0.19238419  1.0
  B  B10  1  0.85824617  0.25000000  0.48038808  1.0
  B  B11  1  0.14175383  0.75000000  0.51961192  1.0
  Pb  Pb12  1  0.89740016  0.92179277  0.68914419  1.0
  Pb  Pb13  1  0.89740016  0.57820723  0.68914419  1.0
  Pb  Pb14  1  0.10259984  0.42179277  0.31085581  1.0
  Pb  Pb15  1  0.10259984  0.07820723  0.31085581  1.0
  O  O16  1  0.88130391  0.33384338  0.58265163  1.0
  O  O17  1  0.88130391  0.16615662  0.58265163  1.0
  O  O18  1  0.11869609  0.83384338  0.41734837  1.0
  O  O19  1  0.11869609  0.66615662  0.41734837  1.0
  O  O20  1  0.81561483  0.41592758  0.86742485  1.0
  O  O21  1  0.81561483  0.08407242  0.86742485  1.0
  O  O22  1  0.18438517  0.91592758  0.13257515  1.0
  O  O23  1  0.18438517  0.58407242  0.13257515  1.0
  O  O24  1  0.33842099  0.49025073  0.67718674  1.0
  O  O25  1  0.33842099  0.00974927  0.67718674  1.0
  O  O26  1  0.66157901  0.99025073  0.32281326  1.0
  O  O27  1  0.66157901  0.50974927  0.32281326  1.0
  O  O28  1  0.32922533  0.35680283  0.88678721  1.0
  O  O29  1  0.32922533  0.14319717  0.88678721  1.0
  O  O30  1  0.67077467  0.85680283  0.11321279  1.0
  O  O31  1  0.67077467  0.64319717  0.11321279  1.0
  O  O32  1  0.91707263  0.25000000  0.88741930  1.0
  O  O33  1  0.08292737  0.75000000  0.11258070  1.0
  O  O34  1  0.83267072  0.25000000  0.28432194  1.0
  O  O35  1  0.16732928  0.75000000  0.71567806  1.0
