# generated using pymatgen
data_VIn(TeO4)2
_symmetry_space_group_name_H-M   'P 1'
_cell_length_a   7.99749494
_cell_length_b   5.28668679
_cell_length_c   18.13241723
_cell_angle_alpha   90.00000000
_cell_angle_beta   111.82123920
_cell_angle_gamma   90.00000000
_symmetry_Int_Tables_number   1
_chemical_formula_structural   VIn(TeO4)2
_chemical_formula_sum   'V4 In4 Te8 O32'
_cell_volume   711.71171005
_cell_formula_units_Z   4
loop_
 _symmetry_equiv_pos_site_id
 _symmetry_equiv_pos_as_xyz
  1  'x, y, z'
loop_
 _atom_site_type_symbol
 _atom_site_label
 _atom_site_symmetry_multiplicity
 _atom_site_fract_x
 _atom_site_fract_y
 _atom_site_fract_z
 _atom_site_occupancy
  V  V0  1  0.71753876  0.30816287  0.07689938  1.0
  V  V1  1  0.71753876  0.19183713  0.57689938  1.0
  V  V2  1  0.28246124  0.80816287  0.42310062  1.0
  V  V3  1  0.28246124  0.69183713  0.92310062  1.0
  In  In4  1  0.97664788  0.29591564  0.32507077  1.0
  In  In5  1  0.97664788  0.20408436  0.82507077  1.0
  In  In6  1  0.02335212  0.79591564  0.17492923  1.0
  In  In7  1  0.02335212  0.70408436  0.67492923  1.0
  Te  Te8  1  0.79616287  0.86264882  0.43168795  1.0
  Te  Te9  1  0.79616287  0.63735118  0.93168795  1.0
  Te  Te10  1  0.20383713  0.36264882  0.06831205  1.0
  Te  Te11  1  0.20383713  0.13735118  0.56831205  1.0
  Te  Te12  1  0.35148190  0.27577747  0.27976553  1.0
  Te  Te13  1  0.35148190  0.22422253  0.77976553  1.0
  Te  Te14  1  0.64851810  0.77577747  0.22023447  1.0
  Te  Te15  1  0.64851810  0.72422253  0.72023447  1.0
  O  O16  1  0.97242864  0.12873232  0.43427632  1.0
  O  O17  1  0.97242864  0.37126768  0.93427632  1.0
  O  O18  1  0.02757136  0.62873232  0.06572368  1.0
  O  O19  1  0.02757136  0.87126768  0.56572368  1.0
  O  O20  1  0.90481428  0.12588421  0.09702242  1.0
  O  O21  1  0.90481428  0.37411579  0.59702242  1.0
  O  O22  1  0.09518572  0.62588421  0.40297758  1.0
  O  O23  1  0.09518572  0.87411579  0.90297758  1.0
  O  O24  1  0.88430721  0.95801832  0.24767551  1.0
  O  O25  1  0.88430721  0.54198168  0.74767551  1.0
  O  O26  1  0.11569279  0.45801832  0.25232449  1.0
  O  O27  1  0.11569279  0.04198168  0.75232449  1.0
  O  O28  1  0.73079287  0.49287800  0.29371862  1.0
  O  O29  1  0.73079287  0.00712200  0.79371862  1.0
  O  O30  1  0.26920713  0.99287800  0.20628138  1.0
  O  O31  1  0.26920713  0.50712200  0.70628138  1.0
  O  O32  1  0.65325646  0.08628058  0.47484211  1.0
  O  O33  1  0.65325646  0.41371942  0.97484211  1.0
  O  O34  1  0.34674354  0.58628058  0.02515789  1.0
  O  O35  1  0.34674354  0.91371942  0.52515789  1.0
  O  O36  1  0.63359098  0.97026082  0.32195476  1.0
  O  O37  1  0.63359098  0.52973918  0.82195476  1.0
  O  O38  1  0.36640902  0.47026082  0.17804524  1.0
  O  O39  1  0.36640902  0.02973918  0.67804524  1.0
  O  O40  1  0.55824028  0.13930100  0.08875913  1.0
  O  O41  1  0.55824028  0.36069900  0.58875913  1.0
  O  O42  1  0.44175972  0.63930100  0.41124087  1.0
  O  O43  1  0.44175972  0.86069900  0.91124087  1.0
  O  O44  1  0.23698229  0.07848501  0.35762654  1.0
  O  O45  1  0.23698229  0.42151499  0.85762654  1.0
  O  O46  1  0.76301771  0.57848501  0.14237346  1.0
  O  O47  1  0.76301771  0.92151499  0.64237346  1.0
