# generated using pymatgen
data_Ba2LiFe2N3
_symmetry_space_group_name_H-M   'P 1'
_cell_length_a   6.78372884
_cell_length_b   6.78372884
_cell_length_c   6.79099996
_cell_angle_alpha   88.96768755
_cell_angle_beta   91.03231245
_cell_angle_gamma   60.67699108
_symmetry_Int_Tables_number   1
_chemical_formula_structural   Ba2LiFe2N3
_chemical_formula_sum   'Ba4 Li2 Fe4 N6'
_cell_volume   272.29979846
_cell_formula_units_Z   2
loop_
 _symmetry_equiv_pos_site_id
 _symmetry_equiv_pos_as_xyz
  1  'x, y, z'
loop_
 _atom_site_type_symbol
 _atom_site_label
 _atom_site_symmetry_multiplicity
 _atom_site_fract_x
 _atom_site_fract_y
 _atom_site_fract_z
 _atom_site_occupancy
  Ba  Ba0  1  0.32748228  -0.18147841  0.10139300  1.0
  Ba  Ba1  1  1.18147841  0.67251772  0.60139300  1.0
  Ba  Ba2  1  0.81852159  -0.67251772  0.39860700  1.0
  Ba  Ba3  1  1.67251772  0.18147841  0.89860700  1.0
  Li  Li4  1  1.30833807  0.30833807  0.25000000  1.0
  Li  Li5  1  0.69166193  -0.30833807  0.75000000  1.0
  Fe  Fe6  1  0.66109661  -0.06687918  0.39881473  1.0
  Fe  Fe7  1  1.06687918  0.33890339  0.89881473  1.0
  Fe  Fe8  1  0.93312082  -0.33890339  0.10118527  1.0
  Fe  Fe9  1  1.33890339  0.06687918  0.60118527  1.0
  N  N10  1  0.50843390  -0.21346579  0.49669116  1.0
  N  N11  1  1.21346579  0.49156610  0.99669116  1.0
  N  N12  1  0.78653421  -0.49156610  0.00330884  1.0
  N  N13  1  1.49156610  0.21346579  0.50330884  1.0
  N  N14  1  0.89682129  -0.10317871  0.25000000  1.0
  N  N15  1  1.10317871  0.10317871  0.75000000  1.0
