# generated using pymatgen
data_YbSnPd
_symmetry_space_group_name_H-M   'P 1'
_cell_length_a   7.63757816
_cell_length_b   7.63757816
_cell_length_c   3.92232007
_cell_angle_alpha   90.00000000
_cell_angle_beta   90.00000000
_cell_angle_gamma   120.00000000
_symmetry_Int_Tables_number   1
_chemical_formula_structural   YbSnPd
_chemical_formula_sum   'Yb3 Sn3 Pd3'
_cell_volume   198.14585743
_cell_formula_units_Z   3
loop_
 _symmetry_equiv_pos_site_id
 _symmetry_equiv_pos_as_xyz
  1  'x, y, z'
loop_
 _atom_site_type_symbol
 _atom_site_label
 _atom_site_symmetry_multiplicity
 _atom_site_fract_x
 _atom_site_fract_y
 _atom_site_fract_z
 _atom_site_occupancy
  Yb  Yb0  1  0.40458412  0.40458412  0.00000000  1.0
  Yb  Yb1  1  0.00000000  0.59541588  -0.00000000  1.0
  Yb  Yb2  1  0.59541588  -0.00000000  -0.00000000  1.0
  Sn  Sn3  1  0.73688557  0.73688557  0.50000000  1.0
  Sn  Sn4  1  -0.00000000  0.26311443  0.50000000  1.0
  Sn  Sn5  1  0.26311443  0.00000000  0.50000000  1.0
  Pd  Pd6  1  0.33333333  0.66666667  0.50000000  1.0
  Pd  Pd7  1  0.66666667  0.33333333  0.50000000  1.0
  Pd  Pd8  1  0.00000000  -0.00000000  -0.00000000  1.0
