# generated using pymatgen
data_TlHgAsS3
_symmetry_space_group_name_H-M   'P 1'
_cell_length_a   9.86461162
_cell_length_b   9.86461162
_cell_length_c   9.86461162
_cell_angle_alpha   106.39397575
_cell_angle_beta   106.39397575
_cell_angle_gamma   115.81831178
_symmetry_Int_Tables_number   1
_chemical_formula_structural   TlHgAsS3
_chemical_formula_sum   'Tl4 Hg4 As4 S12'
_cell_volume   732.08009815
_cell_formula_units_Z   4
loop_
 _symmetry_equiv_pos_site_id
 _symmetry_equiv_pos_as_xyz
  1  'x, y, z'
loop_
 _atom_site_type_symbol
 _atom_site_label
 _atom_site_symmetry_multiplicity
 _atom_site_fract_x
 _atom_site_fract_y
 _atom_site_fract_z
 _atom_site_occupancy
  Tl  Tl0  1  0.34218318  0.34218318  0.00000000  1.0
  Tl  Tl1  1  0.65781682  0.65781682  -0.00000000  1.0
  Tl  Tl2  1  1.25000000  0.75000000  0.50000000  1.0
  Tl  Tl3  1  0.75000000  1.25000000  0.50000000  1.0
  Hg  Hg4  1  0.26965305  -0.00000000  0.26965305  1.0
  Hg  Hg5  1  0.73034695  -0.00000000  0.73034695  1.0
  Hg  Hg6  1  -0.00000000  0.73034695  0.73034695  1.0
  Hg  Hg7  1  -0.00000000  0.26965305  0.26965305  1.0
  As  As8  1  1.01607659  1.01607659  0.49381156  1.0
  As  As9  1  0.52226503  0.52226503  0.50618844  1.0
  As  As10  1  0.47773497  0.98392341  1.00000000  1.0
  As  As11  1  0.98392341  0.47773497  1.00000000  1.0
  S  S12  1  1.28235833  1.08064736  0.54350964  1.0
  S  S13  1  0.53713772  0.73884869  0.45649036  1.0
  S  S14  1  1.46286228  0.91935264  1.20171097  1.0
  S  S15  1  0.71764167  0.26115131  0.79828903  1.0
  S  S16  1  0.26115131  0.71764167  0.79828903  1.0
  S  S17  1  0.91935264  1.46286228  1.20171097  1.0
  S  S18  1  1.08064736  1.28235833  0.54350964  1.0
  S  S19  1  0.73884869  0.53713772  0.45649036  1.0
  S  S20  1  1.02898460  1.02898460  0.74059047  1.0
  S  S21  1  0.28839413  0.28839413  0.25940953  1.0
  S  S22  1  1.71160587  0.97101540  1.00000000  1.0
  S  S23  1  0.97101540  1.71160587  1.00000000  1.0
