# generated using pymatgen
data_BaF3
_symmetry_space_group_name_H-M   'P 1'
_cell_length_a   4.73853193
_cell_length_b   4.50833505
_cell_length_c   6.53973524
_cell_angle_alpha   90.00000000
_cell_angle_beta   90.02783842
_cell_angle_gamma   90.00000000
_symmetry_Int_Tables_number   1
_chemical_formula_structural   BaF3
_chemical_formula_sum   'Ba2 F6'
_cell_volume   139.70762529
_cell_formula_units_Z   2
loop_
 _symmetry_equiv_pos_site_id
 _symmetry_equiv_pos_as_xyz
  1  'x, y, z'
loop_
 _atom_site_type_symbol
 _atom_site_label
 _atom_site_symmetry_multiplicity
 _atom_site_fract_x
 _atom_site_fract_y
 _atom_site_fract_z
 _atom_site_occupancy
  Ba  Ba0  1  0.24989112  0.25000000  0.78223018  1.0
  Ba  Ba1  1  0.75010888  0.75000000  0.21776982  1.0
  F  F2  1  0.75004537  0.25000000  0.97046895  1.0
  F  F3  1  0.24995463  0.75000000  0.02953105  1.0
  F  F4  1  0.45754080  0.25000000  0.36820122  1.0
  F  F5  1  0.54245920  0.75000000  0.63179878  1.0
  F  F6  1  0.04268707  0.25000000  0.36804201  1.0
  F  F7  1  0.95731293  0.75000000  0.63195799  1.0
