# generated using pymatgen
data_Hf2InCu2
_symmetry_space_group_name_H-M   'P 1'
_cell_length_a   7.23592587
_cell_length_b   7.23592587
_cell_length_c   6.75739963
_cell_angle_alpha   90.00000000
_cell_angle_beta   90.00000000
_cell_angle_gamma   90.00000000
_symmetry_Int_Tables_number   1
_chemical_formula_structural   Hf2InCu2
_chemical_formula_sum   'Hf8 In4 Cu8'
_cell_volume   353.80814143
_cell_formula_units_Z   4
loop_
 _symmetry_equiv_pos_site_id
 _symmetry_equiv_pos_as_xyz
  1  'x, y, z'
loop_
 _atom_site_type_symbol
 _atom_site_label
 _atom_site_symmetry_multiplicity
 _atom_site_fract_x
 _atom_site_fract_y
 _atom_site_fract_z
 _atom_site_occupancy
  Hf  Hf0  1  0.19522570  0.19522570  0.50000000  1.0
  Hf  Hf1  1  0.69522570  0.30477430  0.00000000  1.0
  Hf  Hf2  1  0.80477430  0.80477430  0.50000000  1.0
  Hf  Hf3  1  0.30477430  0.69522570  0.00000000  1.0
  Hf  Hf4  1  0.34955057  0.65044943  0.50000000  1.0
  Hf  Hf5  1  0.84955057  0.84955057  0.00000000  1.0
  Hf  Hf6  1  0.65044943  0.34955057  0.50000000  1.0
  Hf  Hf7  1  0.15044943  0.15044943  0.00000000  1.0
  In  In8  1  0.50000000  0.00000000  0.25000000  1.0
  In  In9  1  0.50000000  0.00000000  0.75000000  1.0
  In  In10  1  0.00000000  0.50000000  0.75000000  1.0
  In  In11  1  0.00000000  0.50000000  0.25000000  1.0
  Cu  Cu12  1  0.12251050  0.87748950  0.29777334  1.0
  Cu  Cu13  1  0.12251050  0.87748950  0.70222666  1.0
  Cu  Cu14  1  0.62251050  0.62251050  0.79777334  1.0
  Cu  Cu15  1  0.62251050  0.62251050  0.20222666  1.0
  Cu  Cu16  1  0.87748950  0.12251050  0.29777334  1.0
  Cu  Cu17  1  0.87748950  0.12251050  0.70222666  1.0
  Cu  Cu18  1  0.37748950  0.37748950  0.79777334  1.0
  Cu  Cu19  1  0.37748950  0.37748950  0.20222666  1.0
