# generated using pymatgen
data_CdSeO3
_symmetry_space_group_name_H-M   'P 1'
_cell_length_a   6.40982927
_cell_length_b   8.29481149
_cell_length_c   5.36515324
_cell_angle_alpha   90.00000000
_cell_angle_beta   90.00000000
_cell_angle_gamma   90.00000000
_symmetry_Int_Tables_number   1
_chemical_formula_structural   CdSeO3
_chemical_formula_sum   'Cd4 Se4 O12'
_cell_volume   285.25621394
_cell_formula_units_Z   4
loop_
 _symmetry_equiv_pos_site_id
 _symmetry_equiv_pos_as_xyz
  1  'x, y, z'
loop_
 _atom_site_type_symbol
 _atom_site_label
 _atom_site_symmetry_multiplicity
 _atom_site_fract_x
 _atom_site_fract_y
 _atom_site_fract_z
 _atom_site_occupancy
  Cd  Cd0  1  0.50000000  0.00000000  0.50000000  1.0
  Cd  Cd1  1  0.50000000  0.50000000  0.50000000  1.0
  Cd  Cd2  1  0.00000000  0.00000000  0.00000000  1.0
  Cd  Cd3  1  0.00000000  0.50000000  0.00000000  1.0
  Se  Se4  1  0.46728377  0.75000000  0.01642211  1.0
  Se  Se5  1  0.96728377  0.75000000  0.48357789  1.0
  Se  Se6  1  0.53271623  0.25000000  0.98357789  1.0
  Se  Se7  1  0.03271623  0.25000000  0.51642211  1.0
  O  O8  1  0.32312775  0.91198000  0.13190769  1.0
  O  O9  1  0.32312775  0.58802000  0.13190769  1.0
  O  O10  1  0.82312775  0.91198000  0.36809231  1.0
  O  O11  1  0.82312775  0.58802000  0.36809231  1.0
  O  O12  1  0.67687225  0.41198000  0.86809231  1.0
  O  O13  1  0.67687225  0.08802000  0.86809231  1.0
  O  O14  1  0.17687225  0.41198000  0.63190769  1.0
  O  O15  1  0.17687225  0.08802000  0.63190769  1.0
  O  O16  1  0.40690443  0.75000000  0.70209824  1.0
  O  O17  1  0.90690443  0.75000000  0.79790176  1.0
  O  O18  1  0.59309557  0.25000000  0.29790176  1.0
  O  O19  1  0.09309557  0.25000000  0.20209824  1.0
