# generated using pymatgen
data_SnPS3
_symmetry_space_group_name_H-M   'P 1'
_cell_length_a   6.66597072
_cell_length_b   7.69726963
_cell_length_c   11.88542501
_cell_angle_alpha   90.00000000
_cell_angle_beta   124.05718081
_cell_angle_gamma   90.00000000
_symmetry_Int_Tables_number   1
_chemical_formula_structural   SnPS3
_chemical_formula_sum   'Sn4 P4 S12'
_cell_volume   505.23842084
_cell_formula_units_Z   4
loop_
 _symmetry_equiv_pos_site_id
 _symmetry_equiv_pos_as_xyz
  1  'x, y, z'
loop_
 _atom_site_type_symbol
 _atom_site_label
 _atom_site_symmetry_multiplicity
 _atom_site_fract_x
 _atom_site_fract_y
 _atom_site_fract_z
 _atom_site_occupancy
  Sn  Sn0  1  0.83969538  0.39954043  0.44603223  1.0
  Sn  Sn1  1  0.83969538  0.60045957  0.94603223  1.0
  Sn  Sn2  1  0.38731800  0.86881397  0.43709732  1.0
  Sn  Sn3  1  0.38731800  0.13118603  0.93709732  1.0
  P  P4  1  0.76838606  0.86505329  0.30814656  1.0
  P  P5  1  0.76838606  0.13494671  0.80814656  1.0
  P  P6  1  0.51384747  0.64981340  0.17654880  1.0
  P  P7  1  0.51384747  0.35018660  0.67654880  1.0
  S  S8  1  -0.00484950  0.75126033  0.49337595  1.0
  S  S9  1  -0.00484950  0.24873967  -0.00662405  1.0
  S  S10  1  0.94018457  0.95357494  0.22119535  1.0
  S  S11  1  0.94018457  0.04642506  0.72119535  1.0
  S  S12  1  0.73509936  0.45322439  0.19295634  1.0
  S  S13  1  0.73509936  0.54677561  0.69295634  1.0
  S  S14  1  0.54227906  0.94804156  0.80081711  1.0
  S  S15  1  0.54227906  0.05195844  0.30081711  1.0
  S  S16  1  0.35992589  0.57360878  0.27844423  1.0
  S  S17  1  0.35992589  0.42639122  0.77844423  1.0
  S  S18  1  0.28221371  0.74029290  0.98568610  1.0
  S  S19  1  0.28221371  0.25970710  0.48568610  1.0
