# generated using pymatgen
data_MgH8(ClO6)2
_symmetry_space_group_name_H-M   'P 1'
_cell_length_a   7.11221379
_cell_length_b   7.11221379
_cell_length_c   6.13787184
_cell_angle_alpha   69.96475035
_cell_angle_beta   110.03524965
_cell_angle_gamma   112.13585836
_symmetry_Int_Tables_number   1
_chemical_formula_structural   MgH8(ClO6)2
_chemical_formula_sum   'Mg1 H8 Cl2 O12'
_cell_volume   261.92902252
_cell_formula_units_Z   1
loop_
 _symmetry_equiv_pos_site_id
 _symmetry_equiv_pos_as_xyz
  1  'x, y, z'
loop_
 _atom_site_type_symbol
 _atom_site_label
 _atom_site_symmetry_multiplicity
 _atom_site_fract_x
 _atom_site_fract_y
 _atom_site_fract_z
 _atom_site_occupancy
  Mg  Mg0  1  0.00000000  0.00000000  0.00000000  1.0
  H  H1  1  0.61769874  -0.27455590  0.86954872  1.0
  H  H2  1  1.27455590  0.38230126  0.86954872  1.0
  H  H3  1  0.72544410  -0.38230126  0.13045128  1.0
  H  H4  1  1.38230126  0.27455590  0.13045128  1.0
  H  H5  1  0.23172696  -0.03383268  0.74353901  1.0
  H  H6  1  1.03383268  0.76827304  0.74353901  1.0
  H  H7  1  0.96616732  -0.76827304  0.25646099  1.0
  H  H8  1  1.76827304  0.03383268  0.25646099  1.0
  Cl  Cl9  1  0.70174575  -0.70174575  0.59514146  1.0
  Cl  Cl10  1  0.29825425  -0.29825425  0.40485854  1.0
  O  O11  1  1.51567214  0.18282342  0.68523620  1.0
  O  O12  1  0.81717658  -0.51567214  0.68523620  1.0
  O  O13  1  1.18282342  0.51567214  0.31476380  1.0
  O  O14  1  0.48432786  -0.18282342  0.31476380  1.0
  O  O15  1  0.89383207  -0.89383207  0.19620493  1.0
  O  O16  1  0.10616793  -0.10616793  0.80379507  1.0
  O  O17  1  0.83820996  -0.83820996  0.66339341  1.0
  O  O18  1  0.16179004  -0.16179004  0.33660659  1.0
  O  O19  1  0.35745130  -0.35745130  0.67016204  1.0
  O  O20  1  0.64254870  -0.64254870  0.32983796  1.0
  O  O21  1  0.74474581  -0.25525419  0.00000000  1.0
  O  O22  1  1.25525419  0.25525419  0.00000000  1.0
