# generated using pymatgen
data_Y3Pt
_symmetry_space_group_name_H-M   'P 1'
_cell_length_a   7.06981983
_cell_length_b   9.64562086
_cell_length_c   6.52132347
_cell_angle_alpha   90.00000000
_cell_angle_beta   90.00000000
_cell_angle_gamma   90.00000000
_symmetry_Int_Tables_number   1
_chemical_formula_structural   Y3Pt
_chemical_formula_sum   'Y12 Pt4'
_cell_volume   444.70731782
_cell_formula_units_Z   4
loop_
 _symmetry_equiv_pos_site_id
 _symmetry_equiv_pos_as_xyz
  1  'x, y, z'
loop_
 _atom_site_type_symbol
 _atom_site_label
 _atom_site_symmetry_multiplicity
 _atom_site_fract_x
 _atom_site_fract_y
 _atom_site_fract_z
 _atom_site_occupancy
  Y  Y0  1  0.32036187  0.93782581  0.68025576  1.0
  Y  Y1  1  0.32036187  0.56217419  0.68025576  1.0
  Y  Y2  1  0.82036187  0.93782581  0.81974424  1.0
  Y  Y3  1  0.82036187  0.56217419  0.81974424  1.0
  Y  Y4  1  0.67963813  0.43782581  0.31974424  1.0
  Y  Y5  1  0.67963813  0.06217419  0.31974424  1.0
  Y  Y6  1  0.17963813  0.43782581  0.18025576  1.0
  Y  Y7  1  0.17963813  0.06217419  0.18025576  1.0
  Y  Y8  1  0.47266206  0.75000000  0.13225004  1.0
  Y  Y9  1  0.97266206  0.75000000  0.36774996  1.0
  Y  Y10  1  0.52733794  0.25000000  0.86774996  1.0
  Y  Y11  1  0.02733794  0.25000000  0.63225004  1.0
  Pt  Pt12  1  0.11141304  0.75000000  0.95117724  1.0
  Pt  Pt13  1  0.61141304  0.75000000  0.54882276  1.0
  Pt  Pt14  1  0.88858696  0.25000000  0.04882276  1.0
  Pt  Pt15  1  0.38858696  0.25000000  0.45117724  1.0
