# generated using pymatgen
data_SmPOs2C
_symmetry_space_group_name_H-M   'P 1'
_cell_length_a   5.83879076
_cell_length_b   5.83879076
_cell_length_c   7.10020947
_cell_angle_alpha   90.00000000
_cell_angle_beta   90.00000000
_cell_angle_gamma   140.73985966
_symmetry_Int_Tables_number   1
_chemical_formula_structural   SmPOs2C
_chemical_formula_sum   'Sm2 P2 Os4 C2'
_cell_volume   153.18369296
_cell_formula_units_Z   2
loop_
 _symmetry_equiv_pos_site_id
 _symmetry_equiv_pos_as_xyz
  1  'x, y, z'
loop_
 _atom_site_type_symbol
 _atom_site_label
 _atom_site_symmetry_multiplicity
 _atom_site_fract_x
 _atom_site_fract_y
 _atom_site_fract_z
 _atom_site_occupancy
  Sm  Sm0  1  0.45608970  0.54391030  0.75000000  1.0
  Sm  Sm1  1  -0.45608970  0.45608970  0.25000000  1.0
  P  P2  1  -0.26968243  0.26968243  0.75000000  1.0
  P  P3  1  0.26968243  0.73031757  0.25000000  1.0
  Os  Os4  1  0.16839857  0.83160143  0.94448210  1.0
  Os  Os5  1  0.16839857  0.83160143  0.55551790  1.0
  Os  Os6  1  -0.16839857  0.16839857  0.44448210  1.0
  Os  Os7  1  -0.16839857  0.16839857  0.05551790  1.0
  C  C8  1  0.00000000  0.00000000  0.00000000  1.0
  C  C9  1  0.00000000  0.00000000  0.50000000  1.0
