# generated using pymatgen
data_KZn2BCl2O3
_symmetry_space_group_name_H-M   'P 1'
_cell_length_a   9.38114995
_cell_length_b   9.38114995
_cell_length_c   9.38114995
_cell_angle_alpha   30.93329797
_cell_angle_beta   30.93329797
_cell_angle_gamma   30.93329797
_symmetry_Int_Tables_number   1
_chemical_formula_structural   KZn2BCl2O3
_chemical_formula_sum   'K1 Zn2 B1 Cl2 O3'
_cell_volume   193.50768518
_cell_formula_units_Z   1
loop_
 _symmetry_equiv_pos_site_id
 _symmetry_equiv_pos_as_xyz
  1  'x, y, z'
loop_
 _atom_site_type_symbol
 _atom_site_label
 _atom_site_symmetry_multiplicity
 _atom_site_fract_x
 _atom_site_fract_y
 _atom_site_fract_z
 _atom_site_occupancy
  K  K0  1  1.50000000  0.50000000  0.50000000  1.0
  Zn  Zn1  1  0.69453806  0.69453806  0.69453806  1.0
  Zn  Zn2  1  1.30546194  1.30546194  0.30546194  1.0
  B  B3  1  0.00000000  0.00000000  0.00000000  1.0
  Cl  Cl4  1  0.77952226  0.77952226  0.77952226  1.0
  Cl  Cl5  1  1.22047774  1.22047774  0.22047774  1.0
  O  O6  1  0.72387084  0.00000000  -0.72387084  1.0
  O  O7  1  -0.00000000  0.27612916  -0.27612916  1.0
  O  O8  1  0.27612916  -0.27612916  0.00000000  1.0
