# generated using pymatgen
data_Pd(Br2N)2
_symmetry_space_group_name_H-M   'P 1'
_cell_length_a   9.52309187
_cell_length_b   9.52309187
_cell_length_c   3.00933543
_cell_angle_alpha   90.00000000
_cell_angle_beta   90.00000000
_cell_angle_gamma   90.00000000
_symmetry_Int_Tables_number   1
_chemical_formula_structural   Pd(Br2N)2
_chemical_formula_sum   'Pd1 Br4 N2'
_cell_volume   272.91446028
_cell_formula_units_Z   1
loop_
 _symmetry_equiv_pos_site_id
 _symmetry_equiv_pos_as_xyz
  1  'x, y, z'
loop_
 _atom_site_type_symbol
 _atom_site_label
 _atom_site_symmetry_multiplicity
 _atom_site_fract_x
 _atom_site_fract_y
 _atom_site_fract_z
 _atom_site_occupancy
  Pd  Pd0  1  0.00000000  0.00000000  0.00000000  1.0
  Br  Br1  1  0.81721276  0.81721276  0.00000000  1.0
  Br  Br2  1  0.81721276  0.18278724  0.00000000  1.0
  Br  Br3  1  0.18278724  0.81721276  0.00000000  1.0
  Br  Br4  1  0.18278724  0.18278724  0.00000000  1.0
  N  N5  1  0.00000000  0.50000000  0.50000000  1.0
  N  N6  1  0.50000000  0.00000000  0.50000000  1.0
