# generated using pymatgen
data_Al4Cu9
_symmetry_space_group_name_H-M   'P 1'
_cell_length_a   8.72357093
_cell_length_b   8.72357093
_cell_length_c   8.72357093
_cell_angle_alpha   90.00000000
_cell_angle_beta   90.00000000
_cell_angle_gamma   90.00000000
_symmetry_Int_Tables_number   1
_chemical_formula_structural   Al4Cu9
_chemical_formula_sum   'Al16 Cu36'
_cell_volume   663.86976408
_cell_formula_units_Z   4
loop_
 _symmetry_equiv_pos_site_id
 _symmetry_equiv_pos_as_xyz
  1  'x, y, z'
loop_
 _atom_site_type_symbol
 _atom_site_label
 _atom_site_symmetry_multiplicity
 _atom_site_fract_x
 _atom_site_fract_y
 _atom_site_fract_z
 _atom_site_occupancy
  Al  Al0  1  0.37877507  0.37877507  0.62122493  1.0
  Al  Al1  1  0.37877507  0.62122493  0.37877507  1.0
  Al  Al2  1  0.62122493  0.37877507  0.37877507  1.0
  Al  Al3  1  0.62122493  0.62122493  0.62122493  1.0
  Al  Al4  1  0.69053645  0.69053645  0.03471754  1.0
  Al  Al5  1  0.69053645  0.96528246  0.30946355  1.0
  Al  Al6  1  0.69053645  0.30946355  0.96528246  1.0
  Al  Al7  1  0.69053645  0.03471754  0.69053645  1.0
  Al  Al8  1  0.96528246  0.69053645  0.30946355  1.0
  Al  Al9  1  0.96528246  0.30946355  0.69053645  1.0
  Al  Al10  1  0.30946355  0.69053645  0.96528246  1.0
  Al  Al11  1  0.30946355  0.96528246  0.69053645  1.0
  Al  Al12  1  0.30946355  0.30946355  0.03471754  1.0
  Al  Al13  1  0.30946355  0.03471754  0.30946355  1.0
  Al  Al14  1  0.03471754  0.69053645  0.69053645  1.0
  Al  Al15  1  0.03471754  0.30946355  0.30946355  1.0
  Cu  Cu16  1  0.81618949  0.81618949  0.53071281  1.0
  Cu  Cu17  1  0.81618949  0.46928719  0.18381051  1.0
  Cu  Cu18  1  0.81618949  0.18381051  0.46928719  1.0
  Cu  Cu19  1  0.81618949  0.53071281  0.81618949  1.0
  Cu  Cu20  1  0.46928719  0.81618949  0.18381051  1.0
  Cu  Cu21  1  0.46928719  0.18381051  0.81618949  1.0
  Cu  Cu22  1  0.18381051  0.81618949  0.46928719  1.0
  Cu  Cu23  1  0.18381051  0.46928719  0.81618949  1.0
  Cu  Cu24  1  0.18381051  0.18381051  0.53071281  1.0
  Cu  Cu25  1  0.18381051  0.53071281  0.18381051  1.0
  Cu  Cu26  1  0.53071281  0.81618949  0.81618949  1.0
  Cu  Cu27  1  0.53071281  0.18381051  0.18381051  1.0
  Cu  Cu28  1  0.85593613  0.50000000  0.50000000  1.0
  Cu  Cu29  1  0.50000000  0.85593613  0.50000000  1.0
  Cu  Cu30  1  0.50000000  0.50000000  0.14406387  1.0
  Cu  Cu31  1  0.50000000  0.14406387  0.50000000  1.0
  Cu  Cu32  1  0.50000000  0.50000000  0.85593613  1.0
  Cu  Cu33  1  0.14406387  0.50000000  0.50000000  1.0
  Cu  Cu34  1  0.64492900  0.00000000  0.00000000  1.0
  Cu  Cu35  1  0.00000000  0.64492900  0.00000000  1.0
  Cu  Cu36  1  0.00000000  0.00000000  0.35507100  1.0
  Cu  Cu37  1  0.00000000  0.35507100  0.00000000  1.0
  Cu  Cu38  1  0.00000000  0.00000000  0.64492900  1.0
  Cu  Cu39  1  0.35507100  0.00000000  0.00000000  1.0
  Cu  Cu40  1  0.89418897  0.89418897  0.10581103  1.0
  Cu  Cu41  1  0.89418897  0.10581103  0.89418897  1.0
  Cu  Cu42  1  0.10581103  0.89418897  0.89418897  1.0
  Cu  Cu43  1  0.10581103  0.10581103  0.10581103  1.0
  Cu  Cu44  1  0.66913046  0.66913046  0.33086954  1.0
  Cu  Cu45  1  0.66913046  0.33086954  0.66913046  1.0
  Cu  Cu46  1  0.33086954  0.66913046  0.66913046  1.0
  Cu  Cu47  1  0.33086954  0.33086954  0.33086954  1.0
  Cu  Cu48  1  0.17480732  0.17480732  0.82519268  1.0
  Cu  Cu49  1  0.17480732  0.82519268  0.17480732  1.0
  Cu  Cu50  1  0.82519268  0.17480732  0.17480732  1.0
  Cu  Cu51  1  0.82519268  0.82519268  0.82519268  1.0
