# generated using pymatgen
data_CdI2
_symmetry_space_group_name_H-M   'P 1'
_cell_length_a   4.32793206
_cell_length_b   4.32793206
_cell_length_c   75.85036059
_cell_angle_alpha   90.00000000
_cell_angle_beta   90.00000000
_cell_angle_gamma   120.00000000
_symmetry_Int_Tables_number   1
_chemical_formula_structural   CdI2
_chemical_formula_sum   'Cd10 I20'
_cell_volume   1230.40801465
_cell_formula_units_Z   10
loop_
 _symmetry_equiv_pos_site_id
 _symmetry_equiv_pos_as_xyz
  1  'x, y, z'
loop_
 _atom_site_type_symbol
 _atom_site_label
 _atom_site_symmetry_multiplicity
 _atom_site_fract_x
 _atom_site_fract_y
 _atom_site_fract_z
 _atom_site_occupancy
  Cd  Cd0  1  -0.00000000  -0.00000000  0.02501201  1.0
  Cd  Cd1  1  -0.00000000  -0.00000000  0.12499609  1.0
  Cd  Cd2  1  -0.00000000  -0.00000000  0.22499809  1.0
  Cd  Cd3  1  -0.00000000  -0.00000000  0.32499593  1.0
  Cd  Cd4  1  -0.00000000  -0.00000000  0.42498374  1.0
  Cd  Cd5  1  -0.00000000  -0.00000000  0.62501164  1.0
  Cd  Cd6  1  -0.00000000  -0.00000000  0.72499595  1.0
  Cd  Cd7  1  -0.00000000  -0.00000000  0.82498314  1.0
  Cd  Cd8  1  0.66666667  0.33333333  0.52499959  1.0
  Cd  Cd9  1  0.66666667  0.33333333  0.92499972  1.0
  I  I10  1  -0.00000000  -0.00000000  0.54767010  1.0
  I  I11  1  -0.00000000  -0.00000000  0.94767032  1.0
  I  I12  1  0.66666667  0.33333333  0.04768140  1.0
  I  I13  1  0.66666667  0.33333333  0.14766698  1.0
  I  I14  1  0.66666667  0.33333333  0.24766940  1.0
  I  I15  1  0.66666667  0.33333333  0.34766613  1.0
  I  I16  1  0.66666667  0.33333333  0.44765530  1.0
  I  I17  1  0.66666667  0.33333333  0.64768075  1.0
  I  I18  1  0.66666667  0.33333333  0.74766595  1.0
  I  I19  1  0.66666667  0.33333333  0.84765501  1.0
  I  I20  1  0.33333333  0.66666667  0.00235242  1.0
  I  I21  1  0.33333333  0.66666667  0.10233178  1.0
  I  I22  1  0.33333333  0.66666667  0.20233294  1.0
  I  I23  1  0.33333333  0.66666667  0.30233009  1.0
  I  I24  1  0.33333333  0.66666667  0.40231776  1.0
  I  I25  1  0.33333333  0.66666667  0.50233846  1.0
  I  I26  1  0.33333333  0.66666667  0.60235178  1.0
  I  I27  1  0.33333333  0.66666667  0.70233133  1.0
  I  I28  1  0.33333333  0.66666667  0.80231758  1.0
  I  I29  1  0.33333333  0.66666667  0.90233862  1.0
