# generated using pymatgen
data_NaFeO2
_symmetry_space_group_name_H-M   'P 1'
_cell_length_a   5.67366671
_cell_length_b   5.67366671
_cell_length_c   7.27574364
_cell_angle_alpha   90.00000000
_cell_angle_beta   90.00000000
_cell_angle_gamma   90.00000000
_symmetry_Int_Tables_number   1
_chemical_formula_structural   NaFeO2
_chemical_formula_sum   'Na4 Fe4 O8'
_cell_volume   234.20978180
_cell_formula_units_Z   4
loop_
 _symmetry_equiv_pos_site_id
 _symmetry_equiv_pos_as_xyz
  1  'x, y, z'
loop_
 _atom_site_type_symbol
 _atom_site_label
 _atom_site_symmetry_multiplicity
 _atom_site_fract_x
 _atom_site_fract_y
 _atom_site_fract_z
 _atom_site_occupancy
  Na  Na0  1  0.19514481  0.80485519  0.25000000  1.0
  Na  Na1  1  0.69514481  0.69514481  0.50000000  1.0
  Na  Na2  1  0.80485519  0.19514481  0.75000000  1.0
  Na  Na3  1  0.30485519  0.30485519  0.00000000  1.0
  Fe  Fe4  1  0.81082205  0.18917795  0.25000000  1.0
  Fe  Fe5  1  0.31082205  0.31082205  0.50000000  1.0
  Fe  Fe6  1  0.18917795  0.81082205  0.75000000  1.0
  Fe  Fe7  1  0.68917795  0.68917795  0.00000000  1.0
  O  O8  1  0.35450148  0.72168454  0.96515315  1.0
  O  O9  1  0.85450148  0.77831546  0.78484685  1.0
  O  O10  1  0.27831546  0.64549852  0.53484685  1.0
  O  O11  1  0.77831546  0.85450148  0.21515315  1.0
  O  O12  1  0.64549852  0.27831546  0.46515315  1.0
  O  O13  1  0.14549852  0.22168454  0.28484685  1.0
  O  O14  1  0.72168454  0.35450148  0.03484685  1.0
  O  O15  1  0.22168454  0.14549852  0.71515315  1.0
