# generated using pymatgen
data_K3GdF6
_symmetry_space_group_name_H-M   'P 1'
_cell_length_a   6.44925972
_cell_length_b   6.69176698
_cell_length_c   11.17995923
_cell_angle_alpha   90.00000000
_cell_angle_beta   124.22624016
_cell_angle_gamma   90.00000000
_symmetry_Int_Tables_number   1
_chemical_formula_structural   K3GdF6
_chemical_formula_sum   'K6 Gd2 F12'
_cell_volume   398.93623085
_cell_formula_units_Z   2
loop_
 _symmetry_equiv_pos_site_id
 _symmetry_equiv_pos_as_xyz
  1  'x, y, z'
loop_
 _atom_site_type_symbol
 _atom_site_label
 _atom_site_symmetry_multiplicity
 _atom_site_fract_x
 _atom_site_fract_y
 _atom_site_fract_z
 _atom_site_occupancy
  K  K0  1  0.72401121  0.05054560  0.24104125  1.0
  K  K1  1  0.72401121  0.44945440  0.74104125  1.0
  K  K2  1  0.27598879  0.55054560  0.25895875  1.0
  K  K3  1  0.27598879  0.94945440  0.75895875  1.0
  K  K4  1  0.50000000  0.50000000  -0.00000000  1.0
  K  K5  1  0.50000000  0.00000000  0.50000000  1.0
  Gd  Gd6  1  0.00000000  0.50000000  0.50000000  1.0
  Gd  Gd7  1  0.00000000  0.00000000  0.00000000  1.0
  F  F8  1  0.89636498  0.43276666  0.27580634  1.0
  F  F9  1  0.89636498  0.06723334  0.77580634  1.0
  F  F10  1  0.10363502  0.93276666  0.22419366  1.0
  F  F11  1  0.10363502  0.56723334  0.72419366  1.0
  F  F12  1  0.74949428  0.77057569  0.42114221  1.0
  F  F13  1  0.74949428  0.72942431  0.92114221  1.0
  F  F14  1  0.25050572  0.27057569  0.07885779  1.0
  F  F15  1  0.25050572  0.22942431  0.57885779  1.0
  F  F16  1  0.66702887  0.32173802  0.45000361  1.0
  F  F17  1  0.66702887  0.17826198  0.95000361  1.0
  F  F18  1  0.33297113  0.82173802  0.04999639  1.0
  F  F19  1  0.33297113  0.67826198  0.54999639  1.0
