# generated using pymatgen
data_Mg2C3
_symmetry_space_group_name_H-M   'P 1'
_cell_length_a   5.28890913
_cell_length_b   6.44375839
_cell_length_c   3.73450566
_cell_angle_alpha   90.00000000
_cell_angle_beta   90.00000000
_cell_angle_gamma   90.00000000
_symmetry_Int_Tables_number   1
_chemical_formula_structural   Mg2C3
_chemical_formula_sum   'Mg4 C6'
_cell_volume   127.27364283
_cell_formula_units_Z   2
loop_
 _symmetry_equiv_pos_site_id
 _symmetry_equiv_pos_as_xyz
  1  'x, y, z'
loop_
 _atom_site_type_symbol
 _atom_site_label
 _atom_site_symmetry_multiplicity
 _atom_site_fract_x
 _atom_site_fract_y
 _atom_site_fract_z
 _atom_site_occupancy
  Mg  Mg0  1  0.89193905  0.70822367  0.50000000  1.0
  Mg  Mg1  1  0.39193905  0.79177633  0.00000000  1.0
  Mg  Mg2  1  0.10806095  0.29177633  0.50000000  1.0
  Mg  Mg3  1  0.60806095  0.20822367  0.00000000  1.0
  C  C4  1  0.29352146  0.61804331  0.50000000  1.0
  C  C5  1  0.79352146  0.88195669  0.00000000  1.0
  C  C6  1  0.70647854  0.38195669  0.50000000  1.0
  C  C7  1  0.20647854  0.11804331  0.00000000  1.0
  C  C8  1  0.50000000  0.50000000  0.50000000  1.0
  C  C9  1  0.00000000  0.00000000  0.00000000  1.0
