# generated using pymatgen
data_Ba7Ru4Br2O15
_symmetry_space_group_name_H-M   'P 1'
_cell_length_a   18.10327649
_cell_length_b   18.10327649
_cell_length_c   18.10327649
_cell_angle_alpha   18.68222540
_cell_angle_beta   18.68222540
_cell_angle_gamma   18.68222540
_symmetry_Int_Tables_number   1
_chemical_formula_structural   Ba7Ru4Br2O15
_chemical_formula_sum   'Ba7 Ru4 Br2 O15'
_cell_volume   531.86082660
_cell_formula_units_Z   1
loop_
 _symmetry_equiv_pos_site_id
 _symmetry_equiv_pos_as_xyz
  1  'x, y, z'
loop_
 _atom_site_type_symbol
 _atom_site_label
 _atom_site_symmetry_multiplicity
 _atom_site_fract_x
 _atom_site_fract_y
 _atom_site_fract_z
 _atom_site_occupancy
  Br  Br0  1  0.85613506  0.85613506  0.85613506  1.0
  Br  Br1  1  1.14386494  1.14386494  0.14386494  1.0
  O  O2  1  1.22723828  0.22723828  0.67958609  1.0
  O  O3  1  1.22723828  0.67958609  0.22723828  1.0
  O  O4  1  1.32041391  0.77276172  0.77276172  1.0
  O  O5  1  1.77276172  0.32041391  0.77276172  1.0
  O  O6  1  1.77276172  0.77276172  0.32041391  1.0
  O  O7  1  1.67958609  0.22723828  0.22723828  1.0
  O  O8  1  0.50000000  0.00000000  -0.50000000  1.0
  O  O9  1  0.50000000  -0.50000000  -0.00000000  1.0
  O  O10  1  0.00000000  0.50000000  -0.50000000  1.0
  O  O11  1  1.41626294  0.41626294  0.89850863  1.0
  O  O12  1  1.41626294  0.89850863  0.41626294  1.0
  O  O13  1  1.10149137  0.58373706  0.58373706  1.0
  O  O14  1  1.58373706  0.10149137  0.58373706  1.0
  O  O15  1  1.58373706  0.58373706  0.10149137  1.0
  O  O16  1  1.89850863  0.41626294  0.41626294  1.0
  Ba  Ba17  1  0.91863909  0.91863909  0.91863909  1.0
  Ba  Ba18  1  1.08136091  1.08136091  0.08136091  1.0
  Ba  Ba19  1  0.79125745  0.79125745  0.79125745  1.0
  Ba  Ba20  1  1.20874255  1.20874255  0.20874255  1.0
  Ba  Ba21  1  0.71243039  0.71243039  0.71243039  1.0
  Ba  Ba22  1  1.28756961  1.28756961  0.28756961  1.0
  Ba  Ba23  1  0.00000000  0.00000000  0.00000000  1.0
  Ru  Ru24  1  1.59476080  0.59476080  0.59476080  1.0
  Ru  Ru25  1  1.40523920  0.40523920  0.40523920  1.0
  Ru  Ru26  1  1.64645026  0.64645026  0.64645026  1.0
  Ru  Ru27  1  1.35354974  0.35354974  0.35354974  1.0
