# generated using pymatgen
data_IF7
_symmetry_space_group_name_H-M   'P 1'
_cell_length_a   6.81598359
_cell_length_b   6.81598359
_cell_length_c   7.85915124
_cell_angle_alpha   90.00000000
_cell_angle_beta   90.00000000
_cell_angle_gamma   93.68705370
_symmetry_Int_Tables_number   1
_chemical_formula_structural   IF7
_chemical_formula_sum   'I2 F14'
_cell_volume   364.36182845
_cell_formula_units_Z   2
loop_
 _symmetry_equiv_pos_site_id
 _symmetry_equiv_pos_as_xyz
  1  'x, y, z'
loop_
 _atom_site_type_symbol
 _atom_site_label
 _atom_site_symmetry_multiplicity
 _atom_site_fract_x
 _atom_site_fract_y
 _atom_site_fract_z
 _atom_site_occupancy
  I  I0  1  0.06308946  -0.06308946  0.00000000  1.0
  I  I1  1  0.56308946  0.43691054  0.50000000  1.0
  F  F2  1  0.05519327  0.65145637  -0.00000924  1.0
  F  F3  1  0.34854363  0.94480673  1.00000924  1.0
  F  F4  1  -0.44480673  1.15145637  0.50000924  1.0
  F  F5  1  -0.15145637  1.44480673  0.49999076  1.0
  F  F6  1  0.06697272  1.93315744  0.74961122  1.0
  F  F7  1  -0.93315744  0.93302728  0.25038878  1.0
  F  F8  1  -0.43302728  1.43315744  0.75038878  1.0
  F  F9  1  -0.43315744  1.43302728  0.24961122  1.0
  F  F10  1  0.61981881  0.38018119  0.00000000  1.0
  F  F11  1  0.11981881  0.88018119  0.50000000  1.0
  F  F12  1  -0.22304734  1.92601313  0.00009742  1.0
  F  F13  1  -0.92601313  1.22304734  0.99990258  1.0
  F  F14  1  -0.72304734  1.42601313  0.49990258  1.0
  F  F15  1  -0.42601313  1.72304734  0.50009742  1.0
