# generated using pymatgen
data_SrSb2
_symmetry_space_group_name_H-M   'P 1'
_cell_length_a   4.93670384
_cell_length_b   4.36991040
_cell_length_c   9.22219280
_cell_angle_alpha   90.00000000
_cell_angle_beta   102.35785336
_cell_angle_gamma   90.00000000
_symmetry_Int_Tables_number   1
_chemical_formula_structural   SrSb2
_chemical_formula_sum   'Sr2 Sb4'
_cell_volume   194.34026078
_cell_formula_units_Z   2
loop_
 _symmetry_equiv_pos_site_id
 _symmetry_equiv_pos_as_xyz
  1  'x, y, z'
loop_
 _atom_site_type_symbol
 _atom_site_label
 _atom_site_symmetry_multiplicity
 _atom_site_fract_x
 _atom_site_fract_y
 _atom_site_fract_z
 _atom_site_occupancy
  Sr  Sr0  1  0.08918194  0.25000000  0.71079716  1.0
  Sr  Sr1  1  0.91081806  0.75000000  0.28920284  1.0
  Sb  Sb2  1  0.45016468  0.25000000  0.38743999  1.0
  Sb  Sb3  1  0.54983532  0.75000000  0.61256001  1.0
  Sb  Sb4  1  0.68920437  0.25000000  0.97997714  1.0
  Sb  Sb5  1  0.31079563  0.75000000  0.02002286  1.0
