# generated using pymatgen
data_GdMnCu4P3
_symmetry_space_group_name_H-M   'P 1'
_cell_length_a   12.61025167
_cell_length_b   3.81181184
_cell_length_c   10.87053535
_cell_angle_alpha   90.00000000
_cell_angle_beta   90.00000000
_cell_angle_gamma   90.00000000
_symmetry_Int_Tables_number   1
_chemical_formula_structural   GdMnCu4P3
_chemical_formula_sum   'Gd4 Mn4 Cu16 P12'
_cell_volume   522.52387850
_cell_formula_units_Z   4
loop_
 _symmetry_equiv_pos_site_id
 _symmetry_equiv_pos_as_xyz
  1  'x, y, z'
loop_
 _atom_site_type_symbol
 _atom_site_label
 _atom_site_symmetry_multiplicity
 _atom_site_fract_x
 _atom_site_fract_y
 _atom_site_fract_z
 _atom_site_occupancy
  Gd  Gd0  1  0.20812953  0.75000000  0.41718713  1.0
  Gd  Gd1  1  0.70812953  0.75000000  0.08281287  1.0
  Gd  Gd2  1  0.79187047  0.25000000  0.58281287  1.0
  Gd  Gd3  1  0.29187047  0.25000000  0.91718713  1.0
  Mn  Mn4  1  0.47808684  0.75000000  0.28722189  1.0
  Mn  Mn5  1  0.97808684  0.75000000  0.21277811  1.0
  Mn  Mn6  1  0.52191316  0.25000000  0.71277811  1.0
  Mn  Mn7  1  0.02191316  0.25000000  0.78722189  1.0
  Cu  Cu8  1  0.49551380  0.75000000  0.91141707  1.0
  Cu  Cu9  1  0.99551380  0.75000000  0.58858293  1.0
  Cu  Cu10  1  0.50448620  0.25000000  0.08858293  1.0
  Cu  Cu11  1  0.00448620  0.25000000  0.41141707  1.0
  Cu  Cu12  1  0.43637925  0.75000000  0.53750670  1.0
  Cu  Cu13  1  0.93637925  0.75000000  0.96249330  1.0
  Cu  Cu14  1  0.56362075  0.25000000  0.46249330  1.0
  Cu  Cu15  1  0.06362075  0.25000000  0.03750670  1.0
  Cu  Cu16  1  0.19180968  0.75000000  0.12639741  1.0
  Cu  Cu17  1  0.69180968  0.75000000  0.37360259  1.0
  Cu  Cu18  1  0.80819032  0.25000000  0.87360259  1.0
  Cu  Cu19  1  0.30819032  0.25000000  0.62639741  1.0
  Cu  Cu20  1  0.18069285  0.75000000  0.71396317  1.0
  Cu  Cu21  1  0.68069285  0.75000000  0.78603683  1.0
  Cu  Cu22  1  0.81930715  0.25000000  0.28603683  1.0
  Cu  Cu23  1  0.31930715  0.25000000  0.21396317  1.0
  P  P24  1  0.38405089  0.75000000  0.09510105  1.0
  P  P25  1  0.88405089  0.75000000  0.40489895  1.0
  P  P26  1  0.61594911  0.25000000  0.90489895  1.0
  P  P27  1  0.11594911  0.25000000  0.59510105  1.0
  P  P28  1  0.37435512  0.75000000  0.74128844  1.0
  P  P29  1  0.87435512  0.75000000  0.75871156  1.0
  P  P30  1  0.62564488  0.25000000  0.25871156  1.0
  P  P31  1  0.12564488  0.25000000  0.24128844  1.0
  P  P32  1  0.12026901  0.75000000  0.91700876  1.0
  P  P33  1  0.62026901  0.75000000  0.58299124  1.0
  P  P34  1  0.87973099  0.25000000  0.08299124  1.0
  P  P35  1  0.37973099  0.25000000  0.41700876  1.0
