# generated using pymatgen
data_NaVH8(NF3)2
_symmetry_space_group_name_H-M   'P 1'
_cell_length_a   6.03301889
_cell_length_b   6.03301889
_cell_length_c   6.03301889
_cell_angle_alpha   60.00000000
_cell_angle_beta   60.00000000
_cell_angle_gamma   60.00000000
_symmetry_Int_Tables_number   1
_chemical_formula_structural   NaVH8(NF3)2
_chemical_formula_sum   'Na1 V1 H8 N2 F6'
_cell_volume   155.27053814
_cell_formula_units_Z   1
loop_
 _symmetry_equiv_pos_site_id
 _symmetry_equiv_pos_as_xyz
  1  'x, y, z'
loop_
 _atom_site_type_symbol
 _atom_site_label
 _atom_site_symmetry_multiplicity
 _atom_site_fract_x
 _atom_site_fract_y
 _atom_site_fract_z
 _atom_site_occupancy
  Na  Na0  1  -0.50000000  0.50000000  0.50000000  1.0
  V  V1  1  0.00000000  0.00000000  0.00000000  1.0
  H  H2  1  0.68059693  0.68059693  -0.31940307  1.0
  H  H3  1  1.31940307  0.31940307  0.04179078  1.0
  H  H4  1  1.31940307  0.04179078  0.31940307  1.0
  H  H5  1  0.95820922  0.68059693  -0.31940307  1.0
  H  H6  1  1.04179078  0.31940307  0.31940307  1.0
  H  H7  1  0.68059693  0.95820922  -0.31940307  1.0
  H  H8  1  0.68059693  0.68059693  -0.04179078  1.0
  H  H9  1  1.31940307  0.31940307  0.31940307  1.0
  N  N10  1  0.75000000  0.75000000  -0.25000000  1.0
  N  N11  1  1.25000000  0.25000000  0.25000000  1.0
  F  F12  1  -0.76865836  0.76865836  0.76865836  1.0
  F  F13  1  -0.23134164  0.23134164  0.76865836  1.0
  F  F14  1  0.76865836  0.76865836  -0.76865836  1.0
  F  F15  1  0.23134164  1.23134164  -0.23134164  1.0
  F  F16  1  0.23134164  -0.23134164  1.23134164  1.0
  F  F17  1  -0.23134164  0.23134164  0.23134164  1.0
