# generated using pymatgen
data_TlGaO2
_symmetry_space_group_name_H-M   'P 1'
_cell_length_a   5.94584411
_cell_length_b   5.94584411
_cell_length_c   5.94584411
_cell_angle_alpha   59.98563201
_cell_angle_beta   59.98563201
_cell_angle_gamma   59.98563201
_symmetry_Int_Tables_number   1
_chemical_formula_structural   TlGaO2
_chemical_formula_sum   'Tl2 Ga2 O4'
_cell_volume   148.58810582
_cell_formula_units_Z   2
loop_
 _symmetry_equiv_pos_site_id
 _symmetry_equiv_pos_as_xyz
  1  'x, y, z'
loop_
 _atom_site_type_symbol
 _atom_site_label
 _atom_site_symmetry_multiplicity
 _atom_site_fract_x
 _atom_site_fract_y
 _atom_site_fract_z
 _atom_site_occupancy
  Tl  Tl0  1  1.62486621  0.62486621  0.62486621  1.0
  Tl  Tl1  1  1.37513379  0.37513379  0.37513379  1.0
  Ga  Ga2  1  0.87502020  0.87502020  0.87502020  1.0
  Ga  Ga3  1  1.12497980  1.12497980  0.12497980  1.0
  O  O4  1  1.00000000  1.50000000  -0.00000000  1.0
  O  O5  1  1.00000000  1.00000000  0.50000000  1.0
  O  O6  1  1.50000000  1.00000000  -0.00000000  1.0
  O  O7  1  0.00000000  -0.00000000  -0.00000000  1.0
