# generated using pymatgen
data_CaV2O4
_symmetry_space_group_name_H-M   'P 1'
_cell_length_a   9.30554137
_cell_length_b   2.96837972
_cell_length_c   10.77995106
_cell_angle_alpha   90.00000000
_cell_angle_beta   90.00000000
_cell_angle_gamma   90.00000000
_symmetry_Int_Tables_number   1
_chemical_formula_structural   CaV2O4
_chemical_formula_sum   'Ca4 V8 O16'
_cell_volume   297.76790799
_cell_formula_units_Z   4
loop_
 _symmetry_equiv_pos_site_id
 _symmetry_equiv_pos_as_xyz
  1  'x, y, z'
loop_
 _atom_site_type_symbol
 _atom_site_label
 _atom_site_symmetry_multiplicity
 _atom_site_fract_x
 _atom_site_fract_y
 _atom_site_fract_z
 _atom_site_occupancy
  Ca  Ca0  1  0.75804995  0.75000000  0.65417887  1.0
  Ca  Ca1  1  0.25804995  0.75000000  0.84582113  1.0
  Ca  Ca2  1  0.24195005  0.25000000  0.34582113  1.0
  Ca  Ca3  1  0.74195005  0.25000000  0.15417887  1.0
  V  V4  1  0.91685610  0.75000000  0.39421882  1.0
  V  V5  1  0.41685610  0.75000000  0.10578118  1.0
  V  V6  1  0.08314390  0.25000000  0.60578118  1.0
  V  V7  1  0.58314390  0.25000000  0.89421882  1.0
  V  V8  1  0.43666288  0.75000000  0.61372923  1.0
  V  V9  1  0.93666288  0.75000000  0.88627077  1.0
  V  V10  1  0.56333712  0.25000000  0.38627077  1.0
  V  V11  1  0.06333712  0.25000000  0.11372923  1.0
  O  O12  1  0.91713541  0.75000000  0.07256121  1.0
  O  O13  1  0.41713541  0.75000000  0.42743879  1.0
  O  O14  1  0.08286459  0.25000000  0.92743879  1.0
  O  O15  1  0.58286459  0.25000000  0.57256121  1.0
  O  O16  1  0.70631618  0.75000000  0.33519682  1.0
  O  O17  1  0.20631618  0.75000000  0.16480318  1.0
  O  O18  1  0.29368382  0.25000000  0.66480318  1.0
  O  O19  1  0.79368382  0.25000000  0.83519682  1.0
  O  O20  1  0.61594861  0.75000000  0.02309643  1.0
  O  O21  1  0.11594861  0.75000000  0.47690357  1.0
  O  O22  1  0.38405139  0.25000000  0.97690357  1.0
  O  O23  1  0.88405139  0.25000000  0.52309643  1.0
  O  O24  1  0.52401463  0.75000000  0.78310384  1.0
  O  O25  1  0.02401463  0.75000000  0.71689616  1.0
  O  O26  1  0.47598537  0.25000000  0.21689616  1.0
  O  O27  1  0.97598537  0.25000000  0.28310384  1.0
