# generated using pymatgen
data_NaSr(PO3)3
_symmetry_space_group_name_H-M   'P 1'
_cell_length_a   7.89742666
_cell_length_b   7.27848937
_cell_length_c   6.92868397
_cell_angle_alpha   82.61724902
_cell_angle_beta   80.82863869
_cell_angle_gamma   83.79626360
_symmetry_Int_Tables_number   1
_chemical_formula_structural   NaSr(PO3)3
_chemical_formula_sum   'Na2 Sr2 P6 O18'
_cell_volume   388.35567496
_cell_formula_units_Z   2
loop_
 _symmetry_equiv_pos_site_id
 _symmetry_equiv_pos_as_xyz
  1  'x, y, z'
loop_
 _atom_site_type_symbol
 _atom_site_label
 _atom_site_symmetry_multiplicity
 _atom_site_fract_x
 _atom_site_fract_y
 _atom_site_fract_z
 _atom_site_occupancy
  Na  Na0  1  -0.33700260  -0.36237803  -0.46897500  1.0
  Na  Na1  1  -0.66299740  -0.63762197  -0.53102500  1.0
  Sr  Sr2  1  -0.64347817  -0.73224715  -0.01168706  1.0
  Sr  Sr3  1  -0.35652183  -0.26775285  -0.98831294  1.0
  P  P4  1  -0.27581945  -0.78929670  -0.83294289  1.0
  P  P5  1  -0.72418055  -0.21070330  -0.16705711  1.0
  P  P6  1  -0.93992268  -0.33627317  -0.80198222  1.0
  P  P7  1  -0.06007732  -0.66372683  -0.19801778  1.0
  P  P8  1  -0.72156147  -0.12174990  -0.60457425  1.0
  P  P9  1  -0.27843853  -0.87825010  -0.39542575  1.0
  O  O10  1  -0.65337822  -0.05443928  -0.09053232  1.0
  O  O11  1  -0.34662178  -0.94556072  -0.90946768  1.0
  O  O12  1  -0.79717379  -0.14868479  -0.37048346  1.0
  O  O13  1  -0.20282621  -0.85131521  -0.62951654  1.0
  O  O14  1  -0.59935087  -0.38495611  -0.17691945  1.0
  O  O15  1  -0.40064913  -0.61504389  -0.82308055  1.0
  O  O16  1  -0.90759610  -0.25184129  -0.03414158  1.0
  O  O17  1  -0.09240390  -0.74815871  -0.96585842  1.0
  O  O18  1  -0.13214046  -0.34154478  -0.75462501  1.0
  O  O19  1  -0.86785954  -0.65845522  -0.24537499  1.0
  O  O20  1  -0.82177726  -0.51098463  -0.77395079  1.0
  O  O21  1  -0.17822274  -0.48901537  -0.22604921  1.0
  O  O22  1  -0.88930710  -0.17352200  -0.68822955  1.0
  O  O23  1  -0.11069290  -0.82647800  -0.31177045  1.0
  O  O24  1  -0.57038306  -0.26447242  -0.64811467  1.0
  O  O25  1  -0.42961694  -0.73552758  -0.35188533  1.0
  O  O26  1  -0.70268460  -0.91850918  -0.66519286  1.0
  O  O27  1  -0.29731540  -0.08149082  -0.33480714  1.0
