# generated using pymatgen
data_Li3BiO4
_symmetry_space_group_name_H-M   'P 1'
_cell_length_a   8.84243439
_cell_length_b   8.84243439
_cell_length_c   4.28851308
_cell_angle_alpha   90.00000000
_cell_angle_beta   90.00000000
_cell_angle_gamma   90.00000000
_symmetry_Int_Tables_number   1
_chemical_formula_structural   Li3BiO4
_chemical_formula_sum   'Li12 Bi4 O16'
_cell_volume   335.31303091
_cell_formula_units_Z   4
loop_
 _symmetry_equiv_pos_site_id
 _symmetry_equiv_pos_as_xyz
  1  'x, y, z'
loop_
 _atom_site_type_symbol
 _atom_site_label
 _atom_site_symmetry_multiplicity
 _atom_site_fract_x
 _atom_site_fract_y
 _atom_site_fract_z
 _atom_site_occupancy
  Li  Li0  1  0.89662042  0.61241213  0.50000000  1.0
  Li  Li1  1  0.10337958  0.38758787  0.50000000  1.0
  Li  Li2  1  0.60337958  0.11241213  0.00000000  1.0
  Li  Li3  1  0.39662042  0.88758787  0.00000000  1.0
  Li  Li4  1  0.61241213  0.89662042  0.50000000  1.0
  Li  Li5  1  0.38758787  0.10337958  0.50000000  1.0
  Li  Li6  1  0.11241213  0.60337958  0.00000000  1.0
  Li  Li7  1  0.88758787  0.39662042  0.00000000  1.0
  Li  Li8  1  0.13079873  0.86920127  0.50000000  1.0
  Li  Li9  1  0.86920127  0.13079873  0.50000000  1.0
  Li  Li10  1  0.36920127  0.36920127  0.00000000  1.0
  Li  Li11  1  0.63079873  0.63079873  0.00000000  1.0
  Bi  Bi12  1  0.36629783  0.63370217  0.50000000  1.0
  Bi  Bi13  1  0.63370217  0.36629783  0.50000000  1.0
  Bi  Bi14  1  0.13370217  0.13370217  0.00000000  1.0
  Bi  Bi15  1  0.86629783  0.86629783  0.00000000  1.0
  O  O16  1  0.37556103  0.62443897  0.00000000  1.0
  O  O17  1  0.62443897  0.37556103  0.00000000  1.0
  O  O18  1  0.12443897  0.12443897  0.50000000  1.0
  O  O19  1  0.87556103  0.87556103  0.50000000  1.0
  O  O20  1  0.61225971  0.61225971  0.50000000  1.0
  O  O21  1  0.38774029  0.38774029  0.50000000  1.0
  O  O22  1  0.88774029  0.11225971  0.00000000  1.0
  O  O23  1  0.11225971  0.88774029  0.00000000  1.0
  O  O24  1  0.13338078  0.61996610  0.50000000  1.0
  O  O25  1  0.86661922  0.38003390  0.50000000  1.0
  O  O26  1  0.36661922  0.11996610  0.00000000  1.0
  O  O27  1  0.63338078  0.88003390  0.00000000  1.0
  O  O28  1  0.61996610  0.13338078  0.50000000  1.0
  O  O29  1  0.38003390  0.86661922  0.50000000  1.0
  O  O30  1  0.11996610  0.36661922  0.00000000  1.0
  O  O31  1  0.88003390  0.63338078  0.00000000  1.0
