# generated using pymatgen
data_ZnGe(OF)6
_symmetry_space_group_name_H-M   'P 1'
_cell_length_a   5.78111943
_cell_length_b   5.78111943
_cell_length_c   5.78111943
_cell_angle_alpha   96.63734988
_cell_angle_beta   96.63734988
_cell_angle_gamma   96.63734988
_symmetry_Int_Tables_number   1
_chemical_formula_structural   ZnGe(OF)6
_chemical_formula_sum   'Zn1 Ge1 O6 F6'
_cell_volume   188.99647598
_cell_formula_units_Z   1
loop_
 _symmetry_equiv_pos_site_id
 _symmetry_equiv_pos_as_xyz
  1  'x, y, z'
loop_
 _atom_site_type_symbol
 _atom_site_label
 _atom_site_symmetry_multiplicity
 _atom_site_fract_x
 _atom_site_fract_y
 _atom_site_fract_z
 _atom_site_occupancy
  Zn  Zn0  1  0.00000000  0.00000000  0.00000000  1.0
  Ge  Ge1  1  0.50000000  0.50000000  0.50000000  1.0
  O  O2  1  0.64362427  0.91699897  0.04003221  1.0
  O  O3  1  1.08300103  -0.04003221  0.35637573  1.0
  O  O4  1  0.95996779  0.35637573  0.08300103  1.0
  O  O5  1  1.35637573  0.08300103  -0.04003221  1.0
  O  O6  1  0.91699897  1.04003221  -0.35637573  1.0
  O  O7  1  1.04003221  0.64362427  -0.08300103  1.0
  F  F8  1  1.43932468  0.63326247  -0.21357276  1.0
  F  F9  1  1.36673753  0.21357276  -0.43932468  1.0
  F  F10  1  1.21357276  -0.43932468  0.36673753  1.0
  F  F11  1  0.56067532  0.36673753  0.21357276  1.0
  F  F12  1  0.63326247  0.78642724  0.43932468  1.0
  F  F13  1  0.78642724  1.43932468  -0.36673753  1.0
