# generated using pymatgen
data_Sc(SiIr2)2
_symmetry_space_group_name_H-M   'P 1'
_cell_length_a   11.37648328
_cell_length_b   4.04203732
_cell_length_c   8.87540523
_cell_angle_alpha   90.00000000
_cell_angle_beta   90.00000000
_cell_angle_gamma   90.00000000
_symmetry_Int_Tables_number   1
_chemical_formula_structural   Sc(SiIr2)2
_chemical_formula_sum   'Sc4 Si8 Ir16'
_cell_volume   408.12814255
_cell_formula_units_Z   4
loop_
 _symmetry_equiv_pos_site_id
 _symmetry_equiv_pos_as_xyz
  1  'x, y, z'
loop_
 _atom_site_type_symbol
 _atom_site_label
 _atom_site_symmetry_multiplicity
 _atom_site_fract_x
 _atom_site_fract_y
 _atom_site_fract_z
 _atom_site_occupancy
  Sc  Sc0  1  0.82629467  0.25000000  0.14112771  1.0
  Sc  Sc1  1  0.32629467  0.25000000  0.35887229  1.0
  Sc  Sc2  1  0.17370533  0.75000000  0.85887229  1.0
  Sc  Sc3  1  0.67370533  0.75000000  0.64112771  1.0
  Si  Si4  1  0.63776589  0.25000000  0.41523589  1.0
  Si  Si5  1  0.13776589  0.25000000  0.08476411  1.0
  Si  Si6  1  0.36223411  0.75000000  0.58476411  1.0
  Si  Si7  1  0.86223411  0.75000000  0.91523589  1.0
  Si  Si8  1  0.06704493  0.25000000  0.62254474  1.0
  Si  Si9  1  0.56704493  0.25000000  0.87745526  1.0
  Si  Si10  1  0.93295507  0.75000000  0.37745526  1.0
  Si  Si11  1  0.43295507  0.75000000  0.12254474  1.0
  Ir  Ir12  1  0.50034385  0.25000000  0.61444386  1.0
  Ir  Ir13  1  0.00034385  0.25000000  0.88555614  1.0
  Ir  Ir14  1  0.49965615  0.75000000  0.38555614  1.0
  Ir  Ir15  1  0.99965615  0.75000000  0.11444386  1.0
  Ir  Ir16  1  0.27165134  0.25000000  0.70377524  1.0
  Ir  Ir17  1  0.77165134  0.25000000  0.79622476  1.0
  Ir  Ir18  1  0.72834866  0.75000000  0.29622476  1.0
  Ir  Ir19  1  0.22834866  0.75000000  0.20377524  1.0
  Ir  Ir20  1  0.55877104  0.25000000  0.16915811  1.0
  Ir  Ir21  1  0.05877104  0.25000000  0.33084189  1.0
  Ir  Ir22  1  0.44122896  0.75000000  0.83084189  1.0
  Ir  Ir23  1  0.94122896  0.75000000  0.66915811  1.0
  Ir  Ir24  1  0.33789345  0.25000000  0.00987454  1.0
  Ir  Ir25  1  0.83789345  0.25000000  0.49012546  1.0
  Ir  Ir26  1  0.66210655  0.75000000  0.99012546  1.0
  Ir  Ir27  1  0.16210655  0.75000000  0.50987454  1.0
