# generated using pymatgen
data_HfNCl
_symmetry_space_group_name_H-M   'P 1'
_cell_length_a   10.22693215
_cell_length_b   10.22693215
_cell_length_c   10.22693215
_cell_angle_alpha   20.22959515
_cell_angle_beta   20.22959515
_cell_angle_gamma   20.22959515
_symmetry_Int_Tables_number   1
_chemical_formula_structural   HfNCl
_chemical_formula_sum   'Hf2 N2 Cl2'
_cell_volume   111.90793111
_cell_formula_units_Z   2
loop_
 _symmetry_equiv_pos_site_id
 _symmetry_equiv_pos_as_xyz
  1  'x, y, z'
loop_
 _atom_site_type_symbol
 _atom_site_label
 _atom_site_symmetry_multiplicity
 _atom_site_fract_x
 _atom_site_fract_y
 _atom_site_fract_z
 _atom_site_occupancy
  Hf  Hf0  1  0.87668667  0.87668667  0.87668667  1.0
  Hf  Hf1  1  1.12331333  1.12331333  0.12331333  1.0
  N  N2  1  0.80466931  0.80466931  0.80466931  1.0
  N  N3  1  1.19533069  1.19533069  0.19533069  1.0
  Cl  Cl4  1  1.60387552  0.60387552  0.60387552  1.0
  Cl  Cl5  1  1.39612448  0.39612448  0.39612448  1.0
