# generated using pymatgen
data_Al6Ge5
_symmetry_space_group_name_H-M   'P 1'
_cell_length_a   7.73006103
_cell_length_b   7.73006103
_cell_length_c   7.73006103
_cell_angle_alpha   96.59894104
_cell_angle_beta   96.59894104
_cell_angle_gamma   96.59894104
_symmetry_Int_Tables_number   1
_chemical_formula_structural   Al6Ge5
_chemical_formula_sum   'Al12 Ge10'
_cell_volume   451.94248066
_cell_formula_units_Z   2
loop_
 _symmetry_equiv_pos_site_id
 _symmetry_equiv_pos_as_xyz
  1  'x, y, z'
loop_
 _atom_site_type_symbol
 _atom_site_label
 _atom_site_symmetry_multiplicity
 _atom_site_fract_x
 _atom_site_fract_y
 _atom_site_fract_z
 _atom_site_occupancy
  Al  Al0  1  1.17004088  0.48433536  -0.42785065  1.0
  Al  Al1  1  0.67004088  1.07214935  -0.01566464  1.0
  Al  Al2  1  0.92785065  0.01566464  0.32995912  1.0
  Al  Al3  1  1.42785065  -0.17004088  0.51566464  1.0
  Al  Al4  1  1.51566464  0.42785065  -0.17004088  1.0
  Al  Al5  1  1.01566464  0.32995912  -0.07214935  1.0
  Al  Al6  1  0.82995912  0.51566464  0.42785065  1.0
  Al  Al7  1  1.32995912  -0.07214935  0.01566464  1.0
  Al  Al8  1  0.57214935  1.17004088  -0.51566464  1.0
  Al  Al9  1  1.07214935  0.98433536  -0.32995912  1.0
  Al  Al10  1  0.98433536  0.67004088  0.07214935  1.0
  Al  Al11  1  0.48433536  0.57214935  0.17004088  1.0
  Ge  Ge12  1  0.89877566  1.25000000  -0.39877566  1.0
  Ge  Ge13  1  1.39877566  0.10122434  -0.25000000  1.0
  Ge  Ge14  1  0.75000000  0.39877566  0.10122434  1.0
  Ge  Ge15  1  1.25000000  0.60122434  -0.10122434  1.0
  Ge  Ge16  1  1.10122434  -0.25000000  0.39877566  1.0
  Ge  Ge17  1  0.60122434  0.89877566  0.25000000  1.0
  Ge  Ge18  1  0.35727716  0.35727716  0.35727716  1.0
  Ge  Ge19  1  0.85727716  0.85727716  0.85727716  1.0
  Ge  Ge20  1  0.14272284  0.14272284  0.14272284  1.0
  Ge  Ge21  1  0.64272284  0.64272284  0.64272284  1.0
