# generated using pymatgen
data_LuTaO4
_symmetry_space_group_name_H-M   'P 1'
_cell_length_a   5.03888781
_cell_length_b   5.77227258
_cell_length_c   5.26716930
_cell_angle_alpha   90.00000000
_cell_angle_beta   93.55710948
_cell_angle_gamma   90.00000000
_symmetry_Int_Tables_number   1
_chemical_formula_structural   LuTaO4
_chemical_formula_sum   'Lu2 Ta2 O8'
_cell_volume   152.90486439
_cell_formula_units_Z   2
loop_
 _symmetry_equiv_pos_site_id
 _symmetry_equiv_pos_as_xyz
  1  'x, y, z'
loop_
 _atom_site_type_symbol
 _atom_site_label
 _atom_site_symmetry_multiplicity
 _atom_site_fract_x
 _atom_site_fract_y
 _atom_site_fract_z
 _atom_site_occupancy
  Lu  Lu0  1  0.50000000  0.30187388  0.25000000  1.0
  Lu  Lu1  1  0.50000000  0.69812612  0.75000000  1.0
  Ta  Ta2  1  0.00000000  0.82154050  0.25000000  1.0
  Ta  Ta3  1  -0.00000000  0.17845950  0.75000000  1.0
  O  O4  1  0.78526787  0.90578573  0.54392763  1.0
  O  O5  1  0.78526787  0.09421427  1.04392763  1.0
  O  O6  1  0.21473213  0.90578573  -0.04392763  1.0
  O  O7  1  0.21473213  0.09421427  0.45607237  1.0
  O  O8  1  0.74226280  0.61240177  0.10475018  1.0
  O  O9  1  0.74226280  0.38759823  0.60475018  1.0
  O  O10  1  0.25773720  0.61240177  0.39524982  1.0
  O  O11  1  0.25773720  0.38759823  0.89524982  1.0
