# generated using pymatgen
data_NaPNO3
_symmetry_space_group_name_H-M   'P 1'
_cell_length_a   5.75009247
_cell_length_b   5.75009247
_cell_length_c   6.37163789
_cell_angle_alpha   90.00000000
_cell_angle_beta   90.00000000
_cell_angle_gamma   120.00000000
_symmetry_Int_Tables_number   1
_chemical_formula_structural   NaPNO3
_chemical_formula_sum   'Na2 P2 N2 O6'
_cell_volume   182.44475220
_cell_formula_units_Z   2
loop_
 _symmetry_equiv_pos_site_id
 _symmetry_equiv_pos_as_xyz
  1  'x, y, z'
loop_
 _atom_site_type_symbol
 _atom_site_label
 _atom_site_symmetry_multiplicity
 _atom_site_fract_x
 _atom_site_fract_y
 _atom_site_fract_z
 _atom_site_occupancy
  Na  Na0  1  0.00000000  0.00000000  0.00778873  1.0
  Na  Na1  1  0.00000000  0.00000000  0.50778873  1.0
  P  P2  1  0.33333333  0.66666667  0.32164348  1.0
  P  P3  1  0.66666667  0.33333333  0.82164348  1.0
  N  N4  1  0.33333333  0.66666667  0.59232111  1.0
  N  N5  1  0.66666667  0.33333333  0.09232111  1.0
  O  O6  1  0.19199454  0.82104937  0.25374889  1.0
  O  O7  1  0.82104937  0.62905482  0.75374889  1.0
  O  O8  1  0.62905482  0.80800546  0.25374889  1.0
  O  O9  1  0.17895063  0.37094518  0.25374889  1.0
  O  O10  1  0.80800546  0.17895063  0.75374889  1.0
  O  O11  1  0.37094518  0.19199454  0.75374889  1.0
