# generated using pymatgen
data_KLaF4
_symmetry_space_group_name_H-M   'P 1'
_cell_length_a   6.39042407
_cell_length_b   3.87704013
_cell_length_c   15.93000292
_cell_angle_alpha   90.00000000
_cell_angle_beta   90.00000000
_cell_angle_gamma   90.00000000
_symmetry_Int_Tables_number   1
_chemical_formula_structural   KLaF4
_chemical_formula_sum   'K4 La4 F16'
_cell_volume   394.68064675
_cell_formula_units_Z   4
loop_
 _symmetry_equiv_pos_site_id
 _symmetry_equiv_pos_as_xyz
  1  'x, y, z'
loop_
 _atom_site_type_symbol
 _atom_site_label
 _atom_site_symmetry_multiplicity
 _atom_site_fract_x
 _atom_site_fract_y
 _atom_site_fract_z
 _atom_site_occupancy
  K  K0  1  0.77923715  0.75000000  0.20220705  1.0
  K  K1  1  0.27923715  0.75000000  0.29779295  1.0
  K  K2  1  0.22076285  0.25000000  0.79779295  1.0
  K  K3  1  0.72076285  0.25000000  0.70220705  1.0
  La  La4  1  0.24830116  0.75000000  0.56239758  1.0
  La  La5  1  0.74830116  0.75000000  0.93760242  1.0
  La  La6  1  0.75169884  0.25000000  0.43760242  1.0
  La  La7  1  0.25169884  0.25000000  0.06239758  1.0
  F  F8  1  0.99436314  0.75000000  0.05909111  1.0
  F  F9  1  0.49436314  0.75000000  0.44090889  1.0
  F  F10  1  0.00563686  0.25000000  0.94090889  1.0
  F  F11  1  0.50563686  0.25000000  0.55909111  1.0
  F  F12  1  0.91122025  0.75000000  0.80514461  1.0
  F  F13  1  0.41122025  0.75000000  0.69485539  1.0
  F  F14  1  0.08877975  0.25000000  0.19485539  1.0
  F  F15  1  0.58877975  0.25000000  0.30514461  1.0
  F  F16  1  0.89701340  0.75000000  0.36364934  1.0
  F  F17  1  0.39701340  0.75000000  0.13635066  1.0
  F  F18  1  0.10298660  0.25000000  0.63635066  1.0
  F  F19  1  0.60298660  0.25000000  0.86364934  1.0
  F  F20  1  0.86493554  0.75000000  0.53561832  1.0
  F  F21  1  0.36493554  0.75000000  0.96438168  1.0
  F  F22  1  0.13506446  0.25000000  0.46438168  1.0
  F  F23  1  0.63506446  0.25000000  0.03561832  1.0
