# generated using pymatgen
data_SiO2
_symmetry_space_group_name_H-M   'P 1'
_cell_length_a   4.96437568
_cell_length_b   7.14869834
_cell_length_c   7.26974208
_cell_angle_alpha   114.74679226
_cell_angle_beta   104.99342078
_cell_angle_gamma   102.45979560
_symmetry_Int_Tables_number   1
_chemical_formula_structural   SiO2
_chemical_formula_sum   'Si4 O8'
_cell_volume   210.31787786
_cell_formula_units_Z   4
loop_
 _symmetry_equiv_pos_site_id
 _symmetry_equiv_pos_as_xyz
  1  'x, y, z'
loop_
 _atom_site_type_symbol
 _atom_site_label
 _atom_site_symmetry_multiplicity
 _atom_site_fract_x
 _atom_site_fract_y
 _atom_site_fract_z
 _atom_site_occupancy
  Si  Si0  1  -0.56675410  -0.84756247  -0.46249770  1.0
  Si  Si1  1  -0.17849064  -0.43157527  -0.38038640  1.0
  Si  Si2  1  -0.20612235  -0.84740295  -0.71453270  1.0
  Si  Si3  1  -0.52667627  -0.12776908  -0.22859893  1.0
  O  O4  1  -0.61927186  -0.97423907  -0.32794047  1.0
  O  O5  1  -0.21232717  -0.59566733  -0.63249772  1.0
  O  O6  1  -0.45232040  -0.97938579  -0.65445350  1.0
  O  O7  1  -0.28044076  -0.97378915  -0.97579098  1.0
  O  O8  1  -0.37775648  -0.27768726  -0.37854387  1.0
  O  O9  1  -0.82536202  -0.27754470  -0.22823537  1.0
  O  O10  1  -0.30875570  -0.59585439  -0.29253314  1.0
  O  O11  1  -0.87693224  -0.82858257  -0.57913923  1.0
