# generated using pymatgen
data_KTaGeS5
_symmetry_space_group_name_H-M   'P 1'
_cell_length_a   9.27988269
_cell_length_b   7.01897150
_cell_length_c   7.33436647
_cell_angle_alpha   73.97056699
_cell_angle_beta   68.80148647
_cell_angle_gamma   80.61942791
_symmetry_Int_Tables_number   1
_chemical_formula_structural   KTaGeS5
_chemical_formula_sum   'K2 Ta2 Ge2 S10'
_cell_volume   427.01824733
_cell_formula_units_Z   2
loop_
 _symmetry_equiv_pos_site_id
 _symmetry_equiv_pos_as_xyz
  1  'x, y, z'
loop_
 _atom_site_type_symbol
 _atom_site_label
 _atom_site_symmetry_multiplicity
 _atom_site_fract_x
 _atom_site_fract_y
 _atom_site_fract_z
 _atom_site_occupancy
  K  K0  1  0.70738861  0.42139972  0.62871349  1.0
  K  K1  1  0.29261139  0.57860028  0.37128651  1.0
  Ta  Ta2  1  0.99387800  0.75946200  0.97601152  1.0
  Ta  Ta3  1  0.00612200  0.24053800  0.02398848  1.0
  Ge  Ge4  1  0.37213282  0.98921274  0.70234485  1.0
  Ge  Ge5  1  0.62786718  0.01078726  0.29765515  1.0
  S  S6  1  1.00414340  0.06780104  0.75532617  1.0
  S  S7  1  -0.00414340  0.93219896  0.24467383  1.0
  S  S8  1  0.63602075  0.95456111  0.61522716  1.0
  S  S9  1  0.36397925  0.04543889  0.38477284  1.0
  S  S10  1  0.70816152  0.74836089  0.16484735  1.0
  S  S11  1  0.29183848  0.25163911  0.83515265  1.0
  S  S12  1  0.28079438  0.70388920  0.90106665  1.0
  S  S13  1  0.71920562  0.29611080  0.09893335  1.0
  S  S14  1  0.97063169  0.57243558  0.77129058  1.0
  S  S15  1  0.02936831  0.42756442  0.22870942  1.0
