# generated using pymatgen
data_Fe3P3PbO13
_symmetry_space_group_name_H-M   'P 1'
_cell_length_a   7.79923650
_cell_length_b   6.47445334
_cell_length_c   10.50132467
_cell_angle_alpha   90.00000000
_cell_angle_beta   98.94257196
_cell_angle_gamma   90.00000000
_symmetry_Int_Tables_number   1
_chemical_formula_structural   Fe3P3PbO13
_chemical_formula_sum   'Fe6 P6 Pb2 O26'
_cell_volume   523.82705943
_cell_formula_units_Z   2
loop_
 _symmetry_equiv_pos_site_id
 _symmetry_equiv_pos_as_xyz
  1  'x, y, z'
loop_
 _atom_site_type_symbol
 _atom_site_label
 _atom_site_symmetry_multiplicity
 _atom_site_fract_x
 _atom_site_fract_y
 _atom_site_fract_z
 _atom_site_occupancy
  Fe  Fe0  1  0.65671223  0.25000000  0.80440022  1.0
  Fe  Fe1  1  0.34328777  0.75000000  0.19559978  1.0
  Fe  Fe2  1  0.20721613  0.25000000  0.55688773  1.0
  Fe  Fe3  1  0.79278387  0.75000000  0.44311227  1.0
  Fe  Fe4  1  0.00000000  0.50000000  0.00000000  1.0
  Fe  Fe5  1  0.00000000  0.00000000  0.00000000  1.0
  P  P6  1  0.78550854  0.25000000  0.51955553  1.0
  P  P7  1  0.21449146  0.75000000  0.48044447  1.0
  P  P8  1  0.31094677  0.25000000  0.88050556  1.0
  P  P9  1  0.68905323  0.75000000  0.11949444  1.0
  P  P10  1  0.25162308  0.25000000  0.23557416  1.0
  P  P11  1  0.74837692  0.75000000  0.76442584  1.0
  Pb  Pb12  1  0.65648620  0.25000000  0.20076021  1.0
  Pb  Pb13  1  0.34351380  0.75000000  0.79923979  1.0
  O  O14  1  0.75074622  0.44129313  0.42819720  1.0
  O  O15  1  0.75074622  0.05870687  0.42819720  1.0
  O  O16  1  0.24925378  0.94129313  0.57180280  1.0
  O  O17  1  0.24925378  0.55870687  0.57180280  1.0
  O  O18  1  0.63487738  0.93876040  0.79012046  1.0
  O  O19  1  0.63487738  0.56123960  0.79012046  1.0
  O  O20  1  0.36512262  0.43876040  0.20987954  1.0
  O  O21  1  0.36512262  0.06123960  0.20987954  1.0
  O  O22  1  0.20930064  0.44653221  0.91063683  1.0
  O  O23  1  0.20930064  0.05346779  0.91063683  1.0
  O  O24  1  0.79069936  0.94653221  0.08936317  1.0
  O  O25  1  0.79069936  0.55346779  0.08936317  1.0
  O  O26  1  0.97724209  0.25000000  0.58952609  1.0
  O  O27  1  0.02275791  0.75000000  0.41047391  1.0
  O  O28  1  0.87998576  0.25000000  0.91110568  1.0
  O  O29  1  0.12001424  0.75000000  0.08889432  1.0
  O  O30  1  0.66229379  0.25000000  0.61994152  1.0
  O  O31  1  0.33770621  0.75000000  0.38005848  1.0
  O  O32  1  0.50167224  0.25000000  0.95234061  1.0
  O  O33  1  0.49832776  0.75000000  0.04765939  1.0
  O  O34  1  0.34089565  0.25000000  0.73681819  1.0
  O  O35  1  0.65910435  0.75000000  0.26318181  1.0
  O  O36  1  0.20093631  0.25000000  0.37139317  1.0
  O  O37  1  0.79906369  0.75000000  0.62860683  1.0
  O  O38  1  0.08008966  0.25000000  0.13293545  1.0
  O  O39  1  0.91991034  0.75000000  0.86706455  1.0
