# generated using pymatgen
data_Na3BS3
_symmetry_space_group_name_H-M   'P 1'
_cell_length_a   6.85334487
_cell_length_b   6.85334487
_cell_length_c   8.48615334
_cell_angle_alpha   65.70445978
_cell_angle_beta   114.29554022
_cell_angle_gamma   121.27029370
_symmetry_Int_Tables_number   1
_chemical_formula_structural   Na3BS3
_chemical_formula_sum   'Na6 B2 S6'
_cell_volume   300.32266760
_cell_formula_units_Z   2
loop_
 _symmetry_equiv_pos_site_id
 _symmetry_equiv_pos_as_xyz
  1  'x, y, z'
loop_
 _atom_site_type_symbol
 _atom_site_label
 _atom_site_symmetry_multiplicity
 _atom_site_fract_x
 _atom_site_fract_y
 _atom_site_fract_z
 _atom_site_occupancy
  Na  Na0  1  0.68534891  -0.12379504  0.49551443  1.0
  Na  Na1  1  1.12379504  -0.68534891  0.99551443  1.0
  Na  Na2  1  0.87620496  0.68534891  0.00448557  1.0
  Na  Na3  1  1.31465109  0.12379504  0.50448557  1.0
  Na  Na4  1  0.50000000  0.00000000  0.00000000  1.0
  Na  Na5  1  1.00000000  -0.50000000  0.50000000  1.0
  B  B6  1  0.57853271  0.57853271  0.25000000  1.0
  B  B7  1  0.42146729  0.42146729  0.75000000  1.0
  S  S8  1  0.57795997  0.30785749  0.25404699  1.0
  S  S9  1  0.69214251  -0.57795997  0.75404699  1.0
  S  S10  1  1.30785749  0.57795997  0.24595301  1.0
  S  S11  1  1.42204003  -0.30785749  0.74595301  1.0
  S  S12  1  0.85557500  0.85557500  0.25000000  1.0
  S  S13  1  0.14442500  0.14442500  0.75000000  1.0
