# generated using pymatgen
data_LuNiSn
_symmetry_space_group_name_H-M   'P 1'
_cell_length_a   6.96975586
_cell_length_b   4.41958816
_cell_length_c   7.65330801
_cell_angle_alpha   90.00000000
_cell_angle_beta   90.00000000
_cell_angle_gamma   90.00000000
_symmetry_Int_Tables_number   1
_chemical_formula_structural   LuNiSn
_chemical_formula_sum   'Lu4 Ni4 Sn4'
_cell_volume   235.74829400
_cell_formula_units_Z   4
loop_
 _symmetry_equiv_pos_site_id
 _symmetry_equiv_pos_as_xyz
  1  'x, y, z'
loop_
 _atom_site_type_symbol
 _atom_site_label
 _atom_site_symmetry_multiplicity
 _atom_site_fract_x
 _atom_site_fract_y
 _atom_site_fract_z
 _atom_site_occupancy
  Lu  Lu0  1  0.98778169  0.75000000  0.70005311  1.0
  Lu  Lu1  1  0.48778169  0.75000000  0.79994689  1.0
  Lu  Lu2  1  0.01221831  0.25000000  0.29994689  1.0
  Lu  Lu3  1  0.51221831  0.25000000  0.20005311  1.0
  Ni  Ni4  1  0.70704523  0.75000000  0.41307725  1.0
  Ni  Ni5  1  0.20704523  0.75000000  0.08692275  1.0
  Ni  Ni6  1  0.29295477  0.25000000  0.58692275  1.0
  Ni  Ni7  1  0.79295477  0.25000000  0.91307725  1.0
  Sn  Sn8  1  0.81167645  0.75000000  0.08574300  1.0
  Sn  Sn9  1  0.31167645  0.75000000  0.41425700  1.0
  Sn  Sn10  1  0.18832355  0.25000000  0.91425700  1.0
  Sn  Sn11  1  0.68832355  0.25000000  0.58574300  1.0
