# generated using pymatgen
data_C3N8
_symmetry_space_group_name_H-M   'P 1'
_cell_length_a   10.74990478
_cell_length_b   10.74990478
_cell_length_c   6.37572306
_cell_angle_alpha   90.00000000
_cell_angle_beta   90.00000000
_cell_angle_gamma   120.00000000
_symmetry_Int_Tables_number   1
_chemical_formula_structural   C3N8
_chemical_formula_sum   'C12 N32'
_cell_volume   638.07144702
_cell_formula_units_Z   4
loop_
 _symmetry_equiv_pos_site_id
 _symmetry_equiv_pos_as_xyz
  1  'x, y, z'
loop_
 _atom_site_type_symbol
 _atom_site_label
 _atom_site_symmetry_multiplicity
 _atom_site_fract_x
 _atom_site_fract_y
 _atom_site_fract_z
 _atom_site_occupancy
  C  C0  1  0.37382978  0.92805939  0.25000000  1.0
  C  C1  1  0.92805939  0.55422962  0.75000000  1.0
  C  C2  1  0.55422962  0.62617022  0.25000000  1.0
  C  C3  1  0.07194061  0.44577038  0.25000000  1.0
  C  C4  1  0.62617022  0.07194061  0.75000000  1.0
  C  C5  1  0.44577038  0.37382978  0.75000000  1.0
  C  C6  1  0.21427625  0.68777695  0.25000000  1.0
  C  C7  1  0.68777695  0.47350070  0.75000000  1.0
  C  C8  1  0.47350070  0.78572375  0.25000000  1.0
  C  C9  1  0.31222305  0.52649930  0.25000000  1.0
  C  C10  1  0.78572375  0.31222305  0.75000000  1.0
  C  C11  1  0.52649930  0.21427625  0.75000000  1.0
  N  N12  1  0.49310515  0.91828403  0.25000000  1.0
  N  N13  1  0.91828403  0.42517888  0.75000000  1.0
  N  N14  1  0.42517888  0.50689485  0.25000000  1.0
  N  N15  1  0.08171597  0.57482112  0.25000000  1.0
  N  N16  1  0.50689485  0.08171597  0.75000000  1.0
  N  N17  1  0.57482112  0.49310515  0.75000000  1.0
  N  N18  1  0.23652395  0.82121124  0.25000000  1.0
  N  N19  1  0.82121124  0.58468729  0.75000000  1.0
  N  N20  1  0.58468729  0.76347605  0.25000000  1.0
  N  N21  1  0.17878876  0.41531271  0.25000000  1.0
  N  N22  1  0.76347605  0.17878876  0.75000000  1.0
  N  N23  1  0.41531271  0.23652395  0.75000000  1.0
  N  N24  1  0.90844520  0.79349187  0.25000000  1.0
  N  N25  1  0.79349187  0.88504666  0.75000000  1.0
  N  N26  1  0.88504666  0.09155480  0.25000000  1.0
  N  N27  1  0.20650813  0.11495334  0.25000000  1.0
  N  N28  1  0.09155480  0.20650813  0.75000000  1.0
  N  N29  1  0.11495334  0.90844520  0.75000000  1.0
  N  N30  1  0.79096411  0.70755306  0.25000000  1.0
  N  N31  1  0.70755306  0.91658895  0.75000000  1.0
  N  N32  1  0.91658895  0.20903589  0.25000000  1.0
  N  N33  1  0.29244694  0.08341105  0.25000000  1.0
  N  N34  1  0.20903589  0.29244694  0.75000000  1.0
  N  N35  1  0.08341105  0.79096411  0.75000000  1.0
  N  N36  1  0.66822128  0.59960457  0.25000000  1.0
  N  N37  1  0.59960457  0.93138328  0.75000000  1.0
  N  N38  1  0.93138328  0.33177872  0.25000000  1.0
  N  N39  1  0.40039543  0.06861672  0.25000000  1.0
  N  N40  1  0.33177872  0.40039543  0.75000000  1.0
  N  N41  1  0.06861672  0.66822128  0.75000000  1.0
  N  N42  1  0.33333333  0.66666667  0.25000000  1.0
  N  N43  1  0.66666667  0.33333333  0.75000000  1.0
