# generated using pymatgen
data_Hf3P2
_symmetry_space_group_name_H-M   'P 1'
_cell_length_a   10.19456014
_cell_length_b   3.58398855
_cell_length_c   9.87805790
_cell_angle_alpha   90.00000000
_cell_angle_beta   90.00000000
_cell_angle_gamma   90.00000000
_symmetry_Int_Tables_number   1
_chemical_formula_structural   Hf3P2
_chemical_formula_sum   'Hf12 P8'
_cell_volume   360.91644713
_cell_formula_units_Z   4
loop_
 _symmetry_equiv_pos_site_id
 _symmetry_equiv_pos_as_xyz
  1  'x, y, z'
loop_
 _atom_site_type_symbol
 _atom_site_label
 _atom_site_symmetry_multiplicity
 _atom_site_fract_x
 _atom_site_fract_y
 _atom_site_fract_z
 _atom_site_occupancy
  Hf  Hf0  1  0.37550834  0.75000000  0.93500136  1.0
  Hf  Hf1  1  0.87550834  0.75000000  0.56499864  1.0
  Hf  Hf2  1  0.62449166  0.25000000  0.06499864  1.0
  Hf  Hf3  1  0.12449166  0.25000000  0.43500136  1.0
  Hf  Hf4  1  0.21587288  0.75000000  0.20286653  1.0
  Hf  Hf5  1  0.71587288  0.75000000  0.29713347  1.0
  Hf  Hf6  1  0.78412712  0.25000000  0.79713347  1.0
  Hf  Hf7  1  0.28412712  0.25000000  0.70286653  1.0
  Hf  Hf8  1  0.04595878  0.75000000  0.87354455  1.0
  Hf  Hf9  1  0.54595878  0.75000000  0.62645545  1.0
  Hf  Hf10  1  0.95404122  0.25000000  0.12645545  1.0
  Hf  Hf11  1  0.45404122  0.25000000  0.37354455  1.0
  P  P12  1  0.47234328  0.75000000  0.17888701  1.0
  P  P13  1  0.97234328  0.75000000  0.32111299  1.0
  P  P14  1  0.52765672  0.25000000  0.82111299  1.0
  P  P15  1  0.02765672  0.25000000  0.67888701  1.0
  P  P16  1  0.30682201  0.75000000  0.49982561  1.0
  P  P17  1  0.80682201  0.75000000  1.00017439  1.0
  P  P18  1  0.69317799  0.25000000  0.50017439  1.0
  P  P19  1  0.19317799  0.25000000  -0.00017439  1.0
