# generated using pymatgen
data_W3NO9
_symmetry_space_group_name_H-M   'P 1'
_cell_length_a   7.52006342
_cell_length_b   7.52006342
_cell_length_c   7.58319522
_cell_angle_alpha   90.00000000
_cell_angle_beta   90.00000000
_cell_angle_gamma   120.00000000
_symmetry_Int_Tables_number   1
_chemical_formula_structural   W3NO9
_chemical_formula_sum   'W6 N2 O18'
_cell_volume   371.38629642
_cell_formula_units_Z   2
loop_
 _symmetry_equiv_pos_site_id
 _symmetry_equiv_pos_as_xyz
  1  'x, y, z'
loop_
 _atom_site_type_symbol
 _atom_site_label
 _atom_site_symmetry_multiplicity
 _atom_site_fract_x
 _atom_site_fract_y
 _atom_site_fract_z
 _atom_site_occupancy
  W  W0  1  0.53265355  0.53265355  0.25000000  1.0
  W  W1  1  0.53265355  0.00000000  0.75000000  1.0
  W  W2  1  0.00000000  0.53265355  0.75000000  1.0
  W  W3  1  -0.00000000  0.46734645  0.25000000  1.0
  W  W4  1  0.46734645  0.46734645  0.75000000  1.0
  W  W5  1  0.46734645  0.00000000  0.25000000  1.0
  N  N6  1  0.00000000  0.00000000  0.50000000  1.0
  N  N7  1  -0.00000000  -0.00000000  0.00000000  1.0
  O  O8  1  0.20885372  0.78380788  0.25000000  1.0
  O  O9  1  0.20885372  0.42504585  0.75000000  1.0
  O  O10  1  0.78380788  0.20885372  0.25000000  1.0
  O  O11  1  0.78380788  0.57495415  0.75000000  1.0
  O  O12  1  0.57495415  0.78380788  0.75000000  1.0
  O  O13  1  0.57495415  0.79114628  0.25000000  1.0
  O  O14  1  0.21619212  0.79114628  0.75000000  1.0
  O  O15  1  0.21619212  0.42504585  0.25000000  1.0
  O  O16  1  0.79114628  0.57495415  0.25000000  1.0
  O  O17  1  0.79114628  0.21619212  0.75000000  1.0
  O  O18  1  0.42504585  0.20885372  0.75000000  1.0
  O  O19  1  0.42504585  0.21619212  0.25000000  1.0
  O  O20  1  0.50000000  0.50000000  0.50000000  1.0
  O  O21  1  0.50000000  0.50000000  -0.00000000  1.0
  O  O22  1  0.50000000  0.00000000  0.00000000  1.0
  O  O23  1  0.50000000  -0.00000000  0.50000000  1.0
  O  O24  1  -0.00000000  0.50000000  0.00000000  1.0
  O  O25  1  -0.00000000  0.50000000  0.50000000  1.0
