# generated using pymatgen
data_CoMo4O15
_symmetry_space_group_name_H-M   'P 1'
_cell_length_a   8.13470665
_cell_length_b   6.92208858
_cell_length_c   5.54986043
_cell_angle_alpha   91.95188252
_cell_angle_beta   105.88383081
_cell_angle_gamma   83.49675381
_symmetry_Int_Tables_number   1
_chemical_formula_structural   CoMo4O15
_chemical_formula_sum   'Co1 Mo4 O15'
_cell_volume   298.64037436
_cell_formula_units_Z   1
loop_
 _symmetry_equiv_pos_site_id
 _symmetry_equiv_pos_as_xyz
  1  'x, y, z'
loop_
 _atom_site_type_symbol
 _atom_site_label
 _atom_site_symmetry_multiplicity
 _atom_site_fract_x
 _atom_site_fract_y
 _atom_site_fract_z
 _atom_site_occupancy
  Co  Co0  1  0.00000000  -0.50000000  -0.50000000  1.0
  Mo  Mo1  1  -0.82601145  -0.82929298  -0.94460849  1.0
  Mo  Mo2  1  -0.17398855  -0.17070702  -0.05539151  1.0
  Mo  Mo3  1  -0.35270617  -0.80402394  -0.63953359  1.0
  Mo  Mo4  1  -0.64729383  -0.19597606  -0.36046641  1.0
  O  O5  1  -0.71624840  -1.02663457  -0.60159116  1.0
  O  O6  1  -0.28375160  0.02663457  -0.39840884  1.0
  O  O7  1  -0.59335374  -0.75554540  -0.83509164  1.0
  O  O8  1  -0.40664626  -0.24445460  -0.16490836  1.0
  O  O9  1  -0.30184433  -0.94138900  -0.89872785  1.0
  O  O10  1  -0.69815567  -0.05861100  -0.10127215  1.0
  O  O11  1  -0.90783959  -0.66857333  -0.74096122  1.0
  O  O12  1  -0.09216041  -0.33142667  -0.25903878  1.0
  O  O13  1  -0.89585009  -0.69876212  -0.22466054  1.0
  O  O14  1  -0.10414991  -0.30123788  -0.77533946  1.0
  O  O15  1  0.00000000  0.00000000  0.00000000  1.0
  O  O16  1  -0.50203296  -0.64535572  -0.45046339  1.0
  O  O17  1  -0.49796704  -0.35464428  -0.54953661  1.0
  O  O18  1  -0.79542269  -0.37420864  -0.40568882  1.0
  O  O19  1  -0.20457731  -0.62579136  -0.59431118  1.0
