# generated using pymatgen
data_Tl3PbBr5
_symmetry_space_group_name_H-M   'P 1'
_cell_length_a   8.67664072
_cell_length_b   9.25375689
_cell_length_c   15.76440791
_cell_angle_alpha   90.00000000
_cell_angle_beta   90.00000000
_cell_angle_gamma   90.00000000
_symmetry_Int_Tables_number   1
_chemical_formula_structural   Tl3PbBr5
_chemical_formula_sum   'Tl12 Pb4 Br20'
_cell_volume   1265.74833271
_cell_formula_units_Z   4
loop_
 _symmetry_equiv_pos_site_id
 _symmetry_equiv_pos_as_xyz
  1  'x, y, z'
loop_
 _atom_site_type_symbol
 _atom_site_label
 _atom_site_symmetry_multiplicity
 _atom_site_fract_x
 _atom_site_fract_y
 _atom_site_fract_z
 _atom_site_occupancy
  Tl  Tl0  1  0.41131541  0.33321483  0.52198441  1.0
  Tl  Tl1  1  0.91131541  0.16678517  0.47801559  1.0
  Tl  Tl2  1  0.58868459  0.83321483  0.97801559  1.0
  Tl  Tl3  1  0.08868459  0.66678517  0.02198441  1.0
  Tl  Tl4  1  0.06237841  0.58410479  0.71914103  1.0
  Tl  Tl5  1  0.56237841  0.91589521  0.28085897  1.0
  Tl  Tl6  1  0.93762159  0.08410479  0.78085897  1.0
  Tl  Tl7  1  0.43762159  0.41589521  0.21914103  1.0
  Tl  Tl8  1  0.77084923  0.70445709  0.55116714  1.0
  Tl  Tl9  1  0.27084923  0.79554291  0.44883286  1.0
  Tl  Tl10  1  0.22915077  0.20445709  0.94883286  1.0
  Tl  Tl11  1  0.72915077  0.29554291  0.05116714  1.0
  Pb  Pb12  1  0.42136014  0.94871061  0.70620265  1.0
  Pb  Pb13  1  0.92136014  0.55128939  0.29379735  1.0
  Pb  Pb14  1  0.57863986  0.44871061  0.79379735  1.0
  Pb  Pb15  1  0.07863986  0.05128939  0.20620265  1.0
  Br  Br16  1  0.42596366  0.50468185  0.97007497  1.0
  Br  Br17  1  0.92596366  0.99531815  0.02992503  1.0
  Br  Br18  1  0.57403634  0.00468185  0.52992503  1.0
  Br  Br19  1  0.07403634  0.49531815  0.47007497  1.0
  Br  Br20  1  0.41261070  0.64505473  0.63570970  1.0
  Br  Br21  1  0.91261070  0.85494527  0.36429030  1.0
  Br  Br22  1  0.58738930  0.14505473  0.86429030  1.0
  Br  Br23  1  0.08738930  0.35494527  0.13570970  1.0
  Br  Br24  1  0.28071783  0.28523822  0.72538264  1.0
  Br  Br25  1  0.78071783  0.21476178  0.27461736  1.0
  Br  Br26  1  0.71928217  0.78523822  0.77461736  1.0
  Br  Br27  1  0.21928217  0.71476178  0.22538264  1.0
  Br  Br28  1  0.22868637  0.84983932  0.85084488  1.0
  Br  Br29  1  0.72868637  0.65016068  0.14915512  1.0
  Br  Br30  1  0.77131363  0.34983932  0.64915512  1.0
  Br  Br31  1  0.27131363  0.15016068  0.35084488  1.0
  Br  Br32  1  0.10160925  0.94261233  0.61060978  1.0
  Br  Br33  1  0.60160925  0.55738767  0.38939022  1.0
  Br  Br34  1  0.89839075  0.44261233  0.88939022  1.0
  Br  Br35  1  0.39839075  0.05738767  0.11060978  1.0
