# generated using pymatgen
data_MnNiGe
_symmetry_space_group_name_H-M   'P 1'
_cell_length_a   6.02510695
_cell_length_b   3.66218366
_cell_length_c   7.10494094
_cell_angle_alpha   90.00000000
_cell_angle_beta   90.00000000
_cell_angle_gamma   90.00000000
_symmetry_Int_Tables_number   1
_chemical_formula_structural   MnNiGe
_chemical_formula_sum   'Mn4 Ni4 Ge4'
_cell_volume   156.77086468
_cell_formula_units_Z   4
loop_
 _symmetry_equiv_pos_site_id
 _symmetry_equiv_pos_as_xyz
  1  'x, y, z'
loop_
 _atom_site_type_symbol
 _atom_site_label
 _atom_site_symmetry_multiplicity
 _atom_site_fract_x
 _atom_site_fract_y
 _atom_site_fract_z
 _atom_site_occupancy
  Mn  Mn0  1  0.96561377  0.75000000  0.67783111  1.0
  Mn  Mn1  1  0.46561377  0.75000000  0.82216889  1.0
  Mn  Mn2  1  0.03438623  0.25000000  0.32216889  1.0
  Mn  Mn3  1  0.53438623  0.25000000  0.17783111  1.0
  Ni  Ni4  1  0.85900742  0.75000000  0.05908584  1.0
  Ni  Ni5  1  0.35900742  0.75000000  0.44091416  1.0
  Ni  Ni6  1  0.14099258  0.25000000  0.94091416  1.0
  Ni  Ni7  1  0.64099258  0.25000000  0.55908584  1.0
  Ge  Ge8  1  0.74790840  0.75000000  0.37267877  1.0
  Ge  Ge9  1  0.24790840  0.75000000  0.12732123  1.0
  Ge  Ge10  1  0.25209160  0.25000000  0.62732123  1.0
  Ge  Ge11  1  0.75209160  0.25000000  0.87267877  1.0
