# generated using pymatgen
data_Ba(ZnSn)2
_symmetry_space_group_name_H-M   'P 1'
_cell_length_a   4.81669079
_cell_length_b   4.81669079
_cell_length_c   11.35508686
_cell_angle_alpha   90.00000000
_cell_angle_beta   90.00000000
_cell_angle_gamma   90.00000000
_symmetry_Int_Tables_number   1
_chemical_formula_structural   Ba(ZnSn)2
_chemical_formula_sum   'Ba2 Zn4 Sn4'
_cell_volume   263.44380792
_cell_formula_units_Z   2
loop_
 _symmetry_equiv_pos_site_id
 _symmetry_equiv_pos_as_xyz
  1  'x, y, z'
loop_
 _atom_site_type_symbol
 _atom_site_label
 _atom_site_symmetry_multiplicity
 _atom_site_fract_x
 _atom_site_fract_y
 _atom_site_fract_z
 _atom_site_occupancy
  Ba  Ba0  1  0.50000000  0.00000000  0.73926085  1.0
  Ba  Ba1  1  0.00000000  0.50000000  0.26073915  1.0
  Zn  Zn2  1  0.50000000  0.00000000  0.13607209  1.0
  Zn  Zn3  1  0.00000000  0.50000000  0.86392791  1.0
  Zn  Zn4  1  0.00000000  0.00000000  0.50000000  1.0
  Zn  Zn5  1  0.50000000  0.50000000  0.50000000  1.0
  Sn  Sn6  1  0.50000000  0.00000000  0.37363963  1.0
  Sn  Sn7  1  0.00000000  0.50000000  0.62636037  1.0
  Sn  Sn8  1  0.00000000  0.00000000  0.00000000  1.0
  Sn  Sn9  1  0.50000000  0.50000000  0.00000000  1.0
