# generated using pymatgen
data_Mn2Si(P2O7)2
_symmetry_space_group_name_H-M   'P 1'
_cell_length_a   9.01827439
_cell_length_b   9.01827439
_cell_length_c   12.57616691
_cell_angle_alpha   77.46258611
_cell_angle_beta   102.53741389
_cell_angle_gamma   146.87998583
_symmetry_Int_Tables_number   1
_chemical_formula_structural   Mn2Si(P2O7)2
_chemical_formula_sum   'Mn4 Si2 P8 O28'
_cell_volume   544.33783077
_cell_formula_units_Z   2
loop_
 _symmetry_equiv_pos_site_id
 _symmetry_equiv_pos_as_xyz
  1  'x, y, z'
loop_
 _atom_site_type_symbol
 _atom_site_label
 _atom_site_symmetry_multiplicity
 _atom_site_fract_x
 _atom_site_fract_y
 _atom_site_fract_z
 _atom_site_occupancy
  Mn  Mn0  1  0.58958188  0.09658596  0.63118851  1.0
  Mn  Mn1  1  0.90341404  0.41041812  0.13118851  1.0
  Mn  Mn2  1  1.09658596  0.58958188  0.86881149  1.0
  Mn  Mn3  1  0.41041812  -0.09658596  0.36881149  1.0
  Si  Si4  1  0.64264554  0.64264554  0.75000000  1.0
  Si  Si5  1  0.35735446  0.35735446  0.25000000  1.0
  P  P6  1  0.73054117  -0.02290142  0.86565869  1.0
  P  P7  1  1.02290142  0.26945883  0.36565869  1.0
  P  P8  1  0.97709858  0.73054117  0.63434131  1.0
  P  P9  1  0.26945883  0.02290142  0.13434131  1.0
  P  P10  1  0.46728747  0.19949291  0.91612282  1.0
  P  P11  1  0.80050709  0.53271253  0.41612282  1.0
  P  P12  1  1.19949291  0.46728747  0.58387718  1.0
  P  P13  1  0.53271253  -0.19949291  0.08387718  1.0
  O  O14  1  0.78840760  -0.12244255  0.82085585  1.0
  O  O15  1  1.12244255  0.21159240  0.32085585  1.0
  O  O16  1  0.87755745  0.78840760  0.67914415  1.0
  O  O17  1  0.21159240  0.12244255  0.17914415  1.0
  O  O18  1  0.62441217  -0.19290980  0.98316458  1.0
  O  O19  1  1.19290980  0.37558783  0.48316458  1.0
  O  O20  1  0.80709020  0.62441217  0.51683542  1.0
  O  O21  1  0.37558783  0.19290980  0.01683542  1.0
  O  O22  1  0.49692602  -0.12320229  0.79743027  1.0
  O  O23  1  1.12320229  0.50307398  0.29743027  1.0
  O  O24  1  0.87679771  0.49692602  0.70256973  1.0
  O  O25  1  0.50307398  0.12320229  0.20256973  1.0
  O  O26  1  0.66523687  0.26650696  0.45325009  1.0
  O  O27  1  0.73349304  0.33476313  0.95325009  1.0
  O  O28  1  1.26650696  0.66523687  0.04674991  1.0
  O  O29  1  0.33476313  -0.26650696  0.54674991  1.0
  O  O30  1  0.23494498  -0.07702432  0.87231368  1.0
  O  O31  1  1.07702432  0.76505502  0.37231368  1.0
  O  O32  1  0.92297568  0.23494498  0.62768632  1.0
  O  O33  1  0.76505502  0.07702432  0.12768632  1.0
  O  O34  1  0.27771065  -0.00612044  0.62101678  1.0
  O  O35  1  1.00612044  0.72228935  0.12101678  1.0
  O  O36  1  0.99387956  0.27771065  0.87898322  1.0
  O  O37  1  0.72228935  0.00612044  0.37898322  1.0
  O  O38  1  0.51729320  0.39381752  0.83114384  1.0
  O  O39  1  0.60618248  0.48270680  0.33114384  1.0
  O  O40  1  1.39381752  0.51729320  0.66885616  1.0
  O  O41  1  0.48270680  -0.39381752  0.16885616  1.0
