# generated using pymatgen
data_K2Ti(IO3)6
_symmetry_space_group_name_H-M   'P 1'
_cell_length_a   7.65846614
_cell_length_b   7.65846614
_cell_length_c   7.65846614
_cell_angle_alpha   96.96475557
_cell_angle_beta   96.96475557
_cell_angle_gamma   96.96475557
_symmetry_Int_Tables_number   1
_chemical_formula_structural   K2Ti(IO3)6
_chemical_formula_sum   'K2 Ti1 I6 O18'
_cell_volume   438.34648865
_cell_formula_units_Z   1
loop_
 _symmetry_equiv_pos_site_id
 _symmetry_equiv_pos_as_xyz
  1  'x, y, z'
loop_
 _atom_site_type_symbol
 _atom_site_label
 _atom_site_symmetry_multiplicity
 _atom_site_fract_x
 _atom_site_fract_y
 _atom_site_fract_z
 _atom_site_occupancy
  K  K0  1  0.67942362  0.67942362  0.67942362  1.0
  K  K1  1  0.32057638  0.32057638  0.32057638  1.0
  Ti  Ti2  1  0.00000000  0.00000000  0.00000000  1.0
  I  I3  1  0.83380210  0.62626388  0.20737557  1.0
  I  I4  1  1.37373612  -0.20737557  0.16619790  1.0
  I  I5  1  0.79262443  0.16619790  0.37373612  1.0
  I  I6  1  1.16619790  0.37373612  -0.20737557  1.0
  I  I7  1  0.62626388  1.20737557  -0.16619790  1.0
  I  I8  1  1.20737557  0.83380210  -0.37373612  1.0
  O  O9  1  0.82653663  0.80811033  0.05084826  1.0
  O  O10  1  1.19188967  -0.05084826  0.17346337  1.0
  O  O11  1  0.94915174  0.17346337  0.19188967  1.0
  O  O12  1  1.17346337  0.19188967  -0.05084826  1.0
  O  O13  1  0.80811033  1.05084826  -0.17346337  1.0
  O  O14  1  1.05084826  0.82653663  -0.19188967  1.0
  O  O15  1  0.58377318  0.58063498  0.18999083  1.0
  O  O16  1  1.41936502  -0.18999083  0.41622682  1.0
  O  O17  1  0.81000917  0.41622682  0.41936502  1.0
  O  O18  1  1.41622682  0.41936502  -0.18999083  1.0
  O  O19  1  0.58063498  1.18999083  -0.41622682  1.0
  O  O20  1  1.18999083  0.58377318  -0.41936502  1.0
  O  O21  1  1.41678561  0.89204750  -0.20898836  1.0
  O  O22  1  1.10795250  0.20898836  -0.41678561  1.0
  O  O23  1  1.20898836  -0.41678561  0.10795250  1.0
  O  O24  1  0.58321439  0.10795250  0.20898836  1.0
  O  O25  1  0.89204750  0.79101164  0.41678561  1.0
  O  O26  1  0.79101164  1.41678561  -0.10795250  1.0
