# generated using pymatgen
data_LiZnSO4F
_symmetry_space_group_name_H-M   'P 1'
_cell_length_a   7.45057914
_cell_length_b   6.29161369
_cell_length_c   7.78162021
_cell_angle_alpha   90.00000000
_cell_angle_beta   90.00000000
_cell_angle_gamma   90.00000000
_symmetry_Int_Tables_number   1
_chemical_formula_structural   LiZnSO4F
_chemical_formula_sum   'Li4 Zn4 S4 O16 F4'
_cell_volume   364.77251889
_cell_formula_units_Z   4
loop_
 _symmetry_equiv_pos_site_id
 _symmetry_equiv_pos_as_xyz
  1  'x, y, z'
loop_
 _atom_site_type_symbol
 _atom_site_label
 _atom_site_symmetry_multiplicity
 _atom_site_fract_x
 _atom_site_fract_y
 _atom_site_fract_z
 _atom_site_occupancy
  Li  Li0  1  0.00000000  0.00000000  -0.00000000  1.0
  Li  Li1  1  0.00000000  0.50000000  0.00000000  1.0
  Li  Li2  1  0.50000000  0.00000000  0.50000000  1.0
  Li  Li3  1  0.50000000  0.50000000  0.50000000  1.0
  Zn  Zn4  1  0.87145300  0.75000000  0.69747417  1.0
  Zn  Zn5  1  0.37145300  0.75000000  0.80252583  1.0
  Zn  Zn6  1  0.12854700  0.25000000  0.30252583  1.0
  Zn  Zn7  1  0.62854700  0.25000000  0.19747417  1.0
  S  S8  1  0.63467250  0.75000000  0.14586153  1.0
  S  S9  1  0.13467250  0.75000000  0.35413847  1.0
  S  S10  1  0.36532750  0.25000000  0.85413847  1.0
  S  S11  1  0.86532750  0.25000000  0.64586153  1.0
  O  O12  1  0.63338372  0.93981027  0.26381716  1.0
  O  O13  1  0.63338372  0.56018973  0.26381716  1.0
  O  O14  1  0.13338372  0.93981027  0.23618284  1.0
  O  O15  1  0.13338372  0.56018973  0.23618284  1.0
  O  O16  1  0.36661628  0.43981027  0.73618284  1.0
  O  O17  1  0.36661628  0.06018973  0.73618284  1.0
  O  O18  1  0.86661628  0.43981027  0.76381716  1.0
  O  O19  1  0.86661628  0.06018973  0.76381716  1.0
  O  O20  1  0.96875949  0.75000000  0.45963660  1.0
  O  O21  1  0.46875949  0.75000000  0.04036340  1.0
  O  O22  1  0.03124051  0.25000000  0.54036340  1.0
  O  O23  1  0.53124051  0.25000000  0.95963660  1.0
  O  O24  1  0.79841188  0.75000000  0.03741375  1.0
  O  O25  1  0.29841188  0.75000000  0.46258625  1.0
  O  O26  1  0.20158812  0.25000000  0.96258625  1.0
  O  O27  1  0.70158812  0.25000000  0.53741375  1.0
  F  F28  1  0.60382498  0.75000000  0.63679954  1.0
  F  F29  1  0.10382498  0.75000000  0.86320046  1.0
  F  F30  1  0.39617502  0.25000000  0.36320046  1.0
  F  F31  1  0.89617502  0.25000000  0.13679953  1.0
