# generated using pymatgen
data_NaZrCuS3
_symmetry_space_group_name_H-M   'P 1'
_cell_length_a   6.83211955
_cell_length_b   6.83211955
_cell_length_c   9.79226053
_cell_angle_alpha   90.00000000
_cell_angle_beta   90.00000000
_cell_angle_gamma   148.49040868
_symmetry_Int_Tables_number   1
_chemical_formula_structural   NaZrCuS3
_chemical_formula_sum   'Na2 Zr2 Cu2 S6'
_cell_volume   238.88979069
_cell_formula_units_Z   2
loop_
 _symmetry_equiv_pos_site_id
 _symmetry_equiv_pos_as_xyz
  1  'x, y, z'
loop_
 _atom_site_type_symbol
 _atom_site_label
 _atom_site_symmetry_multiplicity
 _atom_site_fract_x
 _atom_site_fract_y
 _atom_site_fract_z
 _atom_site_occupancy
  Na  Na0  1  -0.24910887  0.24910887  0.75000000  1.0
  Na  Na1  1  0.24910887  0.75089113  0.25000000  1.0
  Zr  Zr2  1  0.00000000  0.00000000  0.00000000  1.0
  Zr  Zr3  1  0.00000000  0.00000000  0.50000000  1.0
  Cu  Cu4  1  0.47023143  0.52976857  0.75000000  1.0
  Cu  Cu5  1  -0.47023143  0.47023143  0.25000000  1.0
  S  S6  1  0.37028518  0.62971482  0.94074827  1.0
  S  S7  1  0.37028518  0.62971482  0.55925173  1.0
  S  S8  1  -0.37028518  0.37028518  0.44074827  1.0
  S  S9  1  -0.37028518  0.37028518  0.05925173  1.0
  S  S10  1  0.07742445  0.92257555  0.75000000  1.0
  S  S11  1  -0.07742445  0.07742445  0.25000000  1.0
