# generated using pymatgen
data_Na3SiH3O5
_symmetry_space_group_name_H-M   'P 1'
_cell_length_a   7.93260291
_cell_length_b   6.02191629
_cell_length_c   11.32944415
_cell_angle_alpha   90.00000000
_cell_angle_beta   105.08809606
_cell_angle_gamma   90.00000000
_symmetry_Int_Tables_number   1
_chemical_formula_structural   Na3SiH3O5
_chemical_formula_sum   'Na12 Si4 H12 O20'
_cell_volume   522.54456433
_cell_formula_units_Z   4
loop_
 _symmetry_equiv_pos_site_id
 _symmetry_equiv_pos_as_xyz
  1  'x, y, z'
loop_
 _atom_site_type_symbol
 _atom_site_label
 _atom_site_symmetry_multiplicity
 _atom_site_fract_x
 _atom_site_fract_y
 _atom_site_fract_z
 _atom_site_occupancy
  Na  Na0  1  0.97917448  0.24319188  0.43913505  1.0
  Na  Na1  1  0.97917448  0.25680812  0.93913505  1.0
  Na  Na2  1  0.02082552  0.74319188  0.06086495  1.0
  Na  Na3  1  0.02082552  0.75680812  0.56086495  1.0
  Na  Na4  1  0.75204668  0.48628390  0.16648483  1.0
  Na  Na5  1  0.75204668  0.01371610  0.66648483  1.0
  Na  Na6  1  0.24795332  0.98628390  0.33351517  1.0
  Na  Na7  1  0.24795332  0.51371610  0.83351517  1.0
  Na  Na8  1  0.59898822  0.30746107  0.43231990  1.0
  Na  Na9  1  0.59898822  0.19253893  0.93231990  1.0
  Na  Na10  1  0.40101178  0.80746107  0.06768010  1.0
  Na  Na11  1  0.40101178  0.69253893  0.56768010  1.0
  Si  Si12  1  0.69117182  0.79206411  0.36421007  1.0
  Si  Si13  1  0.69117182  0.70793589  0.86421007  1.0
  Si  Si14  1  0.30882818  0.29206411  0.13578993  1.0
  Si  Si15  1  0.30882818  0.20793589  0.63578993  1.0
  H  H16  1  0.98638223  0.88335433  0.82589371  1.0
  H  H17  1  0.98638223  0.61664567  0.32589371  1.0
  H  H18  1  0.01361777  0.38335433  0.67410629  1.0
  H  H19  1  0.01361777  0.11664567  0.17410629  1.0
  H  H20  1  0.84084311  0.02695025  0.21601187  1.0
  H  H21  1  0.84084311  0.47304975  0.71601187  1.0
  H  H22  1  0.15915689  0.52695025  0.28398813  1.0
  H  H23  1  0.15915689  0.97304975  0.78398813  1.0
  H  H24  1  0.57228116  0.09331131  0.16944080  1.0
  H  H25  1  0.57228116  0.40668869  0.66944080  1.0
  H  H26  1  0.42771884  0.59331131  0.33055920  1.0
  H  H27  1  0.42771884  0.90668869  0.83055920  1.0
  O  O28  1  0.92848309  0.15138824  0.22355655  1.0
  O  O29  1  0.92848309  0.34861176  0.72355655  1.0
  O  O30  1  0.07151691  0.65138824  0.27644345  1.0
  O  O31  1  0.07151691  0.84861176  0.77644345  1.0
  O  O32  1  0.81267579  0.93395087  0.88947258  1.0
  O  O33  1  0.81267579  0.56604913  0.38947258  1.0
  O  O34  1  0.18732421  0.43395087  0.61052742  1.0
  O  O35  1  0.18732421  0.06604913  0.11052742  1.0
  O  O36  1  0.76742061  0.98647282  0.46363006  1.0
  O  O37  1  0.76742061  0.51352718  0.96363006  1.0
  O  O38  1  0.23257939  0.48647282  0.03636994  1.0
  O  O39  1  0.23257939  0.01352718  0.53636994  1.0
  O  O40  1  0.51070234  0.22452583  0.11754850  1.0
  O  O41  1  0.51070234  0.27547417  0.61754850  1.0
  O  O42  1  0.48929766  0.72452583  0.38245150  1.0
  O  O43  1  0.48929766  0.77547417  0.88245150  1.0
  O  O44  1  0.33581941  0.36725789  0.27960404  1.0
  O  O45  1  0.33581941  0.13274211  0.77960404  1.0
  O  O46  1  0.66418059  0.86725789  0.22039596  1.0
  O  O47  1  0.66418059  0.63274211  0.72039596  1.0
