# generated using pymatgen
data_GdPt
_symmetry_space_group_name_H-M   'P 1'
_cell_length_a   7.18322187
_cell_length_b   4.52185477
_cell_length_c   5.64405812
_cell_angle_alpha   90.00000000
_cell_angle_beta   90.00000000
_cell_angle_gamma   90.00000000
_symmetry_Int_Tables_number   1
_chemical_formula_structural   GdPt
_chemical_formula_sum   'Gd4 Pt4'
_cell_volume   183.32739526
_cell_formula_units_Z   4
loop_
 _symmetry_equiv_pos_site_id
 _symmetry_equiv_pos_as_xyz
  1  'x, y, z'
loop_
 _atom_site_type_symbol
 _atom_site_label
 _atom_site_symmetry_multiplicity
 _atom_site_fract_x
 _atom_site_fract_y
 _atom_site_fract_z
 _atom_site_occupancy
  Gd  Gd0  1  0.31790693  0.75000000  0.14065051  1.0
  Gd  Gd1  1  0.81790693  0.75000000  0.35934949  1.0
  Gd  Gd2  1  0.68209307  0.25000000  0.85934949  1.0
  Gd  Gd3  1  0.18209307  0.25000000  0.64065051  1.0
  Pt  Pt4  1  0.45623323  0.75000000  0.65438648  1.0
  Pt  Pt5  1  0.95623323  0.75000000  0.84561352  1.0
  Pt  Pt6  1  0.54376677  0.25000000  0.34561352  1.0
  Pt  Pt7  1  0.04376677  0.25000000  0.15438648  1.0
