# generated using pymatgen
data_VCrO4
_symmetry_space_group_name_H-M   'P 1'
_cell_length_a   6.63112290
_cell_length_b   6.63112290
_cell_length_c   6.85465346
_cell_angle_alpha   77.12039216
_cell_angle_beta   102.87960784
_cell_angle_gamma   95.83575177
_symmetry_Int_Tables_number   1
_chemical_formula_structural   VCrO4
_chemical_formula_sum   'V4 Cr4 O16'
_cell_volume   286.00652434
_cell_formula_units_Z   4
loop_
 _symmetry_equiv_pos_site_id
 _symmetry_equiv_pos_as_xyz
  1  'x, y, z'
loop_
 _atom_site_type_symbol
 _atom_site_label
 _atom_site_symmetry_multiplicity
 _atom_site_fract_x
 _atom_site_fract_y
 _atom_site_fract_z
 _atom_site_occupancy
  V  V0  1  1.27464215  -0.27464215  0.89845456  1.0
  V  V1  1  0.72535785  0.27464215  0.10154544  1.0
  V  V2  1  0.74787906  0.74787906  0.50000000  1.0
  V  V3  1  0.25212094  0.25212094  0.50000000  1.0
  Cr  Cr4  1  0.79676512  0.20323488  0.64148997  1.0
  Cr  Cr5  1  1.20323488  -0.20323488  0.35851003  1.0
  Cr  Cr6  1  0.81919865  0.81919865  0.00000000  1.0
  Cr  Cr7  1  0.18080135  0.18080135  0.00000000  1.0
  O  O8  1  1.80135371  -0.10717403  0.70144910  1.0
  O  O9  1  1.10717403  -0.80135371  0.70144910  1.0
  O  O10  1  0.89282597  0.80135371  0.29855090  1.0
  O  O11  1  0.19864629  0.10717403  0.29855090  1.0
  O  O12  1  1.52700490  -0.20564004  0.97218482  1.0
  O  O13  1  1.20564004  -0.52700490  0.97218482  1.0
  O  O14  1  0.79435996  0.52700490  0.02781518  1.0
  O  O15  1  0.47299510  0.20564004  0.02781518  1.0
  O  O16  1  0.50081287  0.20878046  0.60975515  1.0
  O  O17  1  0.79121954  0.49918713  0.60975515  1.0
  O  O18  1  1.20878046  -0.49918713  0.39024485  1.0
  O  O19  1  1.49918713  -0.20878046  0.39024485  1.0
  O  O20  1  0.86068389  0.13931611  0.95833821  1.0
  O  O21  1  1.13931611  -0.13931611  0.04166179  1.0
  O  O22  1  0.79133634  0.20866366  0.36184412  1.0
  O  O23  1  1.20866366  -0.20866366  0.63815588  1.0
