# generated using pymatgen
data_Mg(IN)2
_symmetry_space_group_name_H-M   'P 1'
_cell_length_a   7.97832878
_cell_length_b   7.64227642
_cell_length_c   4.18636002
_cell_angle_alpha   90.00000000
_cell_angle_beta   90.00000000
_cell_angle_gamma   90.00000000
_symmetry_Int_Tables_number   1
_chemical_formula_structural   Mg(IN)2
_chemical_formula_sum   'Mg2 I4 N4'
_cell_volume   255.25322966
_cell_formula_units_Z   2
loop_
 _symmetry_equiv_pos_site_id
 _symmetry_equiv_pos_as_xyz
  1  'x, y, z'
loop_
 _atom_site_type_symbol
 _atom_site_label
 _atom_site_symmetry_multiplicity
 _atom_site_fract_x
 _atom_site_fract_y
 _atom_site_fract_z
 _atom_site_occupancy
  Mg  Mg0  1  0.50000000  0.50000000  0.00000000  1.0
  Mg  Mg1  1  0.00000000  0.00000000  0.00000000  1.0
  I  I2  1  0.34504236  0.80014852  0.50000000  1.0
  I  I3  1  0.84504236  0.69985148  0.50000000  1.0
  I  I4  1  0.65495764  0.19985148  0.50000000  1.0
  I  I5  1  0.15495764  0.30014852  0.50000000  1.0
  N  N6  1  -0.12890030  0.77771784  0.00000000  1.0
  N  N7  1  0.37109970  0.72228216  0.00000000  1.0
  N  N8  1  1.12890030  0.22228216  0.00000000  1.0
  N  N9  1  0.62890030  0.27771784  0.00000000  1.0
