# generated using pymatgen
data_Cs2Ta6PbCl18
_symmetry_space_group_name_H-M   'P 1'
_cell_length_a   10.48597018
_cell_length_b   10.48597018
_cell_length_c   10.48597018
_cell_angle_alpha   55.26495451
_cell_angle_beta   55.26495451
_cell_angle_gamma   55.26495451
_symmetry_Int_Tables_number   1
_chemical_formula_structural   Cs2Ta6PbCl18
_chemical_formula_sum   'Cs2 Ta6 Pb1 Cl18'
_cell_volume   725.56586008
_cell_formula_units_Z   1
loop_
 _symmetry_equiv_pos_site_id
 _symmetry_equiv_pos_as_xyz
  1  'x, y, z'
loop_
 _atom_site_type_symbol
 _atom_site_label
 _atom_site_symmetry_multiplicity
 _atom_site_fract_x
 _atom_site_fract_y
 _atom_site_fract_z
 _atom_site_occupancy
  Cs  Cs0  1  0.27514539  0.27514539  0.27514539  1.0
  Cs  Cs1  1  0.72485461  -0.27514539  -0.27514539  1.0
  Ta  Ta2  1  0.64340455  0.41818984  -0.69497958  1.0
  Ta  Ta3  1  0.69497958  0.35659545  -0.41818984  1.0
  Ta  Ta4  1  0.58181016  0.69497958  -0.64340455  1.0
  Ta  Ta5  1  0.35659545  0.58181016  -0.30502042  1.0
  Ta  Ta6  1  0.30502042  0.64340455  -0.58181016  1.0
  Ta  Ta7  1  0.41818984  0.30502042  -0.35659545  1.0
  Pb  Pb8  1  -0.00000000  -0.00000000  -0.00000000  1.0
  Cl  Cl9  1  0.57377454  0.16949581  -0.56223172  1.0
  Cl  Cl10  1  0.56223172  0.42622546  -0.16949581  1.0
  Cl  Cl11  1  0.83050419  0.56223172  -0.57377454  1.0
  Cl  Cl12  1  0.42622546  0.83050419  -0.43776828  1.0
  Cl  Cl13  1  0.43776828  0.57377454  -0.83050419  1.0
  Cl  Cl14  1  0.16949581  0.43776828  -0.42622546  1.0
  Cl  Cl15  1  0.36612492  0.90197435  -0.76959625  1.0
  Cl  Cl16  1  0.76959625  -0.36612492  0.09802565  1.0
  Cl  Cl17  1  1.09802565  -0.23040375  -0.36612492  1.0
  Cl  Cl18  1  0.63387508  0.09802565  -0.23040375  1.0
  Cl  Cl19  1  0.23040375  0.36612492  -0.09802565  1.0
  Cl  Cl20  1  0.90197435  0.23040375  -0.63387508  1.0
  Cl  Cl21  1  0.31922872  0.05051520  -0.17742641  1.0
  Cl  Cl22  1  1.17742641  -0.31922872  -0.05051520  1.0
  Cl  Cl23  1  0.94948480  0.17742641  -0.31922872  1.0
  Cl  Cl24  1  0.68077128  -0.05051520  0.17742641  1.0
  Cl  Cl25  1  0.82257359  -0.68077128  0.05051520  1.0
  Cl  Cl26  1  1.05051520  -0.17742641  -0.68077128  1.0
