# generated using pymatgen
data_CrNiP
_symmetry_space_group_name_H-M   'P 1'
_cell_length_a   5.85836000
_cell_length_b   3.53231924
_cell_length_c   6.83415209
_cell_angle_alpha   90.00000000
_cell_angle_beta   90.00000000
_cell_angle_gamma   90.00000000
_symmetry_Int_Tables_number   1
_chemical_formula_structural   CrNiP
_chemical_formula_sum   'Cr4 Ni4 P4'
_cell_volume   141.42319441
_cell_formula_units_Z   4
loop_
 _symmetry_equiv_pos_site_id
 _symmetry_equiv_pos_as_xyz
  1  'x, y, z'
loop_
 _atom_site_type_symbol
 _atom_site_label
 _atom_site_symmetry_multiplicity
 _atom_site_fract_x
 _atom_site_fract_y
 _atom_site_fract_z
 _atom_site_occupancy
  Cr  Cr0  1  0.96764777  0.75000000  0.67088255  1.0
  Cr  Cr1  1  0.46764777  0.75000000  0.82911745  1.0
  Cr  Cr2  1  0.03235223  0.25000000  0.32911745  1.0
  Cr  Cr3  1  0.53235223  0.25000000  0.17088255  1.0
  Ni  Ni4  1  0.86032694  0.75000000  0.06130070  1.0
  Ni  Ni5  1  0.36032694  0.75000000  0.43869930  1.0
  Ni  Ni6  1  0.13967306  0.25000000  0.93869930  1.0
  Ni  Ni7  1  0.63967306  0.25000000  0.56130070  1.0
  P  P8  1  0.74509438  0.75000000  0.37269336  1.0
  P  P9  1  0.24509438  0.75000000  0.12730664  1.0
  P  P10  1  0.25490562  0.25000000  0.62730664  1.0
  P  P11  1  0.75490562  0.25000000  0.87269336  1.0
