# generated using pymatgen
data_TbB2Os
_symmetry_space_group_name_H-M   'P 1'
_cell_length_a   5.87472798
_cell_length_b   5.30374043
_cell_length_c   6.38442323
_cell_angle_alpha   90.00000000
_cell_angle_beta   90.00000000
_cell_angle_gamma   90.00000000
_symmetry_Int_Tables_number   1
_chemical_formula_structural   TbB2Os
_chemical_formula_sum   'Tb4 B8 Os4'
_cell_volume   198.92606512
_cell_formula_units_Z   4
loop_
 _symmetry_equiv_pos_site_id
 _symmetry_equiv_pos_as_xyz
  1  'x, y, z'
loop_
 _atom_site_type_symbol
 _atom_site_label
 _atom_site_symmetry_multiplicity
 _atom_site_fract_x
 _atom_site_fract_y
 _atom_site_fract_z
 _atom_site_occupancy
  Tb  Tb0  1  0.99136137  0.75000000  0.66401211  1.0
  Tb  Tb1  1  0.49136137  0.75000000  0.83598789  1.0
  Tb  Tb2  1  0.00863863  0.25000000  0.33598789  1.0
  Tb  Tb3  1  0.50863863  0.25000000  0.16401211  1.0
  B  B4  1  0.63501261  0.91766329  0.46175150  1.0
  B  B5  1  0.63501261  0.58233671  0.46175150  1.0
  B  B6  1  0.13501261  0.91766329  0.03824850  1.0
  B  B7  1  0.13501261  0.58233671  0.03824850  1.0
  B  B8  1  0.36498739  0.41766329  0.53824850  1.0
  B  B9  1  0.36498739  0.08233671  0.53824850  1.0
  B  B10  1  0.86498739  0.41766329  0.96175150  1.0
  B  B11  1  0.86498739  0.08233671  0.96175150  1.0
  Os  Os12  1  0.82014979  0.75000000  0.18361646  1.0
  Os  Os13  1  0.32014979  0.75000000  0.31638354  1.0
  Os  Os14  1  0.17985021  0.25000000  0.81638354  1.0
  Os  Os15  1  0.67985021  0.25000000  0.68361646  1.0
