# generated using pymatgen
data_Na2Si3O7
_symmetry_space_group_name_H-M   'P 1'
_cell_length_a   5.13229202
_cell_length_b   5.13229202
_cell_length_c   11.72562510
_cell_angle_alpha   79.29163677
_cell_angle_beta   100.70836323
_cell_angle_gamma   122.81145005
_symmetry_Int_Tables_number   1
_chemical_formula_structural   Na2Si3O7
_chemical_formula_sum   'Na4 Si6 O14'
_cell_volume   253.70311385
_cell_formula_units_Z   2
loop_
 _symmetry_equiv_pos_site_id
 _symmetry_equiv_pos_as_xyz
  1  'x, y, z'
loop_
 _atom_site_type_symbol
 _atom_site_label
 _atom_site_symmetry_multiplicity
 _atom_site_fract_x
 _atom_site_fract_y
 _atom_site_fract_z
 _atom_site_occupancy
  Na  Na0  1  0.35213390  0.06076039  0.68126340  1.0
  Na  Na1  1  0.93923961  0.64786610  0.18126340  1.0
  Na  Na2  1  1.06076039  0.35213390  0.81873660  1.0
  Na  Na3  1  0.64786610  -0.06076039  0.31873660  1.0
  Si  Si4  1  0.67275319  -0.24063189  0.61523850  1.0
  Si  Si5  1  1.24063189  0.32724681  0.11523850  1.0
  Si  Si6  1  0.75936811  0.67275319  0.88476150  1.0
  Si  Si7  1  0.32724681  0.24063189  0.38476150  1.0
  Si  Si8  1  0.50000000  0.00000000  -0.00000000  1.0
  Si  Si9  1  1.00000000  0.50000000  0.50000000  1.0
  O  O10  1  0.51055505  -0.24409215  0.91109940  1.0
  O  O11  1  1.24409215  0.48944495  0.41109940  1.0
  O  O12  1  0.75590785  0.51055505  0.58890060  1.0
  O  O13  1  0.48944495  0.24409215  0.08890060  1.0
  O  O14  1  0.81944944  0.08978605  0.53696271  1.0
  O  O15  1  0.91021395  0.18055056  0.03696271  1.0
  O  O16  1  1.08978605  0.81944944  0.96303729  1.0
  O  O17  1  0.18055056  -0.08978605  0.46303729  1.0
  O  O18  1  0.57908052  0.29673973  0.87293959  1.0
  O  O19  1  0.70326027  0.42091948  0.37293959  1.0
  O  O20  1  1.29673973  0.57908052  0.62706041  1.0
  O  O21  1  0.42091948  -0.29673973  0.12706041  1.0
  O  O22  1  0.85151233  0.85151233  0.75000000  1.0
  O  O23  1  0.14848767  0.14848767  0.25000000  1.0
