# generated using pymatgen
data_Si(Bi3O5)4
_symmetry_space_group_name_H-M   'P 1'
_cell_length_a   8.89647744
_cell_length_b   8.89647744
_cell_length_c   8.89647744
_cell_angle_alpha   109.47122063
_cell_angle_beta   109.47122063
_cell_angle_gamma   109.47122063
_symmetry_Int_Tables_number   1
_chemical_formula_structural   Si(Bi3O5)4
_chemical_formula_sum   'Si1 Bi12 O20'
_cell_volume   542.04126973
_cell_formula_units_Z   1
loop_
 _symmetry_equiv_pos_site_id
 _symmetry_equiv_pos_as_xyz
  1  'x, y, z'
loop_
 _atom_site_type_symbol
 _atom_site_label
 _atom_site_symmetry_multiplicity
 _atom_site_fract_x
 _atom_site_fract_y
 _atom_site_fract_z
 _atom_site_occupancy
  Si  Si0  1  -0.00000000  -0.00000000  0.00000000  1.0
  Bi  Bi1  1  0.49417884  1.30100050  1.16061548  1.0
  Bi  Bi2  1  0.19317834  0.85961498  0.69899950  1.0
  Bi  Bi3  1  1.33356336  0.83938452  1.14038502  1.0
  Bi  Bi4  1  1.14038502  1.33356336  0.83938452  1.0
  Bi  Bi5  1  1.16061548  0.49417884  1.30100050  1.0
  Bi  Bi6  1  0.69899950  0.19317834  0.85961498  1.0
  Bi  Bi7  1  0.85961498  0.69899950  0.19317834  1.0
  Bi  Bi8  1  0.83938452  1.14038502  1.33356336  1.0
  Bi  Bi9  1  1.30100050  1.16061548  0.49417884  1.0
  Bi  Bi10  1  0.50582116  0.66643664  0.80682166  1.0
  Bi  Bi11  1  0.80682166  0.50582116  0.66643664  1.0
  Bi  Bi12  1  0.66643664  0.80682166  0.50582116  1.0
  O  O13  1  1.35539863  1.11771276  0.73735343  1.0
  O  O14  1  1.23768587  1.61964067  0.88228724  1.0
  O  O15  1  0.61804520  0.26264657  0.38035933  1.0
  O  O16  1  0.38035933  0.61804520  0.26264657  1.0
  O  O17  1  0.73735343  1.35539863  1.11771276  1.0
  O  O18  1  0.88228724  1.23768587  1.61964067  1.0
  O  O19  1  1.61964067  0.88228724  1.23768587  1.0
  O  O20  1  0.26264657  0.38035933  0.61804520  1.0
  O  O21  1  1.11771276  0.73735343  1.35539863  1.0
  O  O22  1  0.64460137  0.38195480  0.76231413  1.0
  O  O23  1  0.76231413  0.64460137  0.38195480  1.0
  O  O24  1  0.38195480  0.76231413  0.64460137  1.0
  O  O25  1  0.39498822  1.00000000  1.00000000  1.0
  O  O26  1  1.00000000  0.39498822  1.00000000  1.0
  O  O27  1  1.00000000  1.00000000  0.39498822  1.0
  O  O28  1  0.60501178  0.60501178  0.60501178  1.0
  O  O29  1  0.81215057  1.00000000  1.00000000  1.0
  O  O30  1  1.00000000  0.81215057  1.00000000  1.0
  O  O31  1  1.00000000  1.00000000  0.81215057  1.0
  O  O32  1  0.18784943  0.18784943  0.18784943  1.0
