# generated using pymatgen
data_Cs(SbSe2)2
_symmetry_space_group_name_H-M   'P 1'
_cell_length_a   6.97581899
_cell_length_b   10.07059513
_cell_length_c   7.11851652
_cell_angle_alpha   79.97573657
_cell_angle_beta   75.48113985
_cell_angle_gamma   87.07786596
_symmetry_Int_Tables_number   1
_chemical_formula_structural   Cs(SbSe2)2
_chemical_formula_sum   'Cs2 Sb4 Se8'
_cell_volume   476.70591885
_cell_formula_units_Z   2
loop_
 _symmetry_equiv_pos_site_id
 _symmetry_equiv_pos_as_xyz
  1  'x, y, z'
loop_
 _atom_site_type_symbol
 _atom_site_label
 _atom_site_symmetry_multiplicity
 _atom_site_fract_x
 _atom_site_fract_y
 _atom_site_fract_z
 _atom_site_occupancy
  Cs  Cs0  1  -0.81030776  -0.42975017  -0.82981438  1.0
  Cs  Cs1  1  -0.18969224  -0.57024983  -0.17018562  1.0
  Sb  Sb2  1  -0.85308039  -0.95658171  -0.81174863  1.0
  Sb  Sb3  1  -0.14691961  -0.04341829  -0.18825137  1.0
  Sb  Sb4  1  -0.59426727  -0.83067218  -0.39779974  1.0
  Sb  Sb5  1  -0.40573273  -0.16932782  -0.60220026  1.0
  Se  Se6  1  -0.91935381  -0.78600218  -0.52174258  1.0
  Se  Se7  1  -0.08064619  -0.21399782  -0.47825742  1.0
  Se  Se8  1  -0.41022955  -0.58787018  -0.58151224  1.0
  Se  Se9  1  -0.58977045  -0.41212982  -0.41848776  1.0
  Se  Se10  1  -0.30415723  -0.26454079  -0.93275872  1.0
  Se  Se11  1  -0.69584277  -0.73545921  -0.06724128  1.0
  Se  Se12  1  -0.21156702  -0.90098481  -0.84280155  1.0
  Se  Se13  1  -0.78843298  -0.09901519  -0.15719845  1.0
