# generated using pymatgen
data_Cs(Zr3I7)2
_symmetry_space_group_name_H-M   'P 1'
_cell_length_a   11.22670896
_cell_length_b   11.22670896
_cell_length_c   13.33549057
_cell_angle_alpha   90.00000000
_cell_angle_beta   90.00000000
_cell_angle_gamma   87.91433082
_symmetry_Int_Tables_number   1
_chemical_formula_structural   Cs(Zr3I7)2
_chemical_formula_sum   'Cs2 Zr12 I28'
_cell_volume   1679.67833989
_cell_formula_units_Z   2
loop_
 _symmetry_equiv_pos_site_id
 _symmetry_equiv_pos_as_xyz
  1  'x, y, z'
loop_
 _atom_site_type_symbol
 _atom_site_label
 _atom_site_symmetry_multiplicity
 _atom_site_fract_x
 _atom_site_fract_y
 _atom_site_fract_z
 _atom_site_occupancy
  Cs  Cs0  1  -0.50000000  0.50000000  0.50000000  1.0
  Cs  Cs1  1  0.00000000  1.00000000  0.00000000  1.0
  Zr  Zr2  1  -0.17598504  0.94891362  0.38433902  1.0
  Zr  Zr3  1  0.32401496  1.44891362  0.11566098  1.0
  Zr  Zr4  1  -0.05108638  0.82401496  0.61566098  1.0
  Zr  Zr5  1  0.44891362  1.32401496  0.88433902  1.0
  Zr  Zr6  1  0.05108638  1.17598504  0.38433902  1.0
  Zr  Zr7  1  -0.44891362  0.67598504  0.11566098  1.0
  Zr  Zr8  1  0.17598504  1.05108638  0.61566098  1.0
  Zr  Zr9  1  -0.32401496  0.55108638  0.88433902  1.0
  Zr  Zr10  1  -0.39673332  1.39673332  0.07615148  1.0
  Zr  Zr11  1  0.10326668  0.89673332  0.42384852  1.0
  Zr  Zr12  1  0.39673332  0.60326668  0.92384852  1.0
  Zr  Zr13  1  -0.10326668  1.10326668  0.57615148  1.0
  I  I14  1  0.46806027  1.29044979  0.23910640  1.0
  I  I15  1  -0.03193973  0.79044979  0.26089360  1.0
  I  I16  1  0.29044979  1.46806027  0.76089360  1.0
  I  I17  1  -0.20955021  0.96806027  0.73910640  1.0
  I  I18  1  -0.29044979  0.53193973  0.23910640  1.0
  I  I19  1  0.20955021  1.03193973  0.26089360  1.0
  I  I20  1  -0.46806027  0.70955021  0.76089360  1.0
  I  I21  1  0.03193973  1.20955021  0.73910640  1.0
  I  I22  1  -0.34375572  1.10074377  0.49168233  1.0
  I  I23  1  0.15624428  0.60074377  0.00831767  1.0
  I  I24  1  0.10074377  0.65624428  0.50831767  1.0
  I  I25  1  -0.39925623  1.15624428  0.99168233  1.0
  I  I26  1  -0.10074377  1.34375572  0.49168233  1.0
  I  I27  1  0.39925623  0.84375572  0.00831767  1.0
  I  I28  1  0.34375572  0.89925623  0.50831767  1.0
  I  I29  1  -0.15624428  1.39925623  0.99168233  1.0
  I  I30  1  -0.14491202  1.14491202  0.24003182  1.0
  I  I31  1  0.35508798  0.64491202  0.25996818  1.0
  I  I32  1  0.14491202  0.85508798  0.75996818  1.0
  I  I33  1  -0.35508798  1.35508798  0.74003182  1.0
  I  I34  1  -0.39004619  0.89004619  0.25000000  1.0
  I  I35  1  0.10995381  1.39004619  0.25000000  1.0
  I  I36  1  -0.10995381  0.60995381  0.75000000  1.0
  I  I37  1  0.39004619  1.10995381  0.75000000  1.0
  I  I38  1  0.25502421  1.25502421  0.50000000  1.0
  I  I39  1  -0.24497579  0.75502421  0.00000000  1.0
  I  I40  1  -0.25502421  0.74497579  0.50000000  1.0
  I  I41  1  0.24497579  1.24497579  0.00000000  1.0
