# generated using pymatgen
data_Tl5Te3
_symmetry_space_group_name_H-M   'P 1'
_cell_length_a   9.17673626
_cell_length_b   9.17673626
_cell_length_c   9.17673626
_cell_angle_alpha   120.99032473
_cell_angle_beta   120.99032473
_cell_angle_gamma   88.29309857
_symmetry_Int_Tables_number   1
_chemical_formula_structural   Tl5Te3
_chemical_formula_sum   'Tl10 Te6'
_cell_volume   538.01034771
_cell_formula_units_Z   2
loop_
 _symmetry_equiv_pos_site_id
 _symmetry_equiv_pos_as_xyz
  1  'x, y, z'
loop_
 _atom_site_type_symbol
 _atom_site_label
 _atom_site_symmetry_multiplicity
 _atom_site_fract_x
 _atom_site_fract_y
 _atom_site_fract_z
 _atom_site_occupancy
  Tl  Tl0  1  0.69520506  1.19520506  1.20171798  1.0
  Tl  Tl1  1  1.00651292  0.50651292  1.20171798  1.0
  Tl  Tl2  1  0.49348708  0.69520506  0.50000000  1.0
  Tl  Tl3  1  0.80479494  1.00651292  1.50000000  1.0
  Tl  Tl4  1  1.19520506  0.99348708  1.50000000  1.0
  Tl  Tl5  1  0.50651292  0.30479494  0.50000000  1.0
  Tl  Tl6  1  0.99348708  0.49348708  0.79828202  1.0
  Tl  Tl7  1  0.30479494  0.80479494  0.79828202  1.0
  Tl  Tl8  1  0.50000000  0.50000000  -0.00000000  1.0
  Tl  Tl9  1  0.00000000  0.00000000  0.00000000  1.0
  Te  Te10  1  0.34253979  0.84253979  1.18507958  1.0
  Te  Te11  1  0.15746021  0.34253979  0.50000000  1.0
  Te  Te12  1  0.84253979  0.65746021  0.50000000  1.0
  Te  Te13  1  0.65746021  1.15746021  0.81492042  1.0
  Te  Te14  1  0.25000000  0.25000000  -0.00000000  1.0
  Te  Te15  1  0.75000000  0.75000000  -0.00000000  1.0
