# generated using pymatgen
data_Na8Si6SnO18
_symmetry_space_group_name_H-M   'P 1'
_cell_length_a   7.44931734
_cell_length_b   7.44931734
_cell_length_c   7.44931734
_cell_angle_alpha   87.68609303
_cell_angle_beta   87.68609303
_cell_angle_gamma   87.68609303
_symmetry_Int_Tables_number   1
_chemical_formula_structural   Na8Si6SnO18
_chemical_formula_sum   'Na8 Si6 Sn1 O18'
_cell_volume   412.39523320
_cell_formula_units_Z   1
loop_
 _symmetry_equiv_pos_site_id
 _symmetry_equiv_pos_as_xyz
  1  'x, y, z'
loop_
 _atom_site_type_symbol
 _atom_site_label
 _atom_site_symmetry_multiplicity
 _atom_site_fract_x
 _atom_site_fract_y
 _atom_site_fract_z
 _atom_site_occupancy
  Na  Na0  1  0.50000000  1.00000000  -0.50000000  1.0
  Na  Na1  1  0.50000000  -0.50000000  -0.00000000  1.0
  Na  Na2  1  0.00000000  0.50000000  -0.50000000  1.0
  Na  Na3  1  1.00000000  1.50000000  -0.00000000  1.0
  Na  Na4  1  1.00000000  -0.00000000  -0.50000000  1.0
  Na  Na5  1  0.50000000  -0.00000000  -0.00000000  1.0
  Na  Na6  1  0.75510226  0.75510226  -0.24489774  1.0
  Na  Na7  1  1.24489774  1.24489774  0.24489774  1.0
  Si  Si8  1  0.27893773  0.27893773  -0.26474667  1.0
  Si  Si9  1  0.27893773  0.73525333  -0.72106227  1.0
  Si  Si10  1  0.26474667  0.72106227  -0.27893773  1.0
  Si  Si11  1  0.72106227  0.26474667  -0.27893773  1.0
  Si  Si12  1  0.72106227  0.72106227  -0.73525333  1.0
  Si  Si13  1  0.73525333  0.27893773  -0.72106227  1.0
  Sn  Sn14  1  0.00000000  0.00000000  0.00000000  1.0
  O  O15  1  1.21226670  1.21226670  0.54995154  1.0
  O  O16  1  1.21226670  1.54995154  0.21226670  1.0
  O  O17  1  0.45004846  0.78773330  -0.21226670  1.0
  O  O18  1  0.78773330  0.45004846  -0.21226670  1.0
  O  O19  1  0.78773330  0.78773330  -0.54995154  1.0
  O  O20  1  1.54995154  1.21226670  0.21226670  1.0
  O  O21  1  0.18908412  0.18908412  -0.07951590  1.0
  O  O22  1  0.18908412  0.92048410  -0.81091588  1.0
  O  O23  1  1.07951590  -0.18908412  -0.18908412  1.0
  O  O24  1  0.81091588  0.07951590  -0.18908412  1.0
  O  O25  1  0.81091588  -0.18908412  0.07951590  1.0
  O  O26  1  0.92048410  0.18908412  -0.81091588  1.0
  O  O27  1  0.24211575  0.50000000  -0.24211575  1.0
  O  O28  1  0.24211575  0.75788425  -0.50000000  1.0
  O  O29  1  0.50000000  0.24211575  -0.24211575  1.0
  O  O30  1  0.50000000  0.75788425  -0.75788425  1.0
  O  O31  1  0.75788425  0.50000000  -0.75788425  1.0
  O  O32  1  0.75788425  0.24211575  -0.50000000  1.0
