# generated using pymatgen
data_NaBi2AuO5
_symmetry_space_group_name_H-M   'P 1'
_cell_length_a   12.53461149
_cell_length_b   12.53461149
_cell_length_c   3.63249381
_cell_angle_alpha   90.00000000
_cell_angle_beta   90.00000000
_cell_angle_gamma   90.00000000
_symmetry_Int_Tables_number   1
_chemical_formula_structural   NaBi2AuO5
_chemical_formula_sum   'Na4 Bi8 Au4 O20'
_cell_volume   570.72465945
_cell_formula_units_Z   4
loop_
 _symmetry_equiv_pos_site_id
 _symmetry_equiv_pos_as_xyz
  1  'x, y, z'
loop_
 _atom_site_type_symbol
 _atom_site_label
 _atom_site_symmetry_multiplicity
 _atom_site_fract_x
 _atom_site_fract_y
 _atom_site_fract_z
 _atom_site_occupancy
  Na  Na0  1  0.30150855  0.80150855  0.00000000  1.0
  Na  Na1  1  0.19849145  0.30150855  0.00000000  1.0
  Na  Na2  1  0.69849145  0.19849145  0.00000000  1.0
  Na  Na3  1  0.80150855  0.69849145  0.00000000  1.0
  Bi  Bi4  1  0.44948395  0.26749814  0.49982919  1.0
  Bi  Bi5  1  0.05051605  0.76749814  0.49982919  1.0
  Bi  Bi6  1  0.73250186  0.44948395  0.50017081  1.0
  Bi  Bi7  1  0.76749814  0.94948395  0.50017081  1.0
  Bi  Bi8  1  0.55051605  0.73250186  0.49982919  1.0
  Bi  Bi9  1  0.94948395  0.23250186  0.49982919  1.0
  Bi  Bi10  1  0.26749814  0.55051605  0.50017081  1.0
  Bi  Bi11  1  0.23250186  0.05051605  0.50017081  1.0
  Au  Au12  1  -0.00000000  0.50000000  0.00000000  1.0
  Au  Au13  1  0.50000000  -0.00000000  0.00000000  1.0
  Au  Au14  1  0.50000000  0.50000000  0.00000000  1.0
  Au  Au15  1  0.00000000  0.00000000  0.00000000  1.0
  O  O16  1  0.16055897  0.49648052  0.00002654  1.0
  O  O17  1  0.33944103  0.99648052  0.00002654  1.0
  O  O18  1  0.50351948  0.16055897  0.99997346  1.0
  O  O19  1  0.99648052  0.66055897  0.99997346  1.0
  O  O20  1  0.83944103  0.50351948  0.00002654  1.0
  O  O21  1  0.66055897  0.00351948  0.00002654  1.0
  O  O22  1  0.49648052  0.83944103  0.99997346  1.0
  O  O23  1  0.00351948  0.33944103  0.99997346  1.0
  O  O24  1  0.38719270  0.38387785  0.00000954  1.0
  O  O25  1  0.11280730  0.88387785  0.00000954  1.0
  O  O26  1  0.61612215  0.38719270  0.99999046  1.0
  O  O27  1  0.88387785  0.88719270  0.99999046  1.0
  O  O28  1  0.61280730  0.61612215  0.00000954  1.0
  O  O29  1  0.88719270  0.11612215  0.00000954  1.0
  O  O30  1  0.38387785  0.61280730  0.99999046  1.0
  O  O31  1  0.11612215  0.11280730  0.99999046  1.0
  O  O32  1  0.78758890  0.28758890  0.50000000  1.0
  O  O33  1  0.71241110  0.78758890  0.50000000  1.0
  O  O34  1  0.21241110  0.71241110  0.50000000  1.0
  O  O35  1  0.28758890  0.21241110  0.50000000  1.0
