# generated using pymatgen
data_Yb3Pt4
_symmetry_space_group_name_H-M   'P 1'
_cell_length_a   7.81356663
_cell_length_b   7.81356663
_cell_length_c   7.81356663
_cell_angle_alpha   114.33858714
_cell_angle_beta   114.33858714
_cell_angle_gamma   114.33858715
_symmetry_Int_Tables_number   1
_chemical_formula_structural   Yb3Pt4
_chemical_formula_sum   'Yb6 Pt8'
_cell_volume   282.39833029
_cell_formula_units_Z   2
loop_
 _symmetry_equiv_pos_site_id
 _symmetry_equiv_pos_as_xyz
  1  'x, y, z'
loop_
 _atom_site_type_symbol
 _atom_site_label
 _atom_site_symmetry_multiplicity
 _atom_site_fract_x
 _atom_site_fract_y
 _atom_site_fract_z
 _atom_site_occupancy
  Yb  Yb0  1  1.09798754  0.21774428  0.47363727  1.0
  Yb  Yb1  1  0.52636273  -0.09798754  -0.21774428  1.0
  Yb  Yb2  1  0.78225572  0.52636273  -0.09798754  1.0
  Yb  Yb3  1  0.90201246  0.78225572  0.52636273  1.0
  Yb  Yb4  1  0.47363727  0.09798754  0.21774428  1.0
  Yb  Yb5  1  1.21774428  1.47363727  0.09798754  1.0
  Pt  Pt6  1  0.94637878  0.44000053  0.27498087  1.0
  Pt  Pt7  1  0.72501913  1.05362122  -0.44000053  1.0
  Pt  Pt8  1  0.55999947  -0.27498087  0.05362122  1.0
  Pt  Pt9  1  1.05362122  0.55999947  0.72501913  1.0
  Pt  Pt10  1  1.27498087  0.94637878  0.44000053  1.0
  Pt  Pt11  1  0.44000053  0.27498087  -0.05362122  1.0
  Pt  Pt12  1  0.50000000  0.50000000  0.50000000  1.0
  Pt  Pt13  1  -0.00000000  -0.00000000  -0.00000000  1.0
