# generated using pymatgen
data_TlTcO2
_symmetry_space_group_name_H-M   'P 1'
_cell_length_a   6.83108692
_cell_length_b   6.83108692
_cell_length_c   6.83108692
_cell_angle_alpha   120.00392259
_cell_angle_beta   120.00392259
_cell_angle_gamma   89.99320600
_symmetry_Int_Tables_number   1
_chemical_formula_structural   TlTcO2
_chemical_formula_sum   'Tl4 Tc4 O8'
_cell_volume   225.38690709
_cell_formula_units_Z   4
loop_
 _symmetry_equiv_pos_site_id
 _symmetry_equiv_pos_as_xyz
  1  'x, y, z'
loop_
 _atom_site_type_symbol
 _atom_site_label
 _atom_site_symmetry_multiplicity
 _atom_site_fract_x
 _atom_site_fract_y
 _atom_site_fract_z
 _atom_site_occupancy
  Tl  Tl0  1  0.37500000  0.62500000  0.75000000  1.0
  Tl  Tl1  1  0.87500000  0.62500000  1.25000000  1.0
  Tl  Tl2  1  0.37500000  1.12500000  0.75000000  1.0
  Tl  Tl3  1  0.37500000  0.62500000  0.25000000  1.0
  Tc  Tc4  1  0.87500000  0.12500000  0.75000000  1.0
  Tc  Tc5  1  0.37500000  0.12500000  0.25000000  1.0
  Tc  Tc6  1  0.87500000  0.62500000  0.75000000  1.0
  Tc  Tc7  1  0.87500000  1.12500000  1.25000000  1.0
  O  O8  1  1.09264421  0.90729894  1.81464752  1.0
  O  O9  1  0.65734859  0.97200331  1.31464752  1.0
  O  O10  1  1.09270106  0.90734859  1.18534527  1.0
  O  O11  1  1.02799669  1.34264421  1.68534527  1.0
  O  O12  1  0.09265141  0.27799669  0.18535248  1.0
  O  O13  1  0.65735579  0.34270106  0.68535248  1.0
  O  O14  1  0.72200331  0.90735579  0.81465473  1.0
  O  O15  1  0.65729894  0.34265141  0.31465473  1.0
