# generated using pymatgen
data_CsPbNClO2
_symmetry_space_group_name_H-M   'P 1'
_cell_length_a   21.25345750
_cell_length_b   21.25345750
_cell_length_c   21.25345750
_cell_angle_alpha   154.76958213
_cell_angle_beta   154.76958213
_cell_angle_gamma   35.98198521
_symmetry_Int_Tables_number   1
_chemical_formula_structural   CsPbNClO2
_chemical_formula_sum   'Cs8 Pb8 N8 Cl8 O16'
_cell_volume   1742.17441046
_cell_formula_units_Z   8
loop_
 _symmetry_equiv_pos_site_id
 _symmetry_equiv_pos_as_xyz
  1  'x, y, z'
loop_
 _atom_site_type_symbol
 _atom_site_label
 _atom_site_symmetry_multiplicity
 _atom_site_fract_x
 _atom_site_fract_y
 _atom_site_fract_z
 _atom_site_occupancy
  Cs  Cs0  1  0.58046123  0.78284607  0.79761516  1.0
  Cs  Cs1  1  0.76476909  0.46715393  0.29761516  1.0
  Cs  Cs2  1  0.98523091  0.78284607  1.20238484  1.0
  Cs  Cs3  1  1.16953877  0.46715393  0.70238484  1.0
  Cs  Cs4  1  0.21715393  1.01476909  0.79761516  1.0
  Cs  Cs5  1  0.53284607  0.83046123  1.29761516  1.0
  Cs  Cs6  1  0.21715393  0.41953877  0.20238484  1.0
  Cs  Cs7  1  0.53284607  0.23523091  0.70238484  1.0
  Pb  Pb8  1  1.02179741  0.36051204  0.66128537  1.0
  Pb  Pb9  1  1.05077333  0.88948796  1.16128537  1.0
  Pb  Pb10  1  0.69922667  0.36051204  0.33871463  1.0
  Pb  Pb11  1  0.72820259  0.88948796  0.83871463  1.0
  Pb  Pb12  1  0.63948796  0.30077333  0.66128537  1.0
  Pb  Pb13  1  0.11051204  0.27179741  0.16128537  1.0
  Pb  Pb14  1  0.63948796  0.97820259  1.33871463  1.0
  Pb  Pb15  1  0.11051204  0.94922667  0.83871463  1.0
  N  N16  1  1.00713532  0.27987203  0.72726329  1.0
  N  N17  1  1.19739126  0.97012797  1.22726329  1.0
  N  N18  1  0.55260874  0.27987203  0.27273671  1.0
  N  N19  1  0.74286468  0.97012797  0.77273671  1.0
  N  N20  1  0.72012797  0.44739126  0.72726329  1.0
  N  N21  1  0.02987203  0.25713532  0.22726329  1.0
  N  N22  1  0.72012797  0.99286468  1.27273671  1.0
  N  N23  1  0.02987203  0.80260874  0.77273671  1.0
  Cl  Cl24  1  0.97555827  0.16398787  0.81157041  1.0
  Cl  Cl25  1  0.39758254  0.08601213  0.31157041  1.0
  Cl  Cl26  1  0.35241746  0.16398787  0.18842959  1.0
  Cl  Cl27  1  0.77444173  0.08601213  0.68842959  1.0
  Cl  Cl28  1  0.83601213  0.64758254  0.81157041  1.0
  Cl  Cl29  1  0.91398787  1.22555827  1.31157041  1.0
  Cl  Cl30  1  0.83601213  1.02444173  1.18842959  1.0
  Cl  Cl31  1  0.91398787  0.60241746  0.68842959  1.0
  O  O32  1  1.10201798  0.30786812  0.79414986  1.0
  O  O33  1  1.23628175  0.94213188  1.29414986  1.0
  O  O34  1  0.51371825  0.30786812  0.20585014  1.0
  O  O35  1  0.64798202  0.94213188  0.70585014  1.0
  O  O36  1  0.69213188  0.48628175  0.79414986  1.0
  O  O37  1  0.05786812  0.35201798  0.29414986  1.0
  O  O38  1  0.69213188  0.89798202  1.20585014  1.0
  O  O39  1  0.05786812  0.76371825  0.70585014  1.0
  O  O40  1  1.06575981  0.25539601  0.81036381  1.0
  O  O41  1  0.30496780  -0.00539601  0.31036381  1.0
  O  O42  1  0.44503220  0.25539601  0.18963619  1.0
  O  O43  1  0.68424019  -0.00539601  0.68963619  1.0
  O  O44  1  0.74460399  0.55496780  0.81036381  1.0
  O  O45  1  1.00539601  1.31575981  1.31036381  1.0
  O  O46  1  0.74460399  0.93424019  1.18963619  1.0
  O  O47  1  1.00539601  0.69503220  0.68963619  1.0
