# generated using pymatgen
data_Na3Zn2SbO6
_symmetry_space_group_name_H-M   'P 1'
_cell_length_a   5.44107651
_cell_length_b   5.44107651
_cell_length_c   5.74938188
_cell_angle_alpha   80.78462994
_cell_angle_beta   99.21537006
_cell_angle_gamma   60.18914454
_symmetry_Int_Tables_number   1
_chemical_formula_structural   Na3Zn2SbO6
_chemical_formula_sum   'Na3 Zn2 Sb1 O6'
_cell_volume   139.95339827
_cell_formula_units_Z   1
loop_
 _symmetry_equiv_pos_site_id
 _symmetry_equiv_pos_as_xyz
  1  'x, y, z'
loop_
 _atom_site_type_symbol
 _atom_site_label
 _atom_site_symmetry_multiplicity
 _atom_site_fract_x
 _atom_site_fract_y
 _atom_site_fract_z
 _atom_site_occupancy
  Na  Na0  1  0.67327579  -0.32672421  0.50000000  1.0
  Na  Na1  1  1.32672421  0.32672421  0.50000000  1.0
  Na  Na2  1  0.00000000  -0.00000000  0.50000000  1.0
  Zn  Zn3  1  0.83386795  -0.16613205  0.00000000  1.0
  Zn  Zn4  1  1.16613205  0.16613205  -0.00000000  1.0
  Sb  Sb5  1  0.50000000  -0.50000000  -0.00000000  1.0
  O  O6  1  0.43213714  -0.11793413  0.79295032  1.0
  O  O7  1  1.11793413  0.56786286  0.79295032  1.0
  O  O8  1  0.88206587  -0.56786286  0.20704968  1.0
  O  O9  1  1.56786286  0.11793413  0.20704968  1.0
  O  O10  1  0.74469066  -0.74469066  0.79555606  1.0
  O  O11  1  0.25530934  -0.25530934  0.20444394  1.0
