# generated using pymatgen
data_Na3Sc2(MoO4)3
_symmetry_space_group_name_H-M   'P 1'
_cell_length_a   9.28548676
_cell_length_b   9.28548676
_cell_length_c   7.17314883
_cell_angle_alpha   75.84760648
_cell_angle_beta   104.15239352
_cell_angle_gamma   84.22893241
_symmetry_Int_Tables_number   1
_chemical_formula_structural   Na3Sc2(MoO4)3
_chemical_formula_sum   'Na6 Sc4 Mo6 O24'
_cell_volume   572.98045870
_cell_formula_units_Z   2
loop_
 _symmetry_equiv_pos_site_id
 _symmetry_equiv_pos_as_xyz
  1  'x, y, z'
loop_
 _atom_site_type_symbol
 _atom_site_label
 _atom_site_symmetry_multiplicity
 _atom_site_fract_x
 _atom_site_fract_y
 _atom_site_fract_z
 _atom_site_occupancy
  Na  Na0  1  0.47430827  -0.52569173  0.75000000  1.0
  Na  Na1  1  1.52569173  0.52569173  0.25000000  1.0
  Na  Na2  1  1.22488514  0.22488514  0.75000000  1.0
  Na  Na3  1  0.77511486  -0.22488514  0.25000000  1.0
  Na  Na4  1  0.00000000  0.00000000  0.00000000  1.0
  Na  Na5  1  0.00000000  -0.00000000  0.50000000  1.0
  Sc  Sc6  1  1.55426248  0.13206365  0.62139167  1.0
  Sc  Sc7  1  0.86793635  -0.55426248  0.12139167  1.0
  Sc  Sc8  1  1.13206365  0.55426248  0.87860833  1.0
  Sc  Sc9  1  0.44573752  -0.13206365  0.37860833  1.0
  Mo  Mo10  1  0.37664613  -0.15810459  0.87427084  1.0
  Mo  Mo11  1  1.15810459  0.62335387  0.37427084  1.0
  Mo  Mo12  1  0.84189541  -0.62335387  0.62572916  1.0
  Mo  Mo13  1  1.62335387  0.15810459  0.12572916  1.0
  Mo  Mo14  1  0.78218097  -0.21781903  0.75000000  1.0
  Mo  Mo15  1  1.21781903  0.21781903  0.25000000  1.0
  O  O16  1  0.66703494  -0.25497120  0.52523026  1.0
  O  O17  1  1.25497120  0.33296506  0.02523026  1.0
  O  O18  1  0.74502880  -0.33296506  0.97476974  1.0
  O  O19  1  1.33296506  0.25497120  0.47476974  1.0
  O  O20  1  0.75867449  -0.02303070  0.76632730  1.0
  O  O21  1  1.02303070  0.24132551  0.26632730  1.0
  O  O22  1  0.97696930  -0.24132551  0.73367270  1.0
  O  O23  1  1.24132551  0.02303070  0.23367270  1.0
  O  O24  1  0.46684094  -0.08716981  0.66664225  1.0
  O  O25  1  1.08716981  0.53315906  0.16664225  1.0
  O  O26  1  0.91283019  -0.53315906  0.83335775  1.0
  O  O27  1  1.53315906  0.08716981  0.33335775  1.0
  O  O28  1  1.49890720  0.16949643  0.87617318  1.0
  O  O29  1  0.83050357  -0.49890720  0.37617318  1.0
  O  O30  1  1.16949643  0.49890720  0.62382682  1.0
  O  O31  1  0.50109280  -0.16949643  0.12382682  1.0
  O  O32  1  1.64647476  0.32860545  0.58160890  1.0
  O  O33  1  0.67139455  -0.64647476  0.08160890  1.0
  O  O34  1  1.32860545  0.64647476  0.91839110  1.0
  O  O35  1  0.35352524  -0.32860545  0.41839110  1.0
  O  O36  1  0.20043296  -0.03734099  0.78894526  1.0
  O  O37  1  1.03734099  0.79956704  0.28894526  1.0
  O  O38  1  0.96265901  -0.79956704  0.71105474  1.0
  O  O39  1  1.79956704  0.03734099  0.21105474  1.0
