# generated using pymatgen
data_LiScO2
_symmetry_space_group_name_H-M   'P 1'
_cell_length_a   5.57040411
_cell_length_b   5.57040411
_cell_length_c   5.57040411
_cell_angle_alpha   135.65950952
_cell_angle_beta   135.65950952
_cell_angle_gamma   64.50718034
_symmetry_Int_Tables_number   1
_chemical_formula_structural   LiScO2
_chemical_formula_sum   'Li2 Sc2 O4'
_cell_volume   83.26166159
_cell_formula_units_Z   2
loop_
 _symmetry_equiv_pos_site_id
 _symmetry_equiv_pos_as_xyz
  1  'x, y, z'
loop_
 _atom_site_type_symbol
 _atom_site_label
 _atom_site_symmetry_multiplicity
 _atom_site_fract_x
 _atom_site_fract_y
 _atom_site_fract_z
 _atom_site_occupancy
  Li  Li0  1  0.25000000  0.75000000  0.50000000  1.0
  Li  Li1  1  0.50000000  0.50000000  1.00000000  1.0
  Sc  Sc2  1  0.75000000  0.25000000  0.50000000  1.0
  Sc  Sc3  1  0.00000000  0.00000000  0.00000000  1.0
  O  O4  1  0.97734210  0.47734210  0.50000000  1.0
  O  O5  1  0.77265790  0.77265790  1.00000000  1.0
  O  O6  1  0.52265790  0.02265790  0.50000000  1.0
  O  O7  1  0.22734210  0.22734210  0.00000000  1.0
