# generated using pymatgen
data_NiH2SO5
_symmetry_space_group_name_H-M   'P 1'
_cell_length_a   5.17061875
_cell_length_b   5.17061875
_cell_length_c   7.49446944
_cell_angle_alpha   73.13647214
_cell_angle_beta   106.86352786
_cell_angle_gamma   81.68162675
_symmetry_Int_Tables_number   1
_chemical_formula_structural   NiH2SO5
_chemical_formula_sum   'Ni2 H4 S2 O10'
_cell_volume   177.68508085
_cell_formula_units_Z   2
loop_
 _symmetry_equiv_pos_site_id
 _symmetry_equiv_pos_as_xyz
  1  'x, y, z'
loop_
 _atom_site_type_symbol
 _atom_site_label
 _atom_site_symmetry_multiplicity
 _atom_site_fract_x
 _atom_site_fract_y
 _atom_site_fract_z
 _atom_site_occupancy
  Ni  Ni0  1  1.50000000  0.00000000  0.50000000  1.0
  Ni  Ni1  1  1.00000000  -0.50000000  0.00000000  1.0
  H  H2  1  1.54178505  0.36123060  0.20523316  1.0
  H  H3  1  0.63876940  -0.54178505  0.70523316  1.0
  H  H4  1  1.36123060  0.54178505  0.29476684  1.0
  H  H5  1  0.45821495  -0.36123060  0.79476684  1.0
  S  S6  1  0.91442484  -0.08557516  0.25000000  1.0
  S  S7  1  1.08557516  0.08557516  0.75000000  1.0
  O  O8  1  0.79039797  -0.17767942  0.40591809  1.0
  O  O9  1  1.17767942  0.20960203  0.90591809  1.0
  O  O10  1  0.82232058  -0.20960203  0.09408191  1.0
  O  O11  1  1.20960203  0.17767942  0.59408191  1.0
  O  O12  1  0.22931018  -0.17697338  0.34044069  1.0
  O  O13  1  1.17697338  0.77068982  0.84044069  1.0
  O  O14  1  0.82302662  -0.77068982  0.15955931  1.0
  O  O15  1  1.77068982  0.17697338  0.65955931  1.0
  O  O16  1  1.37664999  0.37664999  0.25000000  1.0
  O  O17  1  0.62335001  -0.37664999  0.75000000  1.0
