# generated using pymatgen
data_MnTl2H12(SeO7)2
_symmetry_space_group_name_H-M   'P 1'
_cell_length_a   6.51055809
_cell_length_b   12.85544533
_cell_length_c   9.45002430
_cell_angle_alpha   90.00000000
_cell_angle_beta   103.68275099
_cell_angle_gamma   90.00000000
_symmetry_Int_Tables_number   1
_chemical_formula_structural   MnTl2H12(SeO7)2
_chemical_formula_sum   'Mn2 Tl4 H24 Se4 O28'
_cell_volume   768.48409399
_cell_formula_units_Z   2
loop_
 _symmetry_equiv_pos_site_id
 _symmetry_equiv_pos_as_xyz
  1  'x, y, z'
loop_
 _atom_site_type_symbol
 _atom_site_label
 _atom_site_symmetry_multiplicity
 _atom_site_fract_x
 _atom_site_fract_y
 _atom_site_fract_z
 _atom_site_occupancy
  Mn  Mn0  1  0.50000000  0.50000000  0.50000000  1.0
  Mn  Mn1  1  0.50000000  0.00000000  -0.00000000  1.0
  Tl  Tl2  1  0.84338619  0.65356020  0.13944084  1.0
  Tl  Tl3  1  0.84338619  0.84643980  0.63944084  1.0
  Tl  Tl4  1  0.15661381  0.15356020  0.36055916  1.0
  Tl  Tl5  1  0.15661381  0.34643980  0.86055916  1.0
  H  H6  1  0.83225616  0.43612835  0.38955341  1.0
  H  H7  1  0.83225616  0.06387165  0.88955341  1.0
  H  H8  1  0.16774384  0.93612835  0.11044659  1.0
  H  H9  1  0.16774384  0.56387165  0.61044659  1.0
  H  H10  1  0.82977236  0.14041114  0.02201048  1.0
  H  H11  1  0.82977236  0.35958886  0.52201048  1.0
  H  H12  1  0.17022764  0.64041114  0.47798952  1.0
  H  H13  1  0.17022764  0.85958886  0.97798952  1.0
  H  H14  1  0.82142563  0.91198706  0.21825521  1.0
  H  H15  1  0.82142563  0.58801294  0.71825521  1.0
  H  H16  1  0.17857437  0.41198706  0.28174479  1.0
  H  H17  1  0.17857437  0.08801294  0.78174479  1.0
  H  H18  1  0.57781000  0.10511920  0.27013715  1.0
  H  H19  1  0.57781000  0.39488080  0.77013715  1.0
  H  H20  1  0.42219000  0.60511920  0.22986285  1.0
  H  H21  1  0.42219000  0.89488080  0.72986285  1.0
  H  H22  1  0.50104258  0.19071825  0.14864750  1.0
  H  H23  1  0.50104258  0.30928175  0.64864750  1.0
  H  H24  1  0.49895742  0.69071825  0.35135250  1.0
  H  H25  1  0.49895742  0.80928175  0.85135250  1.0
  H  H26  1  0.39837528  0.37590717  0.24942808  1.0
  H  H27  1  0.39837528  0.12409283  0.74942808  1.0
  H  H28  1  0.60162472  0.87590717  0.25057192  1.0
  H  H29  1  0.60162472  0.62409283  0.75057192  1.0
  Se  Se30  1  0.77274690  0.35923113  0.09136643  1.0
  Se  Se31  1  0.77274690  0.14076887  0.59136643  1.0
  Se  Se32  1  0.22725310  0.85923113  0.40863357  1.0
  Se  Se33  1  0.22725310  0.64076887  0.90863357  1.0
  O  O34  1  0.92660127  0.25417191  0.09625015  1.0
  O  O35  1  0.92660127  0.24582809  0.59625015  1.0
  O  O36  1  0.07339873  0.75417191  0.40374985  1.0
  O  O37  1  0.07339873  0.74582809  0.90374985  1.0
  O  O38  1  0.89631855  0.43994684  0.22454824  1.0
  O  O39  1  0.89631855  0.06005316  0.72454824  1.0
  O  O40  1  0.10368145  0.93994684  0.27545176  1.0
  O  O41  1  0.10368145  0.56005316  0.77545176  1.0
  O  O42  1  0.78874983  0.43066027  0.48333941  1.0
  O  O43  1  0.78874983  0.06933973  0.98333941  1.0
  O  O44  1  0.21125017  0.93066027  0.01666059  1.0
  O  O45  1  0.21125017  0.56933973  0.51666059  1.0
  O  O46  1  0.74742353  0.07941125  0.43314792  1.0
  O  O47  1  0.74742353  0.42058875  0.93314792  1.0
  O  O48  1  0.25257647  0.57941125  0.06685208  1.0
  O  O49  1  0.25257647  0.92058875  0.56685208  1.0
  O  O50  1  0.53576053  0.32401746  0.11714131  1.0
  O  O51  1  0.53576053  0.17598254  0.61714131  1.0
  O  O52  1  0.46423947  0.82401746  0.38285869  1.0
  O  O53  1  0.46423947  0.67598254  0.88285869  1.0
  O  O54  1  0.47648506  0.11740619  0.17431106  1.0
  O  O55  1  0.47648506  0.38259381  0.67431106  1.0
  O  O56  1  0.52351494  0.61740619  0.32568894  1.0
  O  O57  1  0.52351494  0.88259381  0.82568894  1.0
  O  O58  1  0.32636132  0.39203926  0.32808381  1.0
  O  O59  1  0.32636132  0.10796074  0.82808381  1.0
  O  O60  1  0.67363868  0.89203926  0.17191619  1.0
  O  O61  1  0.67363868  0.60796074  0.67191619  1.0
