# generated using pymatgen
data_La2Ni12P5
_symmetry_space_group_name_H-M   'P 1'
_cell_length_a   10.96005884
_cell_length_b   3.69704630
_cell_length_c   13.19599042
_cell_angle_alpha   90.00000000
_cell_angle_beta   107.87103861
_cell_angle_gamma   90.00000000
_symmetry_Int_Tables_number   1
_chemical_formula_structural   La2Ni12P5
_chemical_formula_sum   'La4 Ni24 P10'
_cell_volume   508.90004486
_cell_formula_units_Z   2
loop_
 _symmetry_equiv_pos_site_id
 _symmetry_equiv_pos_as_xyz
  1  'x, y, z'
loop_
 _atom_site_type_symbol
 _atom_site_label
 _atom_site_symmetry_multiplicity
 _atom_site_fract_x
 _atom_site_fract_y
 _atom_site_fract_z
 _atom_site_occupancy
  La  La0  1  0.27901888  0.25000000  0.31641156  1.0
  La  La1  1  0.72098112  0.75000000  0.68358844  1.0
  La  La2  1  0.24722353  0.25000000  0.81218233  1.0
  La  La3  1  0.75277647  0.75000000  0.18781767  1.0
  Ni  Ni4  1  0.98882107  0.25000000  0.15049742  1.0
  Ni  Ni5  1  0.01117893  0.75000000  0.84950258  1.0
  Ni  Ni6  1  0.99366161  0.25000000  0.34104166  1.0
  Ni  Ni7  1  0.00633839  0.75000000  0.65895834  1.0
  Ni  Ni8  1  0.84499380  0.25000000  0.86515847  1.0
  Ni  Ni9  1  0.15500620  0.75000000  0.13484153  1.0
  Ni  Ni10  1  0.84362429  0.25000000  0.56172593  1.0
  Ni  Ni11  1  0.15637571  0.75000000  0.43827407  1.0
  Ni  Ni12  1  0.59581322  0.25000000  0.30527372  1.0
  Ni  Ni13  1  0.40418678  0.75000000  0.69472628  1.0
  Ni  Ni14  1  0.58127361  0.25000000  0.99072178  1.0
  Ni  Ni15  1  0.41872639  0.75000000  0.00927822  1.0
  Ni  Ni16  1  0.57802802  0.25000000  0.49018123  1.0
  Ni  Ni17  1  0.42197198  0.75000000  0.50981877  1.0
  Ni  Ni18  1  0.55870369  0.25000000  0.79621734  1.0
  Ni  Ni19  1  0.44129631  0.75000000  0.20378266  1.0
  Ni  Ni20  1  0.29895294  0.25000000  0.08198583  1.0
  Ni  Ni21  1  0.70104706  0.75000000  0.91801417  1.0
  Ni  Ni22  1  0.28626359  0.25000000  0.56124850  1.0
  Ni  Ni23  1  0.71373641  0.75000000  0.43875150  1.0
  Ni  Ni24  1  0.07226069  0.25000000  0.98597154  1.0
  Ni  Ni25  1  0.92773931  0.75000000  0.01402846  1.0
  Ni  Ni26  1  0.06524229  0.25000000  0.55172506  1.0
  Ni  Ni27  1  0.93475771  0.75000000  0.44827494  1.0
  P  P28  1  0.95196910  0.25000000  0.74071588  1.0
  P  P29  1  0.04803090  0.75000000  0.25928412  1.0
  P  P30  1  0.81181225  0.25000000  0.38860612  1.0
  P  P31  1  0.18818775  0.75000000  0.61139388  1.0
  P  P32  1  0.79976357  0.25000000  0.01555717  1.0
  P  P33  1  0.20023643  0.75000000  0.98444283  1.0
  P  P34  1  0.50771438  0.25000000  0.12885112  1.0
  P  P35  1  0.49228562  0.75000000  0.87114888  1.0
  P  P36  1  0.49145086  0.25000000  0.62105169  1.0
  P  P37  1  0.50854914  0.75000000  0.37894831  1.0
