# generated using pymatgen
data_YCrO3
_symmetry_space_group_name_H-M   'P 1'
_cell_length_a   5.58054262
_cell_length_b   7.58191620
_cell_length_c   5.26414687
_cell_angle_alpha   90.00000000
_cell_angle_beta   90.00000000
_cell_angle_gamma   90.00000000
_symmetry_Int_Tables_number   1
_chemical_formula_structural   YCrO3
_chemical_formula_sum   'Y4 Cr4 O12'
_cell_volume   222.73240494
_cell_formula_units_Z   4
loop_
 _symmetry_equiv_pos_site_id
 _symmetry_equiv_pos_as_xyz
  1  'x, y, z'
loop_
 _atom_site_type_symbol
 _atom_site_label
 _atom_site_symmetry_multiplicity
 _atom_site_fract_x
 _atom_site_fract_y
 _atom_site_fract_z
 _atom_site_occupancy
  Y  Y0  1  0.56940440  0.25000000  0.51930401  1.0
  Y  Y1  1  0.06940440  0.25000000  -0.01930401  1.0
  Y  Y2  1  0.43059560  0.75000000  0.48069599  1.0
  Y  Y3  1  0.93059560  0.75000000  1.01930401  1.0
  Cr  Cr4  1  0.50000000  0.00000000  0.00000000  1.0
  Cr  Cr5  1  0.00000000  0.50000000  0.50000000  1.0
  Cr  Cr6  1  0.50000000  0.50000000  0.00000000  1.0
  Cr  Cr7  1  0.00000000  0.00000000  0.50000000  1.0
  O  O8  1  0.46146185  0.25000000  1.10992810  1.0
  O  O9  1  0.96146185  0.25000000  0.39007190  1.0
  O  O10  1  0.53853815  0.75000000  -0.10992810  1.0
  O  O11  1  0.03853815  0.75000000  0.60992810  1.0
  O  O12  1  0.19721063  0.94380771  0.19234655  1.0
  O  O13  1  0.69721063  0.55619229  0.30765345  1.0
  O  O14  1  0.80278937  0.44380771  0.80765345  1.0
  O  O15  1  0.30278937  0.05619229  0.69234655  1.0
  O  O16  1  0.80278937  0.05619229  0.80765345  1.0
  O  O17  1  0.30278937  0.44380771  0.69234655  1.0
  O  O18  1  0.19721063  0.55619229  0.19234655  1.0
  O  O19  1  0.69721063  0.94380771  0.30765345  1.0
