# generated using pymatgen
data_BaCeO3
_symmetry_space_group_name_H-M   'P 1'
_cell_length_a   6.28792503
_cell_length_b   8.85802226
_cell_length_c   6.27983917
_cell_angle_alpha   90.00000000
_cell_angle_beta   90.00000000
_cell_angle_gamma   90.00000000
_symmetry_Int_Tables_number   1
_chemical_formula_structural   BaCeO3
_chemical_formula_sum   'Ba4 Ce4 O12'
_cell_volume   349.77812373
_cell_formula_units_Z   4
loop_
 _symmetry_equiv_pos_site_id
 _symmetry_equiv_pos_as_xyz
  1  'x, y, z'
loop_
 _atom_site_type_symbol
 _atom_site_label
 _atom_site_symmetry_multiplicity
 _atom_site_fract_x
 _atom_site_fract_y
 _atom_site_fract_z
 _atom_site_occupancy
  Ba  Ba0  1  0.02462704  0.75000000  0.50778089  1.0
  Ba  Ba1  1  0.52462704  0.75000000  0.99221911  1.0
  Ba  Ba2  1  0.97537296  0.25000000  0.49221911  1.0
  Ba  Ba3  1  0.47537296  0.25000000  0.00778089  1.0
  Ce  Ce4  1  0.50000000  0.00000000  0.50000000  1.0
  Ce  Ce5  1  0.50000000  0.50000000  0.50000000  1.0
  Ce  Ce6  1  0.00000000  0.00000000  0.00000000  1.0
  Ce  Ce7  1  0.00000000  0.50000000  0.00000000  1.0
  O  O8  1  0.27959305  0.95723814  0.77857328  1.0
  O  O9  1  0.27959305  0.54276186  0.77857328  1.0
  O  O10  1  0.77959305  0.95723814  0.72142672  1.0
  O  O11  1  0.77959305  0.54276186  0.72142672  1.0
  O  O12  1  0.72040695  0.45723814  0.22142672  1.0
  O  O13  1  0.72040695  0.04276186  0.22142672  1.0
  O  O14  1  0.22040695  0.45723814  0.27857328  1.0
  O  O15  1  0.22040695  0.04276186  0.27857328  1.0
  O  O16  1  0.98049679  0.75000000  0.07880753  1.0
  O  O17  1  0.48049679  0.75000000  0.42119247  1.0
  O  O18  1  0.01950321  0.25000000  0.92119247  1.0
  O  O19  1  0.51950321  0.25000000  0.57880753  1.0
