# generated using pymatgen
data_Na2Ca2(CO3)3
_symmetry_space_group_name_H-M   'P 1'
_cell_length_a   6.64016311
_cell_length_b   6.64016311
_cell_length_c   5.00281357
_cell_angle_alpha   90.00000000
_cell_angle_beta   90.00000000
_cell_angle_gamma   65.74477822
_symmetry_Int_Tables_number   1
_chemical_formula_structural   Na2Ca2(CO3)3
_chemical_formula_sum   'Na2 Ca2 C3 O9'
_cell_volume   201.11084503
_cell_formula_units_Z   1
loop_
 _symmetry_equiv_pos_site_id
 _symmetry_equiv_pos_as_xyz
  1  'x, y, z'
loop_
 _atom_site_type_symbol
 _atom_site_label
 _atom_site_symmetry_multiplicity
 _atom_site_fract_x
 _atom_site_fract_y
 _atom_site_fract_z
 _atom_site_occupancy
  Na  Na0  1  -0.11335009  1.11335009  0.00000000  1.0
  Na  Na1  1  -0.42641450  1.42641450  0.50000000  1.0
  Ca  Ca2  1  0.17633532  0.25588629  0.50000000  1.0
  Ca  Ca3  1  0.74411371  0.82366468  0.50000000  1.0
  C  C4  1  -0.16330821  1.57358709  0.00000000  1.0
  C  C5  1  -0.57358709  1.16330821  0.00000000  1.0
  C  C6  1  0.18825209  0.81174791  0.50000000  1.0
  O  O7  1  -0.16107889  1.76655017  0.00000000  1.0
  O  O8  1  -0.76655017  1.16107889  0.00000000  1.0
  O  O9  1  -0.16747077  1.47855066  0.22601158  1.0
  O  O10  1  -0.47855066  1.16747077  0.77398842  1.0
  O  O11  1  -0.16747077  1.47855066  0.77398842  1.0
  O  O12  1  -0.47855066  1.16747077  0.22601158  1.0
  O  O13  1  0.00487167  -0.00487167  0.50000000  1.0
  O  O14  1  0.37525732  0.82749831  0.50000000  1.0
  O  O15  1  0.17250169  0.62474268  0.50000000  1.0
