# generated using pymatgen
data_Gd2Co17
_symmetry_space_group_name_H-M   'P 1'
_cell_length_a   8.30812652
_cell_length_b   8.30812652
_cell_length_c   8.10250929
_cell_angle_alpha   90.00000000
_cell_angle_beta   90.00000000
_cell_angle_gamma   120.00000000
_symmetry_Int_Tables_number   1
_chemical_formula_structural   Gd2Co17
_chemical_formula_sum   'Gd4 Co34'
_cell_volume   484.34673088
_cell_formula_units_Z   2
loop_
 _symmetry_equiv_pos_site_id
 _symmetry_equiv_pos_as_xyz
  1  'x, y, z'
loop_
 _atom_site_type_symbol
 _atom_site_label
 _atom_site_symmetry_multiplicity
 _atom_site_fract_x
 _atom_site_fract_y
 _atom_site_fract_z
 _atom_site_occupancy
  Gd  Gd0  1  0.33333333  0.66666667  0.25000000  1.0
  Gd  Gd1  1  0.66666667  0.33333333  0.75000000  1.0
  Gd  Gd2  1  0.00000000  0.00000000  0.25000000  1.0
  Gd  Gd3  1  0.00000000  0.00000000  0.75000000  1.0
  Co  Co4  1  0.16664090  0.83335910  0.48024464  1.0
  Co  Co5  1  0.16664090  0.83335910  0.01975536  1.0
  Co  Co6  1  0.16664090  0.33328179  0.48024464  1.0
  Co  Co7  1  0.16664090  0.33328179  0.01975536  1.0
  Co  Co8  1  0.83335910  0.16664090  -0.01975536  1.0
  Co  Co9  1  0.83335910  0.16664090  0.51975536  1.0
  Co  Co10  1  0.83335910  0.66671821  -0.01975536  1.0
  Co  Co11  1  0.83335910  0.66671821  0.51975536  1.0
  Co  Co12  1  0.66671821  0.83335910  0.48024464  1.0
  Co  Co13  1  0.66671821  0.83335910  0.01975536  1.0
  Co  Co14  1  0.33328179  0.16664090  -0.01975536  1.0
  Co  Co15  1  0.33328179  0.16664090  0.51975536  1.0
  Co  Co16  1  0.37682519  0.04756623  0.25000000  1.0
  Co  Co17  1  0.37682519  0.32925896  0.25000000  1.0
  Co  Co18  1  0.04756623  0.37682519  0.75000000  1.0
  Co  Co19  1  0.04756623  0.67074104  0.75000000  1.0
  Co  Co20  1  0.67074104  0.04756623  0.25000000  1.0
  Co  Co21  1  0.67074104  0.62317481  0.25000000  1.0
  Co  Co22  1  -0.04756623  0.62317481  0.25000000  1.0
  Co  Co23  1  -0.04756623  0.32925896  0.25000000  1.0
  Co  Co24  1  0.62317481  0.67074104  0.75000000  1.0
  Co  Co25  1  0.62317481  -0.04756623  0.75000000  1.0
  Co  Co26  1  0.32925896  0.37682519  0.75000000  1.0
  Co  Co27  1  0.32925896  -0.04756623  0.75000000  1.0
  Co  Co28  1  0.50000000  0.50000000  0.50000000  1.0
  Co  Co29  1  0.50000000  0.50000000  0.00000000  1.0
  Co  Co30  1  0.50000000  0.00000000  0.50000000  1.0
  Co  Co31  1  0.50000000  0.00000000  0.00000000  1.0
  Co  Co32  1  0.00000000  0.50000000  0.50000000  1.0
  Co  Co33  1  0.00000000  0.50000000  0.00000000  1.0
  Co  Co34  1  0.33333333  0.66666667  0.89264002  1.0
  Co  Co35  1  0.33333333  0.66666667  0.60735998  1.0
  Co  Co36  1  0.66666667  0.33333333  0.39264002  1.0
  Co  Co37  1  0.66666667  0.33333333  0.10735998  1.0
