# generated using pymatgen
data_Cu2ClO3
_symmetry_space_group_name_H-M   'P 1'
_cell_length_a   5.80089189
_cell_length_b   5.80089189
_cell_length_c   5.80089189
_cell_angle_alpha   65.66915848
_cell_angle_beta   65.66915848
_cell_angle_gamma   65.66915848
_symmetry_Int_Tables_number   1
_chemical_formula_structural   Cu2ClO3
_chemical_formula_sum   'Cu4 Cl2 O6'
_cell_volume   155.01424487
_cell_formula_units_Z   2
loop_
 _symmetry_equiv_pos_site_id
 _symmetry_equiv_pos_as_xyz
  1  'x, y, z'
loop_
 _atom_site_type_symbol
 _atom_site_label
 _atom_site_symmetry_multiplicity
 _atom_site_fract_x
 _atom_site_fract_y
 _atom_site_fract_z
 _atom_site_occupancy
  O  O0  1  0.23302233  0.23302233  -0.16563837  1.0
  O  O1  1  0.23302233  0.83436163  -0.76697767  1.0
  O  O2  1  1.16563837  -0.23302233  -0.23302233  1.0
  O  O3  1  0.76697767  0.16563837  -0.23302233  1.0
  O  O4  1  0.76697767  -0.23302233  0.16563837  1.0
  O  O5  1  0.83436163  0.23302233  -0.76697767  1.0
  Cu  Cu6  1  1.00000000  1.50000000  0.00000000  1.0
  Cu  Cu7  1  1.00000000  0.00000000  -0.50000000  1.0
  Cu  Cu8  1  0.50000000  0.00000000  0.00000000  1.0
  Cu  Cu9  1  -0.00000000  0.00000000  -0.00000000  1.0
  Cl  Cl10  1  0.69502044  0.69502044  -0.30497956  1.0
  Cl  Cl11  1  1.30497956  1.30497956  0.30497956  1.0
