# generated using pymatgen
data_SiI3
_symmetry_space_group_name_H-M   'P 1'
_cell_length_a   9.22052028
_cell_length_b   9.22052028
_cell_length_c   9.22052028
_cell_angle_alpha   48.80128589
_cell_angle_beta   48.80128589
_cell_angle_gamma   48.80128589
_symmetry_Int_Tables_number   1
_chemical_formula_structural   SiI3
_chemical_formula_sum   'Si2 I6'
_cell_volume   407.31727502
_cell_formula_units_Z   2
loop_
 _symmetry_equiv_pos_site_id
 _symmetry_equiv_pos_as_xyz
  1  'x, y, z'
loop_
 _atom_site_type_symbol
 _atom_site_label
 _atom_site_symmetry_multiplicity
 _atom_site_fract_x
 _atom_site_fract_y
 _atom_site_fract_z
 _atom_site_occupancy
  Si  Si0  1  0.04859541  0.04859541  0.04859541  1.0
  Si  Si1  1  0.95140459  -0.04859541  -0.04859541  1.0
  I  I2  1  0.09052238  0.76882280  -0.61783402  1.0
  I  I3  1  0.61783402  -0.09052238  0.23117720  1.0
  I  I4  1  1.23117720  -0.38216598  -0.09052238  1.0
  I  I5  1  0.90947762  0.23117720  -0.38216598  1.0
  I  I6  1  0.38216598  0.09052238  -0.23117720  1.0
  I  I7  1  0.76882280  0.38216598  -0.90947762  1.0
