# generated using pymatgen
data_CsAlSiO4
_symmetry_space_group_name_H-M   'P 1'
_cell_length_a   9.07826811
_cell_length_b   9.59734406
_cell_length_c   5.49543089
_cell_angle_alpha   90.00000000
_cell_angle_beta   90.00000000
_cell_angle_gamma   90.00000000
_symmetry_Int_Tables_number   1
_chemical_formula_structural   CsAlSiO4
_chemical_formula_sum   'Cs4 Al4 Si4 O16'
_cell_volume   478.80184953
_cell_formula_units_Z   4
loop_
 _symmetry_equiv_pos_site_id
 _symmetry_equiv_pos_as_xyz
  1  'x, y, z'
loop_
 _atom_site_type_symbol
 _atom_site_label
 _atom_site_symmetry_multiplicity
 _atom_site_fract_x
 _atom_site_fract_y
 _atom_site_fract_z
 _atom_site_occupancy
  Cs  Cs0  1  0.49960842  0.80486450  0.00142779  1.0
  Cs  Cs1  1  0.99960842  0.69513550  0.00142779  1.0
  Cs  Cs2  1  0.50039158  0.19513550  0.50142779  1.0
  Cs  Cs3  1  0.00039158  0.30486450  0.50142779  1.0
  Al  Al4  1  0.18116101  0.91505719  0.50111525  1.0
  Al  Al5  1  0.68116101  0.58494281  0.50111525  1.0
  Al  Al6  1  0.81883899  0.08494281  0.00111525  1.0
  Al  Al7  1  0.31883899  0.41505719  0.00111525  1.0
  Si  Si8  1  0.31063410  0.58486318  0.50109882  1.0
  Si  Si9  1  0.81063410  0.91513682  0.50109882  1.0
  Si  Si10  1  0.68936590  0.41513682  0.00109882  1.0
  Si  Si11  1  0.18936590  0.08486318  0.00109882  1.0
  O  O12  1  0.48929787  0.59022533  0.50108431  1.0
  O  O13  1  0.98929787  0.90977467  0.50108431  1.0
  O  O14  1  0.51070213  0.40977467  0.00108431  1.0
  O  O15  1  0.01070213  0.09022533  0.00108431  1.0
  O  O16  1  0.25435904  0.24315442  1.00043441  1.0
  O  O17  1  0.75435904  0.25684558  1.00043441  1.0
  O  O18  1  0.74564096  0.75684558  0.50043441  1.0
  O  O19  1  0.24564096  0.74315442  0.50043441  1.0
  O  O20  1  0.25179531  0.00220275  0.75977620  1.0
  O  O21  1  0.75179531  0.49779725  0.75977620  1.0
  O  O22  1  0.74820469  0.99779725  0.25977620  1.0
  O  O23  1  0.24820469  0.50220275  0.25977620  1.0
  O  O24  1  0.24822550  0.50282056  0.74306322  1.0
  O  O25  1  0.74822550  0.99717944  0.74306322  1.0
  O  O26  1  0.75177450  0.49717944  0.24306322  1.0
  O  O27  1  0.25177450  0.00282056  0.24306322  1.0
