# generated using pymatgen
data_KVF4
_symmetry_space_group_name_H-M   'P 1'
_cell_length_a   12.67086967
_cell_length_b   7.66613010
_cell_length_c   7.80816364
_cell_angle_alpha   90.00000000
_cell_angle_beta   90.00000000
_cell_angle_gamma   90.00000000
_symmetry_Int_Tables_number   1
_chemical_formula_structural   KVF4
_chemical_formula_sum   'K8 V8 F32'
_cell_volume   758.45796297
_cell_formula_units_Z   8
loop_
 _symmetry_equiv_pos_site_id
 _symmetry_equiv_pos_as_xyz
  1  'x, y, z'
loop_
 _atom_site_type_symbol
 _atom_site_label
 _atom_site_symmetry_multiplicity
 _atom_site_fract_x
 _atom_site_fract_y
 _atom_site_fract_z
 _atom_site_occupancy
  K  K0  1  0.52786905  0.25000000  0.12502715  1.0
  K  K1  1  0.02786905  0.25000000  0.37497285  1.0
  K  K2  1  0.47213095  0.75000000  0.87497285  1.0
  K  K3  1  0.97213095  0.75000000  0.62502715  1.0
  K  K4  1  0.51851794  0.25000000  0.62462820  1.0
  K  K5  1  0.01851794  0.25000000  0.87537180  1.0
  K  K6  1  0.48148206  0.75000000  0.37537180  1.0
  K  K7  1  0.98148206  0.75000000  0.12462820  1.0
  V  V8  1  0.75109127  0.00038677  0.37475987  1.0
  V  V9  1  0.25109127  0.49961323  0.12524013  1.0
  V  V10  1  0.24890873  0.50038677  0.62524013  1.0
  V  V11  1  0.74890873  0.99961323  0.87475987  1.0
  V  V12  1  0.24890873  0.99961323  0.62524013  1.0
  V  V13  1  0.74890873  0.50038677  0.87475987  1.0
  V  V14  1  0.75109127  0.49961323  0.37475987  1.0
  V  V15  1  0.25109127  0.00038677  0.12524013  1.0
  F  F16  1  0.60231130  0.04209640  0.38150010  1.0
  F  F17  1  0.10231130  0.45790360  0.11849990  1.0
  F  F18  1  0.39768870  0.54209640  0.61849990  1.0
  F  F19  1  0.89768870  0.95790360  0.88150010  1.0
  F  F20  1  0.39768870  0.95790360  0.61849990  1.0
  F  F21  1  0.89768870  0.54209640  0.88150010  1.0
  F  F22  1  0.60231130  0.45790360  0.38150010  1.0
  F  F23  1  0.10231130  0.04209640  0.11849990  1.0
  F  F24  1  0.90017525  0.95984583  0.36840415  1.0
  F  F25  1  0.40017525  0.54015417  0.13159585  1.0
  F  F26  1  0.09982475  0.45984583  0.63159585  1.0
  F  F27  1  0.59982475  0.04015417  0.86840415  1.0
  F  F28  1  0.09982475  0.04015417  0.63159585  1.0
  F  F29  1  0.59982475  0.45984583  0.86840415  1.0
  F  F30  1  0.90017525  0.54015417  0.36840415  1.0
  F  F31  1  0.40017525  0.95984583  0.13159585  1.0
  F  F32  1  0.72360207  0.75000000  0.33686565  1.0
  F  F33  1  0.22360207  0.75000000  0.16313435  1.0
  F  F34  1  0.27639793  0.25000000  0.66313435  1.0
  F  F35  1  0.77639793  0.25000000  0.83686565  1.0
  F  F36  1  0.77912517  0.25000000  0.41290191  1.0
  F  F37  1  0.27912517  0.25000000  0.08709809  1.0
  F  F38  1  0.22087483  0.75000000  0.58709809  1.0
  F  F39  1  0.72087483  0.75000000  0.91290191  1.0
  F  F40  1  0.75123167  0.96070673  0.62473066  1.0
  F  F41  1  0.25123167  0.53929327  0.87526934  1.0
  F  F42  1  0.24876833  0.46070673  0.37526934  1.0
  F  F43  1  0.74876833  0.03929327  0.12473066  1.0
  F  F44  1  0.24876833  0.03929327  0.37526934  1.0
  F  F45  1  0.74876833  0.46070673  0.12473066  1.0
  F  F46  1  0.75123167  0.53929327  0.62473066  1.0
  F  F47  1  0.25123167  0.96070673  0.87526934  1.0
