# generated using pymatgen
data_Li(SiNi)6
_symmetry_space_group_name_H-M   'P 1'
_cell_length_a   8.46434936
_cell_length_b   8.46434936
_cell_length_c   7.59575251
_cell_angle_alpha   90.00000000
_cell_angle_beta   90.00000000
_cell_angle_gamma   120.00000000
_symmetry_Int_Tables_number   1
_chemical_formula_structural   Li(SiNi)6
_chemical_formula_sum   'Li3 Si18 Ni18'
_cell_volume   471.29040492
_cell_formula_units_Z   3
loop_
 _symmetry_equiv_pos_site_id
 _symmetry_equiv_pos_as_xyz
  1  'x, y, z'
loop_
 _atom_site_type_symbol
 _atom_site_label
 _atom_site_symmetry_multiplicity
 _atom_site_fract_x
 _atom_site_fract_y
 _atom_site_fract_z
 _atom_site_occupancy
  Li  Li0  1  0.33333333  0.66666667  0.50000000  1.0
  Li  Li1  1  0.66666667  0.33333333  0.50000000  1.0
  Li  Li2  1  0.00000000  0.00000000  0.00000000  1.0
  Si  Si3  1  0.66232147  0.66232147  0.50000000  1.0
  Si  Si4  1  0.66232147  0.00000000  0.50000000  1.0
  Si  Si5  1  0.00000000  0.66232147  0.50000000  1.0
  Si  Si6  1  -0.00000000  0.33767853  0.50000000  1.0
  Si  Si7  1  0.33767853  0.33767853  0.50000000  1.0
  Si  Si8  1  0.33767853  0.00000000  0.50000000  1.0
  Si  Si9  1  0.67085196  0.67085196  0.00000000  1.0
  Si  Si10  1  0.67085196  0.00000000  0.00000000  1.0
  Si  Si11  1  0.00000000  0.67085196  0.00000000  1.0
  Si  Si12  1  0.00000000  0.32914804  0.00000000  1.0
  Si  Si13  1  0.32914804  0.32914804  0.00000000  1.0
  Si  Si14  1  0.32914804  0.00000000  0.00000000  1.0
  Si  Si15  1  0.33333333  0.66666667  0.84356206  1.0
  Si  Si16  1  0.33333333  0.66666667  0.15643794  1.0
  Si  Si17  1  0.66666667  0.33333333  0.84356206  1.0
  Si  Si18  1  0.66666667  0.33333333  0.15643794  1.0
  Si  Si19  1  0.00000000  0.00000000  0.65606221  1.0
  Si  Si20  1  0.00000000  0.00000000  0.34393779  1.0
  Ni  Ni21  1  0.16681936  0.83318064  0.74723029  1.0
  Ni  Ni22  1  0.16681936  0.83318064  0.25276971  1.0
  Ni  Ni23  1  0.16681936  0.33363872  0.74723029  1.0
  Ni  Ni24  1  0.16681936  0.33363872  0.25276971  1.0
  Ni  Ni25  1  0.83318064  0.16681936  0.74723029  1.0
  Ni  Ni26  1  0.83318064  0.16681936  0.25276971  1.0
  Ni  Ni27  1  0.83318064  0.66636128  0.74723029  1.0
  Ni  Ni28  1  0.83318064  0.66636128  0.25276971  1.0
  Ni  Ni29  1  0.66636128  0.83318064  0.74723029  1.0
  Ni  Ni30  1  0.66636128  0.83318064  0.25276971  1.0
  Ni  Ni31  1  0.33363872  0.16681936  0.74723029  1.0
  Ni  Ni32  1  0.33363872  0.16681936  0.25276971  1.0
  Ni  Ni33  1  0.50000000  0.50000000  0.75640196  1.0
  Ni  Ni34  1  0.50000000  0.50000000  0.24359804  1.0
  Ni  Ni35  1  0.50000000  0.00000000  0.75640196  1.0
  Ni  Ni36  1  0.50000000  0.00000000  0.24359804  1.0
  Ni  Ni37  1  -0.00000000  0.50000000  0.75640196  1.0
  Ni  Ni38  1  -0.00000000  0.50000000  0.24359804  1.0
