# generated using pymatgen
data_K6Na14Tl18Cd
_symmetry_space_group_name_H-M   'P 1'
_cell_length_a   10.78935798
_cell_length_b   10.78935798
_cell_length_c   10.78935798
_cell_angle_alpha   90.00000000
_cell_angle_beta   90.00000000
_cell_angle_gamma   90.00000000
_symmetry_Int_Tables_number   1
_chemical_formula_structural   K6Na14Tl18Cd
_chemical_formula_sum   'K6 Na14 Tl18 Cd1'
_cell_volume   1255.99181175
_cell_formula_units_Z   1
loop_
 _symmetry_equiv_pos_site_id
 _symmetry_equiv_pos_as_xyz
  1  'x, y, z'
loop_
 _atom_site_type_symbol
 _atom_site_label
 _atom_site_symmetry_multiplicity
 _atom_site_fract_x
 _atom_site_fract_y
 _atom_site_fract_z
 _atom_site_occupancy
  K  K0  1  0.81086522  0.00000000  0.50000000  1.0
  K  K1  1  0.00000000  0.50000000  0.81086522  1.0
  K  K2  1  0.00000000  0.50000000  0.18913478  1.0
  K  K3  1  0.50000000  0.81086522  0.00000000  1.0
  K  K4  1  0.50000000  0.18913478  0.00000000  1.0
  K  K5  1  0.18913478  0.00000000  0.50000000  1.0
  Na  Na6  1  0.71882314  0.71882314  0.71882314  1.0
  Na  Na7  1  0.71882314  0.71882314  0.28117686  1.0
  Na  Na8  1  0.71882314  0.28117686  0.71882314  1.0
  Na  Na9  1  0.71882314  0.28117686  0.28117686  1.0
  Na  Na10  1  0.28117686  0.71882314  0.71882314  1.0
  Na  Na11  1  0.28117686  0.71882314  0.28117686  1.0
  Na  Na12  1  0.28117686  0.28117686  0.71882314  1.0
  Na  Na13  1  0.28117686  0.28117686  0.28117686  1.0
  Na  Na14  1  0.66673215  0.50000000  0.00000000  1.0
  Na  Na15  1  0.50000000  0.00000000  0.66673215  1.0
  Na  Na16  1  0.50000000  0.00000000  0.33326785  1.0
  Na  Na17  1  0.00000000  0.66673215  0.50000000  1.0
  Na  Na18  1  0.00000000  0.33326785  0.50000000  1.0
  Na  Na19  1  0.33326785  0.50000000  0.00000000  1.0
  Tl  Tl20  1  0.00000000  0.84435849  0.74378343  1.0
  Tl  Tl21  1  0.00000000  0.84435849  0.25621657  1.0
  Tl  Tl22  1  0.00000000  0.15564151  0.74378343  1.0
  Tl  Tl23  1  0.00000000  0.15564151  0.25621657  1.0
  Tl  Tl24  1  0.84435849  0.74378343  0.00000000  1.0
  Tl  Tl25  1  0.84435849  0.25621657  0.00000000  1.0
  Tl  Tl26  1  0.74378343  0.00000000  0.84435849  1.0
  Tl  Tl27  1  0.74378343  0.00000000  0.15564151  1.0
  Tl  Tl28  1  0.15564151  0.74378343  0.00000000  1.0
  Tl  Tl29  1  0.15564151  0.25621657  0.00000000  1.0
  Tl  Tl30  1  0.25621657  0.00000000  0.84435849  1.0
  Tl  Tl31  1  0.25621657  0.00000000  0.15564151  1.0
  Tl  Tl32  1  0.72203673  0.50000000  0.50000000  1.0
  Tl  Tl33  1  0.50000000  0.50000000  0.72203673  1.0
  Tl  Tl34  1  0.50000000  0.50000000  0.27796327  1.0
  Tl  Tl35  1  0.50000000  0.72203673  0.50000000  1.0
  Tl  Tl36  1  0.50000000  0.27796327  0.50000000  1.0
  Tl  Tl37  1  0.27796327  0.50000000  0.50000000  1.0
  Cd  Cd38  1  0.00000000  0.00000000  0.00000000  1.0
