# generated using pymatgen
data_NaFe(WO4)2
_symmetry_space_group_name_H-M   'P 1'
_cell_length_a   10.02405874
_cell_length_b   5.88721114
_cell_length_c   5.00389365
_cell_angle_alpha   90.00000000
_cell_angle_beta   90.34936082
_cell_angle_gamma   90.00000000
_symmetry_Int_Tables_number   1
_chemical_formula_structural   NaFe(WO4)2
_chemical_formula_sum   'Na2 Fe2 W4 O16'
_cell_volume   295.29304064
_cell_formula_units_Z   2
loop_
 _symmetry_equiv_pos_site_id
 _symmetry_equiv_pos_as_xyz
  1  'x, y, z'
loop_
 _atom_site_type_symbol
 _atom_site_label
 _atom_site_symmetry_multiplicity
 _atom_site_fract_x
 _atom_site_fract_y
 _atom_site_fract_z
 _atom_site_occupancy
  O  O0  1  0.67289567  0.91339694  0.05058650  1.0
  O  O1  1  0.67289567  0.08660306  0.55058650  1.0
  O  O2  1  0.32710433  0.91339694  0.44941350  1.0
  O  O3  1  0.32710433  0.08660306  0.94941350  1.0
  O  O4  1  0.64644201  0.37644393  0.12310229  1.0
  O  O5  1  0.64644201  0.62355607  0.62310229  1.0
  O  O6  1  0.35355799  0.37644393  0.37689771  1.0
  O  O7  1  0.35355799  0.62355607  0.87689771  1.0
  O  O8  1  0.87587680  0.87333521  0.42736158  1.0
  O  O9  1  0.87587680  0.12666479  0.92736158  1.0
  O  O10  1  0.12412320  0.87333521  0.07263842  1.0
  O  O11  1  0.12412320  0.12666479  0.57263842  1.0
  O  O12  1  0.89059552  0.37099094  0.41041415  1.0
  O  O13  1  0.89059552  0.62900906  0.91041415  1.0
  O  O14  1  0.10940448  0.37099094  0.08958585  1.0
  O  O15  1  0.10940448  0.62900906  0.58958585  1.0
  Fe  Fe16  1  -0.00000000  0.67439105  0.25000000  1.0
  Fe  Fe17  1  -0.00000000  0.32560895  0.75000000  1.0
  W  W18  1  0.76417924  0.81683878  0.74402203  1.0
  W  W19  1  0.76417924  0.18316122  0.24402203  1.0
  W  W20  1  0.23582076  0.81683878  0.75597797  1.0
  W  W21  1  0.23582076  0.18316122  0.25597797  1.0
  Na  Na22  1  0.50000000  0.69341955  0.25000000  1.0
  Na  Na23  1  0.50000000  0.30658045  0.75000000  1.0
