# generated using pymatgen
data_GdCoC2
_symmetry_space_group_name_H-M   'P 1'
_cell_length_a   3.75791845
_cell_length_b   3.75791845
_cell_length_c   3.65268075
_cell_angle_alpha   90.00000000
_cell_angle_beta   90.00000000
_cell_angle_gamma   106.20006540
_symmetry_Int_Tables_number   1
_chemical_formula_structural   GdCoC2
_chemical_formula_sum   'Gd1 Co1 C2'
_cell_volume   49.53479258
_cell_formula_units_Z   1
loop_
 _symmetry_equiv_pos_site_id
 _symmetry_equiv_pos_as_xyz
  1  'x, y, z'
loop_
 _atom_site_type_symbol
 _atom_site_label
 _atom_site_symmetry_multiplicity
 _atom_site_fract_x
 _atom_site_fract_y
 _atom_site_fract_z
 _atom_site_occupancy
  Gd  Gd0  1  0.37717041  0.62282959  0.50000000  1.0
  Co  Co1  1  -0.00621109  0.00621109  0.00000000  1.0
  C  C2  1  -0.46847268  1.16288665  0.00000000  1.0
  C  C3  1  -0.16288665  1.46847268  0.00000000  1.0
