# generated using pymatgen
data_Cs8Ga11Cl
_symmetry_space_group_name_H-M   'P 1'
_cell_length_a   18.13218642
_cell_length_b   18.13218642
_cell_length_c   18.13218642
_cell_angle_alpha   32.43884235
_cell_angle_beta   32.43884235
_cell_angle_gamma   32.43884235
_symmetry_Int_Tables_number   1
_chemical_formula_structural   Cs8Ga11Cl
_chemical_formula_sum   'Cs16 Ga22 Cl2'
_cell_volume   1525.04581854
_cell_formula_units_Z   2
loop_
 _symmetry_equiv_pos_site_id
 _symmetry_equiv_pos_as_xyz
  1  'x, y, z'
loop_
 _atom_site_type_symbol
 _atom_site_label
 _atom_site_symmetry_multiplicity
 _atom_site_fract_x
 _atom_site_fract_y
 _atom_site_fract_z
 _atom_site_occupancy
  Cs  Cs0  1  0.59493188  0.16157475  -0.18782970  1.0
  Cs  Cs1  1  1.09493188  0.31217030  -0.33842525  1.0
  Cs  Cs2  1  0.68782970  0.33842525  -0.09493188  1.0
  Cs  Cs3  1  1.18782970  0.40506812  -0.16157475  1.0
  Cs  Cs4  1  0.83842525  0.18782970  0.40506812  1.0
  Cs  Cs5  1  0.33842525  0.90506812  -0.31217030  1.0
  Cs  Cs6  1  1.40506812  -0.16157475  0.18782970  1.0
  Cs  Cs7  1  0.90506812  0.68782970  -0.66157475  1.0
  Cs  Cs8  1  0.81217030  -0.40506812  0.16157475  1.0
  Cs  Cs9  1  1.31217030  -0.33842525  0.09493188  1.0
  Cs  Cs10  1  0.66157475  0.09493188  0.31217030  1.0
  Cs  Cs11  1  1.16157475  -0.18782970  -0.40506812  1.0
  Cs  Cs12  1  0.92559970  -0.07440030  -0.07440030  1.0
  Cs  Cs13  1  0.42559970  0.42559970  0.42559970  1.0
  Cs  Cs14  1  0.57440030  0.57440030  -0.42559970  1.0
  Cs  Cs15  1  1.07440030  0.07440030  0.07440030  1.0
  Ga  Ga16  1  0.52611542  1.02851030  -0.22416559  1.0
  Ga  Ga17  1  1.02611542  0.27583441  -0.47148970  1.0
  Ga  Ga18  1  0.72416559  0.47148970  -0.02611542  1.0
  Ga  Ga19  1  0.22416559  0.47388458  -0.02851030  1.0
  Ga  Ga20  1  0.97148970  0.22416559  -0.52611542  1.0
  Ga  Ga21  1  0.47148970  0.97388458  -0.27583441  1.0
  Ga  Ga22  1  0.47388458  0.97148970  -0.77583441  1.0
  Ga  Ga23  1  0.97388458  0.72416559  -0.52851030  1.0
  Ga  Ga24  1  0.77583441  0.52611542  0.02851030  1.0
  Ga  Ga25  1  1.27583441  -0.47148970  0.02611542  1.0
  Ga  Ga26  1  0.52851030  0.02611542  0.27583441  1.0
  Ga  Ga27  1  1.02851030  0.77583441  -0.47388458  1.0
  Ga  Ga28  1  0.55945713  0.75000000  -0.05945713  1.0
  Ga  Ga29  1  1.05945713  -0.55945713  0.25000000  1.0
  Ga  Ga30  1  0.25000000  1.05945713  -0.55945713  1.0
  Ga  Ga31  1  0.75000000  0.94054287  -0.44054287  1.0
  Ga  Ga32  1  0.44054287  0.25000000  0.05945713  1.0
  Ga  Ga33  1  0.94054287  0.55945713  -0.25000000  1.0
  Ga  Ga34  1  0.79352874  0.79352874  -0.20647126  1.0
  Ga  Ga35  1  0.29352874  0.29352874  0.29352874  1.0
  Ga  Ga36  1  0.70647126  0.70647126  -0.29352874  1.0
  Ga  Ga37  1  0.20647126  0.20647126  0.20647126  1.0
  Cl  Cl38  1  1.00000000  0.00000000  0.00000000  1.0
  Cl  Cl39  1  0.50000000  0.50000000  0.50000000  1.0
