# generated using pymatgen
data_Na2Fe3(PO4)3
_symmetry_space_group_name_H-M   'P 1'
_cell_length_a   8.65147510
_cell_length_b   8.65147510
_cell_length_c   6.65689697
_cell_angle_alpha   73.91950160
_cell_angle_beta   106.08049840
_cell_angle_gamma   85.91295910
_symmetry_Int_Tables_number   1
_chemical_formula_structural   Na2Fe3(PO4)3
_chemical_formula_sum   'Na4 Fe6 P6 O24'
_cell_volume   454.08000713
_cell_formula_units_Z   2
loop_
 _symmetry_equiv_pos_site_id
 _symmetry_equiv_pos_as_xyz
  1  'x, y, z'
loop_
 _atom_site_type_symbol
 _atom_site_label
 _atom_site_symmetry_multiplicity
 _atom_site_fract_x
 _atom_site_fract_y
 _atom_site_fract_z
 _atom_site_occupancy
  P  P0  1  0.37667427  -0.15860474  0.88446338  1.0
  P  P1  1  1.15860474  0.62332573  0.38446338  1.0
  P  P2  1  0.84139526  -0.62332573  0.61553662  1.0
  P  P3  1  1.62332573  0.15860474  0.11553662  1.0
  P  P4  1  0.79205793  -0.20794207  0.75000000  1.0
  P  P5  1  1.20794207  0.20794207  0.25000000  1.0
  O  O6  1  1.67005392  0.32786353  0.60351223  1.0
  O  O7  1  0.67213647  -0.67005392  0.10351223  1.0
  O  O8  1  1.32786353  0.67005392  0.89648777  1.0
  O  O9  1  0.32994608  -0.32786353  0.39648777  1.0
  O  O10  1  0.23024180  -0.02389123  0.83539556  1.0
  O  O11  1  1.02389123  0.76975820  0.33539556  1.0
  O  O12  1  0.97610877  -0.76975820  0.66460444  1.0
  O  O13  1  1.76975820  0.02389123  0.16460444  1.0
  O  O14  1  0.45682242  -0.10597745  0.69702378  1.0
  O  O15  1  1.10597745  0.54317758  0.19702378  1.0
  O  O16  1  0.89402255  -0.54317758  0.80297622  1.0
  O  O17  1  1.54317758  0.10597745  0.30297622  1.0
  O  O18  1  1.49233623  0.17849061  0.88666699  1.0
  O  O19  1  0.82150939  -0.49233623  0.38666699  1.0
  O  O20  1  1.17849062  0.49233623  0.61333301  1.0
  O  O21  1  0.50766377  -0.17849061  0.11333301  1.0
  O  O22  1  0.68154594  -0.23916599  0.53856458  1.0
  O  O23  1  1.23916599  0.31845406  0.03856458  1.0
  O  O24  1  0.76083401  -0.31845406  0.96143542  1.0
  O  O25  1  1.31845406  0.23916599  0.46143542  1.0
  O  O26  1  0.76260091  -0.02712552  0.74026791  1.0
  O  O27  1  1.02712552  0.23739909  0.24026791  1.0
  O  O28  1  0.97287448  -0.23739909  0.75973209  1.0
  O  O29  1  1.23739909  0.02712552  0.25973209  1.0
  Na  Na30  1  0.51541438  -0.48458562  0.75000000  1.0
  Na  Na31  1  1.48458562  0.48458562  0.25000000  1.0
  Na  Na32  1  0.00000000  0.00000000  0.00000000  1.0
  Na  Na33  1  0.00000000  0.00000000  0.50000000  1.0
  Fe  Fe34  1  1.55262962  0.11821656  0.62341411  1.0
  Fe  Fe35  1  0.88178344  -0.55262962  0.12341411  1.0
  Fe  Fe36  1  1.11821656  0.55262962  0.87658589  1.0
  Fe  Fe37  1  0.44737038  -0.11821656  0.37658589  1.0
  Fe  Fe38  1  1.23166724  0.23166724  0.75000000  1.0
  Fe  Fe39  1  0.76833276  -0.23166724  0.25000000  1.0
