# generated using pymatgen
data_Al2B2Ru3
_symmetry_space_group_name_H-M   'P 1'
_cell_length_a   9.01530885
_cell_length_b   9.01530885
_cell_length_c   2.92964786
_cell_angle_alpha   90.00000000
_cell_angle_beta   90.00000000
_cell_angle_gamma   160.58336392
_symmetry_Int_Tables_number   1
_chemical_formula_structural   Al2B2Ru3
_chemical_formula_sum   'Al2 B2 Ru3'
_cell_volume   79.15591356
_cell_formula_units_Z   1
loop_
 _symmetry_equiv_pos_site_id
 _symmetry_equiv_pos_as_xyz
  1  'x, y, z'
loop_
 _atom_site_type_symbol
 _atom_site_label
 _atom_site_symmetry_multiplicity
 _atom_site_fract_x
 _atom_site_fract_y
 _atom_site_fract_z
 _atom_site_occupancy
  Al  Al0  1  0.42087799  0.57912201  0.50000000  1.0
  Al  Al1  1  -0.42087799  0.42087799  0.50000000  1.0
  B  B2  1  0.27752500  0.72247500  0.50000000  1.0
  B  B3  1  -0.27752500  0.27752500  0.50000000  1.0
  Ru  Ru4  1  0.17520159  0.82479841  0.00000000  1.0
  Ru  Ru5  1  -0.17520159  0.17520159  0.00000000  1.0
  Ru  Ru6  1  0.00000000  0.00000000  0.00000000  1.0
