# generated using pymatgen
data_K2ZnTe2
_symmetry_space_group_name_H-M   'P 1'
_cell_length_a   8.71581153
_cell_length_b   8.71581153
_cell_length_c   8.71581153
_cell_angle_alpha   130.18980667
_cell_angle_beta   71.58268908
_cell_angle_gamma   132.11446484
_symmetry_Int_Tables_number   1
_chemical_formula_structural   K2ZnTe2
_chemical_formula_sum   'K4 Zn2 Te4'
_cell_volume   367.13492625
_cell_formula_units_Z   2
loop_
 _symmetry_equiv_pos_site_id
 _symmetry_equiv_pos_as_xyz
  1  'x, y, z'
loop_
 _atom_site_type_symbol
 _atom_site_label
 _atom_site_symmetry_multiplicity
 _atom_site_fract_x
 _atom_site_fract_y
 _atom_site_fract_z
 _atom_site_occupancy
  K  K0  1  0.14014486  0.31661693  0.45676178  1.0
  K  K1  1  0.35985514  0.81661693  1.17647207  1.0
  K  K2  1  0.64014486  1.18338307  0.82352793  1.0
  K  K3  1  0.85985514  0.68338307  0.54323822  1.0
  Zn  Zn4  1  0.25000000  0.25000000  -0.00000000  1.0
  Zn  Zn5  1  0.75000000  0.75000000  -0.00000000  1.0
  Te  Te6  1  0.39299054  0.30680442  0.69979497  1.0
  Te  Te7  1  0.10700946  0.80680442  0.91381388  1.0
  Te  Te8  1  0.89299054  1.19319558  1.08618612  1.0
  Te  Te9  1  0.60700946  0.69319558  0.30020503  1.0
