# generated using pymatgen
data_Ti3O
_symmetry_space_group_name_H-M   'P 1'
_cell_length_a   5.15373970
_cell_length_b   5.15373970
_cell_length_c   14.27347241
_cell_angle_alpha   90.00000000
_cell_angle_beta   90.00000000
_cell_angle_gamma   120.00000000
_symmetry_Int_Tables_number   1
_chemical_formula_structural   Ti3O
_chemical_formula_sum   'Ti18 O6'
_cell_volume   328.32596589
_cell_formula_units_Z   6
loop_
 _symmetry_equiv_pos_site_id
 _symmetry_equiv_pos_as_xyz
  1  'x, y, z'
loop_
 _atom_site_type_symbol
 _atom_site_label
 _atom_site_symmetry_multiplicity
 _atom_site_fract_x
 _atom_site_fract_y
 _atom_site_fract_z
 _atom_site_occupancy
  Ti  Ti0  1  0.66138003  0.66084888  0.08812064  1.0
  Ti  Ti1  1  0.66138003  0.00053115  0.91187936  1.0
  Ti  Ti2  1  -0.00053115  0.66084888  0.91187936  1.0
  Ti  Ti3  1  -0.00053115  0.33861997  0.08812064  1.0
  Ti  Ti4  1  0.33915112  0.33861997  0.91187936  1.0
  Ti  Ti5  1  0.33915112  0.00053115  0.08812064  1.0
  Ti  Ti6  1  0.66674598  0.67136284  0.42107008  1.0
  Ti  Ti7  1  0.66674598  -0.00461686  0.57892992  1.0
  Ti  Ti8  1  0.00461686  0.67136284  0.57892992  1.0
  Ti  Ti9  1  0.00461686  0.33325402  0.42107008  1.0
  Ti  Ti10  1  0.32863716  0.33325402  0.57892992  1.0
  Ti  Ti11  1  0.32863716  -0.00461686  0.42107008  1.0
  Ti  Ti12  1  0.32787209  0.33285634  0.24474611  1.0
  Ti  Ti13  1  0.32787209  -0.00498425  0.75525389  1.0
  Ti  Ti14  1  0.00498425  0.33285634  0.75525389  1.0
  Ti  Ti15  1  0.00498425  0.67212791  0.24474611  1.0
  Ti  Ti16  1  0.66714366  0.67212791  0.75525389  1.0
  Ti  Ti17  1  0.66714366  -0.00498425  0.24474611  1.0
  O  O18  1  0.00000000  0.00000000  0.33299507  1.0
  O  O19  1  0.00000000  0.00000000  0.66700493  1.0
  O  O20  1  0.33333333  0.66666667  0.33317417  1.0
  O  O21  1  0.33333333  0.66666667  0.66682583  1.0
  O  O22  1  0.66666667  0.33333333  0.00000000  1.0
  O  O23  1  0.33333333  0.66666667  0.00000000  1.0
