# generated using pymatgen
data_Zr2Be17
_symmetry_space_group_name_H-M   'P 1'
_cell_length_a   5.67075536
_cell_length_b   5.67075536
_cell_length_c   5.67075536
_cell_angle_alpha   82.88687117
_cell_angle_beta   82.88687117
_cell_angle_gamma   82.88687117
_symmetry_Int_Tables_number   1
_chemical_formula_structural   Zr2Be17
_chemical_formula_sum   'Zr2 Be17'
_cell_volume   178.46761034
_cell_formula_units_Z   1
loop_
 _symmetry_equiv_pos_site_id
 _symmetry_equiv_pos_as_xyz
  1  'x, y, z'
loop_
 _atom_site_type_symbol
 _atom_site_label
 _atom_site_symmetry_multiplicity
 _atom_site_fract_x
 _atom_site_fract_y
 _atom_site_fract_z
 _atom_site_occupancy
  Zr  Zr0  1  0.66264170  0.66264170  -0.33735830  1.0
  Zr  Zr1  1  0.33735830  0.33735830  -0.66264170  1.0
  Be  Be2  1  1.00000000  1.50000000  -0.00000000  1.0
  Be  Be3  1  1.00000000  -0.00000000  -0.50000000  1.0
  Be  Be4  1  0.50000000  -0.00000000  -0.00000000  1.0
  Be  Be5  1  0.90372593  0.90372593  -0.09627407  1.0
  Be  Be6  1  1.09627407  1.09627407  0.09627407  1.0
  Be  Be7  1  0.34297092  0.34297092  -0.15926164  1.0
  Be  Be8  1  0.34297092  0.84073836  -0.65702908  1.0
  Be  Be9  1  0.15926164  0.65702908  -0.34297092  1.0
  Be  Be10  1  0.65702908  0.15926164  -0.34297092  1.0
  Be  Be11  1  0.65702908  0.65702908  -0.84073836  1.0
  Be  Be12  1  0.84073836  0.34297092  -0.65702908  1.0
  Be  Be13  1  0.71317701  -0.00000000  0.28682299  1.0
  Be  Be14  1  0.71317701  -0.71317701  0.00000000  1.0
  Be  Be15  1  -0.00000000  0.71317701  -0.71317701  1.0
  Be  Be16  1  -0.00000000  0.28682299  -0.28682299  1.0
  Be  Be17  1  1.28682299  -0.00000000  -0.28682299  1.0
  Be  Be18  1  0.28682299  -0.28682299  0.00000000  1.0
