# generated using pymatgen
data_LiFe(SeO3)2
_symmetry_space_group_name_H-M   'P 1'
_cell_length_a   9.21067677
_cell_length_b   9.21067677
_cell_length_c   9.21067677
_cell_angle_alpha   107.91262084
_cell_angle_beta   107.91262084
_cell_angle_gamma   112.63551810
_symmetry_Int_Tables_number   1
_chemical_formula_structural   LiFe(SeO3)2
_chemical_formula_sum   'Li4 Fe4 Se8 O24'
_cell_volume   600.13946288
_cell_formula_units_Z   4
loop_
 _symmetry_equiv_pos_site_id
 _symmetry_equiv_pos_as_xyz
  1  'x, y, z'
loop_
 _atom_site_type_symbol
 _atom_site_label
 _atom_site_symmetry_multiplicity
 _atom_site_fract_x
 _atom_site_fract_y
 _atom_site_fract_z
 _atom_site_occupancy
  Li  Li0  1  0.87500000  1.06087004  0.68587004  1.0
  Li  Li1  1  1.81087004  1.12500000  1.18587004  1.0
  Li  Li2  1  0.93912996  1.62500000  0.81412996  1.0
  Li  Li3  1  1.37500000  1.18912996  1.31412996  1.0
  Fe  Fe4  1  0.87500000  0.33911524  0.96411524  1.0
  Fe  Fe5  1  1.08911524  1.12500000  0.46411524  1.0
  Fe  Fe6  1  0.66088476  0.62500000  0.53588476  1.0
  Fe  Fe7  1  1.37500000  0.91088476  1.03588476  1.0
  Se  Se8  1  1.10045127  0.88011713  0.66794213  1.0
  Se  Se9  1  0.64954873  0.81749086  0.27966586  1.0
  Se  Se10  1  0.63011713  1.35045127  1.16794213  1.0
  Se  Se11  1  1.11988287  1.78782500  1.22033414  1.0
  Se  Se12  1  0.53782500  0.36988287  0.72033414  1.0
  Se  Se13  1  1.21217500  1.43250914  1.33205787  1.0
  Se  Se14  1  1.56749086  0.89954873  0.77966586  1.0
  Se  Se15  1  1.18250914  1.46217500  0.83205787  1.0
  O  O16  1  1.17044672  1.37468977  0.63183398  1.0
  O  O17  1  0.57955328  0.71138725  0.70424305  1.0
  O  O18  1  1.12468977  0.42044672  1.13183398  1.0
  O  O19  1  0.62531023  0.25714421  0.79575695  1.0
  O  O20  1  1.00714421  0.87531023  0.29575695  1.0
  O  O21  1  0.74285579  0.53861275  0.36816602  1.0
  O  O22  1  1.46138725  0.82955328  1.20424305  1.0
  O  O23  1  1.28861275  0.99285579  0.86816602  1.0
  O  O24  1  1.08363275  1.05918868  0.65780130  1.0
  O  O25  1  0.66636725  0.82416854  0.47555592  1.0
  O  O26  1  0.80918868  1.33363275  1.15780130  1.0
  O  O27  1  0.94081132  1.59861262  1.02444408  1.0
  O  O28  1  0.34861262  0.19081132  0.52444408  1.0
  O  O29  1  0.40138738  0.42583146  0.34219870  1.0
  O  O30  1  0.57416854  0.91636725  0.97555592  1.0
  O  O31  1  1.17583146  1.65138738  0.84219870  1.0
  O  O32  1  0.93104914  0.79135670  0.71784334  1.0
  O  O33  1  0.81895086  1.03679420  0.36030757  1.0
  O  O34  1  1.54135670  1.18104914  1.21784334  1.0
  O  O35  1  1.20864330  0.92648663  1.13969243  1.0
  O  O36  1  1.67648663  1.45864330  1.63969243  1.0
  O  O37  1  0.07351337  0.21320580  0.28215666  1.0
  O  O38  1  1.78679420  1.06895086  0.86030757  1.0
  O  O39  1  0.96320580  1.32351337  0.78215666  1.0
