# generated using pymatgen
data_Li4Be3P3BrO12
_symmetry_space_group_name_H-M   'P 1'
_cell_length_a   8.16414932
_cell_length_b   8.16414932
_cell_length_c   8.16414932
_cell_angle_alpha   90.00000000
_cell_angle_beta   90.00000000
_cell_angle_gamma   90.00000000
_symmetry_Int_Tables_number   1
_chemical_formula_structural   Li4Be3P3BrO12
_chemical_formula_sum   'Li8 Be6 P6 Br2 O24'
_cell_volume   544.16777335
_cell_formula_units_Z   2
loop_
 _symmetry_equiv_pos_site_id
 _symmetry_equiv_pos_as_xyz
  1  'x, y, z'
loop_
 _atom_site_type_symbol
 _atom_site_label
 _atom_site_symmetry_multiplicity
 _atom_site_fract_x
 _atom_site_fract_y
 _atom_site_fract_z
 _atom_site_occupancy
  Li  Li0  1  0.31701493  0.31701493  0.68298507  1.0
  Li  Li1  1  0.31701493  0.68298507  0.31701493  1.0
  Li  Li2  1  0.81701493  0.81701493  0.18298507  1.0
  Li  Li3  1  0.81701493  0.18298507  0.81701493  1.0
  Li  Li4  1  0.68298507  0.31701493  0.31701493  1.0
  Li  Li5  1  0.68298507  0.68298507  0.68298507  1.0
  Li  Li6  1  0.18298507  0.81701493  0.81701493  1.0
  Li  Li7  1  0.18298507  0.18298507  0.18298507  1.0
  Be  Be8  1  0.25000000  0.00000000  0.50000000  1.0
  Be  Be9  1  0.75000000  0.00000000  0.50000000  1.0
  Be  Be10  1  0.50000000  0.25000000  0.00000000  1.0
  Be  Be11  1  0.50000000  0.75000000  0.00000000  1.0
  Be  Be12  1  0.00000000  0.50000000  0.25000000  1.0
  Be  Be13  1  0.00000000  0.50000000  0.75000000  1.0
  P  P14  1  0.25000000  0.50000000  0.00000000  1.0
  P  P15  1  0.75000000  0.50000000  0.00000000  1.0
  P  P16  1  0.00000000  0.25000000  0.50000000  1.0
  P  P17  1  0.00000000  0.75000000  0.50000000  1.0
  P  P18  1  0.50000000  0.00000000  0.25000000  1.0
  P  P19  1  0.50000000  0.00000000  0.75000000  1.0
  Br  Br20  1  0.50000000  0.50000000  0.50000000  1.0
  Br  Br21  1  0.00000000  0.00000000  0.00000000  1.0
  O  O22  1  0.36328800  0.08087624  0.64458485  1.0
  O  O23  1  0.36328800  0.91912376  0.35541515  1.0
  O  O24  1  0.86328800  0.85541515  0.41912376  1.0
  O  O25  1  0.86328800  0.14458485  0.58087624  1.0
  O  O26  1  0.35541515  0.36328800  0.91912376  1.0
  O  O27  1  0.35541515  0.63671200  0.08087624  1.0
  O  O28  1  0.85541515  0.58087624  0.13671200  1.0
  O  O29  1  0.85541515  0.41912376  0.86328800  1.0
  O  O30  1  0.08087624  0.35541515  0.63671200  1.0
  O  O31  1  0.08087624  0.64458485  0.36328800  1.0
  O  O32  1  0.58087624  0.86328800  0.14458485  1.0
  O  O33  1  0.58087624  0.13671200  0.85541515  1.0
  O  O34  1  0.63671200  0.08087624  0.35541515  1.0
  O  O35  1  0.63671200  0.91912376  0.64458485  1.0
  O  O36  1  0.13671200  0.85541515  0.58087624  1.0
  O  O37  1  0.13671200  0.14458485  0.41912376  1.0
  O  O38  1  0.64458485  0.36328800  0.08087624  1.0
  O  O39  1  0.64458485  0.63671200  0.91912376  1.0
  O  O40  1  0.14458485  0.58087624  0.86328800  1.0
  O  O41  1  0.14458485  0.41912376  0.13671200  1.0
  O  O42  1  0.91912376  0.35541515  0.36328800  1.0
  O  O43  1  0.91912376  0.64458485  0.63671200  1.0
  O  O44  1  0.41912376  0.86328800  0.85541515  1.0
  O  O45  1  0.41912376  0.13671200  0.14458485  1.0
