# generated using pymatgen
data_Ge(PbS2)2
_symmetry_space_group_name_H-M   'P 1'
_cell_length_a   8.05638598
_cell_length_b   9.56913988
_cell_length_c   10.96061111
_cell_angle_alpha   90.00000000
_cell_angle_beta   114.82649624
_cell_angle_gamma   90.00000000
_symmetry_Int_Tables_number   1
_chemical_formula_structural   Ge(PbS2)2
_chemical_formula_sum   'Ge4 Pb8 S16'
_cell_volume   766.89248920
_cell_formula_units_Z   4
loop_
 _symmetry_equiv_pos_site_id
 _symmetry_equiv_pos_as_xyz
  1  'x, y, z'
loop_
 _atom_site_type_symbol
 _atom_site_label
 _atom_site_symmetry_multiplicity
 _atom_site_fract_x
 _atom_site_fract_y
 _atom_site_fract_z
 _atom_site_occupancy
  Ge  Ge0  1  0.78181291  0.18991478  0.49296011  1.0
  Ge  Ge1  1  0.78181291  0.31008522  0.99296011  1.0
  Ge  Ge2  1  0.21818709  0.68991478  0.00703989  1.0
  Ge  Ge3  1  0.21818709  0.81008522  0.50703989  1.0
  Pb  Pb4  1  0.89618205  0.96075955  0.14613655  1.0
  Pb  Pb5  1  0.89618205  0.53924045  0.64613655  1.0
  Pb  Pb6  1  0.10381795  0.46075955  0.35386345  1.0
  Pb  Pb7  1  0.10381795  0.03924045  0.85386345  1.0
  Pb  Pb8  1  0.45735408  0.33548793  0.15943418  1.0
  Pb  Pb9  1  0.45735408  0.16451207  0.65943418  1.0
  Pb  Pb10  1  0.54264592  0.83548793  0.34056582  1.0
  Pb  Pb11  1  0.54264592  0.66451207  0.84056582  1.0
  S  S12  1  0.94573099  0.70339412  0.40713846  1.0
  S  S13  1  0.94573099  0.79660588  0.90713846  1.0
  S  S14  1  0.05426901  0.20339412  0.09286154  1.0
  S  S15  1  0.05426901  0.29660588  0.59286154  1.0
  S  S16  1  0.75189109  0.47637444  0.12713851  1.0
  S  S17  1  0.75189109  0.02362556  0.62713851  1.0
  S  S18  1  0.24810891  0.97637444  0.37286149  1.0
  S  S19  1  0.24810891  0.52362556  0.87286149  1.0
  S  S20  1  0.71055708  0.09246344  0.29214918  1.0
  S  S21  1  0.71055708  0.40753656  0.79214918  1.0
  S  S22  1  0.28944292  0.59246344  0.20785082  1.0
  S  S23  1  0.28944292  0.90753656  0.70785082  1.0
  S  S24  1  0.57579604  0.36101877  0.44540473  1.0
  S  S25  1  0.57579604  0.13898123  0.94540473  1.0
  S  S26  1  0.42420396  0.86101877  0.05459527  1.0
  S  S27  1  0.42420396  0.63898123  0.55459527  1.0
