# generated using pymatgen
data_Tl2CoBr4
_symmetry_space_group_name_H-M   'P 1'
_cell_length_a   9.56882961
_cell_length_b   7.67109104
_cell_length_c   13.73862094
_cell_angle_alpha   90.00000000
_cell_angle_beta   90.00000000
_cell_angle_gamma   90.00000000
_symmetry_Int_Tables_number   1
_chemical_formula_structural   Tl2CoBr4
_chemical_formula_sum   'Tl8 Co4 Br16'
_cell_volume   1008.46098220
_cell_formula_units_Z   4
loop_
 _symmetry_equiv_pos_site_id
 _symmetry_equiv_pos_as_xyz
  1  'x, y, z'
loop_
 _atom_site_type_symbol
 _atom_site_label
 _atom_site_symmetry_multiplicity
 _atom_site_fract_x
 _atom_site_fract_y
 _atom_site_fract_z
 _atom_site_occupancy
  Tl  Tl0  1  0.88278784  0.75000000  0.45912632  1.0
  Tl  Tl1  1  0.38278784  0.75000000  0.04087368  1.0
  Tl  Tl2  1  0.11721216  0.25000000  0.54087368  1.0
  Tl  Tl3  1  0.61721216  0.25000000  0.95912632  1.0
  Tl  Tl4  1  0.51957516  0.75000000  0.66717795  1.0
  Tl  Tl5  1  0.01957516  0.75000000  0.83282205  1.0
  Tl  Tl6  1  0.48042484  0.25000000  0.33282205  1.0
  Tl  Tl7  1  0.98042484  0.25000000  0.16717795  1.0
  Co  Co8  1  0.77962169  0.75000000  0.07236935  1.0
  Co  Co9  1  0.27962169  0.75000000  0.42763065  1.0
  Co  Co10  1  0.22037831  0.25000000  0.92763065  1.0
  Co  Co11  1  0.72037831  0.25000000  0.57236935  1.0
  Br  Br12  1  0.68685136  1.00389968  0.15013906  1.0
  Br  Br13  1  0.68685136  0.49610032  0.15013906  1.0
  Br  Br14  1  0.18685136  1.00389968  0.34986094  1.0
  Br  Br15  1  0.18685136  0.49610032  0.34986094  1.0
  Br  Br16  1  0.31314864  0.50389968  0.84986094  1.0
  Br  Br17  1  0.31314864  -0.00389968  0.84986094  1.0
  Br  Br18  1  0.81314864  0.50389968  0.65013906  1.0
  Br  Br19  1  0.81314864  -0.00389968  0.65013906  1.0
  Br  Br20  1  1.02938693  0.75000000  0.07315756  1.0
  Br  Br21  1  0.52938693  0.75000000  0.42684244  1.0
  Br  Br22  1  -0.02938693  0.25000000  0.92684244  1.0
  Br  Br23  1  0.47061307  0.25000000  0.57315756  1.0
  Br  Br24  1  0.18254724  0.75000000  0.58930363  1.0
  Br  Br25  1  0.68254724  0.75000000  0.91069637  1.0
  Br  Br26  1  0.81745276  0.25000000  0.41069637  1.0
  Br  Br27  1  0.31745276  0.25000000  0.08930363  1.0
