# generated using pymatgen
data_BaBiO3
_symmetry_space_group_name_H-M   'P 1'
_cell_length_a   6.24368230
_cell_length_b   12.49121555
_cell_length_c   4.41463649
_cell_angle_alpha   90.00000000
_cell_angle_beta   90.00000000
_cell_angle_gamma   90.00000000
_symmetry_Int_Tables_number   1
_chemical_formula_structural   BaBiO3
_chemical_formula_sum   'Ba4 Bi4 O12'
_cell_volume   344.30271551
_cell_formula_units_Z   4
loop_
 _symmetry_equiv_pos_site_id
 _symmetry_equiv_pos_as_xyz
  1  'x, y, z'
loop_
 _atom_site_type_symbol
 _atom_site_label
 _atom_site_symmetry_multiplicity
 _atom_site_fract_x
 _atom_site_fract_y
 _atom_site_fract_z
 _atom_site_occupancy
  Ba  Ba0  1  0.74963485  0.12461435  1.02050883  1.0
  Ba  Ba1  1  0.25036515  0.87538565  1.02050883  1.0
  Ba  Ba2  1  0.75036515  0.62461435  1.02050883  1.0
  Ba  Ba3  1  0.24963485  0.37538565  1.02050883  1.0
  Bi  Bi4  1  0.24987925  0.12503614  0.52023892  1.0
  Bi  Bi5  1  0.75012075  0.87496386  0.52023892  1.0
  Bi  Bi6  1  0.25012075  0.62503614  0.52023892  1.0
  Bi  Bi7  1  0.74987925  0.37496386  0.52023892  1.0
  O  O8  1  0.25054556  0.12447270  0.02018405  1.0
  O  O9  1  0.74945444  0.87552730  0.02018405  1.0
  O  O10  1  0.24945444  0.62447270  0.02018405  1.0
  O  O11  1  0.75054556  0.37552730  0.02018405  1.0
  O  O12  1  0.49936112  0.25026716  0.52004932  1.0
  O  O13  1  0.50063888  0.74973284  0.52004932  1.0
  O  O14  1  1.00063888  0.75026716  0.52004932  1.0
  O  O15  1  -0.00063888  0.24973284  0.52004932  1.0
  O  O16  1  0.00000000  0.00000000  0.51993924  1.0
  O  O17  1  0.50000000  0.50000000  0.51993924  1.0
  O  O18  1  0.00000000  0.50000000  0.52009851  1.0
  O  O19  1  0.50000000  0.00000000  0.52009851  1.0
