# generated using pymatgen
data_Cd2P3I
_symmetry_space_group_name_H-M   'P 1'
_cell_length_a   6.29712687
_cell_length_b   6.29712687
_cell_length_c   7.62655260
_cell_angle_alpha   83.68503994
_cell_angle_beta   96.31496006
_cell_angle_gamma   83.31526085
_symmetry_Int_Tables_number   1
_chemical_formula_structural   Cd2P3I
_chemical_formula_sum   'Cd4 P6 I2'
_cell_volume   296.22456435
_cell_formula_units_Z   2
loop_
 _symmetry_equiv_pos_site_id
 _symmetry_equiv_pos_as_xyz
  1  'x, y, z'
loop_
 _atom_site_type_symbol
 _atom_site_label
 _atom_site_symmetry_multiplicity
 _atom_site_fract_x
 _atom_site_fract_y
 _atom_site_fract_z
 _atom_site_occupancy
  Cd  Cd0  1  0.39277711  -0.10593997  0.22047740  1.0
  Cd  Cd1  1  1.10593997  0.60722289  0.72047740  1.0
  Cd  Cd2  1  0.89406003  -0.60722289  0.27952260  1.0
  Cd  Cd3  1  1.60722289  0.10593997  0.77952260  1.0
  P  P4  1  1.56543141  0.34393824  0.46149067  1.0
  P  P5  1  0.65606176  -0.56543141  0.96149067  1.0
  P  P6  1  1.34393824  0.56543141  0.03850933  1.0
  P  P7  1  0.43456859  -0.34393824  0.53850933  1.0
  P  P8  1  1.30507187  0.30507187  0.25000000  1.0
  P  P9  1  0.69492813  -0.30507187  0.75000000  1.0
  I  I10  1  0.88004113  -0.11995887  0.25000000  1.0
  I  I11  1  1.11995887  0.11995887  0.75000000  1.0
