# generated using pymatgen
data_KCd4P3
_symmetry_space_group_name_H-M   'P 1'
_cell_length_a   12.28508348
_cell_length_b   12.28508348
_cell_length_c   12.28508348
_cell_angle_alpha   20.62513464
_cell_angle_beta   20.62513464
_cell_angle_gamma   20.62513464
_symmetry_Int_Tables_number   1
_chemical_formula_structural   KCd4P3
_chemical_formula_sum   'K1 Cd4 P3'
_cell_volume   201.38897120
_cell_formula_units_Z   1
loop_
 _symmetry_equiv_pos_site_id
 _symmetry_equiv_pos_as_xyz
  1  'x, y, z'
loop_
 _atom_site_type_symbol
 _atom_site_label
 _atom_site_symmetry_multiplicity
 _atom_site_fract_x
 _atom_site_fract_y
 _atom_site_fract_z
 _atom_site_occupancy
  K  K0  1  1.50000000  0.50000000  0.50000000  1.0
  Cd  Cd1  1  0.90936020  0.90936020  0.90936020  1.0
  Cd  Cd2  1  1.09063980  1.09063980  0.09063980  1.0
  Cd  Cd3  1  0.69811424  0.69811424  0.69811424  1.0
  Cd  Cd4  1  1.30188576  1.30188576  0.30188576  1.0
  P  P5  1  0.77039254  0.77039254  0.77039254  1.0
  P  P6  1  1.22960746  1.22960746  0.22960746  1.0
  P  P7  1  0.00000000  -0.00000000  -0.00000000  1.0
