# generated using pymatgen
data_Sc(BC)2
_symmetry_space_group_name_H-M   'P 1'
_cell_length_a   5.27915972
_cell_length_b   10.19454976
_cell_length_c   3.44751512
_cell_angle_alpha   90.00000000
_cell_angle_beta   90.00000000
_cell_angle_gamma   90.00000000
_symmetry_Int_Tables_number   1
_chemical_formula_structural   Sc(BC)2
_chemical_formula_sum   'Sc4 B8 C8'
_cell_volume   185.54063168
_cell_formula_units_Z   4
loop_
 _symmetry_equiv_pos_site_id
 _symmetry_equiv_pos_as_xyz
  1  'x, y, z'
loop_
 _atom_site_type_symbol
 _atom_site_label
 _atom_site_symmetry_multiplicity
 _atom_site_fract_x
 _atom_site_fract_y
 _atom_site_fract_z
 _atom_site_occupancy
  Sc  Sc0  1  0.13762530  0.64845914  0.50000000  1.0
  Sc  Sc1  1  0.63762530  0.85154086  0.50000000  1.0
  Sc  Sc2  1  0.86237470  0.35154086  0.50000000  1.0
  Sc  Sc3  1  0.36237470  0.14845914  0.50000000  1.0
  B  B4  1  0.48657128  0.68900518  0.00000000  1.0
  B  B5  1  0.98657128  0.81099482  0.00000000  1.0
  B  B6  1  0.51342872  0.31099482  0.00000000  1.0
  B  B7  1  0.01342872  0.18900518  0.00000000  1.0
  B  B8  1  0.35611296  0.96454444  0.00000000  1.0
  B  B9  1  0.85611296  0.53545556  0.00000000  1.0
  B  B10  1  0.64388704  0.03545556  0.00000000  1.0
  B  B11  1  0.14388704  0.46454444  0.00000000  1.0
  C  C12  1  0.39268548  0.54460865  0.00000000  1.0
  C  C13  1  0.89268548  0.95539135  0.00000000  1.0
  C  C14  1  0.60731452  0.45539135  0.00000000  1.0
  C  C15  1  0.10731452  0.04460865  0.00000000  1.0
  C  C16  1  0.29677154  0.80925445  0.00000000  1.0
  C  C17  1  0.79677154  0.69074555  0.00000000  1.0
  C  C18  1  0.70322846  0.19074555  0.00000000  1.0
  C  C19  1  0.20322846  0.30925445  0.00000000  1.0
