# generated using pymatgen
data_BaY2CoO5
_symmetry_space_group_name_H-M   'P 1'
_cell_length_a   12.30207729
_cell_length_b   5.74570156
_cell_length_c   7.11750174
_cell_angle_alpha   90.00000000
_cell_angle_beta   90.00000000
_cell_angle_gamma   90.00000000
_symmetry_Int_Tables_number   1
_chemical_formula_structural   BaY2CoO5
_chemical_formula_sum   'Ba4 Y8 Co4 O20'
_cell_volume   503.09395290
_cell_formula_units_Z   4
loop_
 _symmetry_equiv_pos_site_id
 _symmetry_equiv_pos_as_xyz
  1  'x, y, z'
loop_
 _atom_site_type_symbol
 _atom_site_label
 _atom_site_symmetry_multiplicity
 _atom_site_fract_x
 _atom_site_fract_y
 _atom_site_fract_z
 _atom_site_occupancy
  Ba  Ba0  1  0.10127962  0.75000000  0.57971803  1.0
  Ba  Ba1  1  0.60127962  0.75000000  0.92028197  1.0
  Ba  Ba2  1  0.89872038  0.25000000  0.42028197  1.0
  Ba  Ba3  1  0.39872038  0.25000000  0.07971803  1.0
  Y  Y4  1  0.20847540  0.75000000  0.11784570  1.0
  Y  Y5  1  0.70847540  0.75000000  0.38215430  1.0
  Y  Y6  1  0.79152460  0.25000000  0.88215430  1.0
  Y  Y7  1  0.29152460  0.25000000  0.61784570  1.0
  Y  Y8  1  0.92469001  0.75000000  0.09748545  1.0
  Y  Y9  1  0.42469001  0.75000000  0.40251455  1.0
  Y  Y10  1  0.07530999  0.25000000  0.90251455  1.0
  Y  Y11  1  0.57530999  0.25000000  0.59748545  1.0
  Co  Co12  1  0.34939241  0.75000000  0.80905229  1.0
  Co  Co13  1  0.84939241  0.75000000  0.69094771  1.0
  Co  Co14  1  0.65060759  0.25000000  0.19094771  1.0
  Co  Co15  1  0.15060759  0.25000000  0.30905229  1.0
  O  O16  1  0.22501960  0.99915771  0.86024346  1.0
  O  O17  1  0.22501960  0.50084229  0.86024346  1.0
  O  O18  1  0.72501960  0.99915771  0.63975654  1.0
  O  O19  1  0.72501960  0.50084229  0.63975654  1.0
  O  O20  1  0.77498040  0.49915771  0.13975654  1.0
  O  O21  1  0.77498040  0.00084229  0.13975654  1.0
  O  O22  1  0.27498040  0.49915771  0.36024346  1.0
  O  O23  1  0.27498040  0.00084229  0.36024346  1.0
  O  O24  1  0.43504262  0.99496930  0.66743521  1.0
  O  O25  1  0.43504262  0.50503070  0.66743521  1.0
  O  O26  1  0.93504262  0.99496930  0.83256479  1.0
  O  O27  1  0.93504262  0.50503070  0.83256479  1.0
  O  O28  1  0.56495738  0.49496930  0.33256479  1.0
  O  O29  1  0.56495738  0.00503070  0.33256479  1.0
  O  O30  1  0.06495738  0.49496930  0.16743521  1.0
  O  O31  1  0.06495738  0.00503070  0.16743521  1.0
  O  O32  1  0.39752304  0.75000000  0.07367978  1.0
  O  O33  1  0.89752304  0.75000000  0.42632022  1.0
  O  O34  1  0.60247696  0.25000000  0.92632022  1.0
  O  O35  1  0.10247696  0.25000000  0.57367978  1.0
