# generated using pymatgen
data_V2Pb(OF4)2
_symmetry_space_group_name_H-M   'P 1'
_cell_length_a   5.45740401
_cell_length_b   5.37344391
_cell_length_c   8.32431643
_cell_angle_alpha   106.98545736
_cell_angle_beta   107.17429708
_cell_angle_gamma   90.76990069
_symmetry_Int_Tables_number   1
_chemical_formula_structural   V2Pb(OF4)2
_chemical_formula_sum   'V2 Pb1 O2 F8'
_cell_volume   221.72109513
_cell_formula_units_Z   1
loop_
 _symmetry_equiv_pos_site_id
 _symmetry_equiv_pos_as_xyz
  1  'x, y, z'
loop_
 _atom_site_type_symbol
 _atom_site_label
 _atom_site_symmetry_multiplicity
 _atom_site_fract_x
 _atom_site_fract_y
 _atom_site_fract_z
 _atom_site_occupancy
  V  V0  1  -0.64817822  -0.64591656  -0.73923888  1.0
  V  V1  1  -0.35182178  -0.35408344  -0.26076112  1.0
  Pb  Pb2  1  -0.00000000  0.00000000  -0.50000000  1.0
  O  O3  1  -0.67866841  -0.65073121  -0.93309521  1.0
  O  O4  1  -0.32133159  -0.34926879  -0.06690479  1.0
  F  F5  1  -0.87262326  -0.91496824  -0.75900145  1.0
  F  F6  1  -0.12737674  -0.08503176  -0.24099855  1.0
  F  F7  1  -0.38952248  -0.85517665  -0.69565764  1.0
  F  F8  1  -0.61047752  -0.14482335  -0.30434236  1.0
  F  F9  1  -0.59937547  -0.63522773  -0.40601971  1.0
  F  F10  1  -0.40062453  -0.36477227  -0.59398029  1.0
  F  F11  1  -0.88615292  -0.42685060  -0.68073609  1.0
  F  F12  1  -0.11384708  -0.57314940  -0.31926391  1.0
