# generated using pymatgen
data_Cd2PCl2
_symmetry_space_group_name_H-M   'P 1'
_cell_length_a   7.83994432
_cell_length_b   9.12221987
_cell_length_c   8.13546057
_cell_angle_alpha   90.00000000
_cell_angle_beta   119.69227348
_cell_angle_gamma   90.00000000
_symmetry_Int_Tables_number   1
_chemical_formula_structural   Cd2PCl2
_chemical_formula_sum   'Cd8 P4 Cl8'
_cell_volume   505.43421829
_cell_formula_units_Z   4
loop_
 _symmetry_equiv_pos_site_id
 _symmetry_equiv_pos_as_xyz
  1  'x, y, z'
loop_
 _atom_site_type_symbol
 _atom_site_label
 _atom_site_symmetry_multiplicity
 _atom_site_fract_x
 _atom_site_fract_y
 _atom_site_fract_z
 _atom_site_occupancy
  Cd  Cd0  1  0.96707324  0.79234002  0.28642059  1.0
  Cd  Cd1  1  0.96707324  0.70765998  0.78642059  1.0
  Cd  Cd2  1  0.03292676  0.29234002  0.21357941  1.0
  Cd  Cd3  1  0.03292676  0.20765998  0.71357941  1.0
  Cd  Cd4  1  0.56975024  0.42160253  0.26853308  1.0
  Cd  Cd5  1  0.56975024  0.07839747  0.76853308  1.0
  Cd  Cd6  1  0.43024976  0.92160253  0.23146692  1.0
  Cd  Cd7  1  0.43024976  0.57839747  0.73146692  1.0
  P  P8  1  0.93449757  0.39084895  0.44614300  1.0
  P  P9  1  0.93449757  0.10915105  0.94614300  1.0
  P  P10  1  0.06550243  0.89084895  0.05385700  1.0
  P  P11  1  0.06550243  0.60915105  0.55385700  1.0
  Cl  Cl12  1  0.75705496  0.02478607  0.30446121  1.0
  Cl  Cl13  1  0.75705496  0.47521393  0.80446121  1.0
  Cl  Cl14  1  0.24294504  0.52478607  0.19553879  1.0
  Cl  Cl15  1  0.24294504  0.97521393  0.69553879  1.0
  Cl  Cl16  1  0.42276366  0.19475449  0.42279595  1.0
  Cl  Cl17  1  0.42276366  0.30524551  0.92279595  1.0
  Cl  Cl18  1  0.57723634  0.69475449  0.07720405  1.0
  Cl  Cl19  1  0.57723634  0.80524551  0.57720405  1.0
