# generated using pymatgen
data_WCl2
_symmetry_space_group_name_H-M   'P 1'
_cell_length_a   9.23512412
_cell_length_b   9.23512412
_cell_length_c   11.43788504
_cell_angle_alpha   90.00000000
_cell_angle_beta   90.00000000
_cell_angle_gamma   76.47698677
_symmetry_Int_Tables_number   1
_chemical_formula_structural   WCl2
_chemical_formula_sum   'W12 Cl24'
_cell_volume   948.46388836
_cell_formula_units_Z   12
loop_
 _symmetry_equiv_pos_site_id
 _symmetry_equiv_pos_as_xyz
  1  'x, y, z'
loop_
 _atom_site_type_symbol
 _atom_site_label
 _atom_site_symmetry_multiplicity
 _atom_site_fract_x
 _atom_site_fract_y
 _atom_site_fract_z
 _atom_site_occupancy
  W  W0  1  -0.35255540  1.35255540  0.43235302  1.0
  W  W1  1  0.14744460  0.85255540  0.06764698  1.0
  W  W2  1  0.35255540  0.64744460  0.56764698  1.0
  W  W3  1  -0.14744460  1.14744460  0.93235302  1.0
  W  W4  1  -0.06772600  1.06772600  0.14735804  1.0
  W  W5  1  0.43227400  0.56772600  0.35264196  1.0
  W  W6  1  0.06772600  0.93227400  0.85264196  1.0
  W  W7  1  -0.43227400  1.43227400  0.64735804  1.0
  W  W8  1  0.37172141  1.37172141  0.50000000  1.0
  W  W9  1  -0.12827859  0.87172141  -0.00000000  1.0
  W  W10  1  -0.37172141  0.62827859  0.50000000  1.0
  W  W11  1  0.12827859  1.12827859  0.00000000  1.0
  Cl  Cl12  1  0.45533004  1.30186236  0.29404807  1.0
  Cl  Cl13  1  -0.04466996  0.80186236  0.20595193  1.0
  Cl  Cl14  1  0.30186236  1.45533004  0.70595193  1.0
  Cl  Cl15  1  -0.19813764  0.95533004  0.79404807  1.0
  Cl  Cl16  1  -0.30186236  0.54466996  0.29404807  1.0
  Cl  Cl17  1  0.19813764  1.04466996  0.20595193  1.0
  Cl  Cl18  1  -0.45533004  0.69813764  0.70595193  1.0
  Cl  Cl19  1  0.04466996  1.19813764  0.79404807  1.0
  Cl  Cl20  1  0.41553544  0.82758098  0.42333138  1.0
  Cl  Cl21  1  -0.08446456  1.32758098  0.07666862  1.0
  Cl  Cl22  1  -0.17241902  1.41553544  0.57666862  1.0
  Cl  Cl23  1  0.32758098  0.91553544  0.92333138  1.0
  Cl  Cl24  1  0.17241902  0.58446456  0.42333138  1.0
  Cl  Cl25  1  -0.32758098  1.08446456  0.07666862  1.0
  Cl  Cl26  1  -0.41553544  1.17241902  0.57666862  1.0
  Cl  Cl27  1  0.08446456  0.67241902  0.92333138  1.0
  Cl  Cl28  1  -0.14737186  1.14737186  0.35254181  1.0
  Cl  Cl29  1  0.35262814  0.64737186  0.14745819  1.0
  Cl  Cl30  1  0.14737186  0.85262814  0.64745819  1.0
  Cl  Cl31  1  -0.35262814  1.35262814  0.85254181  1.0
  Cl  Cl32  1  0.20688884  1.20688884  0.50000000  1.0
  Cl  Cl33  1  -0.29311116  0.70688884  0.00000000  1.0
  Cl  Cl34  1  -0.20688884  0.79311116  0.50000000  1.0
  Cl  Cl35  1  0.29311116  1.29311116  -0.00000000  1.0
