# generated using pymatgen
data_NaH2N
_symmetry_space_group_name_H-M   'P 1'
_cell_length_a   7.03321971
_cell_length_b   6.92039241
_cell_length_c   6.08191338
_cell_angle_alpha   65.12012555
_cell_angle_beta   63.20671178
_cell_angle_gamma   51.67316267
_symmetry_Int_Tables_number   1
_chemical_formula_structural   NaH2N
_chemical_formula_sum   'Na4 H8 N4'
_cell_volume   203.03754815
_cell_formula_units_Z   4
loop_
 _symmetry_equiv_pos_site_id
 _symmetry_equiv_pos_as_xyz
  1  'x, y, z'
loop_
 _atom_site_type_symbol
 _atom_site_label
 _atom_site_symmetry_multiplicity
 _atom_site_fract_x
 _atom_site_fract_y
 _atom_site_fract_z
 _atom_site_occupancy
  Na  Na0  1  0.11253167  0.11253167  0.38746833  1.0
  Na  Na1  1  0.13746833  0.13746833  -0.13746833  1.0
  Na  Na2  1  0.38746833  0.38746833  0.11253167  1.0
  Na  Na3  1  -0.13746833  0.86253167  0.13746833  1.0
  H  H4  1  -0.43192453  1.05412591  0.83285933  1.0
  H  H5  1  1.05412591  -0.43192453  0.54493929  1.0
  H  H6  1  -0.31807547  1.19587409  0.41714067  1.0
  H  H7  1  1.19587409  -0.31807547  0.70506071  1.0
  H  H8  1  -0.16714067  0.54493929  0.56807547  1.0
  H  H9  1  0.54493929  -0.16714067  1.05412591  1.0
  H  H10  1  -0.58285933  0.70506071  0.68192453  1.0
  H  H11  1  0.70506071  -0.58285933  1.19587409  1.0
  N  N12  1  0.47940002  0.02059998  0.02059998  1.0
  N  N13  1  0.02059998  0.47940002  0.47940002  1.0
  N  N14  1  -0.22940002  0.22940002  0.22940002  1.0
  N  N15  1  -0.77059998  0.77059998  0.77059998  1.0
