# generated using pymatgen
data_Nb2PdS6
_symmetry_space_group_name_H-M   'P 1'
_cell_length_a   6.78346269
_cell_length_b   6.78346269
_cell_length_c   10.46788677
_cell_angle_alpha   60.79143876
_cell_angle_beta   119.20856124
_cell_angle_gamma   152.00147366
_symmetry_Int_Tables_number   1
_chemical_formula_structural   Nb2PdS6
_chemical_formula_sum   'Nb2 Pd1 S6'
_cell_volume   195.44700838
_cell_formula_units_Z   1
loop_
 _symmetry_equiv_pos_site_id
 _symmetry_equiv_pos_as_xyz
  1  'x, y, z'
loop_
 _atom_site_type_symbol
 _atom_site_label
 _atom_site_symmetry_multiplicity
 _atom_site_fract_x
 _atom_site_fract_y
 _atom_site_fract_z
 _atom_site_occupancy
  Nb  Nb0  1  0.32020226  -0.32020226  0.70779381  1.0
  Nb  Nb1  1  0.67979774  -0.67979774  0.29220619  1.0
  Pd  Pd2  1  0.00000000  0.00000000  0.00000000  1.0
  S  S3  1  0.98111721  -0.98111721  0.76412516  1.0
  S  S4  1  0.01888279  -0.01888279  0.23587484  1.0
  S  S5  1  0.79334157  0.20665843  0.86705479  1.0
  S  S6  1  1.20665843  -0.20665843  0.13294521  1.0
  S  S7  1  0.66976654  0.33023346  0.53599165  1.0
  S  S8  1  1.33023346  -0.33023346  0.46400835  1.0
