# generated using pymatgen
data_Ba3NaIrO6
_symmetry_space_group_name_H-M   'P 1'
_cell_length_a   7.13183274
_cell_length_b   7.13183274
_cell_length_c   7.13183274
_cell_angle_alpha   91.40237958
_cell_angle_beta   91.40237958
_cell_angle_gamma   91.40237957
_symmetry_Int_Tables_number   1
_chemical_formula_structural   Ba3NaIrO6
_chemical_formula_sum   'Ba6 Na2 Ir2 O12'
_cell_volume   362.41530594
_cell_formula_units_Z   2
loop_
 _symmetry_equiv_pos_site_id
 _symmetry_equiv_pos_as_xyz
  1  'x, y, z'
loop_
 _atom_site_type_symbol
 _atom_site_label
 _atom_site_symmetry_multiplicity
 _atom_site_fract_x
 _atom_site_fract_y
 _atom_site_fract_z
 _atom_site_occupancy
  Ba  Ba0  1  0.89384586  1.25000000  -0.39384586  1.0
  Ba  Ba1  1  1.39384586  0.10615414  -0.25000000  1.0
  Ba  Ba2  1  0.75000000  0.39384586  0.10615414  1.0
  Ba  Ba3  1  1.25000000  0.60615414  -0.10615414  1.0
  Ba  Ba4  1  1.10615414  -0.25000000  0.39384586  1.0
  Ba  Ba5  1  0.60615414  0.89384586  0.25000000  1.0
  Na  Na6  1  0.25000000  0.25000000  0.25000000  1.0
  Na  Na7  1  0.75000000  0.75000000  0.75000000  1.0
  Ir  Ir8  1  0.50000000  0.50000000  0.50000000  1.0
  Ir  Ir9  1  0.00000000  0.00000000  0.00000000  1.0
  O  O10  1  1.23353335  0.41851981  -0.44822490  1.0
  O  O11  1  0.73353335  1.05177510  -0.08148019  1.0
  O  O12  1  0.94822490  0.08148019  0.26646665  1.0
  O  O13  1  1.44822490  -0.23353335  0.58148019  1.0
  O  O14  1  1.58148019  0.44822490  -0.23353335  1.0
  O  O15  1  1.08148019  0.26646665  -0.05177510  1.0
  O  O16  1  0.76646665  0.58148019  0.44822490  1.0
  O  O17  1  1.26646665  -0.05177510  0.08148019  1.0
  O  O18  1  0.55177510  1.23353335  -0.58148019  1.0
  O  O19  1  1.05177510  0.91851981  -0.26646665  1.0
  O  O20  1  0.91851981  0.73353335  0.05177510  1.0
  O  O21  1  0.41851981  0.55177510  0.23353335  1.0
