# generated using pymatgen
data_Ag2BiO3
_symmetry_space_group_name_H-M   'P 1'
_cell_length_a   6.14166771
_cell_length_b   6.32501483
_cell_length_c   9.76625922
_cell_angle_alpha   90.00000000
_cell_angle_beta   90.00000000
_cell_angle_gamma   90.00000000
_symmetry_Int_Tables_number   1
_chemical_formula_structural   Ag2BiO3
_chemical_formula_sum   'Ag8 Bi4 O12'
_cell_volume   379.38146634
_cell_formula_units_Z   4
loop_
 _symmetry_equiv_pos_site_id
 _symmetry_equiv_pos_as_xyz
  1  'x, y, z'
loop_
 _atom_site_type_symbol
 _atom_site_label
 _atom_site_symmetry_multiplicity
 _atom_site_fract_x
 _atom_site_fract_y
 _atom_site_fract_z
 _atom_site_occupancy
  Ag  Ag0  1  0.24662210  0.50046261  0.90430021  1.0
  Ag  Ag1  1  0.74662210  0.99953739  0.40430021  1.0
  Ag  Ag2  1  0.75337790  0.49953739  0.90430021  1.0
  Ag  Ag3  1  0.25337790  0.00046261  0.40430021  1.0
  Ag  Ag4  1  0.02904833  0.75107861  0.64835499  1.0
  Ag  Ag5  1  0.52904833  0.74892139  0.14835499  1.0
  Ag  Ag6  1  0.97095167  0.24892139  0.64835499  1.0
  Ag  Ag7  1  0.47095167  0.25107861  0.14835499  1.0
  Bi  Bi8  1  0.50000000  0.00000000  0.79426056  1.0
  Bi  Bi9  1  0.00000000  0.50000000  0.29426056  1.0
  Bi  Bi10  1  0.50000000  0.50000000  0.50208680  1.0
  Bi  Bi11  1  0.00000000  0.00000000  0.00208680  1.0
  O  O12  1  0.39129008  0.72348054  0.65199443  1.0
  O  O13  1  0.89129008  0.77651946  0.15199443  1.0
  O  O14  1  0.60870992  0.27651946  0.65199443  1.0
  O  O15  1  0.10870992  0.22348054  0.15199443  1.0
  O  O16  1  0.30592609  0.81974499  0.96637817  1.0
  O  O17  1  0.80592609  0.68025501  0.46637817  1.0
  O  O18  1  0.69407391  0.18025501  0.96637817  1.0
  O  O19  1  0.19407391  0.31974499  0.46637817  1.0
  O  O20  1  0.82371415  0.81545467  0.84104852  1.0
  O  O21  1  0.32371415  0.68454533  0.34104852  1.0
  O  O22  1  0.17628585  0.18454533  0.84104852  1.0
  O  O23  1  0.67628585  0.31545467  0.34104852  1.0
