# generated using pymatgen
data_YNiSn2
_symmetry_space_group_name_H-M   'P 1'
_cell_length_a   16.16623051
_cell_length_b   4.45423104
_cell_length_c   14.69029494
_cell_angle_alpha   90.00000000
_cell_angle_beta   90.00000000
_cell_angle_gamma   90.00000000
_symmetry_Int_Tables_number   1
_chemical_formula_structural   YNiSn2
_chemical_formula_sum   'Y12 Ni12 Sn24'
_cell_volume   1057.82060509
_cell_formula_units_Z   12
loop_
 _symmetry_equiv_pos_site_id
 _symmetry_equiv_pos_as_xyz
  1  'x, y, z'
loop_
 _atom_site_type_symbol
 _atom_site_label
 _atom_site_symmetry_multiplicity
 _atom_site_fract_x
 _atom_site_fract_y
 _atom_site_fract_z
 _atom_site_occupancy
  Y  Y0  1  0.37361435  0.75000000  0.27187895  1.0
  Y  Y1  1  0.87361435  0.75000000  0.22812105  1.0
  Y  Y2  1  0.62638565  0.25000000  0.72812105  1.0
  Y  Y3  1  0.12638565  0.25000000  0.77187895  1.0
  Y  Y4  1  0.34926898  0.75000000  0.52837032  1.0
  Y  Y5  1  0.84926898  0.75000000  0.97162968  1.0
  Y  Y6  1  0.65073102  0.25000000  0.47162968  1.0
  Y  Y7  1  0.15073102  0.25000000  0.02837032  1.0
  Y  Y8  1  0.14572126  0.75000000  0.39475118  1.0
  Y  Y9  1  0.64572126  0.75000000  0.10524882  1.0
  Y  Y10  1  0.85427874  0.25000000  0.60524882  1.0
  Y  Y11  1  0.35427874  0.25000000  0.89475118  1.0
  Ni  Ni12  1  0.30434479  0.75000000  0.75315475  1.0
  Ni  Ni13  1  0.80434479  0.75000000  0.74684525  1.0
  Ni  Ni14  1  0.69565521  0.25000000  0.24684525  1.0
  Ni  Ni15  1  0.19565521  0.25000000  0.25315475  1.0
  Ni  Ni16  1  0.29952016  0.75000000  0.04514901  1.0
  Ni  Ni17  1  0.79952016  0.75000000  0.45485099  1.0
  Ni  Ni18  1  0.70047984  0.25000000  0.95485099  1.0
  Ni  Ni19  1  0.20047984  0.25000000  0.54514901  1.0
  Ni  Ni20  1  0.05185987  0.75000000  0.89529919  1.0
  Ni  Ni21  1  0.55185987  0.75000000  0.60470081  1.0
  Ni  Ni22  1  0.94814013  0.25000000  0.10470081  1.0
  Ni  Ni23  1  0.44814013  0.25000000  0.39529919  1.0
  Sn  Sn24  1  0.46677612  0.75000000  0.75951215  1.0
  Sn  Sn25  1  0.96677612  0.75000000  0.74048785  1.0
  Sn  Sn26  1  0.53322388  0.25000000  0.24048785  1.0
  Sn  Sn27  1  0.03322388  0.25000000  0.25951215  1.0
  Sn  Sn28  1  0.45643672  0.75000000  0.05027674  1.0
  Sn  Sn29  1  0.95643672  0.75000000  0.44972326  1.0
  Sn  Sn30  1  0.54356328  0.25000000  0.94972326  1.0
  Sn  Sn31  1  0.04356328  0.25000000  0.55027674  1.0
  Sn  Sn32  1  0.21412556  0.75000000  0.89521507  1.0
  Sn  Sn33  1  0.71412556  0.75000000  0.60478493  1.0
  Sn  Sn34  1  0.78587444  0.25000000  0.10478493  1.0
  Sn  Sn35  1  0.28587444  0.25000000  0.39521507  1.0
  Sn  Sn36  1  0.18518130  0.75000000  0.17618560  1.0
  Sn  Sn37  1  0.68518130  0.75000000  0.32381440  1.0
  Sn  Sn38  1  0.81481870  0.25000000  0.82381440  1.0
  Sn  Sn39  1  0.31481870  0.25000000  0.67618560  1.0
  Sn  Sn40  1  0.17349978  0.75000000  0.62929324  1.0
  Sn  Sn41  1  0.67349978  0.75000000  0.87070676  1.0
  Sn  Sn42  1  0.82650022  0.25000000  0.37070676  1.0
  Sn  Sn43  1  0.32650022  0.25000000  0.12929324  1.0
  Sn  Sn44  1  0.02058112  0.75000000  0.07857319  1.0
  Sn  Sn45  1  0.52058112  0.75000000  0.42142681  1.0
  Sn  Sn46  1  0.97941888  0.25000000  0.92142681  1.0
  Sn  Sn47  1  0.47941888  0.25000000  0.57857319  1.0
