# generated using pymatgen
data_B3Ir
_symmetry_space_group_name_H-M   'P 1'
_cell_length_a   2.92719513
_cell_length_b   2.92719513
_cell_length_c   9.25594918
_cell_angle_alpha   90.00000000
_cell_angle_beta   90.00000000
_cell_angle_gamma   120.00000000
_symmetry_Int_Tables_number   1
_chemical_formula_structural   B3Ir
_chemical_formula_sum   'B6 Ir2'
_cell_volume   68.68389905
_cell_formula_units_Z   2
loop_
 _symmetry_equiv_pos_site_id
 _symmetry_equiv_pos_as_xyz
  1  'x, y, z'
loop_
 _atom_site_type_symbol
 _atom_site_label
 _atom_site_symmetry_multiplicity
 _atom_site_fract_x
 _atom_site_fract_y
 _atom_site_fract_z
 _atom_site_occupancy
  B  B0  1  0.00000000  0.00000000  0.75000000  1.0
  B  B1  1  0.00000000  0.00000000  0.25000000  1.0
  B  B2  1  0.33333333  0.66666667  0.33575211  1.0
  B  B3  1  0.66666667  0.33333333  0.66424789  1.0
  B  B4  1  0.66666667  0.33333333  0.83575211  1.0
  B  B5  1  0.33333333  0.66666667  0.16424789  1.0
  Ir  Ir6  1  0.00000000  0.00000000  0.50000000  1.0
  Ir  Ir7  1  0.00000000  0.00000000  0.00000000  1.0
