# generated using pymatgen
data_SiO2
_symmetry_space_group_name_H-M   'P 1'
_cell_length_a   6.99856875
_cell_length_b   6.99856875
_cell_length_c   5.20267412
_cell_angle_alpha   70.57189648
_cell_angle_beta   109.42810352
_cell_angle_gamma   102.88767042
_symmetry_Int_Tables_number   1
_chemical_formula_structural   SiO2
_chemical_formula_sum   'Si4 O8'
_cell_volume   224.81581983
_cell_formula_units_Z   4
loop_
 _symmetry_equiv_pos_site_id
 _symmetry_equiv_pos_as_xyz
  1  'x, y, z'
loop_
 _atom_site_type_symbol
 _atom_site_label
 _atom_site_symmetry_multiplicity
 _atom_site_fract_x
 _atom_site_fract_y
 _atom_site_fract_z
 _atom_site_occupancy
  Si  Si0  1  1.05894443  0.74224621  0.37648059  1.0
  Si  Si1  1  1.74224621  0.05894443  0.12351941  1.0
  Si  Si2  1  0.94105557  -0.74224621  0.62351941  1.0
  Si  Si3  1  0.25775379  -0.05894443  0.87648059  1.0
  O  O4  1  1.14944480  0.14944480  0.75000000  1.0
  O  O5  1  0.85055520  -0.14944480  0.25000000  1.0
  O  O6  1  0.83542553  -0.77888569  0.87407626  1.0
  O  O7  1  0.22111431  -0.16457447  0.62592374  1.0
  O  O8  1  1.16457447  0.77888569  0.12592374  1.0
  O  O9  1  1.77888569  0.16457447  0.37407626  1.0
  O  O10  1  1.50000000  -0.00000000  0.00000000  1.0
  O  O11  1  1.00000000  -0.50000000  0.50000000  1.0
