# generated using pymatgen
data_Na3P11
_symmetry_space_group_name_H-M   'P 1'
_cell_length_a   9.92428530
_cell_length_b   12.63009488
_cell_length_c   10.64981491
_cell_angle_alpha   90.00000000
_cell_angle_beta   90.00000000
_cell_angle_gamma   90.00000000
_symmetry_Int_Tables_number   1
_chemical_formula_structural   Na3P11
_chemical_formula_sum   'Na12 P44'
_cell_volume   1334.89748166
_cell_formula_units_Z   4
loop_
 _symmetry_equiv_pos_site_id
 _symmetry_equiv_pos_as_xyz
  1  'x, y, z'
loop_
 _atom_site_type_symbol
 _atom_site_label
 _atom_site_symmetry_multiplicity
 _atom_site_fract_x
 _atom_site_fract_y
 _atom_site_fract_z
 _atom_site_occupancy
  Na  Na0  1  0.25258205  0.49166129  0.07798683  1.0
  Na  Na1  1  0.25258205  0.50833871  0.57798683  1.0
  Na  Na2  1  0.75258205  0.99166129  0.42201317  1.0
  Na  Na3  1  0.75258205  0.00833871  0.92201317  1.0
  Na  Na4  1  0.74741795  0.49166129  0.42201317  1.0
  Na  Na5  1  0.74741795  0.50833871  0.92201317  1.0
  Na  Na6  1  0.24741795  0.99166129  0.07798683  1.0
  Na  Na7  1  0.24741795  0.00833871  0.57798683  1.0
  Na  Na8  1  0.50000000  0.75057207  0.25000000  1.0
  Na  Na9  1  0.50000000  0.24942793  0.75000000  1.0
  Na  Na10  1  0.00000000  0.25057207  0.25000000  1.0
  Na  Na11  1  0.00000000  0.74942793  0.75000000  1.0
  P  P12  1  0.47621840  0.35241094  0.00907832  1.0
  P  P13  1  0.47621840  0.64758906  0.50907832  1.0
  P  P14  1  0.97621840  0.85241094  0.49092168  1.0
  P  P15  1  0.97621840  0.14758906  0.99092168  1.0
  P  P16  1  0.52378160  0.35241094  0.49092168  1.0
  P  P17  1  0.52378160  0.64758906  0.99092168  1.0
  P  P18  1  0.02378160  0.85241094  0.00907832  1.0
  P  P19  1  0.02378160  0.14758906  0.50907832  1.0
  P  P20  1  0.41717345  0.11210791  0.38193945  1.0
  P  P21  1  0.41717345  0.88789209  0.88193945  1.0
  P  P22  1  0.91717345  0.61210791  0.11806055  1.0
  P  P23  1  0.91717345  0.38789209  0.61806055  1.0
  P  P24  1  0.58282655  0.11210791  0.11806055  1.0
  P  P25  1  0.58282655  0.88789209  0.61806055  1.0
  P  P26  1  0.08282655  0.61210791  0.38193945  1.0
  P  P27  1  0.08282655  0.38789209  0.88193945  1.0
  P  P28  1  0.41353997  0.38512170  0.31660301  1.0
  P  P29  1  0.41353997  0.61487830  0.81660301  1.0
  P  P30  1  0.91353997  0.88512170  0.18339699  1.0
  P  P31  1  0.91353997  0.11487830  0.68339699  1.0
  P  P32  1  0.58646003  0.38512170  0.18339699  1.0
  P  P33  1  0.58646003  0.61487830  0.68339699  1.0
  P  P34  1  0.08646003  0.88512170  0.31660301  1.0
  P  P35  1  0.08646003  0.11487830  0.81660301  1.0
  P  P36  1  0.39587712  0.20010397  0.07039940  1.0
  P  P37  1  0.39587712  0.79989603  0.57039940  1.0
  P  P38  1  0.89587712  0.70010397  0.42960060  1.0
  P  P39  1  0.89587712  0.29989603  0.92960060  1.0
  P  P40  1  0.60412288  0.20010397  0.42960060  1.0
  P  P41  1  0.60412288  0.79989603  0.92960060  1.0
  P  P42  1  0.10412288  0.70010397  0.07039940  1.0
  P  P43  1  0.10412288  0.29989603  0.57039940  1.0
  P  P44  1  0.30849076  0.23233759  0.26310871  1.0
  P  P45  1  0.30849076  0.76766241  0.76310871  1.0
  P  P46  1  0.80849076  0.73233759  0.23689129  1.0
  P  P47  1  0.80849076  0.26766241  0.73689129  1.0
  P  P48  1  0.69150924  0.23233759  0.23689129  1.0
  P  P49  1  0.69150924  0.76766241  0.73689129  1.0
  P  P50  1  0.19150924  0.73233759  0.26310871  1.0
  P  P51  1  0.19150924  0.26766241  0.76310871  1.0
  P  P52  1  0.50000000  0.99670130  0.25000000  1.0
  P  P53  1  0.50000000  0.00329870  0.75000000  1.0
  P  P54  1  0.00000000  0.49670130  0.25000000  1.0
  P  P55  1  0.00000000  0.50329870  0.75000000  1.0
