# generated using pymatgen
data_LiAlSi2H2O7
_symmetry_space_group_name_H-M   'P 1'
_cell_length_a   7.70291746
_cell_length_b   4.99036340
_cell_length_c   8.69934664
_cell_angle_alpha   90.01839341
_cell_angle_beta   114.45315800
_cell_angle_gamma   90.11220470
_symmetry_Int_Tables_number   1
_chemical_formula_structural   LiAlSi2H2O7
_chemical_formula_sum   'Li2 Al2 Si4 H4 O14'
_cell_volume   304.40895642
_cell_formula_units_Z   2
loop_
 _symmetry_equiv_pos_site_id
 _symmetry_equiv_pos_as_xyz
  1  'x, y, z'
loop_
 _atom_site_type_symbol
 _atom_site_label
 _atom_site_symmetry_multiplicity
 _atom_site_fract_x
 _atom_site_fract_y
 _atom_site_fract_z
 _atom_site_occupancy
  Li  Li0  1  -0.83966715  -0.36626181  -0.68660501  1.0
  Li  Li1  1  -0.11807175  -0.86835075  -0.30048183  1.0
  Al  Al2  1  -0.05401301  -0.87575911  -0.62022678  1.0
  Al  Al3  1  -0.08469722  -0.36567859  -0.09950951  1.0
  Si  Si4  1  -0.89398845  -0.86594804  -0.89312257  1.0
  Si  Si5  1  -0.48818758  -0.80432981  -0.89642469  1.0
  Si  Si6  1  -0.50513254  -0.30256625  -0.10750170  1.0
  Si  Si7  1  -0.92839478  -0.37622262  -0.37958294  1.0
  H  H8  1  -0.50684459  -0.31281121  -0.67668514  1.0
  H  H9  1  -0.49949378  -0.16904924  -0.51644134  1.0
  H  H10  1  -0.44922015  -0.81568672  -0.31226366  1.0
  H  H11  1  -0.45563888  -0.66683988  -0.47102415  1.0
  O  O12  1  -0.93186445  -0.73796289  -0.73602423  1.0
  O  O13  1  -0.94723474  -0.18562068  -0.91203869  1.0
  O  O14  1  -0.66547409  -0.83002184  -0.84059536  1.0
  O  O15  1  -0.47626634  -0.48658331  -0.94167263  1.0
  O  O16  1  -0.29829917  -0.90067605  -0.74111565  1.0
  O  O17  1  -0.95761435  -0.19708011  -0.54608663  1.0
  O  O18  1  -0.55042888  -0.33105174  -0.58656302  1.0
  O  O19  1  -0.03432365  -0.24172146  -0.26898562  1.0
  O  O20  1  -0.01923353  -0.70887974  -0.07014768  1.0
  O  O21  1  -0.32799315  -0.32913805  -0.15833042  1.0
  O  O22  1  -0.53192178  -0.98712149  -0.06618783  1.0
  O  O23  1  -0.69765430  -0.40269520  -0.26658685  1.0
  O  O24  1  -0.01395987  -0.67747727  -0.43950577  1.0
  O  O25  1  -0.40668182  -0.83106616  -0.40309030  1.0
