# generated using pymatgen
data_Na3H5(CO2)4
_symmetry_space_group_name_H-M   'P 1'
_cell_length_a   3.58305374
_cell_length_b   8.58830729
_cell_length_c   8.57816029
_cell_angle_alpha   113.13224540
_cell_angle_beta   100.86039794
_cell_angle_gamma   87.19643745
_symmetry_Int_Tables_number   1
_chemical_formula_structural   Na3H5(CO2)4
_chemical_formula_sum   'Na3 H5 C4 O8'
_cell_volume   238.30727240
_cell_formula_units_Z   1
loop_
 _symmetry_equiv_pos_site_id
 _symmetry_equiv_pos_as_xyz
  1  'x, y, z'
loop_
 _atom_site_type_symbol
 _atom_site_label
 _atom_site_symmetry_multiplicity
 _atom_site_fract_x
 _atom_site_fract_y
 _atom_site_fract_z
 _atom_site_occupancy
  Na  Na0  1  0.00000000  0.00000000  0.00000000  1.0
  Na  Na1  1  0.27664051  0.83125436  -0.46895532  1.0
  Na  Na2  1  0.72335949  0.16874564  -0.53104468  1.0
  H  H3  1  0.90983231  0.38061062  -0.83713272  1.0
  H  H4  1  0.09016769  0.61938938  -0.16286728  1.0
  H  H5  1  0.44263061  0.35152749  -0.14139667  1.0
  H  H6  1  0.55736939  0.64847251  -0.85860333  1.0
  H  H7  1  0.50000000  0.50000000  -0.50000000  1.0
  C  C8  1  0.10863322  0.37354158  -0.72466700  1.0
  C  C9  1  0.89136678  0.62645842  -0.27533300  1.0
  C  C10  1  0.39729684  0.21106062  -0.18995391  1.0
  C  C11  1  0.60270316  0.78893938  -0.81004609  1.0
  O  O12  1  0.14250468  0.23675338  -0.70485251  1.0
  O  O13  1  0.85749532  0.76324662  -0.29514749  1.0
  O  O14  1  0.28930713  0.51384993  -0.62283515  1.0
  O  O15  1  0.71069287  0.48615007  -0.37716485  1.0
  O  O16  1  0.44661544  0.14612498  -0.07936887  1.0
  O  O17  1  0.55338456  0.85387502  -0.92063113  1.0
  O  O18  1  0.30206478  0.13379613  -0.35225092  1.0
  O  O19  1  0.69793522  0.86620387  -0.64774908  1.0
