# generated using pymatgen
data_Yb4Al
_symmetry_space_group_name_H-M   'P 1'
_cell_length_a   8.05108633
_cell_length_b   8.05108633
_cell_length_c   8.05108633
_cell_angle_alpha   60.00000000
_cell_angle_beta   60.00000000
_cell_angle_gamma   60.00000000
_symmetry_Int_Tables_number   1
_chemical_formula_structural   Yb4Al
_chemical_formula_sum   'Yb8 Al2'
_cell_volume   369.01876665
_cell_formula_units_Z   2
loop_
 _symmetry_equiv_pos_site_id
 _symmetry_equiv_pos_as_xyz
  1  'x, y, z'
loop_
 _atom_site_type_symbol
 _atom_site_label
 _atom_site_symmetry_multiplicity
 _atom_site_fract_x
 _atom_site_fract_y
 _atom_site_fract_z
 _atom_site_occupancy
  Yb  Yb0  1  -0.10666370  0.89333630  0.31999110  1.0
  Yb  Yb1  1  0.89333630  -0.68000890  0.89333630  1.0
  Yb  Yb2  1  0.35666370  0.35666370  0.35666370  1.0
  Yb  Yb3  1  -0.06999110  0.35666370  0.35666370  1.0
  Yb  Yb4  1  -0.68000890  0.89333630  0.89333630  1.0
  Yb  Yb5  1  0.89333630  -0.10666370  0.89333630  1.0
  Yb  Yb6  1  0.35666370  -0.06999110  0.35666370  1.0
  Yb  Yb7  1  0.35666370  0.35666370  -0.06999110  1.0
  Al  Al8  1  0.50000000  0.50000000  -0.50000000  1.0
  Al  Al9  1  0.75000000  -0.25000000  0.75000000  1.0
