# generated using pymatgen
data_Ba2ZnTe3
_symmetry_space_group_name_H-M   'P 1'
_cell_length_a   9.86355879
_cell_length_b   4.72073164
_cell_length_c   19.05672415
_cell_angle_alpha   90.00000000
_cell_angle_beta   90.00000000
_cell_angle_gamma   90.00000000
_symmetry_Int_Tables_number   1
_chemical_formula_structural   Ba2ZnTe3
_chemical_formula_sum   'Ba8 Zn4 Te12'
_cell_volume   887.34232580
_cell_formula_units_Z   4
loop_
 _symmetry_equiv_pos_site_id
 _symmetry_equiv_pos_as_xyz
  1  'x, y, z'
loop_
 _atom_site_type_symbol
 _atom_site_label
 _atom_site_symmetry_multiplicity
 _atom_site_fract_x
 _atom_site_fract_y
 _atom_site_fract_z
 _atom_site_occupancy
  Ba  Ba0  1  0.24339028  0.25000000  0.54143665  1.0
  Ba  Ba1  1  0.74339028  0.25000000  0.95856335  1.0
  Ba  Ba2  1  0.75660972  0.75000000  0.45856335  1.0
  Ba  Ba3  1  0.25660972  0.75000000  0.04143665  1.0
  Ba  Ba4  1  0.41705815  0.25000000  0.28803235  1.0
  Ba  Ba5  1  0.91705815  0.25000000  0.21196765  1.0
  Ba  Ba6  1  0.58294185  0.75000000  0.71196765  1.0
  Ba  Ba7  1  0.08294185  0.75000000  0.78803235  1.0
  Zn  Zn8  1  0.35893866  0.25000000  0.86325756  1.0
  Zn  Zn9  1  0.85893866  0.25000000  0.63674244  1.0
  Zn  Zn10  1  0.64106134  0.75000000  0.13674244  1.0
  Zn  Zn11  1  0.14106134  0.75000000  0.36325756  1.0
  Te  Te12  1  0.00481786  0.25000000  0.39790692  1.0
  Te  Te13  1  0.50481786  0.25000000  0.10209308  1.0
  Te  Te14  1  0.99518214  0.75000000  0.60209308  1.0
  Te  Te15  1  0.49518214  0.75000000  0.89790692  1.0
  Te  Te16  1  0.12092551  0.25000000  0.93035354  1.0
  Te  Te17  1  0.62092551  0.25000000  0.56964646  1.0
  Te  Te18  1  0.87907449  0.75000000  0.06964646  1.0
  Te  Te19  1  0.37907449  0.75000000  0.43035354  1.0
  Te  Te20  1  0.31737645  0.25000000  0.72394564  1.0
  Te  Te21  1  0.81737645  0.25000000  0.77605436  1.0
  Te  Te22  1  0.68262355  0.75000000  0.27605436  1.0
  Te  Te23  1  0.18262355  0.75000000  0.22394564  1.0
