# generated using pymatgen
data_HgMoO4
_symmetry_space_group_name_H-M   'P 1'
_cell_length_a   6.46688327
_cell_length_b   6.46688327
_cell_length_c   5.23073511
_cell_angle_alpha   71.86670204
_cell_angle_beta   108.13329796
_cell_angle_gamma   120.80419925
_symmetry_Int_Tables_number   1
_chemical_formula_structural   HgMoO4
_chemical_formula_sum   'Hg2 Mo2 O8'
_cell_volume   175.44288023
_cell_formula_units_Z   2
loop_
 _symmetry_equiv_pos_site_id
 _symmetry_equiv_pos_as_xyz
  1  'x, y, z'
loop_
 _atom_site_type_symbol
 _atom_site_label
 _atom_site_symmetry_multiplicity
 _atom_site_fract_x
 _atom_site_fract_y
 _atom_site_fract_z
 _atom_site_occupancy
  Hg  Hg0  1  0.50000000  0.00000000  0.50000000  1.0
  Hg  Hg1  1  1.00000000  0.50000000  -0.00000000  1.0
  Mo  Mo2  1  0.81333464  0.81333464  0.25000000  1.0
  Mo  Mo3  1  0.18666536  0.18666536  0.75000000  1.0
  O  O4  1  0.81197976  0.01091448  0.46467508  1.0
  O  O5  1  0.98908552  0.18802024  0.96467508  1.0
  O  O6  1  1.01091448  0.81197976  0.03532492  1.0
  O  O7  1  0.18802024  -0.01091448  0.53532492  1.0
  O  O8  1  0.53435470  -0.24215819  0.03225339  1.0
  O  O9  1  1.24215819  0.46564530  0.53225339  1.0
  O  O10  1  0.75784181  0.53435470  0.46774661  1.0
  O  O11  1  0.46564530  0.24215819  0.96774661  1.0
