# generated using pymatgen
data_LiFePO4
_symmetry_space_group_name_H-M   'P 1'
_cell_length_a   10.47611478
_cell_length_b   6.05856793
_cell_length_c   4.82551076
_cell_angle_alpha   90.00000000
_cell_angle_beta   90.00000000
_cell_angle_gamma   90.00000000
_symmetry_Int_Tables_number   1
_chemical_formula_structural   LiFePO4
_chemical_formula_sum   'Li4 Fe4 P4 O16'
_cell_volume   306.27638930
_cell_formula_units_Z   4
loop_
 _symmetry_equiv_pos_site_id
 _symmetry_equiv_pos_as_xyz
  1  'x, y, z'
loop_
 _atom_site_type_symbol
 _atom_site_label
 _atom_site_symmetry_multiplicity
 _atom_site_fract_x
 _atom_site_fract_y
 _atom_site_fract_z
 _atom_site_occupancy
  Li  Li0  1  0.78789768  0.25000000  0.51711400  1.0
  Li  Li1  1  0.28789768  0.25000000  0.98288600  1.0
  Li  Li2  1  0.21210232  0.75000000  0.48288600  1.0
  Li  Li3  1  0.71210232  0.75000000  0.01711400  1.0
  Fe  Fe4  1  0.00000000  0.50000000  -0.00000000  1.0
  Fe  Fe5  1  0.00000000  0.00000000  0.00000000  1.0
  Fe  Fe6  1  0.50000000  0.50000000  0.50000000  1.0
  Fe  Fe7  1  0.50000000  0.00000000  0.50000000  1.0
  P  P8  1  0.59564404  0.25000000  0.08241502  1.0
  P  P9  1  0.09564404  0.25000000  0.41758498  1.0
  P  P10  1  0.40435596  0.75000000  0.91758498  1.0
  P  P11  1  0.90435596  0.75000000  0.58241502  1.0
  O  O12  1  0.65786768  0.46023192  0.20932119  1.0
  O  O13  1  0.65786768  0.03976808  0.20932119  1.0
  O  O14  1  0.15786768  0.46023192  0.29067881  1.0
  O  O15  1  0.15786768  0.03976808  0.29067881  1.0
  O  O16  1  0.34213232  0.96023192  0.79067881  1.0
  O  O17  1  0.34213232  0.53976808  0.79067881  1.0
  O  O18  1  0.84213232  0.96023192  0.70932119  1.0
  O  O19  1  0.84213232  0.53976808  0.70932119  1.0
  O  O20  1  0.59345384  0.25000000  0.75873629  1.0
  O  O21  1  0.09345384  0.25000000  0.74126371  1.0
  O  O22  1  0.40654616  0.75000000  0.24126371  1.0
  O  O23  1  0.90654616  0.75000000  0.25873629  1.0
  O  O24  1  0.95375574  0.25000000  0.29477026  1.0
  O  O25  1  0.45375574  0.25000000  0.20522974  1.0
  O  O26  1  0.04624426  0.75000000  0.70522974  1.0
  O  O27  1  0.54624426  0.75000000  0.79477026  1.0
