# generated using pymatgen
data_GePb3O5
_symmetry_space_group_name_H-M   'P 1'
_cell_length_a   5.33685313
_cell_length_b   5.50636316
_cell_length_c   5.45316981
_cell_angle_alpha   90.00000000
_cell_angle_beta   89.10136929
_cell_angle_gamma   90.00000000
_symmetry_Int_Tables_number   1
_chemical_formula_structural   GePb3O5
_chemical_formula_sum   'Ge1 Pb3 O5'
_cell_volume   160.23069097
_cell_formula_units_Z   1
loop_
 _symmetry_equiv_pos_site_id
 _symmetry_equiv_pos_as_xyz
  1  'x, y, z'
loop_
 _atom_site_type_symbol
 _atom_site_label
 _atom_site_symmetry_multiplicity
 _atom_site_fract_x
 _atom_site_fract_y
 _atom_site_fract_z
 _atom_site_occupancy
  Ge  Ge0  1  0.00000000  0.48234345  0.50000000  1.0
  Pb  Pb1  1  0.50000000  -0.02136835  0.50000000  1.0
  Pb  Pb2  1  0.50000000  0.45202416  -0.00000000  1.0
  Pb  Pb3  1  0.00000000  -0.01889813  0.00000000  1.0
  O  O4  1  0.85715549  0.29326658  0.27644859  1.0
  O  O5  1  0.14284451  0.29326658  0.72355141  1.0
  O  O6  1  0.77030276  0.66788584  0.64737465  1.0
  O  O7  1  0.22969724  0.66788584  0.35262535  1.0
  O  O8  1  0.50000000  0.03359404  -0.00000000  1.0
