# generated using pymatgen
data_AuF5
_symmetry_space_group_name_H-M   'P 1'
_cell_length_a   10.00830162
_cell_length_b   15.65799371
_cell_length_c   5.14970257
_cell_angle_alpha   90.00000000
_cell_angle_beta   90.00000000
_cell_angle_gamma   90.00000000
_symmetry_Int_Tables_number   1
_chemical_formula_structural   AuF5
_chemical_formula_sum   'Au8 F40'
_cell_volume   807.00949709
_cell_formula_units_Z   8
loop_
 _symmetry_equiv_pos_site_id
 _symmetry_equiv_pos_as_xyz
  1  'x, y, z'
loop_
 _atom_site_type_symbol
 _atom_site_label
 _atom_site_symmetry_multiplicity
 _atom_site_fract_x
 _atom_site_fract_y
 _atom_site_fract_z
 _atom_site_occupancy
  Au  Au0  1  0.35558472  0.85162517  0.93503786  1.0
  Au  Au1  1  0.35558472  0.64837483  0.93503786  1.0
  Au  Au2  1  0.85558472  0.85162517  0.56496214  1.0
  Au  Au3  1  0.85558472  0.64837483  0.56496214  1.0
  Au  Au4  1  0.64441528  0.35162517  0.06496214  1.0
  Au  Au5  1  0.64441528  0.14837483  0.06496214  1.0
  Au  Au6  1  0.14441528  0.35162517  0.43503786  1.0
  Au  Au7  1  0.14441528  0.14837483  0.43503786  1.0
  F  F8  1  0.52099024  0.35153862  0.77820373  1.0
  F  F9  1  0.52099024  0.14846138  0.77820373  1.0
  F  F10  1  1.02099024  0.35153862  0.72179627  1.0
  F  F11  1  1.02099024  0.14846138  0.72179627  1.0
  F  F12  1  0.47900976  0.85153862  0.22179627  1.0
  F  F13  1  0.47900976  0.64846138  0.22179627  1.0
  F  F14  1  -0.02099024  0.85153862  0.27820373  1.0
  F  F15  1  -0.02099024  0.64846138  0.27820373  1.0
  F  F16  1  0.45399937  0.93832753  0.76671629  1.0
  F  F17  1  0.45399937  0.56167247  0.76671629  1.0
  F  F18  1  0.95399937  0.93832753  0.73328371  1.0
  F  F19  1  0.95399937  0.56167247  0.73328371  1.0
  F  F20  1  0.54600063  0.43832753  0.23328371  1.0
  F  F21  1  0.54600063  0.06167247  0.23328371  1.0
  F  F22  1  0.04600063  0.43832753  0.26671629  1.0
  F  F23  1  0.04600063  0.06167247  0.26671629  1.0
  F  F24  1  0.23207558  0.84698049  0.64858936  1.0
  F  F25  1  0.23207558  0.65301951  0.64858936  1.0
  F  F26  1  0.73207558  0.84698049  0.85141064  1.0
  F  F27  1  0.73207558  0.65301951  0.85141064  1.0
  F  F28  1  0.76792442  0.34698049  0.35141064  1.0
  F  F29  1  0.76792442  0.15301951  0.35141064  1.0
  F  F30  1  0.26792442  0.34698049  0.14858936  1.0
  F  F31  1  0.26792442  0.15301951  0.14858936  1.0
  F  F32  1  0.24815195  0.43748053  0.59502759  1.0
  F  F33  1  0.24815195  0.06251947  0.59502759  1.0
  F  F34  1  0.74815195  0.43748053  0.90497241  1.0
  F  F35  1  0.74815195  0.06251947  0.90497241  1.0
  F  F36  1  0.75184805  0.93748053  0.40497241  1.0
  F  F37  1  0.75184805  0.56251947  0.40497241  1.0
  F  F38  1  0.25184805  0.93748053  0.09502759  1.0
  F  F39  1  0.25184805  0.56251947  0.09502759  1.0
  F  F40  1  0.45769308  0.75000000  0.77635563  1.0
  F  F41  1  0.95769308  0.75000000  0.72364437  1.0
  F  F42  1  0.54230692  0.25000000  0.22364437  1.0
  F  F43  1  0.04230692  0.25000000  0.27635563  1.0
  F  F44  1  0.25733384  0.75000000  0.10170317  1.0
  F  F45  1  0.75733384  0.75000000  0.39829683  1.0
  F  F46  1  0.74266616  0.25000000  0.89829683  1.0
  F  F47  1  0.24266616  0.25000000  0.60170317  1.0
