# generated using pymatgen
data_Zn3Ag(AsO4)3
_symmetry_space_group_name_H-M   'P 1'
_cell_length_a   8.79434430
_cell_length_b   8.79434430
_cell_length_c   6.92049330
_cell_angle_alpha   74.77499396
_cell_angle_beta   105.22500604
_cell_angle_gamma   84.31307827
_symmetry_Int_Tables_number   1
_chemical_formula_structural   Zn3Ag(AsO4)3
_chemical_formula_sum   'Zn6 Ag2 As6 O24'
_cell_volume   490.13692787
_cell_formula_units_Z   2
loop_
 _symmetry_equiv_pos_site_id
 _symmetry_equiv_pos_as_xyz
  1  'x, y, z'
loop_
 _atom_site_type_symbol
 _atom_site_label
 _atom_site_symmetry_multiplicity
 _atom_site_fract_x
 _atom_site_fract_y
 _atom_site_fract_z
 _atom_site_occupancy
  O  O0  1  0.72793164  -0.19480369  0.51949949  1.0
  O  O1  1  1.19480369  0.27206836  0.01949949  1.0
  O  O2  1  0.80519631  -0.27206836  0.98050051  1.0
  O  O3  1  1.27206836  0.19480369  0.48050051  1.0
  O  O4  1  1.86870402  0.13400728  0.42206401  1.0
  O  O5  1  0.86599272  -0.86870402  0.92206401  1.0
  O  O6  1  1.13400728  0.86870402  0.07793599  1.0
  O  O7  1  0.13129598  -0.13400728  0.57793599  1.0
  O  O8  1  1.61042772  0.02088293  0.68625730  1.0
  O  O9  1  0.97911707  -0.61042772  0.18625730  1.0
  O  O10  1  1.02088293  0.61042772  0.81374270  1.0
  O  O11  1  0.38957228  -0.02088293  0.31374270  1.0
  O  O12  1  1.32255611  0.02481125  0.86652626  1.0
  O  O13  1  0.97518875  -0.32255611  0.36652626  1.0
  O  O14  1  1.02481125  0.32255611  0.63347374  1.0
  O  O15  1  0.67744389  -0.02481125  0.13347374  1.0
  O  O16  1  0.49162651  -0.26587330  0.73523235  1.0
  O  O17  1  1.26587330  0.50837349  0.23523235  1.0
  O  O18  1  0.73412670  -0.50837349  0.76476765  1.0
  O  O19  1  1.50837349  0.26587330  0.26476765  1.0
  O  O20  1  1.52823058  0.28146144  0.83740941  1.0
  O  O21  1  0.71853856  -0.52823058  0.33740941  1.0
  O  O22  1  1.28146144  0.52823058  0.66259059  1.0
  O  O23  1  0.47176942  -0.28146144  0.16259059  1.0
  Ag  Ag24  1  1.00032337  0.00032337  0.75000000  1.0
  Ag  Ag25  1  0.99967663  -0.00032337  0.25000000  1.0
  As  As26  1  1.65711535  0.10908737  0.88630462  1.0
  As  As27  1  0.89091263  -0.65711535  0.38630462  1.0
  As  As28  1  1.10908737  0.65711535  0.61369538  1.0
  As  As29  1  0.34288465  -0.10908737  0.11369538  1.0
  As  As30  1  0.69164287  -0.30835713  0.75000000  1.0
  As  As31  1  1.30835713  0.30835713  0.25000000  1.0
  Zn  Zn32  1  0.37438075  -0.04362493  0.62008545  1.0
  Zn  Zn33  1  1.04362493  0.62561925  0.12008545  1.0
  Zn  Zn34  1  0.95637507  -0.62561925  0.87991455  1.0
  Zn  Zn35  1  1.62561925  0.04362493  0.37991455  1.0
  Zn  Zn36  1  1.28648241  0.28648241  0.75000000  1.0
  Zn  Zn37  1  0.71351759  -0.28648241  0.25000000  1.0
