# generated using pymatgen
data_TiZn16
_symmetry_space_group_name_H-M   'P 1'
_cell_length_a   6.87898773
_cell_length_b   6.87898773
_cell_length_c   11.74502159
_cell_angle_alpha   90.00000000
_cell_angle_beta   90.00000000
_cell_angle_gamma   112.01414039
_symmetry_Int_Tables_number   1
_chemical_formula_structural   TiZn16
_chemical_formula_sum   'Ti2 Zn32'
_cell_volume   515.25881442
_cell_formula_units_Z   2
loop_
 _symmetry_equiv_pos_site_id
 _symmetry_equiv_pos_as_xyz
  1  'x, y, z'
loop_
 _atom_site_type_symbol
 _atom_site_label
 _atom_site_symmetry_multiplicity
 _atom_site_fract_x
 _atom_site_fract_y
 _atom_site_fract_z
 _atom_site_occupancy
  Ti  Ti0  1  0.04728052  0.95271948  0.25000000  1.0
  Ti  Ti1  1  -0.04728052  1.04728052  0.75000000  1.0
  Zn  Zn2  1  0.01781846  0.64552900  0.42992856  1.0
  Zn  Zn3  1  0.01781846  0.64552900  0.07007144  1.0
  Zn  Zn4  1  -0.35447100  1.01781846  0.92992856  1.0
  Zn  Zn5  1  -0.35447100  1.01781846  0.57007144  1.0
  Zn  Zn6  1  0.35447100  0.98218154  0.42992856  1.0
  Zn  Zn7  1  0.35447100  0.98218154  0.07007144  1.0
  Zn  Zn8  1  -0.01781846  1.35447100  0.92992856  1.0
  Zn  Zn9  1  -0.01781846  1.35447100  0.57007144  1.0
  Zn  Zn10  1  0.24089010  0.34719481  0.36460967  1.0
  Zn  Zn11  1  0.24089010  0.34719481  0.13539033  1.0
  Zn  Zn12  1  -0.65280519  1.24089010  0.86460967  1.0
  Zn  Zn13  1  -0.65280519  1.24089010  0.63539033  1.0
  Zn  Zn14  1  0.65280519  0.75910990  0.36460967  1.0
  Zn  Zn15  1  0.65280519  0.75910990  0.13539033  1.0
  Zn  Zn16  1  -0.24089010  1.65280519  0.86460967  1.0
  Zn  Zn17  1  -0.24089010  1.65280519  0.63539033  1.0
  Zn  Zn18  1  -0.19073362  1.52257438  0.25000000  1.0
  Zn  Zn19  1  0.52257438  0.80926638  0.75000000  1.0
  Zn  Zn20  1  -0.52257438  1.19073362  0.25000000  1.0
  Zn  Zn21  1  0.19073362  0.47742562  0.75000000  1.0
  Zn  Zn22  1  0.17623998  0.82376002  0.85930201  1.0
  Zn  Zn23  1  0.17623998  0.82376002  0.64069799  1.0
  Zn  Zn24  1  -0.17623998  1.17623998  0.35930201  1.0
  Zn  Zn25  1  -0.17623998  1.17623998  0.14069799  1.0
  Zn  Zn26  1  -0.38126784  1.38126784  0.46934118  1.0
  Zn  Zn27  1  -0.38126784  1.38126784  0.03065882  1.0
  Zn  Zn28  1  0.38126784  0.61873216  0.96934118  1.0
  Zn  Zn29  1  0.38126784  0.61873216  0.53065882  1.0
  Zn  Zn30  1  0.28857088  0.71142912  0.25000000  1.0
  Zn  Zn31  1  -0.28857088  1.28857088  0.75000000  1.0
  Zn  Zn32  1  0.00000000  0.00000000  0.50000000  1.0
  Zn  Zn33  1  0.00000000  0.00000000  0.00000000  1.0
