# generated using pymatgen
data_ZrSe3
_symmetry_space_group_name_H-M   'P 1'
_cell_length_a   5.47957504
_cell_length_b   3.77810040
_cell_length_c   10.27284756
_cell_angle_alpha   90.00000000
_cell_angle_beta   94.26451548
_cell_angle_gamma   90.00000000
_symmetry_Int_Tables_number   1
_chemical_formula_structural   ZrSe3
_chemical_formula_sum   'Zr2 Se6'
_cell_volume   212.08363206
_cell_formula_units_Z   2
loop_
 _symmetry_equiv_pos_site_id
 _symmetry_equiv_pos_as_xyz
  1  'x, y, z'
loop_
 _atom_site_type_symbol
 _atom_site_label
 _atom_site_symmetry_multiplicity
 _atom_site_fract_x
 _atom_site_fract_y
 _atom_site_fract_z
 _atom_site_occupancy
  Zr  Zr0  1  0.77011698  0.75000000  0.64493136  1.0
  Zr  Zr1  1  0.22988302  0.25000000  0.35506864  1.0
  Se  Se2  1  0.25698621  0.75000000  0.55034972  1.0
  Se  Se3  1  0.74301379  0.25000000  0.44965028  1.0
  Se  Se4  1  0.42469218  0.75000000  0.19616564  1.0
  Se  Se5  1  0.57530782  0.25000000  0.80383436  1.0
  Se  Se6  1  -0.00907627  0.75000000  0.19600220  1.0
  Se  Se7  1  1.00907627  0.25000000  0.80399780  1.0
