# generated using pymatgen
data_YNiSO7
_symmetry_space_group_name_H-M   'P 1'
_cell_length_a   6.09142175
_cell_length_b   6.10912832
_cell_length_c   14.42382611
_cell_angle_alpha   90.00000000
_cell_angle_beta   90.00000000
_cell_angle_gamma   90.00000000
_symmetry_Int_Tables_number   1
_chemical_formula_structural   YNiSO7
_chemical_formula_sum   'Y4 Ni4 S4 O28'
_cell_volume   536.75783760
_cell_formula_units_Z   4
loop_
 _symmetry_equiv_pos_site_id
 _symmetry_equiv_pos_as_xyz
  1  'x, y, z'
loop_
 _atom_site_type_symbol
 _atom_site_label
 _atom_site_symmetry_multiplicity
 _atom_site_fract_x
 _atom_site_fract_y
 _atom_site_fract_z
 _atom_site_occupancy
  Ni  Ni0  1  -0.02853983  0.75542974  0.01167675  1.0
  Ni  Ni1  1  0.47146017  0.74457026  0.98832325  1.0
  Ni  Ni2  1  1.02853983  0.25542974  0.48832325  1.0
  Ni  Ni3  1  0.52853983  0.24457026  0.51167675  1.0
  O  O4  1  0.21355678  0.92685971  0.71529762  1.0
  O  O5  1  0.71355678  0.57314029  0.28470238  1.0
  O  O6  1  0.78644322  0.42685971  0.78470238  1.0
  O  O7  1  0.28644322  0.07314029  0.21529762  1.0
  O  O8  1  0.01171683  0.90702334  0.31511725  1.0
  O  O9  1  0.51171683  0.59297666  0.68488275  1.0
  O  O10  1  0.98828317  0.40702334  0.18488275  1.0
  O  O11  1  0.48828317  0.09297666  0.81511725  1.0
  O  O12  1  0.90100346  0.63440518  0.65136689  1.0
  O  O13  1  0.40100346  0.86559482  0.34863311  1.0
  O  O14  1  0.09899654  0.13440518  0.84863311  1.0
  O  O15  1  0.59899654  0.36559482  0.15136689  1.0
  O  O16  1  0.48839578  0.95864859  0.52647905  1.0
  O  O17  1  0.98839578  0.54135141  0.47352095  1.0
  O  O18  1  0.51160422  0.45864859  0.97352095  1.0
  O  O19  1  0.01160422  0.04135141  0.02647905  1.0
  O  O20  1  1.02128733  0.97029049  0.51105295  1.0
  O  O21  1  0.52128733  0.52970951  0.48894705  1.0
  O  O22  1  -0.02128733  0.47029049  0.98894705  1.0
  O  O23  1  0.47871267  0.02970951  0.01105295  1.0
  O  O24  1  0.24205465  0.68758935  0.06336481  1.0
  O  O25  1  0.74205465  0.81241065  0.93663519  1.0
  O  O26  1  0.75794535  0.18758935  0.43663519  1.0
  O  O27  1  0.25794535  0.31241065  0.56336481  1.0
  O  O28  1  0.27424908  0.77527737  0.86897817  1.0
  O  O29  1  0.77424908  0.72472263  0.13102183  1.0
  O  O30  1  0.72575092  0.27527737  0.63102183  1.0
  O  O31  1  0.22575092  0.22472263  0.36897817  1.0
  Y  Y32  1  0.23941741  0.70862478  0.58459226  1.0
  Y  Y33  1  0.73941741  0.79137522  0.41540774  1.0
  Y  Y34  1  0.76058259  0.20862478  0.91540774  1.0
  Y  Y35  1  0.26058259  0.29137522  0.08459226  1.0
  S  S36  1  0.27068685  0.98583326  0.81151330  1.0
  S  S37  1  0.77068685  0.51416674  0.18848670  1.0
  S  S38  1  0.72931315  0.48583326  0.68848670  1.0
  S  S39  1  0.22931315  0.01416674  0.31151330  1.0
