# generated using pymatgen
data_K3GeH3S3O2
_symmetry_space_group_name_H-M   'P 1'
_cell_length_a   10.18266246
_cell_length_b   7.60623405
_cell_length_c   6.76937322
_cell_angle_alpha   109.93601070
_cell_angle_beta   98.43128459
_cell_angle_gamma   87.65978670
_symmetry_Int_Tables_number   1
_chemical_formula_structural   K3GeH3S3O2
_chemical_formula_sum   'K6 Ge2 H6 S6 O4'
_cell_volume   487.52988486
_cell_formula_units_Z   2
loop_
 _symmetry_equiv_pos_site_id
 _symmetry_equiv_pos_as_xyz
  1  'x, y, z'
loop_
 _atom_site_type_symbol
 _atom_site_label
 _atom_site_symmetry_multiplicity
 _atom_site_fract_x
 _atom_site_fract_y
 _atom_site_fract_z
 _atom_site_occupancy
  K  K0  1  0.56620261  0.37196730  -0.75567947  1.0
  K  K1  1  0.43379739  0.62803270  -0.24432053  1.0
  K  K2  1  0.95299922  0.23082700  -0.76273073  1.0
  K  K3  1  0.04700078  0.76917300  -0.23726927  1.0
  K  K4  1  0.72339802  0.88686918  -0.60556245  1.0
  K  K5  1  0.27660198  0.11313082  -0.39443755  1.0
  Ge  Ge6  1  0.22559372  0.60508319  -0.80969310  1.0
  Ge  Ge7  1  0.77440628  0.39491681  -0.19030690  1.0
  H  H8  1  0.32390079  0.92454238  -0.94573852  1.0
  H  H9  1  0.67609921  0.07545762  -0.05426148  1.0
  H  H10  1  0.88009392  0.58017564  -0.85112602  1.0
  H  H11  1  0.11990608  0.41982436  -0.14887398  1.0
  H  H12  1  0.73210060  0.88483532  -0.04983373  1.0
  H  H13  1  0.26789940  0.11516468  -0.95016627  1.0
  S  S14  1  0.05389947  0.78730497  -0.71706612  1.0
  S  S15  1  0.94610053  0.21269503  -0.28293388  1.0
  S  S16  1  0.41183590  0.76879773  -0.73894968  1.0
  S  S17  1  0.58816410  0.23120227  -0.26105032  1.0
  S  S18  1  0.74685993  0.62676732  -0.31942732  1.0
  S  S19  1  0.25314007  0.37323268  -0.68057268  1.0
  O  O20  1  0.71672744  1.01349431  -0.95126991  1.0
  O  O21  1  0.28327256  -0.01349431  -0.04873009  1.0
  O  O22  1  0.79859209  0.50002381  -0.89487907  1.0
  O  O23  1  0.20140791  0.49997619  -0.10512093  1.0
