# generated using pymatgen
data_Gd4Al
_symmetry_space_group_name_H-M   'P 1'
_cell_length_a   7.95590438
_cell_length_b   7.95590438
_cell_length_c   7.95590438
_cell_angle_alpha   60.00000000
_cell_angle_beta   60.00000000
_cell_angle_gamma   60.00000000
_symmetry_Int_Tables_number   1
_chemical_formula_structural   Gd4Al
_chemical_formula_sum   'Gd8 Al2'
_cell_volume   356.08499007
_cell_formula_units_Z   2
loop_
 _symmetry_equiv_pos_site_id
 _symmetry_equiv_pos_as_xyz
  1  'x, y, z'
loop_
 _atom_site_type_symbol
 _atom_site_label
 _atom_site_symmetry_multiplicity
 _atom_site_fract_x
 _atom_site_fract_y
 _atom_site_fract_z
 _atom_site_occupancy
  Gd  Gd0  1  -0.10602771  0.89397229  0.31808312  1.0
  Gd  Gd1  1  0.89397229  -0.68191688  0.89397229  1.0
  Gd  Gd2  1  0.35602771  0.35602771  0.35602771  1.0
  Gd  Gd3  1  -0.06808312  0.35602771  0.35602771  1.0
  Gd  Gd4  1  -0.68191688  0.89397229  0.89397229  1.0
  Gd  Gd5  1  0.89397229  -0.10602771  0.89397229  1.0
  Gd  Gd6  1  0.35602771  -0.06808312  0.35602771  1.0
  Gd  Gd7  1  0.35602771  0.35602771  -0.06808312  1.0
  Al  Al8  1  0.50000000  0.50000000  -0.50000000  1.0
  Al  Al9  1  0.75000000  -0.25000000  0.75000000  1.0
