# generated using pymatgen
data_CaTiN2
_symmetry_space_group_name_H-M   'P 1'
_cell_length_a   3.65161577
_cell_length_b   7.55887294
_cell_length_c   3.91881388
_cell_angle_alpha   90.00000000
_cell_angle_beta   90.00000000
_cell_angle_gamma   90.00000000
_symmetry_Int_Tables_number   1
_chemical_formula_structural   CaTiN2
_chemical_formula_sum   'Ca2 Ti2 N4'
_cell_volume   108.16749098
_cell_formula_units_Z   2
loop_
 _symmetry_equiv_pos_site_id
 _symmetry_equiv_pos_as_xyz
  1  'x, y, z'
loop_
 _atom_site_type_symbol
 _atom_site_label
 _atom_site_symmetry_multiplicity
 _atom_site_fract_x
 _atom_site_fract_y
 _atom_site_fract_z
 _atom_site_occupancy
  Ca  Ca0  1  0.50000000  0.14993889  0.40597101  1.0
  Ca  Ca1  1  0.00000000  0.85006111  0.90597101  1.0
  Ti  Ti2  1  0.50000000  0.59221764  0.40597007  1.0
  Ti  Ti3  1  0.00000000  0.40778236  0.90597007  1.0
  N  N4  1  0.50000000  0.52462477  0.90598242  1.0
  N  N5  1  0.00000000  0.47537523  0.40598242  1.0
  N  N6  1  0.50000000  0.83624010  0.40597650  1.0
  N  N7  1  0.00000000  0.16375990  0.90597650  1.0
