# generated using pymatgen
data_K2PtC4N4(ClO)2
_symmetry_space_group_name_H-M   'P 1'
_cell_length_a   7.49112670
_cell_length_b   12.02139465
_cell_length_c   7.37784931
_cell_angle_alpha   90.00000000
_cell_angle_beta   91.32693363
_cell_angle_gamma   90.00000000
_symmetry_Int_Tables_number   1
_chemical_formula_structural   K2PtC4N4(ClO)2
_chemical_formula_sum   'K4 Pt2 C8 N8 Cl4 O4'
_cell_volume   664.22512498
_cell_formula_units_Z   2
loop_
 _symmetry_equiv_pos_site_id
 _symmetry_equiv_pos_as_xyz
  1  'x, y, z'
loop_
 _atom_site_type_symbol
 _atom_site_label
 _atom_site_symmetry_multiplicity
 _atom_site_fract_x
 _atom_site_fract_y
 _atom_site_fract_z
 _atom_site_occupancy
  K  K0  1  0.52314396  0.66662533  0.02202635  1.0
  K  K1  1  0.52314396  0.83337467  0.52202635  1.0
  K  K2  1  0.47685604  0.16662533  0.47797365  1.0
  K  K3  1  0.47685604  0.33337467  0.97797365  1.0
  Pt  Pt4  1  0.00000000  0.00000000  0.00000000  1.0
  Pt  Pt5  1  0.00000000  0.50000000  0.50000000  1.0
  C  C6  1  0.16561197  0.39746031  0.36886764  1.0
  C  C7  1  0.16561197  0.10253969  0.86886764  1.0
  C  C8  1  0.83438803  0.89746031  0.13113236  1.0
  C  C9  1  0.83438803  0.60253969  0.63113236  1.0
  C  C10  1  0.18100699  0.98571702  0.20458802  1.0
  C  C11  1  0.18100699  0.51428298  0.70458802  1.0
  C  C12  1  0.81899301  0.48571702  0.29541198  1.0
  C  C13  1  0.81899301  0.01428298  0.79541198  1.0
  N  N14  1  0.26040992  0.33585082  0.29556412  1.0
  N  N15  1  0.26040992  0.16414918  0.79556412  1.0
  N  N16  1  0.73959008  0.83585082  0.20443588  1.0
  N  N17  1  0.73959008  0.66414918  0.70443588  1.0
  N  N18  1  0.28561412  0.97916924  0.32380484  1.0
  N  N19  1  0.28561412  0.52083076  0.82380484  1.0
  N  N20  1  0.71438588  0.47916924  0.17619516  1.0
  N  N21  1  0.71438588  0.02083076  0.67619516  1.0
  Cl  Cl22  1  0.11883358  0.66833314  0.34292312  1.0
  Cl  Cl23  1  0.11883358  0.83166686  0.84292312  1.0
  Cl  Cl24  1  0.88116642  0.16833314  0.15707688  1.0
  Cl  Cl25  1  0.88116642  0.33166686  0.65707688  1.0
  O  O26  1  0.32944677  0.67282599  0.33437368  1.0
  O  O27  1  0.32944677  0.82717401  0.83437368  1.0
  O  O28  1  0.67055323  0.17282599  0.16562632  1.0
  O  O29  1  0.67055323  0.32717401  0.66562632  1.0
