# generated using pymatgen
data_Ti4Ni4Ge7
_symmetry_space_group_name_H-M   'P 1'
_cell_length_a   9.51390722
_cell_length_b   9.51390722
_cell_length_c   9.51390722
_cell_angle_alpha   94.14252189
_cell_angle_beta   94.14252189
_cell_angle_gamma   148.81774488
_symmetry_Int_Tables_number   1
_chemical_formula_structural   Ti4Ni4Ge7
_chemical_formula_sum   'Ti8 Ni8 Ge14'
_cell_volume   429.46258723
_cell_formula_units_Z   2
loop_
 _symmetry_equiv_pos_site_id
 _symmetry_equiv_pos_as_xyz
  1  'x, y, z'
loop_
 _atom_site_type_symbol
 _atom_site_label
 _atom_site_symmetry_multiplicity
 _atom_site_fract_x
 _atom_site_fract_y
 _atom_site_fract_z
 _atom_site_occupancy
  Ti  Ti0  1  -0.00000000  0.81153735  0.81153735  1.0
  Ti  Ti1  1  0.81153735  1.00000000  0.81153735  1.0
  Ti  Ti2  1  1.18846265  1.00000000  1.18846265  1.0
  Ti  Ti3  1  -0.00000000  0.18846265  0.18846265  1.0
  Ti  Ti4  1  0.63458254  0.63458254  0.26916508  1.0
  Ti  Ti5  1  1.36541746  0.63458254  1.00000000  1.0
  Ti  Ti6  1  0.63458254  0.36541746  1.00000000  1.0
  Ti  Ti7  1  0.36541746  0.36541746  0.73083492  1.0
  Ni  Ni8  1  1.10028190  0.60028190  1.20056379  1.0
  Ni  Ni9  1  1.60028190  1.10028190  1.20056379  1.0
  Ni  Ni10  1  0.39971810  0.60028190  0.50000000  1.0
  Ni  Ni11  1  0.89971810  1.10028190  0.50000000  1.0
  Ni  Ni12  1  1.10028190  0.89971810  1.50000000  1.0
  Ni  Ni13  1  1.60028190  1.39971810  1.50000000  1.0
  Ni  Ni14  1  0.39971810  0.89971810  0.79943621  1.0
  Ni  Ni15  1  0.89971810  1.39971810  0.79943621  1.0
  Ge  Ge16  1  0.50000000  0.78008626  0.28008626  1.0
  Ge  Ge17  1  0.78008626  0.50000000  1.28008626  1.0
  Ge  Ge18  1  0.21991374  0.50000000  0.71991374  1.0
  Ge  Ge19  1  0.50000000  1.21991374  0.71991374  1.0
  Ge  Ge20  1  0.00000000  0.59606733  0.59606733  1.0
  Ge  Ge21  1  0.59606733  1.00000000  0.59606733  1.0
  Ge  Ge22  1  1.40393267  1.00000000  1.40393267  1.0
  Ge  Ge23  1  -0.00000000  0.40393267  0.40393267  1.0
  Ge  Ge24  1  0.79930694  0.79930694  0.59861387  1.0
  Ge  Ge25  1  1.20069306  0.79930694  1.00000000  1.0
  Ge  Ge26  1  0.79930694  0.20069306  1.00000000  1.0
  Ge  Ge27  1  0.20069306  0.20069306  0.40138613  1.0
  Ge  Ge28  1  0.74832544  0.74832544  0.00000000  1.0
  Ge  Ge29  1  0.25167456  0.25167456  -0.00000000  1.0
