# generated using pymatgen
data_Mo9S11
_symmetry_space_group_name_H-M   'P 1'
_cell_length_a   12.88997966
_cell_length_b   12.88997966
_cell_length_c   12.88997966
_cell_angle_alpha   42.18930948
_cell_angle_beta   42.18930948
_cell_angle_gamma   42.18930949
_symmetry_Int_Tables_number   1
_chemical_formula_structural   Mo9S11
_chemical_formula_sum   'Mo18 S22'
_cell_volume   874.10295246
_cell_formula_units_Z   2
loop_
 _symmetry_equiv_pos_site_id
 _symmetry_equiv_pos_as_xyz
  1  'x, y, z'
loop_
 _atom_site_type_symbol
 _atom_site_label
 _atom_site_symmetry_multiplicity
 _atom_site_fract_x
 _atom_site_fract_y
 _atom_site_fract_z
 _atom_site_occupancy
  Mo  Mo0  1  0.25587660  0.91987148  -0.88578691  1.0
  Mo  Mo1  1  0.88578691  -0.25587660  0.08012852  1.0
  Mo  Mo2  1  1.08012852  -0.11421309  -0.25587660  1.0
  Mo  Mo3  1  0.74412340  0.08012852  -0.11421309  1.0
  Mo  Mo4  1  0.11421309  0.25587660  -0.08012852  1.0
  Mo  Mo5  1  0.91987148  0.11421309  -0.74412340  1.0
  Mo  Mo6  1  0.20745059  0.01488028  -0.13116171  1.0
  Mo  Mo7  1  1.13116171  -0.20745059  -0.01488028  1.0
  Mo  Mo8  1  0.98511972  0.13116171  -0.20745059  1.0
  Mo  Mo9  1  0.79254941  -0.01488028  0.13116171  1.0
  Mo  Mo10  1  0.86883829  -0.79254941  0.01488028  1.0
  Mo  Mo11  1  1.01488028  -0.13116171  -0.79254941  1.0
  Mo  Mo12  1  0.64303939  0.44890455  -0.69482100  1.0
  Mo  Mo13  1  0.69482100  0.35696061  -0.44890455  1.0
  Mo  Mo14  1  0.55109545  0.69482100  -0.64303939  1.0
  Mo  Mo15  1  0.35696061  0.55109545  -0.30517900  1.0
  Mo  Mo16  1  0.30517900  0.64303939  -0.55109545  1.0
  Mo  Mo17  1  0.44890455  0.30517900  -0.35696061  1.0
  S  S18  1  0.24043686  0.83952204  -0.50185091  1.0
  S  S19  1  0.50185091  0.75956314  -0.83952204  1.0
  S  S20  1  0.16047796  0.50185091  -0.24043686  1.0
  S  S21  1  0.75956314  0.16047796  -0.49814909  1.0
  S  S22  1  0.49814909  0.24043686  -0.16047796  1.0
  S  S23  1  0.83952204  0.49814909  -0.75956314  1.0
  S  S24  1  0.32210487  0.71126704  -0.93767469  1.0
  S  S25  1  0.93767469  -0.32210487  0.28873296  1.0
  S  S26  1  1.28873296  -0.06232531  -0.32210487  1.0
  S  S27  1  0.67789513  0.28873296  -0.06232531  1.0
  S  S28  1  0.06232531  0.32210487  -0.28873296  1.0
  S  S29  1  0.71126704  0.06232531  -0.67789513  1.0
  S  S30  1  0.40678401  0.05614093  -0.19502518  1.0
  S  S31  1  1.19502518  -0.40678401  -0.05614093  1.0
  S  S32  1  0.94385907  0.19502518  -0.40678401  1.0
  S  S33  1  0.59321599  -0.05614093  0.19502518  1.0
  S  S34  1  0.80497482  -0.59321599  0.05614093  1.0
  S  S35  1  1.05614093  -0.19502518  -0.59321599  1.0
  S  S36  1  0.14899702  0.14899702  0.14899702  1.0
  S  S37  1  0.85100298  -0.14899702  -0.14899702  1.0
  S  S38  1  0.41354024  0.41354024  -0.58645976  1.0
  S  S39  1  0.58645976  0.58645976  -0.41354024  1.0
