# generated using pymatgen
data_RbGa2Au3
_symmetry_space_group_name_H-M   'P 1'
_cell_length_a   13.56770488
_cell_length_b   5.75311699
_cell_length_c   7.10481060
_cell_angle_alpha   90.00000000
_cell_angle_beta   90.00000000
_cell_angle_gamma   90.00000000
_symmetry_Int_Tables_number   1
_chemical_formula_structural   RbGa2Au3
_chemical_formula_sum   'Rb4 Ga8 Au12'
_cell_volume   554.57731302
_cell_formula_units_Z   4
loop_
 _symmetry_equiv_pos_site_id
 _symmetry_equiv_pos_as_xyz
  1  'x, y, z'
loop_
 _atom_site_type_symbol
 _atom_site_label
 _atom_site_symmetry_multiplicity
 _atom_site_fract_x
 _atom_site_fract_y
 _atom_site_fract_z
 _atom_site_occupancy
  Rb  Rb0  1  0.07418908  0.75000000  0.89971621  1.0
  Rb  Rb1  1  0.57418908  0.75000000  0.60028379  1.0
  Rb  Rb2  1  0.92581092  0.25000000  0.10028379  1.0
  Rb  Rb3  1  0.42581092  0.25000000  0.39971621  1.0
  Ga  Ga4  1  0.34598665  0.99792494  0.89747797  1.0
  Ga  Ga5  1  0.34598665  0.50207506  0.89747797  1.0
  Ga  Ga6  1  0.84598665  0.99792494  0.60252203  1.0
  Ga  Ga7  1  0.84598665  0.50207506  0.60252203  1.0
  Ga  Ga8  1  0.65401335  0.49792494  0.10252203  1.0
  Ga  Ga9  1  0.65401335  0.00207506  0.10252203  1.0
  Ga  Ga10  1  0.15401335  0.49792494  0.39747797  1.0
  Ga  Ga11  1  0.15401335  0.00207506  0.39747797  1.0
  Au  Au12  1  0.49504169  0.75000000  0.07841002  1.0
  Au  Au13  1  0.99504169  0.75000000  0.42158998  1.0
  Au  Au14  1  0.50495831  0.25000000  0.92158998  1.0
  Au  Au15  1  0.00495831  0.25000000  0.57841002  1.0
  Au  Au16  1  0.28561508  0.75000000  0.61038972  1.0
  Au  Au17  1  0.78561508  0.75000000  0.88961028  1.0
  Au  Au18  1  0.71438492  0.25000000  0.38961028  1.0
  Au  Au19  1  0.21438492  0.25000000  0.11038972  1.0
  Au  Au20  1  0.29087468  0.75000000  0.20226467  1.0
  Au  Au21  1  0.79087468  0.75000000  0.29773533  1.0
  Au  Au22  1  0.70912532  0.25000000  0.79773533  1.0
  Au  Au23  1  0.20912532  0.25000000  0.70226467  1.0
