# generated using pymatgen
data_CoSiC4O4F3
_symmetry_space_group_name_H-M   'P 1'
_cell_length_a   7.28653738
_cell_length_b   7.28653738
_cell_length_c   19.67188329
_cell_angle_alpha   90.00000000
_cell_angle_beta   90.00000000
_cell_angle_gamma   107.14842084
_symmetry_Int_Tables_number   1
_chemical_formula_structural   CoSiC4O4F3
_chemical_formula_sum   'Co4 Si4 C16 O16 F12'
_cell_volume   998.01967773
_cell_formula_units_Z   4
loop_
 _symmetry_equiv_pos_site_id
 _symmetry_equiv_pos_as_xyz
  1  'x, y, z'
loop_
 _atom_site_type_symbol
 _atom_site_label
 _atom_site_symmetry_multiplicity
 _atom_site_fract_x
 _atom_site_fract_y
 _atom_site_fract_z
 _atom_site_occupancy
  Co  Co0  1  -0.16694450  1.16694450  0.13037405  1.0
  Co  Co1  1  0.33305550  0.66694450  0.36962595  1.0
  Co  Co2  1  0.16694450  0.83305550  0.86962595  1.0
  Co  Co3  1  -0.33305550  1.33305550  0.63037405  1.0
  Si  Si4  1  -0.47551576  1.47551576  0.36140236  1.0
  Si  Si5  1  0.02448424  0.97551576  0.13859764  1.0
  Si  Si6  1  0.47551576  0.52448424  0.63859764  1.0
  Si  Si7  1  -0.02448424  1.02448424  0.86140236  1.0
  C  C8  1  -0.47050182  0.82361219  0.41513644  1.0
  C  C9  1  0.02949818  1.32361219  0.08486356  1.0
  C  C10  1  -0.17638781  0.52949818  0.58486356  1.0
  C  C11  1  0.32361219  1.02949818  0.91513644  1.0
  C  C12  1  0.17638781  1.47050182  0.41513644  1.0
  C  C13  1  -0.32361219  0.97050182  0.08486356  1.0
  C  C14  1  0.47050182  1.17638781  0.58486356  1.0
  C  C15  1  -0.02949818  0.67638781  0.91513644  1.0
  C  C16  1  -0.31959183  1.31959183  0.12373888  1.0
  C  C17  1  0.18040817  0.81959183  0.37626112  1.0
  C  C18  1  0.31959183  0.68040817  0.87626112  1.0
  C  C19  1  -0.18040817  1.18040817  0.62373888  1.0
  C  C20  1  -0.16278056  1.16278056  0.22099376  1.0
  C  C21  1  0.33721944  0.66278056  0.27900624  1.0
  C  C22  1  0.16278056  0.83721944  0.77900624  1.0
  C  C23  1  -0.33721944  1.33721944  0.72099376  1.0
  O  O24  1  -0.34733103  0.92722697  0.44522056  1.0
  O  O25  1  0.15266897  1.42722697  0.05477944  1.0
  O  O26  1  -0.07277303  0.65266897  0.55477944  1.0
  O  O27  1  0.42722697  1.15266897  0.94522056  1.0
  O  O28  1  0.07277303  1.34733103  0.44522056  1.0
  O  O29  1  -0.42722697  0.84733103  0.05477944  1.0
  O  O30  1  0.34733103  1.07277303  0.55477944  1.0
  O  O31  1  -0.15266897  0.57277303  0.94522056  1.0
  O  O32  1  -0.41708818  1.41708818  0.11905814  1.0
  O  O33  1  0.08291182  0.91708818  0.38094186  1.0
  O  O34  1  0.41708818  0.58291182  0.88094186  1.0
  O  O35  1  -0.08291182  1.08291182  0.61905814  1.0
  O  O36  1  -0.16266916  1.16266916  0.27959338  1.0
  O  O37  1  0.33733084  0.66266916  0.22040662  1.0
  O  O38  1  0.16266916  0.83733084  0.72040662  1.0
  O  O39  1  -0.33733084  1.33733084  0.77959338  1.0
  F  F40  1  0.42745933  1.27732751  0.32172341  1.0
  F  F41  1  -0.07254067  0.77732751  0.17827659  1.0
  F  F42  1  0.27732751  1.42745933  0.67827659  1.0
  F  F43  1  -0.22267249  0.92745933  0.82172341  1.0
  F  F44  1  -0.27732751  0.57254067  0.32172341  1.0
  F  F45  1  0.22267249  1.07254067  0.17827659  1.0
  F  F46  1  -0.42745933  0.72267249  0.67827659  1.0
  F  F47  1  0.07254067  1.22267249  0.82172341  1.0
  F  F48  1  -0.41110048  1.41110048  0.43371483  1.0
  F  F49  1  0.08889952  0.91110048  0.06628517  1.0
  F  F50  1  0.41110048  0.58889952  0.56628517  1.0
  F  F51  1  -0.08889952  1.08889952  0.93371483  1.0
