# generated using pymatgen
data_ZnPb2F6
_symmetry_space_group_name_H-M   'P 1'
_cell_length_a   5.74874899
_cell_length_b   5.74874899
_cell_length_c   16.42747745
_cell_angle_alpha   90.00000000
_cell_angle_beta   90.00000000
_cell_angle_gamma   90.00000000
_symmetry_Int_Tables_number   1
_chemical_formula_structural   ZnPb2F6
_chemical_formula_sum   'Zn4 Pb8 F24'
_cell_volume   542.89716232
_cell_formula_units_Z   4
loop_
 _symmetry_equiv_pos_site_id
 _symmetry_equiv_pos_as_xyz
  1  'x, y, z'
loop_
 _atom_site_type_symbol
 _atom_site_label
 _atom_site_symmetry_multiplicity
 _atom_site_fract_x
 _atom_site_fract_y
 _atom_site_fract_z
 _atom_site_occupancy
  Zn  Zn0  1  0.75000000  0.25000000  0.75000000  1.0
  Zn  Zn1  1  0.75000000  0.75000000  0.25000000  1.0
  Zn  Zn2  1  0.25000000  0.75000000  0.75000000  1.0
  Zn  Zn3  1  0.25000000  0.25000000  0.25000000  1.0
  Pb  Pb4  1  0.73927300  0.23927300  0.40714166  1.0
  Pb  Pb5  1  0.73927300  0.76072700  0.90714166  1.0
  Pb  Pb6  1  0.23927300  0.73927300  0.09285834  1.0
  Pb  Pb7  1  0.23927300  0.26072700  0.59285834  1.0
  Pb  Pb8  1  0.76072700  0.73927300  0.59285834  1.0
  Pb  Pb9  1  0.76072700  0.26072700  0.09285834  1.0
  Pb  Pb10  1  0.26072700  0.23927300  0.90714166  1.0
  Pb  Pb11  1  0.26072700  0.76072700  0.40714166  1.0
  F  F12  1  0.68496546  0.18496546  0.86828796  1.0
  F  F13  1  0.68496546  0.81503454  0.36828796  1.0
  F  F14  1  0.18496546  0.68496546  0.63171204  1.0
  F  F15  1  0.18496546  0.31503454  0.13171204  1.0
  F  F16  1  0.81503454  0.68496546  0.13171204  1.0
  F  F17  1  0.81503454  0.31503454  0.63171204  1.0
  F  F18  1  0.31503454  0.18496546  0.36828796  1.0
  F  F19  1  0.31503454  0.81503454  0.86828796  1.0
  F  F20  1  0.50000000  0.00000000  0.00830129  1.0
  F  F21  1  0.50000000  0.00000000  0.50830129  1.0
  F  F22  1  0.00000000  0.50000000  0.49169871  1.0
  F  F23  1  0.00000000  0.50000000  0.99169871  1.0
  F  F24  1  0.50000000  0.00000000  0.20783990  1.0
  F  F25  1  0.50000000  0.00000000  0.70783990  1.0
  F  F26  1  0.00000000  0.50000000  0.29216010  1.0
  F  F27  1  0.00000000  0.50000000  0.79216010  1.0
  F  F28  1  0.00000000  0.00000000  0.50000000  1.0
  F  F29  1  0.00000000  0.00000000  0.00000000  1.0
  F  F30  1  0.50000000  0.50000000  0.00000000  1.0
  F  F31  1  0.50000000  0.50000000  0.50000000  1.0
  F  F32  1  0.00000000  0.00000000  0.75000000  1.0
  F  F33  1  0.00000000  0.00000000  0.25000000  1.0
  F  F34  1  0.50000000  0.50000000  0.75000000  1.0
  F  F35  1  0.50000000  0.50000000  0.25000000  1.0
