# generated using pymatgen
data_Ca9B2(CCl2)4
_symmetry_space_group_name_H-M   'P 1'
_cell_length_a   8.92935183
_cell_length_b   8.92935183
_cell_length_c   12.15963465
_cell_angle_alpha   90.00000000
_cell_angle_beta   90.00000000
_cell_angle_gamma   98.41277621
_symmetry_Int_Tables_number   1
_chemical_formula_structural   Ca9B2(CCl2)4
_chemical_formula_sum   'Ca18 B4 C8 Cl16'
_cell_volume   959.09571069
_cell_formula_units_Z   2
loop_
 _symmetry_equiv_pos_site_id
 _symmetry_equiv_pos_as_xyz
  1  'x, y, z'
loop_
 _atom_site_type_symbol
 _atom_site_label
 _atom_site_symmetry_multiplicity
 _atom_site_fract_x
 _atom_site_fract_y
 _atom_site_fract_z
 _atom_site_occupancy
  Ca  Ca0  1  -0.16712556  1.52952791  0.45018241  1.0
  Ca  Ca1  1  -0.16712556  1.52952791  0.04981759  1.0
  Ca  Ca2  1  0.52952791  0.83287444  0.95018241  1.0
  Ca  Ca3  1  0.52952791  0.83287444  0.54981759  1.0
  Ca  Ca4  1  -0.52952791  1.16712556  0.45018241  1.0
  Ca  Ca5  1  -0.52952791  1.16712556  0.04981759  1.0
  Ca  Ca6  1  0.16712556  0.47047209  0.95018241  1.0
  Ca  Ca7  1  0.16712556  0.47047209  0.54981759  1.0
  Ca  Ca8  1  0.06584676  0.30795306  0.25000000  1.0
  Ca  Ca9  1  -0.69204694  1.06584676  0.75000000  1.0
  Ca  Ca10  1  0.69204694  0.93415324  0.25000000  1.0
  Ca  Ca11  1  -0.06584676  1.69204694  0.75000000  1.0
  Ca  Ca12  1  0.15918650  0.84081350  0.40738674  1.0
  Ca  Ca13  1  0.15918650  0.84081350  0.09261326  1.0
  Ca  Ca14  1  -0.15918650  1.15918650  0.90738674  1.0
  Ca  Ca15  1  -0.15918650  1.15918650  0.59261326  1.0
  Ca  Ca16  1  0.37999890  0.62000110  0.25000000  1.0
  Ca  Ca17  1  -0.37999890  1.37999890  0.75000000  1.0
  B  B18  1  0.08237535  0.58542728  0.25000000  1.0
  B  B19  1  -0.41457272  1.08237535  0.75000000  1.0
  B  B20  1  0.41457272  0.91762465  0.25000000  1.0
  B  B21  1  -0.08237535  1.41457272  0.75000000  1.0
  C  C22  1  0.09676404  0.56336366  0.36787608  1.0
  C  C23  1  0.09676404  0.56336366  0.13212392  1.0
  C  C24  1  -0.43663634  1.09676404  0.86787608  1.0
  C  C25  1  -0.43663634  1.09676404  0.63212392  1.0
  C  C26  1  0.43663634  0.90323596  0.36787608  1.0
  C  C27  1  0.43663634  0.90323596  0.13212392  1.0
  C  C28  1  -0.09676404  1.43663634  0.86787608  1.0
  C  C29  1  -0.09676404  1.43663634  0.63212392  1.0
  Cl  Cl30  1  -0.30113401  1.62527689  0.25000000  1.0
  Cl  Cl31  1  0.62527689  0.69886599  0.75000000  1.0
  Cl  Cl32  1  -0.62527689  1.30113401  0.25000000  1.0
  Cl  Cl33  1  0.30113401  0.37472311  0.75000000  1.0
  Cl  Cl34  1  0.22422289  0.77577711  0.87997638  1.0
  Cl  Cl35  1  0.22422289  0.77577711  0.62002362  1.0
  Cl  Cl36  1  -0.22422289  1.22422289  0.37997638  1.0
  Cl  Cl37  1  -0.22422289  1.22422289  0.12002362  1.0
  Cl  Cl38  1  0.83939022  0.83939022  0.50000000  1.0
  Cl  Cl39  1  0.83939022  0.83939022  0.00000000  1.0
  Cl  Cl40  1  0.16060978  0.16060978  0.50000000  1.0
  Cl  Cl41  1  0.16060978  0.16060978  0.00000000  1.0
  Cl  Cl42  1  0.01170537  0.98829463  0.25000000  1.0
  Cl  Cl43  1  -0.01170537  1.01170537  0.75000000  1.0
  Cl  Cl44  1  0.50000000  0.50000000  0.50000000  1.0
  Cl  Cl45  1  0.50000000  0.50000000  0.00000000  1.0
