# generated using pymatgen
data_CaRhO3
_symmetry_space_group_name_H-M   'P 1'
_cell_length_a   8.94415400
_cell_length_b   3.15730811
_cell_length_c   12.57352718
_cell_angle_alpha   90.00000000
_cell_angle_beta   103.84991263
_cell_angle_gamma   90.00000000
_symmetry_Int_Tables_number   1
_chemical_formula_structural   CaRhO3
_chemical_formula_sum   'Ca6 Rh6 O18'
_cell_volume   344.74624266
_cell_formula_units_Z   6
loop_
 _symmetry_equiv_pos_site_id
 _symmetry_equiv_pos_as_xyz
  1  'x, y, z'
loop_
 _atom_site_type_symbol
 _atom_site_label
 _atom_site_symmetry_multiplicity
 _atom_site_fract_x
 _atom_site_fract_y
 _atom_site_fract_z
 _atom_site_occupancy
  Ca  Ca0  1  0.99153118  0.25000000  0.64983110  1.0
  Ca  Ca1  1  0.00846882  0.75000000  0.35016890  1.0
  Ca  Ca2  1  0.66803753  0.25000000  0.94550836  1.0
  Ca  Ca3  1  0.33196247  0.75000000  0.05449164  1.0
  Ca  Ca4  1  0.61407403  0.25000000  0.66585614  1.0
  Ca  Ca5  1  0.38592597  0.75000000  0.33414386  1.0
  O  O6  1  0.41935732  0.25000000  0.19143886  1.0
  O  O7  1  0.58064268  0.75000000  0.80856114  1.0
  O  O8  1  0.39210341  0.25000000  0.91414368  1.0
  O  O9  1  0.60789659  0.75000000  0.08585632  1.0
  O  O10  1  0.21349841  0.25000000  0.38209301  1.0
  O  O11  1  0.78650159  0.75000000  0.61790699  1.0
  O  O12  1  0.11680450  0.25000000  0.98577509  1.0
  O  O13  1  0.88319550  0.75000000  0.01422491  1.0
  O  O14  1  0.87475050  0.25000000  0.21554790  1.0
  O  O15  1  0.12524950  0.75000000  0.78445210  1.0
  O  O16  1  0.58709322  0.25000000  0.45023126  1.0
  O  O17  1  0.41290678  0.75000000  0.54976874  1.0
  O  O18  1  0.32864780  0.25000000  0.70626714  1.0
  O  O19  1  0.67135220  0.75000000  0.29373286  1.0
  O  O20  1  0.87784662  0.25000000  0.82051648  1.0
  O  O21  1  0.12215338  0.75000000  0.17948352  1.0
  O  O22  1  0.87240786  0.25000000  0.45249250  1.0
  O  O23  1  0.12759214  0.75000000  0.54750750  1.0
  Rh  Rh24  1  0.27023308  0.25000000  0.54394425  1.0
  Rh  Rh25  1  0.72976692  0.75000000  0.45605575  1.0
  Rh  Rh26  1  0.64496231  0.25000000  0.19324522  1.0
  Rh  Rh27  1  0.35503769  0.75000000  0.80675478  1.0
  Rh  Rh28  1  -0.00072760  0.25000000  0.10792351  1.0
  Rh  Rh29  1  1.00072760  0.75000000  0.89207649  1.0
