# generated using pymatgen
data_AlTlCl4
_symmetry_space_group_name_H-M   'P 1'
_cell_length_a   10.80468586
_cell_length_b   7.29426919
_cell_length_c   9.97827822
_cell_angle_alpha   90.00000000
_cell_angle_beta   90.00000000
_cell_angle_gamma   90.00000000
_symmetry_Int_Tables_number   1
_chemical_formula_structural   AlTlCl4
_chemical_formula_sum   'Al4 Tl4 Cl16'
_cell_volume   786.41092818
_cell_formula_units_Z   4
loop_
 _symmetry_equiv_pos_site_id
 _symmetry_equiv_pos_as_xyz
  1  'x, y, z'
loop_
 _atom_site_type_symbol
 _atom_site_label
 _atom_site_symmetry_multiplicity
 _atom_site_fract_x
 _atom_site_fract_y
 _atom_site_fract_z
 _atom_site_occupancy
  Al  Al0  1  0.44894526  0.75000000  0.68288371  1.0
  Al  Al1  1  0.94894526  0.75000000  0.81711629  1.0
  Al  Al2  1  0.55105474  0.25000000  0.31711629  1.0
  Al  Al3  1  0.05105474  0.25000000  0.18288371  1.0
  Tl  Tl4  1  0.29230030  0.75000000  0.23470390  1.0
  Tl  Tl5  1  0.79230030  0.75000000  0.26529610  1.0
  Tl  Tl6  1  0.70769970  0.25000000  0.76529610  1.0
  Tl  Tl7  1  0.20769970  0.25000000  0.73470390  1.0
  Cl  Cl8  1  0.44800522  0.99132835  0.81064940  1.0
  Cl  Cl9  1  0.44800522  0.50867165  0.81064940  1.0
  Cl  Cl10  1  0.94800522  0.99132835  0.68935060  1.0
  Cl  Cl11  1  0.94800522  0.50867165  0.68935060  1.0
  Cl  Cl12  1  0.55199478  0.49132835  0.18935060  1.0
  Cl  Cl13  1  0.55199478  0.00867165  0.18935060  1.0
  Cl  Cl14  1  0.05199478  0.49132835  0.31064940  1.0
  Cl  Cl15  1  0.05199478  0.00867165  0.31064940  1.0
  Cl  Cl16  1  0.28164491  0.75000000  0.56373048  1.0
  Cl  Cl17  1  0.78164491  0.75000000  0.93626952  1.0
  Cl  Cl18  1  0.71835509  0.25000000  0.43626952  1.0
  Cl  Cl19  1  0.21835509  0.25000000  0.06373048  1.0
  Cl  Cl20  1  0.11374652  0.75000000  0.93764565  1.0
  Cl  Cl21  1  0.61374652  0.75000000  0.56235435  1.0
  Cl  Cl22  1  0.88625348  0.25000000  0.06235435  1.0
  Cl  Cl23  1  0.38625348  0.25000000  0.43764565  1.0
