# generated using pymatgen
data_Si2H2S3
_symmetry_space_group_name_H-M   'P 1'
_cell_length_a   8.47428529
_cell_length_b   8.47428529
_cell_length_c   9.53166158
_cell_angle_alpha   90.00000000
_cell_angle_beta   90.00000000
_cell_angle_gamma   90.00000000
_symmetry_Int_Tables_number   1
_chemical_formula_structural   Si2H2S3
_chemical_formula_sum   'Si8 H8 S12'
_cell_volume   684.50208512
_cell_formula_units_Z   4
loop_
 _symmetry_equiv_pos_site_id
 _symmetry_equiv_pos_as_xyz
  1  'x, y, z'
loop_
 _atom_site_type_symbol
 _atom_site_label
 _atom_site_symmetry_multiplicity
 _atom_site_fract_x
 _atom_site_fract_y
 _atom_site_fract_z
 _atom_site_occupancy
  Si  Si0  1  0.31298737  0.43792719  0.37634836  1.0
  Si  Si1  1  0.18701263  0.93792719  0.12365164  1.0
  Si  Si2  1  0.56207281  0.31298737  0.62365164  1.0
  Si  Si3  1  0.93792719  0.81298737  0.87634836  1.0
  Si  Si4  1  0.68701263  0.56207281  0.37634836  1.0
  Si  Si5  1  0.81298737  0.06207281  0.12365164  1.0
  Si  Si6  1  0.43792719  0.68701263  0.62365164  1.0
  Si  Si7  1  0.06207281  0.18701263  0.87634836  1.0
  H  H8  1  0.17688216  0.39321138  0.28663680  1.0
  H  H9  1  0.32311784  0.89321138  0.21336320  1.0
  H  H10  1  0.60678862  0.17688216  0.71336320  1.0
  H  H11  1  0.89321138  0.67688216  0.78663680  1.0
  H  H12  1  0.82311784  0.60678862  0.28663680  1.0
  H  H13  1  0.67688216  0.10678862  0.21336320  1.0
  H  H14  1  0.39321138  0.82311784  0.71336320  1.0
  H  H15  1  0.10678862  0.32311784  0.78663680  1.0
  S  S16  1  0.50000000  0.50000000  0.23385411  1.0
  S  S17  1  0.00000000  0.00000000  0.26614589  1.0
  S  S18  1  0.50000000  0.50000000  0.76614589  1.0
  S  S19  1  0.00000000  0.00000000  0.73385411  1.0
  S  S20  1  0.36548933  0.23198230  0.49993277  1.0
  S  S21  1  0.13451067  0.73198230  0.00006723  1.0
  S  S22  1  0.76801770  0.36548933  0.50006723  1.0
  S  S23  1  0.73198230  0.86548933  0.99993277  1.0
  S  S24  1  0.63451067  0.76801770  0.49993277  1.0
  S  S25  1  0.86548933  0.26801770  0.00006723  1.0
  S  S26  1  0.23198230  0.63451067  0.50006723  1.0
  S  S27  1  0.26801770  0.13451067  0.99993277  1.0
