# generated using pymatgen
data_Ti4(SiO8)3
_symmetry_space_group_name_H-M   'P 1'
_cell_length_a   7.90207409
_cell_length_b   7.90207409
_cell_length_c   7.90207409
_cell_angle_alpha   90.00000000
_cell_angle_beta   90.00000000
_cell_angle_gamma   90.00000000
_symmetry_Int_Tables_number   1
_chemical_formula_structural   Ti4(SiO8)3
_chemical_formula_sum   'Ti4 Si3 O24'
_cell_volume   493.42743411
_cell_formula_units_Z   1
loop_
 _symmetry_equiv_pos_site_id
 _symmetry_equiv_pos_as_xyz
  1  'x, y, z'
loop_
 _atom_site_type_symbol
 _atom_site_label
 _atom_site_symmetry_multiplicity
 _atom_site_fract_x
 _atom_site_fract_y
 _atom_site_fract_z
 _atom_site_occupancy
  Ti  Ti0  1  0.34641439  0.34641439  0.65358561  1.0
  Ti  Ti1  1  0.34641439  0.65358561  0.34641439  1.0
  Ti  Ti2  1  0.65358561  0.34641439  0.34641439  1.0
  Ti  Ti3  1  0.65358561  0.65358561  0.65358561  1.0
  O  O4  1  0.62093066  0.62093066  0.88198870  1.0
  O  O5  1  0.62093066  0.11801130  0.37906934  1.0
  O  O6  1  0.62093066  0.37906934  0.11801130  1.0
  O  O7  1  0.62093066  0.88198870  0.62093066  1.0
  O  O8  1  0.11801130  0.62093066  0.37906934  1.0
  O  O9  1  0.11801130  0.37906934  0.62093066  1.0
  O  O10  1  0.37906934  0.62093066  0.11801130  1.0
  O  O11  1  0.37906934  0.11801130  0.62093066  1.0
  O  O12  1  0.37906934  0.37906934  0.88198870  1.0
  O  O13  1  0.37906934  0.88198870  0.37906934  1.0
  O  O14  1  0.88198870  0.62093066  0.62093066  1.0
  O  O15  1  0.88198870  0.37906934  0.37906934  1.0
  O  O16  1  0.00000000  0.00000000  0.00000000  1.0
  O  O17  1  0.83851021  0.83851021  0.16148979  1.0
  O  O18  1  0.83851021  0.16148979  0.83851021  1.0
  O  O19  1  0.16148979  0.83851021  0.83851021  1.0
  O  O20  1  0.16148979  0.16148979  0.16148979  1.0
  O  O21  1  0.50000000  0.00000000  0.00000000  1.0
  O  O22  1  0.00000000  0.50000000  0.00000000  1.0
  O  O23  1  0.00000000  0.00000000  0.50000000  1.0
  O  O24  1  0.60428675  0.60428675  0.39571325  1.0
  O  O25  1  0.60428675  0.39571325  0.60428675  1.0
  O  O26  1  0.39571325  0.60428675  0.60428675  1.0
  O  O27  1  0.39571325  0.39571325  0.39571325  1.0
  Si  Si28  1  0.00000000  0.50000000  0.50000000  1.0
  Si  Si29  1  0.50000000  0.00000000  0.50000000  1.0
  Si  Si30  1  0.50000000  0.50000000  0.00000000  1.0
