# generated using pymatgen
data_SrH2
_symmetry_space_group_name_H-M   'P 1'
_cell_length_a   6.35458435
_cell_length_b   3.85871665
_cell_length_c   7.29854481
_cell_angle_alpha   90.00000000
_cell_angle_beta   90.00000000
_cell_angle_gamma   90.00000000
_symmetry_Int_Tables_number   1
_chemical_formula_structural   SrH2
_chemical_formula_sum   'Sr4 H8'
_cell_volume   178.96426341
_cell_formula_units_Z   4
loop_
 _symmetry_equiv_pos_site_id
 _symmetry_equiv_pos_as_xyz
  1  'x, y, z'
loop_
 _atom_site_type_symbol
 _atom_site_label
 _atom_site_symmetry_multiplicity
 _atom_site_fract_x
 _atom_site_fract_y
 _atom_site_fract_z
 _atom_site_occupancy
  Sr  Sr0  1  0.73929165  0.75000000  0.38954219  1.0
  Sr  Sr1  1  0.23929165  0.75000000  0.11045781  1.0
  Sr  Sr2  1  0.26070835  0.25000000  0.61045781  1.0
  Sr  Sr3  1  0.76070835  0.25000000  0.88954219  1.0
  H  H4  1  0.97368682  0.75000000  0.67847252  1.0
  H  H5  1  0.47368682  0.75000000  0.82152748  1.0
  H  H6  1  0.02631318  0.25000000  0.32152748  1.0
  H  H7  1  0.52631318  0.25000000  0.17847252  1.0
  H  H8  1  0.85466416  0.75000000  0.07253324  1.0
  H  H9  1  0.35466416  0.75000000  0.42746676  1.0
  H  H10  1  0.14533584  0.25000000  0.92746676  1.0
  H  H11  1  0.64533584  0.25000000  0.57253324  1.0
