# generated using pymatgen
data_BaYAgSe3
_symmetry_space_group_name_H-M   'P 1'
_cell_length_a   7.46550678
_cell_length_b   7.46550678
_cell_length_c   10.78035013
_cell_angle_alpha   90.00000000
_cell_angle_beta   90.00000000
_cell_angle_gamma   146.65345507
_symmetry_Int_Tables_number   1
_chemical_formula_structural   BaYAgSe3
_chemical_formula_sum   'Ba2 Y2 Ag2 Se6'
_cell_volume   330.27710406
_cell_formula_units_Z   2
loop_
 _symmetry_equiv_pos_site_id
 _symmetry_equiv_pos_as_xyz
  1  'x, y, z'
loop_
 _atom_site_type_symbol
 _atom_site_label
 _atom_site_symmetry_multiplicity
 _atom_site_fract_x
 _atom_site_fract_y
 _atom_site_fract_z
 _atom_site_occupancy
  Ba  Ba0  1  -0.24867886  0.24867886  0.75000000  1.0
  Ba  Ba1  1  0.24867886  0.75132114  0.25000000  1.0
  Y  Y2  1  0.00000000  0.00000000  0.00000000  1.0
  Y  Y3  1  0.00000000  0.00000000  0.50000000  1.0
  Ag  Ag4  1  0.46981193  0.53018807  0.75000000  1.0
  Ag  Ag5  1  -0.46981193  0.46981193  0.25000000  1.0
  Se  Se6  1  0.36448300  0.63551700  0.94978998  1.0
  Se  Se7  1  0.36448300  0.63551700  0.55021002  1.0
  Se  Se8  1  -0.36448300  0.36448300  0.44978998  1.0
  Se  Se9  1  -0.36448300  0.36448300  0.05021002  1.0
  Se  Se10  1  0.07978224  0.92021776  0.75000000  1.0
  Se  Se11  1  -0.07978224  0.07978224  0.25000000  1.0
