# generated using pymatgen
data_CaV2O6
_symmetry_space_group_name_H-M   'P 1'
_cell_length_a   5.72875963
_cell_length_b   5.72875963
_cell_length_c   7.23115815
_cell_angle_alpha   80.15526446
_cell_angle_beta   99.84473554
_cell_angle_gamma   142.87524360
_symmetry_Int_Tables_number   1
_chemical_formula_structural   CaV2O6
_chemical_formula_sum   'Ca1 V2 O6'
_cell_volume   140.88437520
_cell_formula_units_Z   1
loop_
 _symmetry_equiv_pos_site_id
 _symmetry_equiv_pos_as_xyz
  1  'x, y, z'
loop_
 _atom_site_type_symbol
 _atom_site_label
 _atom_site_symmetry_multiplicity
 _atom_site_fract_x
 _atom_site_fract_y
 _atom_site_fract_z
 _atom_site_occupancy
  Ca  Ca0  1  0.50000000  0.50000000  0.00000000  1.0
  V  V1  1  0.75493392  0.24506608  0.67800228  1.0
  V  V2  1  0.24506608  -0.24506608  0.32199772  1.0
  O  O3  1  0.88327572  0.11672428  0.84973172  1.0
  O  O4  1  0.11672428  -0.11672428  0.15026828  1.0
  O  O5  1  0.73605143  0.26394857  0.39705547  1.0
  O  O6  1  0.26394857  -0.26394857  0.60294453  1.0
  O  O7  1  0.63000019  0.36999981  0.77443333  1.0
  O  O8  1  0.36999981  -0.36999981  0.22556667  1.0
