# generated using pymatgen
data_RbCaZrF7
_symmetry_space_group_name_H-M   'P 1'
_cell_length_a   6.65400567
_cell_length_b   6.65400567
_cell_length_c   8.63128649
_cell_angle_alpha   90.00000000
_cell_angle_beta   90.00000000
_cell_angle_gamma   116.89919860
_symmetry_Int_Tables_number   1
_chemical_formula_structural   RbCaZrF7
_chemical_formula_sum   'Rb2 Ca2 Zr2 F14'
_cell_volume   340.80912349
_cell_formula_units_Z   2
loop_
 _symmetry_equiv_pos_site_id
 _symmetry_equiv_pos_as_xyz
  1  'x, y, z'
loop_
 _atom_site_type_symbol
 _atom_site_label
 _atom_site_symmetry_multiplicity
 _atom_site_fract_x
 _atom_site_fract_y
 _atom_site_fract_z
 _atom_site_occupancy
  Rb  Rb0  1  0.00000000  0.00000000  0.50000000  1.0
  Rb  Rb1  1  0.00000000  0.00000000  0.00000000  1.0
  Ca  Ca2  1  -0.31019282  1.31019282  0.25000000  1.0
  Ca  Ca3  1  0.31019282  0.68980718  0.75000000  1.0
  Zr  Zr4  1  0.30617203  0.69382797  0.25000000  1.0
  Zr  Zr5  1  -0.30617203  1.30617203  0.75000000  1.0
  F  F6  1  -0.02228415  1.67202628  0.25000000  1.0
  F  F7  1  0.67202628  0.97771585  0.75000000  1.0
  F  F8  1  -0.67202628  1.02228415  0.25000000  1.0
  F  F9  1  0.02228415  0.32797372  0.75000000  1.0
  F  F10  1  0.06378598  0.35086320  0.25000000  1.0
  F  F11  1  -0.64913680  1.06378598  0.75000000  1.0
  F  F12  1  0.64913680  0.93621402  0.25000000  1.0
  F  F13  1  -0.06378598  1.64913680  0.75000000  1.0
  F  F14  1  0.29857596  0.70142404  0.48574848  1.0
  F  F15  1  0.29857596  0.70142404  0.01425152  1.0
  F  F16  1  -0.29857596  1.29857596  0.98574848  1.0
  F  F17  1  -0.29857596  1.29857596  0.51425152  1.0
  F  F18  1  0.48771046  0.51228954  0.25000000  1.0
  F  F19  1  -0.48771046  1.48771046  0.75000000  1.0
