# generated using pymatgen
data_Na2FeCoF7
_symmetry_space_group_name_H-M   'P 1'
_cell_length_a   7.43627271
_cell_length_b   7.43627271
_cell_length_c   7.43627271
_cell_angle_alpha   119.52873219
_cell_angle_beta   90.97271895
_cell_angle_gamma   119.35134237
_symmetry_Int_Tables_number   1
_chemical_formula_structural   Na2FeCoF7
_chemical_formula_sum   'Na4 Fe2 Co2 F14'
_cell_volume   293.18532861
_cell_formula_units_Z   2
loop_
 _symmetry_equiv_pos_site_id
 _symmetry_equiv_pos_as_xyz
  1  'x, y, z'
loop_
 _atom_site_type_symbol
 _atom_site_label
 _atom_site_symmetry_multiplicity
 _atom_site_fract_x
 _atom_site_fract_y
 _atom_site_fract_z
 _atom_site_occupancy
  Co  Co0  1  1.11227040  1.36228140  0.74998900  1.0
  Co  Co1  1  1.61229240  1.36228140  1.25001100  1.0
  Fe  Fe2  1  1.11229445  0.86224528  0.74995083  1.0
  Fe  Fe3  1  1.11229445  1.36234362  1.25004917  1.0
  Na  Na4  1  1.61300237  0.86251392  0.75048844  1.0
  Na  Na5  1  1.11202548  0.86251392  0.24951156  1.0
  Na  Na6  1  0.61175117  0.36165552  0.74990435  1.0
  Na  Na7  1  0.61175117  0.86184682  1.25009565  1.0
  F  F8  1  0.43351141  0.59044876  0.84306265  1.0
  F  F9  1  0.74738611  0.59044876  1.15693735  1.0
  F  F10  1  0.79104241  0.13403181  0.65701060  1.0
  F  F11  1  0.47702122  0.13403181  0.34298940  1.0
  F  F12  1  1.16584807  1.09008958  0.66079607  1.0
  F  F13  1  1.42929351  1.09008958  0.92424151  1.0
  F  F14  1  1.16584807  1.50505200  1.07575849  1.0
  F  F15  1  1.42929351  1.50505200  1.33920393  1.0
  F  F16  1  1.05873254  1.21952553  0.42424772  1.0
  F  F17  1  1.79527781  1.21952553  1.16079299  1.0
  F  F18  1  1.05873254  1.63448482  0.83920701  1.0
  F  F19  1  1.79527781  1.63448482  1.57575228  1.0
  F  F20  1  1.20025007  0.70025007  0.50000000  1.0
  F  F21  1  0.02430302  0.02430302  0.00000000  1.0
