# generated using pymatgen
data_Te3Mo3I
_symmetry_space_group_name_H-M   'P 1'
_cell_length_a   7.29474115
_cell_length_b   7.29474115
_cell_length_c   7.29474115
_cell_angle_alpha   95.77466968
_cell_angle_beta   95.77466968
_cell_angle_gamma   95.77466968
_symmetry_Int_Tables_number   1
_chemical_formula_structural   Te3Mo3I
_chemical_formula_sum   'Te6 Mo6 I2'
_cell_volume   381.83500597
_cell_formula_units_Z   2
loop_
 _symmetry_equiv_pos_site_id
 _symmetry_equiv_pos_as_xyz
  1  'x, y, z'
loop_
 _atom_site_type_symbol
 _atom_site_label
 _atom_site_symmetry_multiplicity
 _atom_site_fract_x
 _atom_site_fract_y
 _atom_site_fract_z
 _atom_site_occupancy
  Te  Te0  1  0.86834363  0.61755343  0.21204335  1.0
  Te  Te1  1  1.38244657  -0.21204335  0.13165637  1.0
  Te  Te2  1  0.78795665  0.13165637  0.38244657  1.0
  Te  Te3  1  1.13165637  0.38244657  -0.21204335  1.0
  Te  Te4  1  0.61755343  1.21204335  -0.13165637  1.0
  Te  Te5  1  1.21204335  0.86834363  -0.38244657  1.0
  Mo  Mo6  1  0.75302540  0.91490428  0.04052951  1.0
  Mo  Mo7  1  1.08509572  -0.04052951  0.24697460  1.0
  Mo  Mo8  1  0.95947049  0.24697460  0.08509572  1.0
  Mo  Mo9  1  1.24697460  0.08509572  -0.04052951  1.0
  Mo  Mo10  1  0.91490428  1.04052951  -0.24697460  1.0
  Mo  Mo11  1  1.04052951  0.75302540  -0.08509572  1.0
  I  I12  1  0.69538446  0.69538446  0.69538446  1.0
  I  I13  1  0.30461554  0.30461554  0.30461554  1.0
