# generated using pymatgen
data_KZnCO3F
_symmetry_space_group_name_H-M   'P 1'
_cell_length_a   5.07538453
_cell_length_b   5.07538453
_cell_length_c   8.55817014
_cell_angle_alpha   90.00000000
_cell_angle_beta   90.00000000
_cell_angle_gamma   120.00000000
_symmetry_Int_Tables_number   1
_chemical_formula_structural   KZnCO3F
_chemical_formula_sum   'K2 Zn2 C2 O6 F2'
_cell_volume   190.91913186
_cell_formula_units_Z   2
loop_
 _symmetry_equiv_pos_site_id
 _symmetry_equiv_pos_as_xyz
  1  'x, y, z'
loop_
 _atom_site_type_symbol
 _atom_site_label
 _atom_site_symmetry_multiplicity
 _atom_site_fract_x
 _atom_site_fract_y
 _atom_site_fract_z
 _atom_site_occupancy
  K  K0  1  0.00000000  0.00000000  0.50000000  1.0
  K  K1  1  0.00000000  0.00000000  0.00000000  1.0
  Zn  Zn2  1  0.33333333  0.66666667  0.25000000  1.0
  Zn  Zn3  1  0.33333333  0.66666667  0.75000000  1.0
  C  C4  1  0.66666667  0.33333333  0.25000000  1.0
  C  C5  1  0.66666667  0.33333333  0.75000000  1.0
  O  O6  1  0.69231743  0.60041618  0.25000000  1.0
  O  O7  1  0.69231743  0.09190125  0.75000000  1.0
  O  O8  1  0.90809875  0.60041618  0.75000000  1.0
  O  O9  1  0.90809875  0.30768257  0.25000000  1.0
  O  O10  1  0.39958382  0.30768257  0.75000000  1.0
  O  O11  1  0.39958382  0.09190125  0.25000000  1.0
  F  F12  1  0.33333333  0.66666667  0.50000000  1.0
  F  F13  1  0.33333333  0.66666667  0.00000000  1.0
