# generated using pymatgen
data_Mn(IO3)2
_symmetry_space_group_name_H-M   'P 1'
_cell_length_a   11.24990325
_cell_length_b   5.20089072
_cell_length_c   11.15861063
_cell_angle_alpha   90.00000000
_cell_angle_beta   120.68789504
_cell_angle_gamma   90.00000000
_symmetry_Int_Tables_number   1
_chemical_formula_structural   Mn(IO3)2
_chemical_formula_sum   'Mn4 I8 O24'
_cell_volume   561.45499326
_cell_formula_units_Z   4
loop_
 _symmetry_equiv_pos_site_id
 _symmetry_equiv_pos_as_xyz
  1  'x, y, z'
loop_
 _atom_site_type_symbol
 _atom_site_label
 _atom_site_symmetry_multiplicity
 _atom_site_fract_x
 _atom_site_fract_y
 _atom_site_fract_z
 _atom_site_occupancy
  Mn  Mn0  1  0.98874927  0.27303909  0.74633095  1.0
  Mn  Mn1  1  0.01125073  0.77303909  0.25366905  1.0
  Mn  Mn2  1  0.48877357  0.27286798  0.74633649  1.0
  Mn  Mn3  1  0.51122643  0.77286798  0.25366351  1.0
  I  I4  1  0.83528404  0.18679784  0.39954229  1.0
  I  I5  1  0.16471596  0.68679784  0.60045771  1.0
  I  I6  1  0.83435010  0.21197489  0.93325604  1.0
  I  I7  1  0.16564990  0.71197489  0.06674396  1.0
  I  I8  1  0.66470848  0.68681690  0.60049963  1.0
  I  I9  1  0.33529152  0.18681690  0.39950037  1.0
  I  I10  1  0.33431412  0.21170332  0.93312606  1.0
  I  I11  1  0.66568588  0.71170332  0.06687394  1.0
  O  O12  1  0.98082963  -0.00485608  0.39880897  1.0
  O  O13  1  0.01917037  0.49514392  0.60119103  1.0
  O  O14  1  0.95473009  0.04278675  0.88446350  1.0
  O  O15  1  0.04526991  0.54278675  0.11553650  1.0
  O  O16  1  0.86464569  -0.00838008  0.08494821  1.0
  O  O17  1  0.13535431  0.49161992  0.91505179  1.0
  O  O18  1  0.85359666  0.06138303  0.56847864  1.0
  O  O19  1  0.14640334  0.56138303  0.43152136  1.0
  O  O20  1  0.82008238  0.48316630  0.73295807  1.0
  O  O21  1  0.17991762  0.98316630  0.26704193  1.0
  O  O22  1  0.67999220  -0.01716909  0.26715334  1.0
  O  O23  1  0.32000780  0.48283091  0.73284666  1.0
  O  O24  1  0.66571762  0.05237927  0.79714976  1.0
  O  O25  1  0.33428238  0.55237927  0.20285024  1.0
  O  O26  1  0.63533123  0.49123335  0.91518920  1.0
  O  O27  1  0.36466877  0.99123335  0.08481080  1.0
  O  O28  1  0.51924767  0.49503970  0.60132438  1.0
  O  O29  1  0.48075233  -0.00496030  0.39867562  1.0
  O  O30  1  0.45464356  0.04242287  0.88429555  1.0
  O  O31  1  0.54535644  0.54242287  0.11570445  1.0
  O  O32  1  0.35361136  0.06121527  0.56840582  1.0
  O  O33  1  0.64638864  0.56121527  0.43159418  1.0
  O  O34  1  0.16557899  0.05237867  0.79705429  1.0
  O  O35  1  0.83442101  0.55237867  0.20294571  1.0
