# generated using pymatgen
data_YSiAu
_symmetry_space_group_name_H-M   'P 1'
_cell_length_a   4.29863364
_cell_length_b   4.29863364
_cell_length_c   7.73132035
_cell_angle_alpha   90.00000000
_cell_angle_beta   90.00000000
_cell_angle_gamma   120.00000000
_symmetry_Int_Tables_number   1
_chemical_formula_structural   YSiAu
_chemical_formula_sum   'Y2 Si2 Au2'
_cell_volume   123.72149688
_cell_formula_units_Z   2
loop_
 _symmetry_equiv_pos_site_id
 _symmetry_equiv_pos_as_xyz
  1  'x, y, z'
loop_
 _atom_site_type_symbol
 _atom_site_label
 _atom_site_symmetry_multiplicity
 _atom_site_fract_x
 _atom_site_fract_y
 _atom_site_fract_z
 _atom_site_occupancy
  Y  Y0  1  -0.00000000  -0.00000000  -0.00028764  1.0
  Y  Y1  1  -0.00000000  0.00000000  0.49971236  1.0
  Si  Si2  1  0.33333333  0.66666667  0.72850099  1.0
  Si  Si3  1  0.66666667  0.33333333  0.22850099  1.0
  Au  Au4  1  0.33333333  0.66666667  0.26278665  1.0
  Au  Au5  1  0.66666667  0.33333333  0.76278665  1.0
