# generated using pymatgen
data_Ti(FeO2)2
_symmetry_space_group_name_H-M   'P 1'
_cell_length_a   9.87961754
_cell_length_b   2.90299666
_cell_length_c   9.22476476
_cell_angle_alpha   90.00000000
_cell_angle_beta   90.00000000
_cell_angle_gamma   90.00000000
_symmetry_Int_Tables_number   1
_chemical_formula_structural   Ti(FeO2)2
_chemical_formula_sum   'Ti4 Fe8 O16'
_cell_volume   264.57083554
_cell_formula_units_Z   4
loop_
 _symmetry_equiv_pos_site_id
 _symmetry_equiv_pos_as_xyz
  1  'x, y, z'
loop_
 _atom_site_type_symbol
 _atom_site_label
 _atom_site_symmetry_multiplicity
 _atom_site_fract_x
 _atom_site_fract_y
 _atom_site_fract_z
 _atom_site_occupancy
  Ti  Ti0  1  0.92289895  0.50000000  0.63502729  1.0
  Ti  Ti1  1  0.07710105  0.50000000  0.36497271  1.0
  Ti  Ti2  1  0.57710105  0.50000000  0.63502729  1.0
  Ti  Ti3  1  0.42289895  0.50000000  0.36497271  1.0
  O  O4  1  0.00000000  0.00000000  0.50000000  1.0
  O  O5  1  0.50000000  -0.00000000  0.50000000  1.0
  O  O6  1  0.00000000  0.50000000  -0.00000000  1.0
  O  O7  1  0.50000000  0.50000000  -0.00000000  1.0
  O  O8  1  0.75000000  0.50000000  0.52897906  1.0
  O  O9  1  0.25000000  0.50000000  0.47102094  1.0
  O  O10  1  0.61705503  0.00000000  0.77896843  1.0
  O  O11  1  0.38294497  -0.00000000  0.22103157  1.0
  O  O12  1  0.88294497  -0.00000000  0.77896843  1.0
  O  O13  1  0.11705503  -0.00000000  0.22103157  1.0
  O  O14  1  0.60956520  0.50000000  0.27007367  1.0
  O  O15  1  0.39043480  0.50000000  0.72992633  1.0
  O  O16  1  0.89043480  0.50000000  0.27007367  1.0
  O  O17  1  0.10956520  0.50000000  0.72992633  1.0
  O  O18  1  0.75000000  0.00000000  0.04759389  1.0
  O  O19  1  0.25000000  0.00000000  0.95240611  1.0
  Fe  Fe20  1  0.75000000  0.50000000  0.89692391  1.0
  Fe  Fe21  1  0.25000000  0.50000000  0.10307609  1.0
  Fe  Fe22  1  0.75000000  0.00000000  0.35001404  1.0
  Fe  Fe23  1  0.25000000  0.00000000  0.64998596  1.0
  Fe  Fe24  1  0.93030269  0.00000000  0.13584402  1.0
  Fe  Fe25  1  0.06969731  0.00000000  0.86415598  1.0
  Fe  Fe26  1  0.56969731  -0.00000000  0.13584402  1.0
  Fe  Fe27  1  0.43030269  -0.00000000  0.86415598  1.0
