# generated using pymatgen
data_K3Co(CN)6
_symmetry_space_group_name_H-M   'P 1'
_cell_length_a   7.14471923
_cell_length_b   10.46197398
_cell_length_c   8.42661670
_cell_angle_alpha   90.00000000
_cell_angle_beta   107.44408886
_cell_angle_gamma   90.00000000
_symmetry_Int_Tables_number   1
_chemical_formula_structural   K3Co(CN)6
_chemical_formula_sum   'K6 Co2 C12 N12'
_cell_volume   600.90378483
_cell_formula_units_Z   2
loop_
 _symmetry_equiv_pos_site_id
 _symmetry_equiv_pos_as_xyz
  1  'x, y, z'
loop_
 _atom_site_type_symbol
 _atom_site_label
 _atom_site_symmetry_multiplicity
 _atom_site_fract_x
 _atom_site_fract_y
 _atom_site_fract_z
 _atom_site_occupancy
  K  K0  1  0.49687490  0.28308848  0.37533381  1.0
  K  K1  1  0.49687490  0.21691152  0.87533381  1.0
  K  K2  1  0.50312510  0.78308848  0.12466619  1.0
  K  K3  1  0.50312510  0.71691152  0.62466619  1.0
  K  K4  1  -0.00000000  0.50000000  0.50000000  1.0
  K  K5  1  0.00000000  0.00000000  0.00000000  1.0
  Co  Co6  1  0.00000000  0.50000000  0.00000000  1.0
  Co  Co7  1  -0.00000000  0.00000000  0.50000000  1.0
  C  C8  1  0.88075436  0.83863383  0.47558609  1.0
  C  C9  1  0.88075436  0.66136617  0.97558609  1.0
  C  C10  1  0.11924564  0.33863383  0.02441391  1.0
  C  C11  1  0.11924564  0.16136617  0.52441391  1.0
  C  C12  1  0.81986538  0.04839903  0.29665251  1.0
  C  C13  1  0.81986538  0.45160097  0.79665251  1.0
  C  C14  1  0.18013462  0.54839903  0.20334749  1.0
  C  C15  1  0.18013462  0.95160097  0.70334749  1.0
  C  C16  1  0.82428587  0.44249760  0.11212870  1.0
  C  C17  1  0.82428587  0.05750240  0.61212870  1.0
  C  C18  1  0.17571413  0.94249760  0.38787130  1.0
  C  C19  1  0.17571413  0.55750240  0.88787130  1.0
  N  N20  1  0.80088660  0.73925987  0.45659649  1.0
  N  N21  1  0.80088660  0.76074013  0.95659649  1.0
  N  N22  1  0.19911340  0.23925987  0.04340351  1.0
  N  N23  1  0.19911340  0.26074013  0.54340351  1.0
  N  N24  1  0.71693676  0.40694669  0.18430450  1.0
  N  N25  1  0.71693676  0.09305331  0.68430450  1.0
  N  N26  1  0.28306324  0.90694669  0.31569550  1.0
  N  N27  1  0.28306324  0.59305331  0.81569550  1.0
  N  N28  1  0.70839324  0.07597945  0.16785536  1.0
  N  N29  1  0.70839324  0.42402055  0.66785536  1.0
  N  N30  1  0.29160676  0.57597945  0.33214464  1.0
  N  N31  1  0.29160676  0.92402055  0.83214464  1.0
