# generated using pymatgen
data_Ba3ZnSb2O9
_symmetry_space_group_name_H-M   'P 1'
_cell_length_a   5.93448898
_cell_length_b   5.93448898
_cell_length_c   14.71140414
_cell_angle_alpha   90.00000000
_cell_angle_beta   90.00000000
_cell_angle_gamma   120.00000000
_symmetry_Int_Tables_number   1
_chemical_formula_structural   Ba3ZnSb2O9
_chemical_formula_sum   'Ba6 Zn2 Sb4 O18'
_cell_volume   448.69518896
_cell_formula_units_Z   2
loop_
 _symmetry_equiv_pos_site_id
 _symmetry_equiv_pos_as_xyz
  1  'x, y, z'
loop_
 _atom_site_type_symbol
 _atom_site_label
 _atom_site_symmetry_multiplicity
 _atom_site_fract_x
 _atom_site_fract_y
 _atom_site_fract_z
 _atom_site_occupancy
  Ba  Ba0  1  0.33333333  0.66666667  0.41321412  1.0
  Ba  Ba1  1  0.33333333  0.66666667  0.08678588  1.0
  Ba  Ba2  1  0.66666667  0.33333333  0.91321412  1.0
  Ba  Ba3  1  0.66666667  0.33333333  0.58678588  1.0
  Ba  Ba4  1  0.00000000  0.00000000  0.25000000  1.0
  Ba  Ba5  1  0.00000000  0.00000000  0.75000000  1.0
  Zn  Zn6  1  0.00000000  0.00000000  0.50000000  1.0
  Zn  Zn7  1  0.00000000  0.00000000  0.00000000  1.0
  Sb  Sb8  1  0.33333333  0.66666667  0.84816413  1.0
  Sb  Sb9  1  0.33333333  0.66666667  0.65183587  1.0
  Sb  Sb10  1  0.66666667  0.33333333  0.34816413  1.0
  Sb  Sb11  1  0.66666667  0.33333333  0.15183587  1.0
  O  O12  1  0.16888383  0.83111617  0.91585427  1.0
  O  O13  1  0.16888383  0.83111617  0.58414573  1.0
  O  O14  1  0.16888383  0.33776766  0.91585427  1.0
  O  O15  1  0.16888383  0.33776766  0.58414573  1.0
  O  O16  1  0.83111617  0.16888383  0.41585427  1.0
  O  O17  1  0.83111617  0.16888383  0.08414573  1.0
  O  O18  1  0.83111617  0.66223234  0.41585427  1.0
  O  O19  1  0.83111617  0.66223234  0.08414573  1.0
  O  O20  1  0.66223234  0.83111617  0.91585427  1.0
  O  O21  1  0.66223234  0.83111617  0.58414573  1.0
  O  O22  1  0.33776766  0.16888383  0.41585427  1.0
  O  O23  1  0.33776766  0.16888383  0.08414573  1.0
  O  O24  1  0.51757984  0.48242016  0.25000000  1.0
  O  O25  1  0.51757984  0.03515968  0.25000000  1.0
  O  O26  1  0.48242016  0.51757984  0.75000000  1.0
  O  O27  1  0.48242016  0.96484032  0.75000000  1.0
  O  O28  1  0.96484032  0.48242016  0.25000000  1.0
  O  O29  1  0.03515968  0.51757984  0.75000000  1.0
