# generated using pymatgen
data_Ba2SrWO6
_symmetry_space_group_name_H-M   'P 1'
_cell_length_a   6.07649291
_cell_length_b   6.07649291
_cell_length_c   6.18062797
_cell_angle_alpha   60.35032095
_cell_angle_beta   119.64967905
_cell_angle_gamma   119.87465165
_symmetry_Int_Tables_number   1
_chemical_formula_structural   Ba2SrWO6
_chemical_formula_sum   'Ba2 Sr1 W1 O6'
_cell_volume   162.37422158
_cell_formula_units_Z   1
loop_
 _symmetry_equiv_pos_site_id
 _symmetry_equiv_pos_as_xyz
  1  'x, y, z'
loop_
 _atom_site_type_symbol
 _atom_site_label
 _atom_site_symmetry_multiplicity
 _atom_site_fract_x
 _atom_site_fract_y
 _atom_site_fract_z
 _atom_site_occupancy
  Ba  Ba0  1  0.75274965  -0.75274965  0.26145600  1.0
  Ba  Ba1  1  0.24725035  -0.24725035  0.73854400  1.0
  Sr  Sr2  1  0.00000000  0.00000000  0.00000000  1.0
  W  W3  1  0.50000000  0.50000000  0.50000000  1.0
  O  O4  1  1.68336411  -0.23225808  0.67527055  1.0
  O  O5  1  1.23225808  -0.68336411  0.67527055  1.0
  O  O6  1  0.76774192  0.68336411  0.32472945  1.0
  O  O7  1  0.31663589  0.23225808  0.32472945  1.0
  O  O8  1  0.71819302  0.28180698  0.79335873  1.0
  O  O9  1  1.28180698  -0.28180698  0.20664127  1.0
