# generated using pymatgen
data_Cs7Cu6F19
_symmetry_space_group_name_H-M   'P 1'
_cell_length_a   8.61975331
_cell_length_b   8.61975331
_cell_length_c   11.73088349
_cell_angle_alpha   83.66430019
_cell_angle_beta   96.33569981
_cell_angle_gamma   137.03004083
_symmetry_Int_Tables_number   1
_chemical_formula_structural   Cs7Cu6F19
_chemical_formula_sum   'Cs7 Cu6 F19'
_cell_volume   589.90712504
_cell_formula_units_Z   1
loop_
 _symmetry_equiv_pos_site_id
 _symmetry_equiv_pos_as_xyz
  1  'x, y, z'
loop_
 _atom_site_type_symbol
 _atom_site_label
 _atom_site_symmetry_multiplicity
 _atom_site_fract_x
 _atom_site_fract_y
 _atom_site_fract_z
 _atom_site_occupancy
  Cu  Cu0  1  0.67825189  0.32174811  0.76983880  1.0
  Cu  Cu1  1  0.32174811  -0.32174811  0.23016120  1.0
  Cu  Cu2  1  0.85119221  0.14880779  0.73729063  1.0
  Cu  Cu3  1  0.14880779  -0.14880779  0.26270937  1.0
  Cu  Cu4  1  0.51242026  0.48757974  0.82589640  1.0
  Cu  Cu5  1  0.48757974  -0.48757974  0.17410360  1.0
  F  F6  1  0.54132610  0.45867390  0.66243340  1.0
  F  F7  1  0.45867390  -0.45867390  0.33756660  1.0
  F  F8  1  0.41296594  0.17144651  0.85622687  1.0
  F  F9  1  0.82855349  0.58703406  0.85622687  1.0
  F  F10  1  1.17144651  0.41296594  0.14377313  1.0
  F  F11  1  0.58703406  -0.17144651  0.14377313  1.0
  F  F12  1  0.52428065  0.05232241  0.68875706  1.0
  F  F13  1  0.94767759  0.47571935  0.68875706  1.0
  F  F14  1  1.05232241  0.52428065  0.31124294  1.0
  F  F15  1  0.47571935  -0.05232241  0.31124294  1.0
  F  F16  1  0.67191254  -0.18864099  0.78642625  1.0
  F  F17  1  1.18864099  0.32808746  0.78642625  1.0
  F  F18  1  0.81135901  0.67191254  0.21357375  1.0
  F  F19  1  0.32808746  0.18864099  0.21357375  1.0
  F  F20  1  0.50000000  0.50000000  0.00000000  1.0
  F  F21  1  0.88031684  0.11968316  0.58545675  1.0
  F  F22  1  0.11968316  -0.11968316  0.41454325  1.0
  F  F23  1  0.81302390  0.18697610  0.88580186  1.0
  F  F24  1  0.18697610  -0.18697610  0.11419814  1.0
  Cs  Cs25  1  0.92986246  0.07013754  0.34290572  1.0
  Cs  Cs26  1  0.07013754  -0.07013754  0.65709428  1.0
  Cs  Cs27  1  0.64857301  0.35142699  0.44440483  1.0
  Cs  Cs28  1  0.35142699  -0.35142699  0.55559517  1.0
  Cs  Cs29  1  0.29405976  -0.29405976  0.90879628  1.0
  Cs  Cs30  1  0.70594024  0.29405976  0.09120372  1.0
  Cs  Cs31  1  0.00000000  0.00000000  0.00000000  1.0
