# generated using pymatgen
data_YZnPO
_symmetry_space_group_name_H-M   'P 1'
_cell_length_a   10.38000496
_cell_length_b   10.38000496
_cell_length_c   10.38000496
_cell_angle_alpha   21.62412255
_cell_angle_beta   21.62412255
_cell_angle_gamma   21.62412255
_symmetry_Int_Tables_number   1
_chemical_formula_structural   YZnPO
_chemical_formula_sum   'Y2 Zn2 P2 O2'
_cell_volume   133.09407608
_cell_formula_units_Z   2
loop_
 _symmetry_equiv_pos_site_id
 _symmetry_equiv_pos_as_xyz
  1  'x, y, z'
loop_
 _atom_site_type_symbol
 _atom_site_label
 _atom_site_symmetry_multiplicity
 _atom_site_fract_x
 _atom_site_fract_y
 _atom_site_fract_z
 _atom_site_occupancy
  Y  Y0  1  1.62039204  0.62039204  0.62039204  1.0
  Y  Y1  1  1.37960796  0.37960796  0.37960796  1.0
  Zn  Zn2  1  0.80370608  0.80370608  0.80370608  1.0
  Zn  Zn3  1  1.19629392  1.19629392  0.19629392  1.0
  P  P4  1  0.88828515  0.88828515  0.88828515  1.0
  P  P5  1  1.11171485  1.11171485  0.11171485  1.0
  O  O6  1  0.69459076  0.69459076  0.69459076  1.0
  O  O7  1  1.30540924  1.30540924  0.30540924  1.0
