# generated using pymatgen
data_Li3Al2
_symmetry_space_group_name_H-M   'P 1'
_cell_length_a   5.35480057
_cell_length_b   5.35480057
_cell_length_c   5.35480057
_cell_angle_alpha   49.17152255
_cell_angle_beta   49.17152255
_cell_angle_gamma   49.17152255
_symmetry_Int_Tables_number   1
_chemical_formula_structural   Li3Al2
_chemical_formula_sum   'Li3 Al2'
_cell_volume   80.74965512
_cell_formula_units_Z   1
loop_
 _symmetry_equiv_pos_site_id
 _symmetry_equiv_pos_as_xyz
  1  'x, y, z'
loop_
 _atom_site_type_symbol
 _atom_site_label
 _atom_site_symmetry_multiplicity
 _atom_site_fract_x
 _atom_site_fract_y
 _atom_site_fract_z
 _atom_site_occupancy
  Li  Li0  1  1.59706870  0.59706870  0.59706870  1.0
  Li  Li1  1  1.40293130  0.40293130  0.40293130  1.0
  Li  Li2  1  0.00000000  0.00000000  0.00000000  1.0
  Al  Al3  1  0.80250468  0.80250468  0.80250468  1.0
  Al  Al4  1  1.19749532  1.19749532  0.19749532  1.0
