# generated using pymatgen
data_RbH2N
_symmetry_space_group_name_H-M   'P 1'
_cell_length_a   4.89610781
_cell_length_b   4.04243804
_cell_length_c   6.57499175
_cell_angle_alpha   90.00000000
_cell_angle_beta   98.17908617
_cell_angle_gamma   90.00000000
_symmetry_Int_Tables_number   1
_chemical_formula_structural   RbH2N
_chemical_formula_sum   'Rb2 H4 N2'
_cell_volume   128.80994384
_cell_formula_units_Z   2
loop_
 _symmetry_equiv_pos_site_id
 _symmetry_equiv_pos_as_xyz
  1  'x, y, z'
loop_
 _atom_site_type_symbol
 _atom_site_label
 _atom_site_symmetry_multiplicity
 _atom_site_fract_x
 _atom_site_fract_y
 _atom_site_fract_z
 _atom_site_occupancy
  Rb  Rb0  1  0.70959064  0.25000000  0.30570592  1.0
  Rb  Rb1  1  0.29040936  0.75000000  0.69429408  1.0
  H  H2  1  0.82416852  0.44635005  0.85881752  1.0
  H  H3  1  0.82416852  0.05364995  0.85881752  1.0
  H  H4  1  0.17583148  0.94635005  0.14118248  1.0
  H  H5  1  0.17583148  0.55364995  0.14118248  1.0
  N  N6  1  0.78457844  0.25000000  0.75873381  1.0
  N  N7  1  0.21542156  0.75000000  0.24126619  1.0
