# generated using pymatgen
data_TaCuO3
_symmetry_space_group_name_H-M   'P 1'
_cell_length_a   5.64662528
_cell_length_b   5.64662528
_cell_length_c   5.64662528
_cell_angle_alpha   55.12027607
_cell_angle_beta   55.12027607
_cell_angle_gamma   55.12027607
_symmetry_Int_Tables_number   1
_chemical_formula_structural   TaCuO3
_chemical_formula_sum   'Ta2 Cu2 O6'
_cell_volume   112.86006894
_cell_formula_units_Z   2
loop_
 _symmetry_equiv_pos_site_id
 _symmetry_equiv_pos_as_xyz
  1  'x, y, z'
loop_
 _atom_site_type_symbol
 _atom_site_label
 _atom_site_symmetry_multiplicity
 _atom_site_fract_x
 _atom_site_fract_y
 _atom_site_fract_z
 _atom_site_occupancy
  Ta  Ta0  1  0.00423464  0.00423464  0.00423464  1.0
  Ta  Ta1  1  0.50423464  0.50423464  -0.49576536  1.0
  Cu  Cu2  1  0.75424891  -0.24575109  -0.24575109  1.0
  Cu  Cu3  1  0.25424891  0.25424891  0.25424891  1.0
  O  O4  1  0.63929168  0.86905660  -0.74593183  1.0
  O  O5  1  0.13929168  0.75406817  -0.63094340  1.0
  O  O6  1  0.75406817  0.36905660  -0.86070832  1.0
  O  O7  1  0.25406817  0.63929168  -0.13094340  1.0
  O  O8  1  0.36905660  0.13929168  -0.24593183  1.0
  O  O9  1  0.86905660  0.25406817  -0.36070832  1.0
