# generated using pymatgen
data_Sr3YbRhO6
_symmetry_space_group_name_H-M   'P 1'
_cell_length_a   6.82799373
_cell_length_b   6.82799373
_cell_length_c   6.82799373
_cell_angle_alpha   92.08517474
_cell_angle_beta   92.08517474
_cell_angle_gamma   92.08517474
_symmetry_Int_Tables_number   1
_chemical_formula_structural   Sr3YbRhO6
_chemical_formula_sum   'Sr6 Yb2 Rh2 O12'
_cell_volume   317.68315686
_cell_formula_units_Z   2
loop_
 _symmetry_equiv_pos_site_id
 _symmetry_equiv_pos_as_xyz
  1  'x, y, z'
loop_
 _atom_site_type_symbol
 _atom_site_label
 _atom_site_symmetry_multiplicity
 _atom_site_fract_x
 _atom_site_fract_y
 _atom_site_fract_z
 _atom_site_occupancy
  Sr  Sr0  1  0.88227510  1.25000000  -0.38227510  1.0
  Sr  Sr1  1  1.38227510  0.11772490  -0.25000000  1.0
  Sr  Sr2  1  0.75000000  0.38227510  0.11772490  1.0
  Sr  Sr3  1  1.25000000  0.61772490  -0.11772490  1.0
  Sr  Sr4  1  1.11772490  -0.25000000  0.38227510  1.0
  Sr  Sr5  1  0.61772490  0.88227510  0.25000000  1.0
  Yb  Yb6  1  0.25000000  0.25000000  0.25000000  1.0
  Yb  Yb7  1  0.75000000  0.75000000  0.75000000  1.0
  Rh  Rh8  1  0.50000000  0.50000000  0.50000000  1.0
  Rh  Rh9  1  0.00000000  0.00000000  0.00000000  1.0
  O  O10  1  1.20974807  0.41102020  -0.45591187  1.0
  O  O11  1  0.70974807  1.04408813  -0.08897980  1.0
  O  O12  1  0.95591187  0.08897980  0.29025193  1.0
  O  O13  1  1.45591187  -0.20974807  0.58897980  1.0
  O  O14  1  1.58897980  0.45591187  -0.20974807  1.0
  O  O15  1  1.08897980  0.29025193  -0.04408813  1.0
  O  O16  1  0.79025193  0.58897980  0.45591187  1.0
  O  O17  1  1.29025193  -0.04408813  0.08897980  1.0
  O  O18  1  0.54408813  1.20974807  -0.58897980  1.0
  O  O19  1  1.04408813  0.91102020  -0.29025193  1.0
  O  O20  1  0.91102020  0.70974807  0.04408813  1.0
  O  O21  1  0.41102020  0.54408813  0.20974807  1.0
