# generated using pymatgen
data_Rb6Si10O23
_symmetry_space_group_name_H-M   'P 1'
_cell_length_a   9.67288840
_cell_length_b   9.67288840
_cell_length_c   8.35497225
_cell_angle_alpha   90.00000000
_cell_angle_beta   90.00000000
_cell_angle_gamma   120.00000000
_symmetry_Int_Tables_number   1
_chemical_formula_structural   Rb6Si10O23
_chemical_formula_sum   'Rb6 Si10 O23'
_cell_volume   676.99895329
_cell_formula_units_Z   1
loop_
 _symmetry_equiv_pos_site_id
 _symmetry_equiv_pos_as_xyz
  1  'x, y, z'
loop_
 _atom_site_type_symbol
 _atom_site_label
 _atom_site_symmetry_multiplicity
 _atom_site_fract_x
 _atom_site_fract_y
 _atom_site_fract_z
 _atom_site_occupancy
  Rb  Rb0  1  0.76374989  0.76374989  0.50000000  1.0
  Rb  Rb1  1  0.00000000  0.23625011  0.50000000  1.0
  Rb  Rb2  1  0.23625011  0.00000000  0.50000000  1.0
  Rb  Rb3  1  0.74944201  0.74944201  0.00000000  1.0
  Rb  Rb4  1  0.00000000  0.25055799  0.00000000  1.0
  Rb  Rb5  1  0.25055799  0.00000000  0.00000000  1.0
  Si  Si6  1  0.39388999  0.39388999  0.80318705  1.0
  Si  Si7  1  0.39388999  0.39388999  0.19681295  1.0
  Si  Si8  1  0.00000000  0.60611001  0.80318705  1.0
  Si  Si9  1  0.00000000  0.60611001  0.19681295  1.0
  Si  Si10  1  0.60611001  0.00000000  0.80318705  1.0
  Si  Si11  1  0.60611001  0.00000000  0.19681295  1.0
  Si  Si12  1  0.33333333  0.66666667  0.69449856  1.0
  Si  Si13  1  0.33333333  0.66666667  0.30550144  1.0
  Si  Si14  1  0.66666667  0.33333333  0.69449856  1.0
  Si  Si15  1  0.66666667  0.33333333  0.30550144  1.0
  O  O16  1  0.42447921  0.84976149  0.75805138  1.0
  O  O17  1  0.42447921  0.84976149  0.24194862  1.0
  O  O18  1  0.84976149  0.42447921  0.75805138  1.0
  O  O19  1  0.84976149  0.42447921  0.24194862  1.0
  O  O20  1  0.42528228  0.57552079  0.75805138  1.0
  O  O21  1  0.42528228  0.57552079  0.24194862  1.0
  O  O22  1  0.15023851  0.57471772  0.75805138  1.0
  O  O23  1  0.15023851  0.57471772  0.24194862  1.0
  O  O24  1  0.57552079  0.42528228  0.75805138  1.0
  O  O25  1  0.57552079  0.42528228  0.24194862  1.0
  O  O26  1  0.57471772  0.15023851  0.75805138  1.0
  O  O27  1  0.57471772  0.15023851  0.24194862  1.0
  O  O28  1  0.24418001  0.24418001  0.72719176  1.0
  O  O29  1  0.24418001  0.24418001  0.27280824  1.0
  O  O30  1  -0.00000000  0.75581999  0.72719176  1.0
  O  O31  1  -0.00000000  0.75581999  0.27280824  1.0
  O  O32  1  0.75581999  0.00000000  0.72719176  1.0
  O  O33  1  0.75581999  0.00000000  0.27280824  1.0
  O  O34  1  0.38663294  0.38663294  0.00000000  1.0
  O  O35  1  -0.00000000  0.61336706  0.00000000  1.0
  O  O36  1  0.61336706  0.00000000  0.00000000  1.0
  O  O37  1  0.33333333  0.66666667  0.50000000  1.0
  O  O38  1  0.66666667  0.33333333  0.50000000  1.0
