# generated using pymatgen
data_LaFe5H7
_symmetry_space_group_name_H-M   'P 1'
_cell_length_a   5.53329110
_cell_length_b   5.53329110
_cell_length_c   8.22339323
_cell_angle_alpha   90.00000000
_cell_angle_beta   90.00000000
_cell_angle_gamma   116.53117108
_symmetry_Int_Tables_number   1
_chemical_formula_structural   LaFe5H7
_chemical_formula_sum   'La2 Fe10 H14'
_cell_volume   225.26379521
_cell_formula_units_Z   2
loop_
 _symmetry_equiv_pos_site_id
 _symmetry_equiv_pos_as_xyz
  1  'x, y, z'
loop_
 _atom_site_type_symbol
 _atom_site_label
 _atom_site_symmetry_multiplicity
 _atom_site_fract_x
 _atom_site_fract_y
 _atom_site_fract_z
 _atom_site_occupancy
  La  La0  1  0.00000000  0.00000000  0.50000000  1.0
  La  La1  1  0.00000000  0.00000000  0.00000000  1.0
  Fe  Fe2  1  -0.50000000  0.50000000  0.25000000  1.0
  Fe  Fe3  1  -0.50000000  0.50000000  0.75000000  1.0
  Fe  Fe4  1  0.50000000  1.00000000  0.26659391  1.0
  Fe  Fe5  1  -0.00000000  0.50000000  0.23340609  1.0
  Fe  Fe6  1  0.50000000  1.00000000  0.73340609  1.0
  Fe  Fe7  1  -0.00000000  0.50000000  0.76659391  1.0
  Fe  Fe8  1  0.33894372  1.64611690  0.50000000  1.0
  Fe  Fe9  1  -0.33894372  0.35388310  0.50000000  1.0
  Fe  Fe10  1  0.64611690  1.33894372  0.00000000  1.0
  Fe  Fe11  1  -0.64611690  0.66105628  0.00000000  1.0
  H  H12  1  -0.15690678  0.15690678  0.25000000  1.0
  H  H13  1  -0.84309322  0.84309322  0.25000000  1.0
  H  H14  1  -0.84309322  0.84309322  0.75000000  1.0
  H  H15  1  -0.15690678  0.15690678  0.75000000  1.0
  H  H16  1  -0.40951673  0.79894795  0.15139594  1.0
  H  H17  1  0.40951673  1.20105205  0.15139594  1.0
  H  H18  1  -0.20105205  0.59048327  0.34860406  1.0
  H  H19  1  0.20105205  1.40951673  0.34860406  1.0
  H  H20  1  0.40951673  1.20105205  0.84860406  1.0
  H  H21  1  -0.40951673  0.79894795  0.84860406  1.0
  H  H22  1  0.20105205  1.40951673  0.65139594  1.0
  H  H23  1  -0.20105205  0.59048327  0.65139594  1.0
  H  H24  1  0.50000000  1.00000000  0.50000000  1.0
  H  H25  1  -0.00000000  0.50000000  0.00000000  1.0
