# generated using pymatgen
data_CsGd(WO4)2
_symmetry_space_group_name_H-M   'P 1'
_cell_length_a   7.69060312
_cell_length_b   7.69060312
_cell_length_c   7.73096342
_cell_angle_alpha   62.26901285
_cell_angle_beta   117.73098715
_cell_angle_gamma   91.23155277
_symmetry_Int_Tables_number   1
_chemical_formula_structural   CsGd(WO4)2
_chemical_formula_sum   'Cs2 Gd2 W4 O16'
_cell_volume   346.96823468
_cell_formula_units_Z   2
loop_
 _symmetry_equiv_pos_site_id
 _symmetry_equiv_pos_as_xyz
  1  'x, y, z'
loop_
 _atom_site_type_symbol
 _atom_site_label
 _atom_site_symmetry_multiplicity
 _atom_site_fract_x
 _atom_site_fract_y
 _atom_site_fract_z
 _atom_site_occupancy
  Cs  Cs0  1  0.19631035  0.19631035  0.25000000  1.0
  Cs  Cs1  1  0.80368965  0.80368965  0.75000000  1.0
  Gd  Gd2  1  0.77419830  0.77419830  0.25000000  1.0
  Gd  Gd3  1  0.22580170  0.22580170  0.75000000  1.0
  W  W4  1  0.69366979  0.31036002  0.22647512  1.0
  W  W5  1  0.68963998  0.30633021  0.72647512  1.0
  W  W6  1  1.31036002  -0.30633021  0.27352488  1.0
  W  W7  1  1.30633021  -0.31036002  0.77352488  1.0
  O  O8  1  1.58673739  -0.37374547  0.03400526  1.0
  O  O9  1  1.37374547  -0.58673739  0.53400526  1.0
  O  O10  1  0.62625453  0.58673739  0.46599474  1.0
  O  O11  1  0.41326261  0.37374547  0.96599474  1.0
  O  O12  1  0.77688063  0.05627319  0.29381685  1.0
  O  O13  1  0.94372681  0.22311937  0.79381685  1.0
  O  O14  1  1.05627319  -0.22311937  0.20618315  1.0
  O  O15  1  1.22311937  -0.05627319  0.70618315  1.0
  O  O16  1  1.37318517  -0.06771683  0.12927776  1.0
  O  O17  1  1.06771683  -0.37318517  0.62927776  1.0
  O  O18  1  0.93228317  0.37318517  0.37072224  1.0
  O  O19  1  0.62681483  0.06771683  0.87072224  1.0
  O  O20  1  0.61880252  0.24838611  0.43225052  1.0
  O  O21  1  0.75161389  0.38119748  0.93225052  1.0
  O  O22  1  1.24838611  -0.38119748  0.06774948  1.0
  O  O23  1  1.38119748  -0.24838611  0.56774948  1.0
