# generated using pymatgen
data_ScOF
_symmetry_space_group_name_H-M   'P 1'
_cell_length_a   5.34158267
_cell_length_b   4.93018213
_cell_length_c   5.82325879
_cell_angle_alpha   90.00000000
_cell_angle_beta   89.58390694
_cell_angle_gamma   90.00000000
_symmetry_Int_Tables_number   1
_chemical_formula_structural   ScOF
_chemical_formula_sum   'Sc4 O4 F4'
_cell_volume   153.35133333
_cell_formula_units_Z   4
loop_
 _symmetry_equiv_pos_site_id
 _symmetry_equiv_pos_as_xyz
  1  'x, y, z'
loop_
 _atom_site_type_symbol
 _atom_site_label
 _atom_site_symmetry_multiplicity
 _atom_site_fract_x
 _atom_site_fract_y
 _atom_site_fract_z
 _atom_site_occupancy
  Sc  Sc0  1  0.78122645  0.48369310  0.33039680  1.0
  Sc  Sc1  1  0.78122645  0.01630690  0.83039680  1.0
  Sc  Sc2  1  0.21877355  0.98369310  0.16960320  1.0
  Sc  Sc3  1  0.21877355  0.51630690  0.66960320  1.0
  O  O4  1  0.91906027  0.22145037  0.10489702  1.0
  O  O5  1  0.91906027  0.27854963  0.60489702  1.0
  O  O6  1  0.08093973  0.72145037  0.39510298  1.0
  O  O7  1  0.08093973  0.77854963  0.89510298  1.0
  F  F8  1  0.42476783  0.27271545  0.38228957  1.0
  F  F9  1  0.42476783  0.22728455  0.88228957  1.0
  F  F10  1  0.57523217  0.77271545  0.11771043  1.0
  F  F11  1  0.57523217  0.72728455  0.61771043  1.0
