# generated using pymatgen
data_Gd2NiPb2
_symmetry_space_group_name_H-M   'P 1'
_cell_length_a   7.84658184
_cell_length_b   7.84658184
_cell_length_c   3.64099433
_cell_angle_alpha   90.00000000
_cell_angle_beta   90.00000000
_cell_angle_gamma   143.98307862
_symmetry_Int_Tables_number   1
_chemical_formula_structural   Gd2NiPb2
_chemical_formula_sum   'Gd2 Ni1 Pb2'
_cell_volume   131.81844589
_cell_formula_units_Z   1
loop_
 _symmetry_equiv_pos_site_id
 _symmetry_equiv_pos_as_xyz
  1  'x, y, z'
loop_
 _atom_site_type_symbol
 _atom_site_label
 _atom_site_symmetry_multiplicity
 _atom_site_fract_x
 _atom_site_fract_y
 _atom_site_fract_z
 _atom_site_occupancy
  Gd  Gd0  1  0.38938532  0.61061468  0.50000000  1.0
  Gd  Gd1  1  -0.38938532  0.38938532  0.50000000  1.0
  Ni  Ni2  1  0.00000000  0.00000000  0.00000000  1.0
  Pb  Pb3  1  0.17929957  0.82070043  0.00000000  1.0
  Pb  Pb4  1  -0.17929957  0.17929957  0.00000000  1.0
