# generated using pymatgen
data_Sr6TbGa(BO3)6
_symmetry_space_group_name_H-M   'P 1'
_cell_length_a   7.76571621
_cell_length_b   7.76571621
_cell_length_c   7.76571621
_cell_angle_alpha   105.37795266
_cell_angle_beta   105.37795266
_cell_angle_gamma   105.37795266
_symmetry_Int_Tables_number   1
_chemical_formula_structural   Sr6TbGa(BO3)6
_chemical_formula_sum   'Sr6 Tb1 Ga1 B6 O18'
_cell_volume   406.04711670
_cell_formula_units_Z   1
loop_
 _symmetry_equiv_pos_site_id
 _symmetry_equiv_pos_as_xyz
  1  'x, y, z'
loop_
 _atom_site_type_symbol
 _atom_site_label
 _atom_site_symmetry_multiplicity
 _atom_site_fract_x
 _atom_site_fract_y
 _atom_site_fract_z
 _atom_site_occupancy
  Sr  Sr0  1  0.76807839  0.66335071  0.15117278  1.0
  Sr  Sr1  1  1.33664929  -0.15117278  0.23192161  1.0
  Sr  Sr2  1  0.84882722  0.23192161  0.33664929  1.0
  Sr  Sr3  1  1.23192161  0.33664929  -0.15117278  1.0
  Sr  Sr4  1  0.66335071  1.15117278  -0.23192161  1.0
  Sr  Sr5  1  1.15117278  0.76807839  -0.33664929  1.0
  Tb  Tb6  1  0.50000000  0.50000000  0.50000000  1.0
  Ga  Ga7  1  0.00000000  0.00000000  0.00000000  1.0
  B  B8  1  1.55057967  0.79674493  -0.11840216  1.0
  B  B9  1  1.20325507  0.11840216  -0.55057967  1.0
  B  B10  1  1.11840216  -0.55057967  0.20325507  1.0
  B  B11  1  0.44942033  0.20325507  0.11840216  1.0
  B  B12  1  0.79674493  0.88159784  0.55057967  1.0
  B  B13  1  0.88159784  1.55057967  -0.20325507  1.0
  O  O14  1  0.73199023  0.92959979  0.00434890  1.0
  O  O15  1  1.07040021  -0.00434890  -0.73199023  1.0
  O  O16  1  0.99565110  -0.73199023  0.07040021  1.0
  O  O17  1  0.26800977  0.07040021  -0.00434890  1.0
  O  O18  1  0.92959979  1.00434890  -0.26800977  1.0
  O  O19  1  1.00434890  0.73199023  -0.07040021  1.0
  O  O20  1  1.48744035  0.77774666  -0.31038868  1.0
  O  O21  1  1.22225334  0.31038868  -0.48744035  1.0
  O  O22  1  1.31038868  -0.48744035  0.22225334  1.0
  O  O23  1  0.51255965  0.22225334  0.31038868  1.0
  O  O24  1  0.77774666  0.68961132  0.48744035  1.0
  O  O25  1  0.68961132  1.48744035  -0.22225334  1.0
  O  O26  1  0.56604479  0.30445475  0.04613409  1.0
  O  O27  1  0.69554525  0.95386591  0.43395521  1.0
  O  O28  1  0.95386591  1.43395521  -0.30445475  1.0
  O  O29  1  1.43395521  0.69554525  -0.04613409  1.0
  O  O30  1  1.30445475  0.04613409  -0.43395521  1.0
  O  O31  1  1.04613409  -0.43395521  0.30445475  1.0
