# generated using pymatgen
data_KH2SNO3
_symmetry_space_group_name_H-M   'P 1'
_cell_length_a   6.07326714
_cell_length_b   8.51798072
_cell_length_c   8.24494135
_cell_angle_alpha   90.00000000
_cell_angle_beta   90.00000000
_cell_angle_gamma   90.00000000
_symmetry_Int_Tables_number   1
_chemical_formula_structural   KH2SNO3
_chemical_formula_sum   'K4 H8 S4 N4 O12'
_cell_volume   426.52707868
_cell_formula_units_Z   4
loop_
 _symmetry_equiv_pos_site_id
 _symmetry_equiv_pos_as_xyz
  1  'x, y, z'
loop_
 _atom_site_type_symbol
 _atom_site_label
 _atom_site_symmetry_multiplicity
 _atom_site_fract_x
 _atom_site_fract_y
 _atom_site_fract_z
 _atom_site_occupancy
  K  K0  1  0.33681988  0.25000000  0.50000000  1.0
  K  K1  1  0.33681988  0.25000000  0.00000000  1.0
  K  K2  1  0.66318012  0.75000000  0.50000000  1.0
  K  K3  1  0.66318012  0.75000000  0.00000000  1.0
  H  H4  1  0.75687130  0.12427688  0.35155321  1.0
  H  H5  1  0.75687130  0.12427688  0.14844679  1.0
  H  H6  1  0.75687130  0.37572312  0.85155321  1.0
  H  H7  1  0.75687130  0.37572312  0.64844679  1.0
  H  H8  1  0.24312870  0.62427688  0.35155321  1.0
  H  H9  1  0.24312870  0.62427688  0.14844679  1.0
  H  H10  1  0.24312870  0.87572312  0.85155321  1.0
  H  H11  1  0.24312870  0.87572312  0.64844679  1.0
  S  S12  1  0.82231131  0.36360554  0.25000000  1.0
  S  S13  1  0.82231131  0.13639446  0.75000000  1.0
  S  S14  1  0.17768869  0.86360554  0.25000000  1.0
  S  S15  1  0.17768869  0.63639446  0.75000000  1.0
  N  N16  1  0.70705917  0.18476553  0.25000000  1.0
  N  N17  1  0.70705917  0.31523447  0.75000000  1.0
  N  N18  1  0.29294083  0.68476553  0.25000000  1.0
  N  N19  1  0.29294083  0.81523447  0.75000000  1.0
  O  O20  1  0.73774529  0.43657282  0.40005947  1.0
  O  O21  1  0.73774529  0.43657282  0.09994053  1.0
  O  O22  1  0.73774529  0.06342718  0.90005947  1.0
  O  O23  1  0.73774529  0.06342718  0.59994053  1.0
  O  O24  1  0.26225471  0.93657282  0.40005947  1.0
  O  O25  1  0.26225471  0.93657282  0.09994053  1.0
  O  O26  1  0.26225471  0.56342718  0.90005947  1.0
  O  O27  1  0.26225471  0.56342718  0.59994053  1.0
  O  O28  1  0.93472447  0.84823006  0.25000000  1.0
  O  O29  1  0.93472447  0.65176994  0.75000000  1.0
  O  O30  1  0.06527553  0.34823006  0.25000000  1.0
  O  O31  1  0.06527553  0.15176994  0.75000000  1.0
