# generated using pymatgen
data_La3Ni2Sn7
_symmetry_space_group_name_H-M   'P 1'
_cell_length_a   14.10150757
_cell_length_b   14.10150757
_cell_length_c   4.66342999
_cell_angle_alpha   90.00000000
_cell_angle_beta   90.00000000
_cell_angle_gamma   160.95821405
_symmetry_Int_Tables_number   1
_chemical_formula_structural   La3Ni2Sn7
_chemical_formula_sum   'La3 Ni2 Sn7'
_cell_volume   302.55005570
_cell_formula_units_Z   1
loop_
 _symmetry_equiv_pos_site_id
 _symmetry_equiv_pos_as_xyz
  1  'x, y, z'
loop_
 _atom_site_type_symbol
 _atom_site_label
 _atom_site_symmetry_multiplicity
 _atom_site_fract_x
 _atom_site_fract_y
 _atom_site_fract_z
 _atom_site_occupancy
  La  La0  1  0.31560600  0.68439400  0.50000000  1.0
  La  La1  1  -0.31560600  0.31560600  0.50000000  1.0
  La  La2  1  0.00000000  0.00000000  0.00000000  1.0
  Ni  Ni3  1  0.12790673  0.87209327  0.00000000  1.0
  Ni  Ni4  1  -0.12790673  0.12790673  0.00000000  1.0
  Sn  Sn5  1  0.08926887  0.91073113  0.50000000  1.0
  Sn  Sn6  1  -0.08926887  0.08926887  0.50000000  1.0
  Sn  Sn7  1  0.21847478  0.78152522  0.00000000  1.0
  Sn  Sn8  1  -0.21847478  0.21847478  0.00000000  1.0
  Sn  Sn9  1  0.41055939  0.58944061  0.00000000  1.0
  Sn  Sn10  1  -0.41055939  0.41055939  0.00000000  1.0
  Sn  Sn11  1  0.50000000  0.50000000  0.50000000  1.0
