# generated using pymatgen
data_La2Sn5Rh3
_symmetry_space_group_name_H-M   'P 1'
_cell_length_a   9.10569873
_cell_length_b   9.10569873
_cell_length_c   9.10569873
_cell_angle_alpha   105.96061082
_cell_angle_beta   88.74901929
_cell_angle_gamma   138.31872482
_symmetry_Int_Tables_number   1
_chemical_formula_structural   La2Sn5Rh3
_chemical_formula_sum   'La4 Sn10 Rh6'
_cell_volume   462.38617849
_cell_formula_units_Z   2
loop_
 _symmetry_equiv_pos_site_id
 _symmetry_equiv_pos_as_xyz
  1  'x, y, z'
loop_
 _atom_site_type_symbol
 _atom_site_label
 _atom_site_symmetry_multiplicity
 _atom_site_fract_x
 _atom_site_fract_y
 _atom_site_fract_z
 _atom_site_occupancy
  La  La0  1  0.64393881  0.72893385  0.37287266  1.0
  La  La1  1  0.85606119  0.22893385  1.08499504  1.0
  La  La2  1  0.14393881  0.77106615  0.91500496  1.0
  La  La3  1  1.35606119  1.27106615  1.62712734  1.0
  Sn  Sn4  1  0.91298511  0.66668642  1.57967153  1.0
  Sn  Sn5  1  0.58701489  1.16668642  0.75370130  1.0
  Sn  Sn6  1  1.41298511  0.83331358  1.24629870  1.0
  Sn  Sn7  1  0.08701489  0.33331358  0.42032847  1.0
  Sn  Sn8  1  0.47256938  0.75000000  0.72256938  1.0
  Sn  Sn9  1  0.97256938  1.25000000  0.72256938  1.0
  Sn  Sn10  1  1.52743062  1.25000000  1.27743062  1.0
  Sn  Sn11  1  1.02743062  0.75000000  1.27743062  1.0
  Sn  Sn12  1  0.75000000  0.75000000  -0.00000000  1.0
  Sn  Sn13  1  0.25000000  0.25000000  0.00000000  1.0
  Rh  Rh14  1  0.85914182  0.89418143  0.75332325  1.0
  Rh  Rh15  1  0.64085818  0.39418143  1.03503961  1.0
  Rh  Rh16  1  0.35914182  0.60581857  0.96496039  1.0
  Rh  Rh17  1  1.14085818  1.10581857  1.24667675  1.0
  Rh  Rh18  1  0.75000000  1.25000000  0.50000000  1.0
  Rh  Rh19  1  0.25000000  0.75000000  0.50000000  1.0
