# generated using pymatgen
data_K4CO4
_symmetry_space_group_name_H-M   'P 1'
_cell_length_a   5.95695494
_cell_length_b   5.95695494
_cell_length_c   5.95695494
_cell_angle_alpha   102.19499911
_cell_angle_beta   102.19499911
_cell_angle_gamma   125.27637334
_symmetry_Int_Tables_number   1
_chemical_formula_structural   K4CO4
_chemical_formula_sum   'K4 C1 O4'
_cell_volume   153.26241066
_cell_formula_units_Z   1
loop_
 _symmetry_equiv_pos_site_id
 _symmetry_equiv_pos_as_xyz
  1  'x, y, z'
loop_
 _atom_site_type_symbol
 _atom_site_label
 _atom_site_symmetry_multiplicity
 _atom_site_fract_x
 _atom_site_fract_y
 _atom_site_fract_z
 _atom_site_occupancy
  K  K0  1  0.80732281  0.66346759  0.60372599  1.0
  K  K1  1  1.05974159  1.20359682  1.39627401  1.0
  K  K2  1  0.33653241  0.94025841  1.14385522  1.0
  K  K3  1  0.79640318  0.19267719  0.85614478  1.0
  C  C4  1  0.50000000  0.50000000  -0.00000000  1.0
  O  O5  1  1.38713002  1.50180348  1.18912783  1.0
  O  O6  1  1.31267565  1.19800219  1.81087217  1.0
  O  O7  1  0.49819652  0.68732435  0.88532654  1.0
  O  O8  1  0.80199781  1.61286998  1.11467346  1.0
