# generated using pymatgen
data_Ca5(GeO5)2
_symmetry_space_group_name_H-M   'P 1'
_cell_length_a   9.06529227
_cell_length_b   5.25856936
_cell_length_c   11.65807592
_cell_angle_alpha   90.00000000
_cell_angle_beta   109.32674309
_cell_angle_gamma   90.00000000
_symmetry_Int_Tables_number   1
_chemical_formula_structural   Ca5(GeO5)2
_chemical_formula_sum   'Ca10 Ge4 O20'
_cell_volume   524.42775279
_cell_formula_units_Z   2
loop_
 _symmetry_equiv_pos_site_id
 _symmetry_equiv_pos_as_xyz
  1  'x, y, z'
loop_
 _atom_site_type_symbol
 _atom_site_label
 _atom_site_symmetry_multiplicity
 _atom_site_fract_x
 _atom_site_fract_y
 _atom_site_fract_z
 _atom_site_occupancy
  O  O0  1  0.96548208  0.28689535  0.33008011  1.0
  O  O1  1  0.96548208  0.21310465  0.83008011  1.0
  O  O2  1  0.03451792  0.78689535  0.16991989  1.0
  O  O3  1  0.03451792  0.71310465  0.66991989  1.0
  O  O4  1  0.79928177  0.77216243  0.35265673  1.0
  O  O5  1  0.79928177  0.72783757  0.85265673  1.0
  O  O6  1  0.20071823  0.27216243  0.14734327  1.0
  O  O7  1  0.20071823  0.22783757  0.64734327  1.0
  O  O8  1  0.79243425  0.29085826  0.48969617  1.0
  O  O9  1  0.79243425  0.20914174  0.98969617  1.0
  O  O10  1  0.20756575  0.79085826  0.01030383  1.0
  O  O11  1  0.20756575  0.70914174  0.51030383  1.0
  O  O12  1  0.63656895  0.29337926  0.23790178  1.0
  O  O13  1  0.63656895  0.20662074  0.73790178  1.0
  O  O14  1  0.36343105  0.79337926  0.26209822  1.0
  O  O15  1  0.36343105  0.70662074  0.76209822  1.0
  O  O16  1  0.38462666  0.21155934  0.43258791  1.0
  O  O17  1  0.38462666  0.28844066  0.93258791  1.0
  O  O18  1  0.61537334  0.71155934  0.06741209  1.0
  O  O19  1  0.61537334  0.78844066  0.56741209  1.0
  Ge  Ge20  1  0.79967201  0.43712020  0.35221218  1.0
  Ge  Ge21  1  0.79967201  0.06287980  0.85221218  1.0
  Ge  Ge22  1  0.20032799  0.93712020  0.14778782  1.0
  Ge  Ge23  1  0.20032799  0.56287980  0.64778782  1.0
  Ca  Ca24  1  0.80954748  1.00161028  0.16979600  1.0
  Ca  Ca25  1  0.80954748  0.49838972  0.66979600  1.0
  Ca  Ca26  1  0.19045252  0.50161028  0.33020400  1.0
  Ca  Ca27  1  0.19045252  -0.00161028  0.83020400  1.0
  Ca  Ca28  1  0.58349094  1.00233726  0.38369088  1.0
  Ca  Ca29  1  0.58349094  0.49766274  0.88369088  1.0
  Ca  Ca30  1  0.41650906  0.50233726  0.11630912  1.0
  Ca  Ca31  1  0.41650906  -0.00233726  0.61630912  1.0
  Ca  Ca32  1  0.00000000  0.50000000  0.00000000  1.0
  Ca  Ca33  1  0.00000000  0.00000000  0.50000000  1.0
