# generated using pymatgen
data_CsLiCl2
_symmetry_space_group_name_H-M   'P 1'
_cell_length_a   7.87849185
_cell_length_b   7.87849185
_cell_length_c   9.84851400
_cell_angle_alpha   86.62685568
_cell_angle_beta   93.37314432
_cell_angle_gamma   55.63472893
_symmetry_Int_Tables_number   1
_chemical_formula_structural   CsLiCl2
_chemical_formula_sum   'Cs4 Li4 Cl8'
_cell_volume   500.57695593
_cell_formula_units_Z   4
loop_
 _symmetry_equiv_pos_site_id
 _symmetry_equiv_pos_as_xyz
  1  'x, y, z'
loop_
 _atom_site_type_symbol
 _atom_site_label
 _atom_site_symmetry_multiplicity
 _atom_site_fract_x
 _atom_site_fract_y
 _atom_site_fract_z
 _atom_site_occupancy
  Cs  Cs0  1  0.63290869  0.17896089  0.43626478  1.0
  Cs  Cs1  1  0.82103911  -0.63290869  0.93626478  1.0
  Cs  Cs2  1  1.17896089  -0.36709131  0.06373522  1.0
  Cs  Cs3  1  0.36709131  -0.17896089  0.56373522  1.0
  Li  Li4  1  0.54148581  0.05925715  0.86504823  1.0
  Li  Li5  1  0.94074285  -0.54148581  0.36504823  1.0
  Li  Li6  1  1.05925715  -0.45851419  0.63495177  1.0
  Li  Li7  1  0.45851419  -0.05925715  0.13495177  1.0
  Cl  Cl8  1  0.33301507  -0.06448177  0.91193091  1.0
  Cl  Cl9  1  1.06448177  -0.33301507  0.41193091  1.0
  Cl  Cl10  1  0.93551823  -0.66698493  0.58806909  1.0
  Cl  Cl11  1  0.66698493  0.06448177  0.08806909  1.0
  Cl  Cl12  1  0.80706725  -0.19293275  0.75000000  1.0
  Cl  Cl13  1  0.19293275  0.19293275  0.25000000  1.0
  Cl  Cl14  1  0.39241393  0.39241393  0.75000000  1.0
  Cl  Cl15  1  0.60758607  -0.39241393  0.25000000  1.0
