# generated using pymatgen
data_HgSN3
_symmetry_space_group_name_H-M   'P 1'
_cell_length_a   5.17807567
_cell_length_b   11.20043500
_cell_length_c   15.07875180
_cell_angle_alpha   90.00000000
_cell_angle_beta   90.00000000
_cell_angle_gamma   90.00000000
_symmetry_Int_Tables_number   1
_chemical_formula_structural   HgSN3
_chemical_formula_sum   'Hg8 S8 N24'
_cell_volume   874.51784373
_cell_formula_units_Z   8
loop_
 _symmetry_equiv_pos_site_id
 _symmetry_equiv_pos_as_xyz
  1  'x, y, z'
loop_
 _atom_site_type_symbol
 _atom_site_label
 _atom_site_symmetry_multiplicity
 _atom_site_fract_x
 _atom_site_fract_y
 _atom_site_fract_z
 _atom_site_occupancy
  N  N0  1  0.26997756  0.82612347  0.55078358  1.0
  N  N1  1  0.26997756  0.67387653  0.05078358  1.0
  N  N2  1  0.76997756  0.82612347  0.94921642  1.0
  N  N3  1  0.76997756  0.67387653  0.44921642  1.0
  N  N4  1  0.73002244  0.32612347  0.94921642  1.0
  N  N5  1  0.73002244  0.17387653  0.44921642  1.0
  N  N6  1  0.23002244  0.32612347  0.55078358  1.0
  N  N7  1  0.23002244  0.17387653  0.05078358  1.0
  N  N8  1  0.24772841  0.54184646  0.63629228  1.0
  N  N9  1  0.24772841  0.95815354  0.13629228  1.0
  N  N10  1  0.74772841  0.54184646  0.86370772  1.0
  N  N11  1  0.74772841  0.95815354  0.36370772  1.0
  N  N12  1  0.75227159  0.04184646  0.86370772  1.0
  N  N13  1  0.75227159  0.45815354  0.36370772  1.0
  N  N14  1  0.25227159  0.04184646  0.63629228  1.0
  N  N15  1  0.25227159  0.45815354  0.13629228  1.0
  N  N16  1  0.32035335  0.69790354  0.82435378  1.0
  N  N17  1  0.32035335  0.80209646  0.32435378  1.0
  N  N18  1  0.82035335  0.69790354  0.67564622  1.0
  N  N19  1  0.82035335  0.80209646  0.17564622  1.0
  N  N20  1  0.67964665  0.19790354  0.67564622  1.0
  N  N21  1  0.67964665  0.30209646  0.17564622  1.0
  N  N22  1  0.17964665  0.19790354  0.82435378  1.0
  N  N23  1  0.17964665  0.30209646  0.32435378  1.0
  Hg  Hg24  1  -0.00431517  0.62284130  0.95487088  1.0
  Hg  Hg25  1  -0.00431517  0.87715870  0.45487088  1.0
  Hg  Hg26  1  0.49568483  0.62284130  0.54512912  1.0
  Hg  Hg27  1  0.49568483  0.87715870  0.04512912  1.0
  Hg  Hg28  1  1.00431517  0.12284130  0.54512912  1.0
  Hg  Hg29  1  1.00431517  0.37715870  0.04512912  1.0
  Hg  Hg30  1  0.50431517  0.12284130  0.95487088  1.0
  Hg  Hg31  1  0.50431517  0.37715870  0.45487088  1.0
  S  S32  1  0.34838320  0.91315380  0.62665514  1.0
  S  S33  1  0.34838320  0.58684620  0.12665514  1.0
  S  S34  1  0.84838320  0.91315380  0.87334486  1.0
  S  S35  1  0.84838320  0.58684620  0.37334486  1.0
  S  S36  1  0.65161680  0.41315380  0.87334486  1.0
  S  S37  1  0.65161680  0.08684620  0.37334486  1.0
  S  S38  1  0.15161680  0.41315380  0.62665514  1.0
  S  S39  1  0.15161680  0.08684620  0.12665514  1.0
