# generated using pymatgen
data_Ca2Nb2O7
_symmetry_space_group_name_H-M   'P 1'
_cell_length_a   7.72585665
_cell_length_b   5.52467261
_cell_length_c   13.58815277
_cell_angle_alpha   90.00000000
_cell_angle_beta   98.26713121
_cell_angle_gamma   90.00000000
_symmetry_Int_Tables_number   1
_chemical_formula_structural   Ca2Nb2O7
_chemical_formula_sum   'Ca8 Nb8 O28'
_cell_volume   573.95388997
_cell_formula_units_Z   4
loop_
 _symmetry_equiv_pos_site_id
 _symmetry_equiv_pos_as_xyz
  1  'x, y, z'
loop_
 _atom_site_type_symbol
 _atom_site_label
 _atom_site_symmetry_multiplicity
 _atom_site_fract_x
 _atom_site_fract_y
 _atom_site_fract_z
 _atom_site_occupancy
  Ca  Ca0  1  0.86045603  0.66342378  0.43437891  1.0
  Ca  Ca1  1  0.13954397  0.16342378  0.56562109  1.0
  Ca  Ca2  1  0.77002079  0.08389352  0.08446713  1.0
  Ca  Ca3  1  0.22997921  0.58389352  0.91553287  1.0
  Ca  Ca4  1  0.71716043  0.56632717  0.87640143  1.0
  Ca  Ca5  1  0.28283957  0.06632717  0.12359857  1.0
  Ca  Ca6  1  0.64016248  0.09049326  0.59869284  1.0
  Ca  Ca7  1  0.35983752  0.59049326  0.40130716  1.0
  Nb  Nb8  1  0.96770744  0.08125653  0.88399684  1.0
  Nb  Nb9  1  0.03229256  0.58125653  0.11600316  1.0
  Nb  Nb10  1  0.92116674  0.60107818  0.67703840  1.0
  Nb  Nb11  1  0.07883326  0.10107818  0.32296160  1.0
  Nb  Nb12  1  0.58830566  0.10528266  0.32510454  1.0
  Nb  Nb13  1  0.41169434  0.60528266  0.67489546  1.0
  Nb  Nb14  1  0.47400284  0.08084675  0.88202670  1.0
  Nb  Nb15  1  0.52599716  0.58084675  0.11797330  1.0
  O  O16  1  0.94899612  0.34678344  0.98023677  1.0
  O  O17  1  0.05100388  0.84678344  0.01976323  1.0
  O  O18  1  0.98464512  0.76211283  0.81853869  1.0
  O  O19  1  0.01535488  0.26211283  0.18146131  1.0
  O  O20  1  0.92641371  0.86858572  0.59471314  1.0
  O  O21  1  0.07358629  0.36858572  0.40528686  1.0
  O  O22  1  0.88508079  0.27542674  0.77666476  1.0
  O  O23  1  0.11491921  0.77542674  0.22333524  1.0
  O  O24  1  0.86318890  0.37874805  0.57407929  1.0
  O  O25  1  0.13681110  0.87874805  0.42592071  1.0
  O  O26  1  0.82782543  -0.00237483  0.30784491  1.0
  O  O27  1  0.17217457  0.49762517  0.69215509  1.0
  O  O28  1  0.72828799  0.97591905  0.91228822  1.0
  O  O29  1  0.27171201  0.47591905  0.08771178  1.0
  O  O30  1  0.67297912  0.66836091  0.69784623  1.0
  O  O31  1  0.32702088  0.16836091  0.30215377  1.0
  O  O32  1  0.63372072  0.39563879  0.38539316  1.0
  O  O33  1  0.36627928  0.89563879  0.61460684  1.0
  O  O34  1  0.57354135  0.25799283  0.17876736  1.0
  O  O35  1  0.42645865  0.75799283  0.82123264  1.0
  O  O36  1  0.54034731  0.34554978  0.97850087  1.0
  O  O37  1  0.45965269  0.84554978  0.02149913  1.0
  O  O38  1  0.50226266  0.27125323  0.77333540  1.0
  O  O39  1  0.49773734  0.77125323  0.22666460  1.0
  O  O40  1  0.41405973  0.40098054  0.56281614  1.0
  O  O41  1  0.58594027  0.90098054  0.43718386  1.0
  O  O42  1  0.22256216  0.14682106  0.88983169  1.0
  O  O43  1  0.77743784  0.64682106  0.11016831  1.0
