# generated using pymatgen
data_Mo2S3
_symmetry_space_group_name_H-M   'P 1'
_cell_length_a   6.15948219
_cell_length_b   3.20255764
_cell_length_c   8.66886974
_cell_angle_alpha   90.00000000
_cell_angle_beta   102.79403083
_cell_angle_gamma   90.00000000
_symmetry_Int_Tables_number   1
_chemical_formula_structural   Mo2S3
_chemical_formula_sum   'Mo4 S6'
_cell_volume   166.75737499
_cell_formula_units_Z   2
loop_
 _symmetry_equiv_pos_site_id
 _symmetry_equiv_pos_as_xyz
  1  'x, y, z'
loop_
 _atom_site_type_symbol
 _atom_site_label
 _atom_site_symmetry_multiplicity
 _atom_site_fract_x
 _atom_site_fract_y
 _atom_site_fract_z
 _atom_site_occupancy
  Mo  Mo0  1  0.39134323  0.25000000  0.87293893  1.0
  Mo  Mo1  1  0.60865677  0.75000000  0.12706107  1.0
  Mo  Mo2  1  0.18708939  0.25000000  0.49011378  1.0
  Mo  Mo3  1  0.81291061  0.75000000  0.50988622  1.0
  S  S4  1  0.99417661  0.25000000  0.69693130  1.0
  S  S5  1  0.00582339  0.75000000  0.30306870  1.0
  S  S6  1  0.77259878  0.25000000  0.98540877  1.0
  S  S7  1  0.22740122  0.75000000  0.01459123  1.0
  S  S8  1  0.52754144  0.25000000  0.34301010  1.0
  S  S9  1  0.47245856  0.75000000  0.65698990  1.0
