# generated using pymatgen
data_ZrPt3
_symmetry_space_group_name_H-M   'P 1'
_cell_length_a   5.71780047
_cell_length_b   5.71780047
_cell_length_c   9.34566901
_cell_angle_alpha   90.00000000
_cell_angle_beta   90.00000000
_cell_angle_gamma   120.00000000
_symmetry_Int_Tables_number   1
_chemical_formula_structural   ZrPt3
_chemical_formula_sum   'Zr4 Pt12'
_cell_volume   264.60559337
_cell_formula_units_Z   4
loop_
 _symmetry_equiv_pos_site_id
 _symmetry_equiv_pos_as_xyz
  1  'x, y, z'
loop_
 _atom_site_type_symbol
 _atom_site_label
 _atom_site_symmetry_multiplicity
 _atom_site_fract_x
 _atom_site_fract_y
 _atom_site_fract_z
 _atom_site_occupancy
  Zr  Zr0  1  0.33333333  0.66666667  0.75000000  1.0
  Zr  Zr1  1  0.66666667  0.33333333  0.25000000  1.0
  Zr  Zr2  1  0.00000000  0.00000000  0.50000000  1.0
  Zr  Zr3  1  -0.00000000  -0.00000000  0.00000000  1.0
  Pt  Pt4  1  0.16990600  0.83009400  0.25000000  1.0
  Pt  Pt5  1  0.16990600  0.33981199  0.25000000  1.0
  Pt  Pt6  1  0.83009400  0.16990600  0.75000000  1.0
  Pt  Pt7  1  0.83009400  0.66018801  0.75000000  1.0
  Pt  Pt8  1  0.66018801  0.83009400  0.25000000  1.0
  Pt  Pt9  1  0.33981199  0.16990600  0.75000000  1.0
  Pt  Pt10  1  0.50000000  0.50000000  0.50000000  1.0
  Pt  Pt11  1  0.50000000  0.50000000  -0.00000000  1.0
  Pt  Pt12  1  0.50000000  0.00000000  0.50000000  1.0
  Pt  Pt13  1  0.50000000  0.00000000  -0.00000000  1.0
  Pt  Pt14  1  -0.00000000  0.50000000  0.50000000  1.0
  Pt  Pt15  1  -0.00000000  0.50000000  -0.00000000  1.0
