# generated using pymatgen
data_La2Ge6Pd
_symmetry_space_group_name_H-M   'P 1'
_cell_length_a   11.55884177
_cell_length_b   11.55884177
_cell_length_c   4.26024446
_cell_angle_alpha   90.00000000
_cell_angle_beta   90.00000000
_cell_angle_gamma   159.33281189
_symmetry_Int_Tables_number   1
_chemical_formula_structural   La2Ge6Pd
_chemical_formula_sum   'La2 Ge6 Pd1'
_cell_volume   200.89212262
_cell_formula_units_Z   1
loop_
 _symmetry_equiv_pos_site_id
 _symmetry_equiv_pos_as_xyz
  1  'x, y, z'
loop_
 _atom_site_type_symbol
 _atom_site_label
 _atom_site_symmetry_multiplicity
 _atom_site_fract_x
 _atom_site_fract_y
 _atom_site_fract_z
 _atom_site_occupancy
  La  La0  1  -0.22011403  1.22011403  0.50000000  1.0
  La  La1  1  -0.88673891  0.88673891  0.50000000  1.0
  Ge  Ge2  1  -0.50453720  1.50453720  0.50000000  1.0
  Ge  Ge3  1  -0.61410503  0.61410503  0.50000000  1.0
  Ge  Ge4  1  -0.00632312  0.00632312  0.00000000  1.0
  Ge  Ge5  1  -0.11617420  1.11617420  0.00000000  1.0
  Ge  Ge6  1  -0.33372046  1.33372046  0.00000000  1.0
  Ge  Ge7  1  -0.76748636  0.76748636  0.00000000  1.0
  Pd  Pd8  1  -0.44380070  1.44380070  0.00000000  1.0
