# generated using pymatgen
data_K2TiS3
_symmetry_space_group_name_H-M   'P 1'
_cell_length_a   7.28625586
_cell_length_b   7.28625586
_cell_length_c   6.55911660
_cell_angle_alpha   86.58827021
_cell_angle_beta   93.41172979
_cell_angle_gamma   110.03173498
_symmetry_Int_Tables_number   1
_chemical_formula_structural   K2TiS3
_chemical_formula_sum   'K4 Ti2 S6'
_cell_volume   326.28995513
_cell_formula_units_Z   2
loop_
 _symmetry_equiv_pos_site_id
 _symmetry_equiv_pos_as_xyz
  1  'x, y, z'
loop_
 _atom_site_type_symbol
 _atom_site_label
 _atom_site_symmetry_multiplicity
 _atom_site_fract_x
 _atom_site_fract_y
 _atom_site_fract_z
 _atom_site_occupancy
  K  K0  1  1.32293014  0.00413714  0.21894386  1.0
  K  K1  1  0.99586286  -0.32293014  0.71894386  1.0
  K  K2  1  1.00413714  0.32293014  0.28105614  1.0
  K  K3  1  0.67706986  -0.00413714  0.78105614  1.0
  Ti  Ti4  1  0.58445322  -0.41554678  0.25000000  1.0
  Ti  Ti5  1  1.41554678  0.41554678  0.75000000  1.0
  S  S6  1  1.62048400  0.34825629  0.50165815  1.0
  S  S7  1  0.65174371  -0.62048400  1.00165815  1.0
  S  S8  1  1.34825629  0.62048400  -0.00165815  1.0
  S  S9  1  0.37951600  -0.34825629  0.49834185  1.0
  S  S10  1  0.84980624  -0.15019376  0.25000000  1.0
  S  S11  1  1.15019376  0.15019376  0.75000000  1.0
