# generated using pymatgen
data_Ni21(SnB3)2
_symmetry_space_group_name_H-M   'P 1'
_cell_length_a   7.49574849
_cell_length_b   7.49574849
_cell_length_c   7.49574849
_cell_angle_alpha   60.00000000
_cell_angle_beta   60.00000000
_cell_angle_gamma   60.00000000
_symmetry_Int_Tables_number   1
_chemical_formula_structural   Ni21(SnB3)2
_chemical_formula_sum   'Ni21 Sn2 B6'
_cell_volume   297.80365239
_cell_formula_units_Z   1
loop_
 _symmetry_equiv_pos_site_id
 _symmetry_equiv_pos_as_xyz
  1  'x, y, z'
loop_
 _atom_site_type_symbol
 _atom_site_label
 _atom_site_symmetry_multiplicity
 _atom_site_fract_x
 _atom_site_fract_y
 _atom_site_fract_z
 _atom_site_occupancy
  Ni  Ni0  1  1.66402434  -0.00000000  0.00000000  1.0
  Ni  Ni1  1  1.00000000  0.33597566  -0.33597566  1.0
  Ni  Ni2  1  1.00000000  0.66402434  -0.66402434  1.0
  Ni  Ni3  1  1.33597566  -0.00000000  0.00000000  1.0
  Ni  Ni4  1  -0.00000000  1.66402434  0.00000000  1.0
  Ni  Ni5  1  0.33597566  1.00000000  -0.33597566  1.0
  Ni  Ni6  1  0.00000000  0.00000000  0.66402434  1.0
  Ni  Ni7  1  0.33597566  -0.33597566  1.00000000  1.0
  Ni  Ni8  1  0.66402434  1.00000000  -0.66402434  1.0
  Ni  Ni9  1  -0.00000000  1.33597566  0.00000000  1.0
  Ni  Ni10  1  0.66402434  -0.66402434  1.00000000  1.0
  Ni  Ni11  1  -0.00000000  -0.00000000  0.33597566  1.0
  Ni  Ni12  1  0.61454015  0.61454015  -0.38545985  1.0
  Ni  Ni13  1  0.38545985  1.38545985  -0.15637954  1.0
  Ni  Ni14  1  1.38545985  -0.15637954  0.38545985  1.0
  Ni  Ni15  1  1.15637954  0.61454015  0.61454015  1.0
  Ni  Ni16  1  -0.15637954  1.38545985  0.38545985  1.0
  Ni  Ni17  1  0.61454015  1.15637954  -0.38545985  1.0
  Ni  Ni18  1  0.61454015  0.61454015  1.15637954  1.0
  Ni  Ni19  1  1.38545985  0.38545985  0.38545985  1.0
  Ni  Ni20  1  0.00000000  0.00000000  0.00000000  1.0
  Sn  Sn21  1  0.75000000  0.75000000  -0.25000000  1.0
  Sn  Sn22  1  1.25000000  0.25000000  0.25000000  1.0
  B  B23  1  -0.72785119  0.72785119  0.72785119  1.0
  B  B24  1  -0.27214881  0.27214881  0.72785119  1.0
  B  B25  1  0.72785119  0.72785119  -0.72785119  1.0
  B  B26  1  0.27214881  1.27214881  -0.27214881  1.0
  B  B27  1  0.27214881  -0.27214881  1.27214881  1.0
  B  B28  1  -0.27214881  0.27214881  0.27214881  1.0
