# generated using pymatgen
data_Sr2SmCu3(PbO4)2
_symmetry_space_group_name_H-M   'P 1'
_cell_length_a   3.85256896
_cell_length_b   3.85256896
_cell_length_c   16.05844299
_cell_angle_alpha   90.00000000
_cell_angle_beta   90.00000000
_cell_angle_gamma   90.00219246
_symmetry_Int_Tables_number   1
_chemical_formula_structural   Sr2SmCu3(PbO4)2
_chemical_formula_sum   'Sr2 Sm1 Cu3 Pb2 O8'
_cell_volume   238.34402944
_cell_formula_units_Z   1
loop_
 _symmetry_equiv_pos_site_id
 _symmetry_equiv_pos_as_xyz
  1  'x, y, z'
loop_
 _atom_site_type_symbol
 _atom_site_label
 _atom_site_symmetry_multiplicity
 _atom_site_fract_x
 _atom_site_fract_y
 _atom_site_fract_z
 _atom_site_occupancy
  Sr  Sr0  1  0.00000000  0.00000000  0.22264920  1.0
  Sr  Sr1  1  0.00000000  0.00000000  0.77735080  1.0
  Sm  Sm2  1  0.00000000  0.00000000  0.00000000  1.0
  Cu  Cu3  1  0.00000000  0.00000000  0.50000000  1.0
  Cu  Cu4  1  0.50000000  0.50000000  0.10638260  1.0
  Cu  Cu5  1  0.50000000  0.50000000  0.89361740  1.0
  Pb  Pb6  1  0.50000000  0.50000000  0.38825458  1.0
  Pb  Pb7  1  0.50000000  0.50000000  0.61174542  1.0
  O  O8  1  0.50000000  0.50000000  0.25211331  1.0
  O  O9  1  0.50000000  0.50000000  0.74788669  1.0
  O  O10  1  0.00000000  0.00000000  0.38438560  1.0
  O  O11  1  0.00000000  0.00000000  0.61561440  1.0
  O  O12  1  0.50000000  1.00000000  0.09552853  1.0
  O  O13  1  0.00000000  1.50000000  0.90447147  1.0
  O  O14  1  0.50000000  1.00000000  0.90447147  1.0
  O  O15  1  0.00000000  1.50000000  0.09552853  1.0
