# generated using pymatgen
data_Li2V6O15
_symmetry_space_group_name_H-M   'P 1'
_cell_length_a   8.01776146
_cell_length_b   8.01776146
_cell_length_c   10.22289059
_cell_angle_alpha   72.67332189
_cell_angle_beta   107.32667811
_cell_angle_gamma   153.92214260
_symmetry_Int_Tables_number   1
_chemical_formula_structural   Li2V6O15
_chemical_formula_sum   'Li2 V6 O15'
_cell_volume   275.05841316
_cell_formula_units_Z   1
loop_
 _symmetry_equiv_pos_site_id
 _symmetry_equiv_pos_as_xyz
  1  'x, y, z'
loop_
 _atom_site_type_symbol
 _atom_site_label
 _atom_site_symmetry_multiplicity
 _atom_site_fract_x
 _atom_site_fract_y
 _atom_site_fract_z
 _atom_site_occupancy
  Li  Li0  1  0.44451018  -0.44451018  0.67303494  1.0
  Li  Li1  1  0.55548982  0.44451018  0.32696506  1.0
  O  O2  1  0.00000000  0.00000000  0.00000000  1.0
  O  O3  1  0.18629602  -0.18629602  0.94917881  1.0
  O  O4  1  0.81370398  0.18629602  0.05082119  1.0
  O  O5  1  0.36857585  -0.36857585  0.92697779  1.0
  O  O6  1  0.63142415  0.36857585  0.07302221  1.0
  O  O7  1  0.56698837  0.43301163  0.78479335  1.0
  O  O8  1  0.43301163  -0.43301163  0.21520665  1.0
  O  O9  1  0.73674816  0.26325184  0.77714626  1.0
  O  O10  1  0.26325184  -0.26325184  0.22285374  1.0
  O  O11  1  0.89970780  0.10029220  0.73631871  1.0
  O  O12  1  0.10029220  -0.10029220  0.26368129  1.0
  O  O13  1  0.75208487  0.24791513  0.42180537  1.0
  O  O14  1  0.24791513  -0.24791513  0.57819463  1.0
  O  O15  1  0.60528787  0.39471213  0.52763889  1.0
  O  O16  1  0.39471213  -0.39471213  0.47236111  1.0
  V  V17  1  0.88644194  0.11355806  0.89071733  1.0
  V  V18  1  0.11355806  -0.11355806  0.10928267  1.0
  V  V19  1  0.66541939  0.33458061  0.89554638  1.0
  V  V20  1  0.33458061  -0.33458061  0.10445362  1.0
  V  V21  1  0.71297331  0.28702669  0.59105780  1.0
  V  V22  1  0.28702669  -0.28702669  0.40894220  1.0
