# generated using pymatgen
data_RbInTe2
_symmetry_space_group_name_H-M   'P 1'
_cell_length_a   7.42061676
_cell_length_b   7.42061676
_cell_length_c   7.42061676
_cell_angle_alpha   104.92152226
_cell_angle_beta   104.92152226
_cell_angle_gamma   119.01302551
_symmetry_Int_Tables_number   1
_chemical_formula_structural   RbInTe2
_chemical_formula_sum   'Rb2 In2 Te4'
_cell_volume   307.91722848
_cell_formula_units_Z   2
loop_
 _symmetry_equiv_pos_site_id
 _symmetry_equiv_pos_as_xyz
  1  'x, y, z'
loop_
 _atom_site_type_symbol
 _atom_site_label
 _atom_site_symmetry_multiplicity
 _atom_site_fract_x
 _atom_site_fract_y
 _atom_site_fract_z
 _atom_site_occupancy
  Rb  Rb0  1  0.25000000  0.25000000  -0.00000000  1.0
  Rb  Rb1  1  0.75000000  0.75000000  -0.00000000  1.0
  In  In2  1  0.75000000  0.25000000  0.50000000  1.0
  In  In3  1  0.25000000  0.75000000  0.50000000  1.0
  Te  Te4  1  0.83135856  0.33135856  1.16271712  1.0
  Te  Te5  1  0.66864144  0.83135856  0.50000000  1.0
  Te  Te6  1  0.33135856  0.16864144  0.50000000  1.0
  Te  Te7  1  1.16864144  0.66864144  0.83728288  1.0
