# generated using pymatgen
data_CsK5Zn4Sn5S17
_symmetry_space_group_name_H-M   'P 1'
_cell_length_a   11.06209547
_cell_length_b   11.06209547
_cell_length_c   11.06209547
_cell_angle_alpha   101.25977974
_cell_angle_beta   101.25977974
_cell_angle_gamma   127.55224144
_symmetry_Int_Tables_number   1
_chemical_formula_structural   CsK5Zn4Sn5S17
_chemical_formula_sum   'Cs1 K5 Zn4 Sn5 S17'
_cell_volume   962.72695871
_cell_formula_units_Z   1
loop_
 _symmetry_equiv_pos_site_id
 _symmetry_equiv_pos_as_xyz
  1  'x, y, z'
loop_
 _atom_site_type_symbol
 _atom_site_label
 _atom_site_symmetry_multiplicity
 _atom_site_fract_x
 _atom_site_fract_y
 _atom_site_fract_z
 _atom_site_occupancy
  Cs  Cs0  1  0.75000000  1.25000000  0.50000000  1.0
  K  K1  1  0.73975170  0.73975170  0.47950339  1.0
  K  K2  1  1.26024830  0.73975170  1.00000000  1.0
  K  K3  1  0.73975170  0.26024830  1.00000000  1.0
  K  K4  1  0.26024830  0.26024830  0.52049661  1.0
  K  K5  1  0.00000000  0.00000000  0.00000000  1.0
  Zn  Zn6  1  0.63826678  1.50111891  0.86285213  1.0
  Zn  Zn7  1  1.22458536  1.36173322  0.86285213  1.0
  Zn  Zn8  1  1.49888109  1.36173322  1.13714787  1.0
  Zn  Zn9  1  0.63826678  0.77541464  0.13714787  1.0
  Sn  Sn10  1  0.27725192  1.05371615  0.77646423  1.0
  Sn  Sn11  1  0.49921231  0.72274808  0.77646423  1.0
  Sn  Sn12  1  0.94628385  0.72274808  1.22353577  1.0
  Sn  Sn13  1  0.27725192  0.50078769  0.22353577  1.0
  Sn  Sn14  1  0.25000000  0.75000000  0.50000000  1.0
  S  S15  1  1.07758104  1.08354916  0.72223859  1.0
  S  S16  1  1.36131057  1.08354916  1.00596812  1.0
  S  S17  1  1.64465755  1.63868943  1.72223859  1.0
  S  S18  1  0.91645084  1.63868943  0.99403188  1.0
  S  S19  1  1.07758104  1.35534245  0.99403188  1.0
  S  S20  1  1.36131057  1.35534245  1.27776141  1.0
  S  S21  1  1.64465755  0.92241896  1.00596812  1.0
  S  S22  1  0.91645084  0.92241896  0.27776141  1.0
  S  S23  1  0.51005324  1.23015779  0.72010455  1.0
  S  S24  1  1.21005130  1.48994676  0.72010455  1.0
  S  S25  1  1.76984221  1.48994676  1.27989545  1.0
  S  S26  1  0.51005324  0.78994870  0.27989545  1.0
  S  S27  1  0.10806607  0.75120267  0.64313659  1.0
  S  S28  1  0.53507052  0.89193393  0.64313659  1.0
  S  S29  1  1.24879733  0.89193393  1.35686341  1.0
  S  S30  1  0.10806607  0.46492948  0.35686341  1.0
  S  S31  1  0.50000000  0.50000000  0.00000000  1.0
