# generated using pymatgen
data_AsPd2
_symmetry_space_group_name_H-M   'P 1'
_cell_length_a   6.75087726
_cell_length_b   6.75087726
_cell_length_c   3.64762496
_cell_angle_alpha   90.00000000
_cell_angle_beta   90.00000000
_cell_angle_gamma   120.00000000
_symmetry_Int_Tables_number   1
_chemical_formula_structural   AsPd2
_chemical_formula_sum   'As3 Pd6'
_cell_volume   143.96642965
_cell_formula_units_Z   3
loop_
 _symmetry_equiv_pos_site_id
 _symmetry_equiv_pos_as_xyz
  1  'x, y, z'
loop_
 _atom_site_type_symbol
 _atom_site_label
 _atom_site_symmetry_multiplicity
 _atom_site_fract_x
 _atom_site_fract_y
 _atom_site_fract_z
 _atom_site_occupancy
  As  As0  1  0.33333333  0.66666667  0.50000000  1.0
  As  As1  1  0.66666667  0.33333333  0.50000000  1.0
  As  As2  1  0.00000000  0.00000000  -0.00000000  1.0
  Pd  Pd3  1  0.73394223  0.73394223  0.50000000  1.0
  Pd  Pd4  1  -0.00000000  0.26605777  0.50000000  1.0
  Pd  Pd5  1  0.26605777  0.00000000  0.50000000  1.0
  Pd  Pd6  1  0.39239459  0.39239459  -0.00000000  1.0
  Pd  Pd7  1  -0.00000000  0.60760541  0.00000000  1.0
  Pd  Pd8  1  0.60760541  0.00000000  0.00000000  1.0
