# generated using pymatgen
data_RbMgBO3
_symmetry_space_group_name_H-M   'P 1'
_cell_length_a   7.02119377
_cell_length_b   7.02119377
_cell_length_c   7.02119377
_cell_angle_alpha   90.00000000
_cell_angle_beta   90.00000000
_cell_angle_gamma   90.00000000
_symmetry_Int_Tables_number   1
_chemical_formula_structural   RbMgBO3
_chemical_formula_sum   'Rb4 Mg4 B4 O12'
_cell_volume   346.12492588
_cell_formula_units_Z   4
loop_
 _symmetry_equiv_pos_site_id
 _symmetry_equiv_pos_as_xyz
  1  'x, y, z'
loop_
 _atom_site_type_symbol
 _atom_site_label
 _atom_site_symmetry_multiplicity
 _atom_site_fract_x
 _atom_site_fract_y
 _atom_site_fract_z
 _atom_site_occupancy
  Rb  Rb0  1  0.14072588  0.64072588  0.85927412  1.0
  Rb  Rb1  1  0.64072588  0.85927412  0.14072588  1.0
  Rb  Rb2  1  0.85927412  0.14072588  0.64072588  1.0
  Rb  Rb3  1  0.35927412  0.35927412  0.35927412  1.0
  Mg  Mg4  1  0.85953667  0.35953667  0.14046333  1.0
  Mg  Mg5  1  0.35953667  0.14046333  0.85953667  1.0
  Mg  Mg6  1  0.14046333  0.85953667  0.35953667  1.0
  Mg  Mg7  1  0.64046333  0.64046333  0.64046333  1.0
  B  B8  1  0.39730435  0.89730435  0.60269565  1.0
  B  B9  1  0.89730435  0.60269565  0.39730435  1.0
  B  B10  1  0.60269565  0.39730435  0.89730435  1.0
  B  B11  1  0.10269565  0.10269565  0.10269565  1.0
  O  O12  1  0.47027122  0.40351418  0.75159342  1.0
  O  O13  1  0.97027122  0.09648582  0.24840658  1.0
  O  O14  1  0.90351418  0.74840658  0.52972878  1.0
  O  O15  1  0.40351418  0.75159342  0.47027122  1.0
  O  O16  1  0.24840658  0.97027122  0.09648582  1.0
  O  O17  1  0.74840658  0.52972878  0.90351418  1.0
  O  O18  1  0.52972878  0.90351418  0.74840658  1.0
  O  O19  1  0.02972878  0.59648582  0.25159342  1.0
  O  O20  1  0.09648582  0.24840658  0.97027122  1.0
  O  O21  1  0.59648582  0.25159342  0.02972878  1.0
  O  O22  1  0.75159342  0.47027122  0.40351418  1.0
  O  O23  1  0.25159342  0.02972878  0.59648582  1.0
