# generated using pymatgen
data_Eu(Al4Fe)2
_symmetry_space_group_name_H-M   'P 1'
_cell_length_a   12.49577547
_cell_length_b   14.45110056
_cell_length_c   4.00334746
_cell_angle_alpha   90.00000000
_cell_angle_beta   90.00000000
_cell_angle_gamma   90.00000000
_symmetry_Int_Tables_number   1
_chemical_formula_structural   Eu(Al4Fe)2
_chemical_formula_sum   'Eu4 Al32 Fe8'
_cell_volume   722.91530739
_cell_formula_units_Z   4
loop_
 _symmetry_equiv_pos_site_id
 _symmetry_equiv_pos_as_xyz
  1  'x, y, z'
loop_
 _atom_site_type_symbol
 _atom_site_label
 _atom_site_symmetry_multiplicity
 _atom_site_fract_x
 _atom_site_fract_y
 _atom_site_fract_z
 _atom_site_occupancy
  Eu  Eu0  1  0.15972070  0.81842409  0.00000000  1.0
  Eu  Eu1  1  0.65972070  0.68157591  0.00000000  1.0
  Eu  Eu2  1  0.84027930  0.18157591  0.00000000  1.0
  Eu  Eu3  1  0.34027930  0.31842409  0.00000000  1.0
  Al  Al4  1  0.47437769  0.63249526  0.50000000  1.0
  Al  Al5  1  0.97437769  0.86750474  0.50000000  1.0
  Al  Al6  1  0.52562231  0.36750474  0.50000000  1.0
  Al  Al7  1  0.02562231  0.13249526  0.50000000  1.0
  Al  Al8  1  0.33302969  0.49306327  0.50000000  1.0
  Al  Al9  1  0.83302969  0.00693673  0.50000000  1.0
  Al  Al10  1  0.66697031  0.50693673  0.50000000  1.0
  Al  Al11  1  0.16697031  -0.00693673  0.50000000  1.0
  Al  Al12  1  0.34055982  0.88014140  0.50000000  1.0
  Al  Al13  1  0.84055982  0.61985860  0.50000000  1.0
  Al  Al14  1  0.65944018  0.11985860  0.50000000  1.0
  Al  Al15  1  0.15944018  0.38014140  0.50000000  1.0
  Al  Al16  1  0.26526057  0.67228112  0.50000000  1.0
  Al  Al17  1  0.76526057  0.82771888  0.50000000  1.0
  Al  Al18  1  0.73473943  0.32771888  0.50000000  1.0
  Al  Al19  1  0.23473943  0.17228112  0.50000000  1.0
  Al  Al20  1  0.04771378  0.67889346  0.50000000  1.0
  Al  Al21  1  0.54771378  0.82110654  0.50000000  1.0
  Al  Al22  1  0.95228622  0.32110654  0.50000000  1.0
  Al  Al23  1  0.45228622  0.17889346  0.50000000  1.0
  Al  Al24  1  0.40557525  0.75459506  0.00000000  1.0
  Al  Al25  1  0.90557525  0.74540494  0.00000000  1.0
  Al  Al26  1  0.59442475  0.24540494  0.00000000  1.0
  Al  Al27  1  0.09442475  0.25459506  0.00000000  1.0
  Al  Al28  1  0.16428574  0.54667992  0.00000000  1.0
  Al  Al29  1  0.66428574  0.95332008  0.00000000  1.0
  Al  Al30  1  0.83571426  0.45332008  0.00000000  1.0
  Al  Al31  1  0.33571426  0.04667992  0.00000000  1.0
  Al  Al32  1  0.50000000  0.00000000  0.50000000  1.0
  Al  Al33  1  0.00000000  0.50000000  0.50000000  1.0
  Al  Al34  1  0.50000000  0.50000000  0.00000000  1.0
  Al  Al35  1  0.00000000  0.00000000  0.00000000  1.0
  Fe  Fe36  1  0.46538563  0.91007787  0.00000000  1.0
  Fe  Fe37  1  0.96538563  0.58992213  0.00000000  1.0
  Fe  Fe38  1  0.53461437  0.08992213  0.00000000  1.0
  Fe  Fe39  1  0.03461437  0.41007787  0.00000000  1.0
  Fe  Fe40  1  0.35103378  0.59885857  0.00000000  1.0
  Fe  Fe41  1  0.85103378  0.90114143  0.00000000  1.0
  Fe  Fe42  1  0.64896622  0.40114143  0.00000000  1.0
  Fe  Fe43  1  0.14896622  0.09885857  0.00000000  1.0
