# generated using pymatgen
data_NaCo2(SO4)2
_symmetry_space_group_name_H-M   'P 1'
_cell_length_a   6.09377416
_cell_length_b   9.29446013
_cell_length_c   7.46725800
_cell_angle_alpha   92.72068961
_cell_angle_beta   65.77651477
_cell_angle_gamma   70.89083450
_symmetry_Int_Tables_number   1
_chemical_formula_structural   NaCo2(SO4)2
_chemical_formula_sum   'Na2 Co4 S4 O16'
_cell_volume   356.23959762
_cell_formula_units_Z   2
loop_
 _symmetry_equiv_pos_site_id
 _symmetry_equiv_pos_as_xyz
  1  'x, y, z'
loop_
 _atom_site_type_symbol
 _atom_site_label
 _atom_site_symmetry_multiplicity
 _atom_site_fract_x
 _atom_site_fract_y
 _atom_site_fract_z
 _atom_site_occupancy
  O  O0  1  0.24243140  0.58842638  -0.18626480  1.0
  O  O1  1  -0.24243140  0.41157362  -0.81373520  1.0
  O  O2  1  0.14385966  0.41155055  -0.81281752  1.0
  O  O3  1  -0.14385966  0.58844945  -0.18718248  1.0
  O  O4  1  -0.36434979  0.66267806  -0.43359040  1.0
  O  O5  1  0.36434979  0.33732194  -0.56640960  1.0
  O  O6  1  0.64171813  0.10404728  -0.88801175  1.0
  O  O7  1  -0.64171813  0.89595272  -0.11198825  1.0
  O  O8  1  -0.11676090  0.83553228  -0.10177825  1.0
  O  O9  1  0.11676090  0.16446772  -0.89822175  1.0
  O  O10  1  0.36935714  0.66506395  -0.90412792  1.0
  O  O11  1  -0.36935714  0.33493605  -0.09587208  1.0
  O  O12  1  -0.03155358  0.90728071  -0.76103162  1.0
  O  O13  1  0.03155358  0.09271929  -0.23896838  1.0
  O  O14  1  -0.61643073  0.90749959  -0.76080708  1.0
  O  O15  1  0.61643073  0.09250041  -0.23919292  1.0
  Co  Co16  1  0.48700000  0.33381491  -0.80814661  1.0
  Co  Co17  1  -0.48700000  0.66618509  -0.19185339  1.0
  Co  Co18  1  0.00000000  0.00000000  0.00000000  1.0
  Co  Co19  1  0.50000000  -0.00000000  0.00000000  1.0
  S  S20  1  0.20853658  0.81277595  -0.73150471  1.0
  S  S21  1  -0.20853658  0.18722405  -0.26849529  1.0
  S  S22  1  0.04266371  0.67725074  -0.26126449  1.0
  S  S23  1  -0.04266371  0.32274926  -0.73873551  1.0
  Na  Na24  1  -0.20037213  0.68589368  -0.78642643  1.0
  Na  Na25  1  0.20037213  0.31410632  -0.21357357  1.0
