# generated using pymatgen
data_Si2H2O5
_symmetry_space_group_name_H-M   'P 1'
_cell_length_a   4.93607226
_cell_length_b   7.18828949
_cell_length_c   11.45005912
_cell_angle_alpha   90.00000000
_cell_angle_beta   90.00000000
_cell_angle_gamma   90.00000000
_symmetry_Int_Tables_number   1
_chemical_formula_structural   Si2H2O5
_chemical_formula_sum   'Si8 H8 O20'
_cell_volume   406.27003998
_cell_formula_units_Z   4
loop_
 _symmetry_equiv_pos_site_id
 _symmetry_equiv_pos_as_xyz
  1  'x, y, z'
loop_
 _atom_site_type_symbol
 _atom_site_label
 _atom_site_symmetry_multiplicity
 _atom_site_fract_x
 _atom_site_fract_y
 _atom_site_fract_z
 _atom_site_occupancy
  Si  Si0  1  0.24145344  0.46249437  0.17203205  1.0
  Si  Si1  1  0.24145344  0.03750563  0.67203205  1.0
  Si  Si2  1  0.74145344  0.96249437  0.82796795  1.0
  Si  Si3  1  0.74145344  0.53750563  0.32796795  1.0
  Si  Si4  1  0.75854656  0.96249437  0.32796795  1.0
  Si  Si5  1  0.75854656  0.53750563  0.82796795  1.0
  Si  Si6  1  0.25854656  0.46249437  0.67203205  1.0
  Si  Si7  1  0.25854656  0.03750563  0.17203205  1.0
  H  H8  1  0.25000000  0.75000000  0.05241889  1.0
  H  H9  1  0.25000000  0.75000000  0.55241889  1.0
  H  H10  1  0.75000000  0.25000000  0.94758111  1.0
  H  H11  1  0.75000000  0.25000000  0.44758111  1.0
  H  H12  1  0.50000000  0.50000000  0.00000000  1.0
  H  H13  1  0.50000000  0.00000000  0.50000000  1.0
  H  H14  1  0.00000000  0.00000000  0.00000000  1.0
  H  H15  1  0.00000000  0.50000000  0.50000000  1.0
  O  O16  1  0.43792579  0.48015765  0.28661793  1.0
  O  O17  1  0.43792579  0.01984235  0.78661793  1.0
  O  O18  1  0.93792579  0.98015765  0.71338207  1.0
  O  O19  1  0.93792579  0.51984235  0.21338207  1.0
  O  O20  1  0.56207421  0.98015765  0.21338207  1.0
  O  O21  1  0.56207421  0.51984235  0.71338207  1.0
  O  O22  1  0.06207421  0.48015765  0.78661793  1.0
  O  O23  1  0.06207421  0.01984235  0.28661793  1.0
  O  O24  1  0.16169828  0.91003609  0.06065393  1.0
  O  O25  1  0.16169828  0.58996391  0.56065393  1.0
  O  O26  1  0.66169828  0.41003609  0.93934607  1.0
  O  O27  1  0.66169828  0.08996391  0.43934607  1.0
  O  O28  1  0.83830172  0.41003609  0.43934607  1.0
  O  O29  1  0.83830172  0.08996391  0.93934607  1.0
  O  O30  1  0.33830172  0.91003609  0.56065393  1.0
  O  O31  1  0.33830172  0.58996391  0.06065393  1.0
  O  O32  1  0.25000000  0.25000000  0.12448623  1.0
  O  O33  1  0.25000000  0.25000000  0.62448623  1.0
  O  O34  1  0.75000000  0.75000000  0.87551377  1.0
  O  O35  1  0.75000000  0.75000000  0.37551377  1.0
