# generated using pymatgen
data_LiSn2(AsO4)3
_symmetry_space_group_name_H-M   'P 1'
_cell_length_a   9.09654382
_cell_length_b   9.09654382
_cell_length_c   9.09654382
_cell_angle_alpha   60.66350451
_cell_angle_beta   60.66350451
_cell_angle_gamma   60.66350451
_symmetry_Int_Tables_number   1
_chemical_formula_structural   LiSn2(AsO4)3
_chemical_formula_sum   'Li2 Sn4 As6 O24'
_cell_volume   540.22082242
_cell_formula_units_Z   2
loop_
 _symmetry_equiv_pos_site_id
 _symmetry_equiv_pos_as_xyz
  1  'x, y, z'
loop_
 _atom_site_type_symbol
 _atom_site_label
 _atom_site_symmetry_multiplicity
 _atom_site_fract_x
 _atom_site_fract_y
 _atom_site_fract_z
 _atom_site_occupancy
  Li  Li0  1  1.00000000  -0.00000000  -0.00000000  1.0
  Li  Li1  1  0.50000000  0.50000000  0.50000000  1.0
  Sn  Sn2  1  0.85954598  -0.14045402  -0.14045402  1.0
  Sn  Sn3  1  0.35954598  0.35954598  0.35954598  1.0
  Sn  Sn4  1  0.64045402  0.64045402  -0.35954598  1.0
  Sn  Sn5  1  1.14045402  0.14045402  0.14045402  1.0
  As  As6  1  0.45582268  0.75000000  0.04417732  1.0
  As  As7  1  0.95582268  -0.45582268  0.25000000  1.0
  As  As8  1  0.25000000  0.95582268  -0.45582268  1.0
  As  As9  1  0.75000000  1.04417732  -0.54417732  1.0
  As  As10  1  0.54417732  0.25000000  -0.04417732  1.0
  As  As11  1  1.04417732  0.45582268  -0.25000000  1.0
  O  O12  1  0.80966988  1.01473525  -0.37653808  1.0
  O  O13  1  1.30966988  0.12346192  -0.48526475  1.0
  O  O14  1  0.87653808  0.48526475  -0.30966988  1.0
  O  O15  1  0.37653808  0.19033012  -0.01473525  1.0
  O  O16  1  0.98526475  0.37653808  -0.80966988  1.0
  O  O17  1  0.48526475  0.69033012  -0.12346192  1.0
  O  O18  1  0.19033012  0.98526475  -0.62346192  1.0
  O  O19  1  0.69033012  0.87653808  -0.51473525  1.0
  O  O20  1  0.62346192  0.80966988  0.01473525  1.0
  O  O21  1  1.12346192  -0.48526475  0.30966988  1.0
  O  O22  1  0.51473525  0.30966988  0.12346192  1.0
  O  O23  1  1.01473525  0.62346192  -0.19033012  1.0
  O  O24  1  0.74857726  0.08005914  -0.05772820  1.0
  O  O25  1  1.24857726  0.44227180  -0.41994086  1.0
  O  O26  1  0.55772820  0.41994086  -0.24857726  1.0
  O  O27  1  1.05772820  0.25142274  -0.08005914  1.0
  O  O28  1  0.91994086  0.05772820  0.25142274  1.0
  O  O29  1  0.41994086  0.75142274  -0.44227180  1.0
  O  O30  1  1.25142274  -0.08005914  0.05772820  1.0
  O  O31  1  0.75142274  0.55772820  -0.58005914  1.0
  O  O32  1  0.94227180  -0.25142274  0.08005914  1.0
  O  O33  1  0.44227180  0.58005914  0.24857726  1.0
  O  O34  1  0.58005914  1.24857726  -0.55772820  1.0
  O  O35  1  1.08005914  -0.05772820  -0.25142274  1.0
