# generated using pymatgen
data_SrAg
_symmetry_space_group_name_H-M   'P 1'
_cell_length_a   16.64156333
_cell_length_b   4.83669856
_cell_length_c   6.39336725
_cell_angle_alpha   90.00000000
_cell_angle_beta   90.00000000
_cell_angle_gamma   90.00000000
_symmetry_Int_Tables_number   1
_chemical_formula_structural   SrAg
_chemical_formula_sum   'Sr8 Ag8'
_cell_volume   514.60357124
_cell_formula_units_Z   8
loop_
 _symmetry_equiv_pos_site_id
 _symmetry_equiv_pos_as_xyz
  1  'x, y, z'
loop_
 _atom_site_type_symbol
 _atom_site_label
 _atom_site_symmetry_multiplicity
 _atom_site_fract_x
 _atom_site_fract_y
 _atom_site_fract_z
 _atom_site_occupancy
  Sr  Sr0  1  0.21501593  0.75000000  0.51211605  1.0
  Sr  Sr1  1  0.71501593  0.75000000  0.98788395  1.0
  Sr  Sr2  1  0.78498407  0.25000000  0.48788395  1.0
  Sr  Sr3  1  0.28498407  0.25000000  0.01211605  1.0
  Sr  Sr4  1  0.46531157  0.75000000  0.74559251  1.0
  Sr  Sr5  1  0.96531157  0.75000000  0.75440749  1.0
  Sr  Sr6  1  0.53468843  0.25000000  0.25440749  1.0
  Sr  Sr7  1  0.03468843  0.25000000  0.24559251  1.0
  Ag  Ag8  1  0.39218568  0.75000000  0.25642839  1.0
  Ag  Ag9  1  0.89218568  0.75000000  0.24357161  1.0
  Ag  Ag10  1  0.60781432  0.25000000  0.74357161  1.0
  Ag  Ag11  1  0.10781432  0.25000000  0.75642839  1.0
  Ag  Ag12  1  0.14269117  0.75000000  0.00244904  1.0
  Ag  Ag13  1  0.64269117  0.75000000  0.49755096  1.0
  Ag  Ag14  1  0.85730883  0.25000000  0.99755096  1.0
  Ag  Ag15  1  0.35730883  0.25000000  0.50244904  1.0
