# generated using pymatgen
data_Nb5SnSe8
_symmetry_space_group_name_H-M   'P 1'
_cell_length_a   9.51026182
_cell_length_b   9.51026182
_cell_length_c   9.38875598
_cell_angle_alpha   76.99969401
_cell_angle_beta   103.00030599
_cell_angle_gamma   159.17789427
_symmetry_Int_Tables_number   1
_chemical_formula_structural   Nb5SnSe8
_chemical_formula_sum   'Nb5 Sn1 Se8'
_cell_volume   293.84976107
_cell_formula_units_Z   1
loop_
 _symmetry_equiv_pos_site_id
 _symmetry_equiv_pos_as_xyz
  1  'x, y, z'
loop_
 _atom_site_type_symbol
 _atom_site_label
 _atom_site_symmetry_multiplicity
 _atom_site_fract_x
 _atom_site_fract_y
 _atom_site_fract_z
 _atom_site_occupancy
  Nb  Nb0  1  0.00000000  0.00000000  0.00000000  1.0
  Nb  Nb1  1  0.64058013  0.35941987  1.00245532  1.0
  Nb  Nb2  1  0.35941987  -0.35941987  -0.00245532  1.0
  Nb  Nb3  1  0.71241038  0.28758962  0.36924636  1.0
  Nb  Nb4  1  0.28758962  -0.28758962  0.63075364  1.0
  Sn  Sn5  1  0.50000000  0.50000000  0.50000000  1.0
  Se  Se6  1  0.43095310  -0.43095310  0.79849084  1.0
  Se  Se7  1  0.56904690  0.43095310  0.20150916  1.0
  Se  Se8  1  0.91524171  0.08475829  0.19158181  1.0
  Se  Se9  1  0.08475829  -0.08475829  0.80841819  1.0
  Se  Se10  1  0.84904183  0.15095817  0.48965445  1.0
  Se  Se11  1  0.15095817  -0.15095817  0.51034555  1.0
  Se  Se12  1  0.75850977  0.24149023  0.84053502  1.0
  Se  Se13  1  0.24149023  -0.24149023  0.15946498  1.0
