# generated using pymatgen
data_Li4P2O7
_symmetry_space_group_name_H-M   'P 1'
_cell_length_a   5.23540984
_cell_length_b   8.64453431
_cell_length_c   7.20890687
_cell_angle_alpha   102.51176103
_cell_angle_beta   111.01456431
_cell_angle_gamma   89.93955256
_symmetry_Int_Tables_number   1
_chemical_formula_structural   Li4P2O7
_chemical_formula_sum   'Li8 P4 O14'
_cell_volume   296.27284256
_cell_formula_units_Z   2
loop_
 _symmetry_equiv_pos_site_id
 _symmetry_equiv_pos_as_xyz
  1  'x, y, z'
loop_
 _atom_site_type_symbol
 _atom_site_label
 _atom_site_symmetry_multiplicity
 _atom_site_fract_x
 _atom_site_fract_y
 _atom_site_fract_z
 _atom_site_occupancy
  Li  Li0  1  -0.39519770  -0.75030327  -0.90945917  1.0
  Li  Li1  1  -0.60480230  -0.24969673  -0.09054083  1.0
  Li  Li2  1  -0.97231277  -0.20847133  -0.82848008  1.0
  Li  Li3  1  -0.02768723  -0.79152867  -0.17151992  1.0
  Li  Li4  1  -0.94345725  -0.54769638  -0.74058930  1.0
  Li  Li5  1  -0.05654275  -0.45230362  -0.25941070  1.0
  Li  Li6  1  -0.74430117  -0.98826642  -0.35481266  1.0
  Li  Li7  1  -0.25569883  -0.01173358  -0.64518734  1.0
  P  P8  1  -0.42639613  -0.36728682  -0.71380272  1.0
  P  P9  1  -0.57360387  -0.63271318  -0.28619728  1.0
  P  P10  1  -0.78430397  -0.84503079  -0.72051766  1.0
  P  P11  1  -0.21569603  -0.15496921  -0.27948234  1.0
  O  O12  1  -0.73735824  -0.68314066  -0.53738529  1.0
  O  O13  1  -0.26264176  -0.31685934  -0.46261471  1.0
  O  O14  1  -0.51597112  -0.87250695  -0.75615244  1.0
  O  O15  1  -0.48402888  -0.12749305  -0.24384756  1.0
  O  O16  1  -0.31476832  -0.52619053  -0.77041371  1.0
  O  O17  1  -0.68523168  -0.47380947  -0.22958629  1.0
  O  O18  1  -0.00679046  -0.78981308  -0.89528292  1.0
  O  O19  1  -0.99320954  -0.21018692  -0.10471708  1.0
  O  O20  1  -0.88308637  -0.98297383  -0.65145742  1.0
  O  O21  1  -0.11691363  -0.01702617  -0.34854258  1.0
  O  O22  1  -0.73463135  -0.37557293  -0.75441318  1.0
  O  O23  1  -0.26536865  -0.62442707  -0.24558682  1.0
  O  O24  1  -0.65991479  -0.76541776  -0.20098957  1.0
  O  O25  1  -0.34008521  -0.23458224  -0.79901043  1.0
