# generated using pymatgen
data_Sr2Ti6O13
_symmetry_space_group_name_H-M   'P 1'
_cell_length_a   7.61896096
_cell_length_b   7.61896096
_cell_length_c   9.20266387
_cell_angle_alpha   82.30584368
_cell_angle_beta   97.69415632
_cell_angle_gamma   150.27712690
_symmetry_Int_Tables_number   1
_chemical_formula_structural   Sr2Ti6O13
_chemical_formula_sum   'Sr2 Ti6 O13'
_cell_volume   262.30665903
_cell_formula_units_Z   1
loop_
 _symmetry_equiv_pos_site_id
 _symmetry_equiv_pos_as_xyz
  1  'x, y, z'
loop_
 _atom_site_type_symbol
 _atom_site_label
 _atom_site_symmetry_multiplicity
 _atom_site_fract_x
 _atom_site_fract_y
 _atom_site_fract_z
 _atom_site_occupancy
  Sr  Sr0  1  0.54819992  0.45180008  0.78000943  1.0
  Sr  Sr1  1  0.45180008  -0.45180008  0.21999057  1.0
  Ti  Ti2  1  0.83578048  0.16421952  0.55516402  1.0
  Ti  Ti3  1  0.16421952  -0.16421952  0.44483598  1.0
  Ti  Ti4  1  0.24514811  -0.24514811  0.77309582  1.0
  Ti  Ti5  1  0.75485189  0.24514811  0.22690418  1.0
  Ti  Ti6  1  0.87782524  0.12217476  0.90128721  1.0
  Ti  Ti7  1  0.12217476  -0.12217476  0.09871279  1.0
  O  O8  1  0.93489602  0.06510398  0.69719170  1.0
  O  O9  1  0.06510398  -0.06510398  0.30280830  1.0
  O  O10  1  0.87461879  0.12538121  0.37774179  1.0
  O  O11  1  0.12538121  -0.12538121  0.62225821  1.0
  O  O12  1  0.75726701  0.24273299  0.75212715  1.0
  O  O13  1  0.24273299  -0.24273299  0.24787285  1.0
  O  O14  1  0.69811560  0.30188440  0.43161489  1.0
  O  O15  1  0.30188440  -0.30188440  0.56838511  1.0
  O  O16  1  0.37547531  -0.37547531  0.88085581  1.0
  O  O17  1  0.62452469  0.37547531  0.11914419  1.0
  O  O18  1  0.16972028  -0.16972028  0.91615981  1.0
  O  O19  1  0.83027972  0.16972028  0.08384019  1.0
  O  O20  1  0.00000000  0.00000000  0.00000000  1.0
