# generated using pymatgen
data_BH12C3N
_symmetry_space_group_name_H-M   'P 1'
_cell_length_a   5.90201018
_cell_length_b   5.90201018
_cell_length_c   5.90201018
_cell_angle_alpha   109.38320677
_cell_angle_beta   109.38320677
_cell_angle_gamma   109.38320677
_symmetry_Int_Tables_number   1
_chemical_formula_structural   BH12C3N
_chemical_formula_sum   'B1 H12 C3 N1'
_cell_volume   158.77610593
_cell_formula_units_Z   1
loop_
 _symmetry_equiv_pos_site_id
 _symmetry_equiv_pos_as_xyz
  1  'x, y, z'
loop_
 _atom_site_type_symbol
 _atom_site_label
 _atom_site_symmetry_multiplicity
 _atom_site_fract_x
 _atom_site_fract_y
 _atom_site_fract_z
 _atom_site_occupancy
  B  B0  1  0.91663468  0.91663468  0.91663468  1.0
  H  H1  1  0.53864650  0.28720385  0.28720385  1.0
  H  H2  1  1.28720385  0.28720385  -0.46135350  1.0
  H  H3  1  1.28720385  -0.46135350  0.28720385  1.0
  H  H4  1  0.84871490  0.41266751  0.59804531  1.0
  H  H5  1  1.41266751  0.59804531  -0.15128510  1.0
  H  H6  1  1.59804531  -0.15128510  0.41266751  1.0
  H  H7  1  0.84871490  0.59804531  0.41266751  1.0
  H  H8  1  1.59804531  0.41266751  -0.15128510  1.0
  H  H9  1  1.41266751  -0.15128510  0.59804531  1.0
  H  H10  1  1.04659912  0.04659912  -0.16361690  1.0
  H  H11  1  1.04659912  -0.16361690  0.04659912  1.0
  H  H12  1  0.83638310  0.04659912  0.04659912  1.0
  C  C13  1  0.72408844  0.47245797  0.47245797  1.0
  C  C14  1  1.47245797  0.47245797  -0.27591156  1.0
  C  C15  1  1.47245797  -0.27591156  0.47245797  1.0
  N  N16  1  0.64296995  0.64296995  0.64296995  1.0
