# generated using pymatgen
data_H4C2N8O
_symmetry_space_group_name_H-M   'P 1'
_cell_length_a   7.00467798
_cell_length_b   4.67142742
_cell_length_c   11.14099940
_cell_angle_alpha   100.08314098
_cell_angle_beta   111.44777737
_cell_angle_gamma   93.34461101
_symmetry_Int_Tables_number   1
_chemical_formula_structural   H4C2N8O
_chemical_formula_sum   'H8 C4 N16 O2'
_cell_volume   331.07699479
_cell_formula_units_Z   2
loop_
 _symmetry_equiv_pos_site_id
 _symmetry_equiv_pos_as_xyz
  1  'x, y, z'
loop_
 _atom_site_type_symbol
 _atom_site_label
 _atom_site_symmetry_multiplicity
 _atom_site_fract_x
 _atom_site_fract_y
 _atom_site_fract_z
 _atom_site_occupancy
  H  H0  1  0.78606698  0.88849124  -0.18040306  1.0
  H  H1  1  0.21393302  0.11150876  -0.81959694  1.0
  H  H2  1  0.82884008  0.55829131  -0.13213797  1.0
  H  H3  1  0.17115992  0.44170869  -0.86786203  1.0
  H  H4  1  0.96366259  0.42540702  -0.29944366  1.0
  H  H5  1  0.03633741  0.57459298  -0.70055634  1.0
  H  H6  1  0.97007135  0.17667169  -0.87823829  1.0
  H  H7  1  0.02992865  0.82332831  -0.12176171  1.0
  C  C8  1  0.55149398  0.92746876  -0.94770246  1.0
  C  C9  1  0.44850602  0.07253124  -0.05229754  1.0
  C  C10  1  0.67421442  0.53606517  -0.40426709  1.0
  C  C11  1  0.32578558  0.46393484  -0.59573291  1.0
  N  N12  1  0.75355074  0.90122304  -0.89692805  1.0
  N  N13  1  0.24644926  0.09877696  -0.10307195  1.0
  N  N14  1  0.45746186  0.78758804  -0.88224434  1.0
  N  N15  1  0.54253814  0.21241196  -0.11775566  1.0
  N  N16  1  0.53421503  0.71244144  -0.39096766  1.0
  N  N17  1  0.46578497  0.28755856  -0.60903234  1.0
  N  N18  1  0.77840554  0.74558430  -0.80285763  1.0
  N  N19  1  0.22159446  0.25441570  -0.19714237  1.0
  N  N20  1  0.87778144  0.71701752  -0.17607463  1.0
  N  N21  1  0.12221856  0.28298248  -0.82392537  1.0
  N  N22  1  0.35439202  0.67677813  -0.48956076  1.0
  N  N23  1  0.64560798  0.32322187  -0.51043924  1.0
  N  N24  1  0.60233237  0.67458218  -0.79230751  1.0
  N  N25  1  0.39766763  0.32541782  -0.20769249  1.0
  N  N26  1  0.86660143  0.58462050  -0.30385272  1.0
  N  N27  1  0.13339857  0.41537950  -0.69614728  1.0
  O  O28  1  0.26292577  0.76304776  -0.89719683  1.0
  O  O29  1  0.73707423  0.23695224  -0.10280317  1.0
