# generated using pymatgen
data_LiSbS2
_symmetry_space_group_name_H-M   'P 1'
_cell_length_a   5.57815529
_cell_length_b   5.57815529
_cell_length_c   6.77348987
_cell_angle_alpha   66.02091593
_cell_angle_beta   113.97908407
_cell_angle_gamma   89.18234022
_symmetry_Int_Tables_number   1
_chemical_formula_structural   LiSbS2
_chemical_formula_sum   'Li2 Sb2 S4'
_cell_volume   171.84015124
_cell_formula_units_Z   2
loop_
 _symmetry_equiv_pos_site_id
 _symmetry_equiv_pos_as_xyz
  1  'x, y, z'
loop_
 _atom_site_type_symbol
 _atom_site_label
 _atom_site_symmetry_multiplicity
 _atom_site_fract_x
 _atom_site_fract_y
 _atom_site_fract_z
 _atom_site_occupancy
  Li  Li0  1  1.36908203  0.36908203  0.25000000  1.0
  Li  Li1  1  0.63091797  -0.36908203  0.75000000  1.0
  Sb  Sb2  1  0.85556751  0.85556751  0.25000000  1.0
  Sb  Sb3  1  0.14443249  0.14443249  0.75000000  1.0
  S  S4  1  1.40776541  -0.11599107  0.25328734  1.0
  S  S5  1  1.11599107  0.59223459  0.75328734  1.0
  S  S6  1  0.88400893  -0.59223459  0.24671266  1.0
  S  S7  1  0.59223459  0.11599107  0.74671266  1.0
