# generated using pymatgen
data_Li3MnO4
_symmetry_space_group_name_H-M   'P 1'
_cell_length_a   10.86429935
_cell_length_b   6.31406682
_cell_length_c   5.09530470
_cell_angle_alpha   90.00000000
_cell_angle_beta   90.00000000
_cell_angle_gamma   90.00000000
_symmetry_Int_Tables_number   1
_chemical_formula_structural   Li3MnO4
_chemical_formula_sum   'Li12 Mn4 O16'
_cell_volume   349.52726384
_cell_formula_units_Z   4
loop_
 _symmetry_equiv_pos_site_id
 _symmetry_equiv_pos_as_xyz
  1  'x, y, z'
loop_
 _atom_site_type_symbol
 _atom_site_label
 _atom_site_symmetry_multiplicity
 _atom_site_fract_x
 _atom_site_fract_y
 _atom_site_fract_z
 _atom_site_occupancy
  Li  Li0  1  0.66501467  0.99641888  0.30682993  1.0
  Li  Li1  1  0.66501467  0.50358112  0.30682993  1.0
  Li  Li2  1  0.16501467  0.99641888  0.19317007  1.0
  Li  Li3  1  0.16501467  0.50358112  0.19317007  1.0
  Li  Li4  1  0.33498533  0.49641888  0.69317007  1.0
  Li  Li5  1  0.33498533  0.00358112  0.69317007  1.0
  Li  Li6  1  0.83498533  0.49641888  0.80682993  1.0
  Li  Li7  1  0.83498533  0.00358112  0.80682993  1.0
  Li  Li8  1  0.57567248  0.25000000  0.69917607  1.0
  Li  Li9  1  0.07567248  0.25000000  0.80082393  1.0
  Li  Li10  1  0.42432752  0.75000000  0.30082393  1.0
  Li  Li11  1  0.92432752  0.75000000  0.19917607  1.0
  Mn  Mn12  1  0.91242118  0.25000000  0.31165241  1.0
  Mn  Mn13  1  0.41242118  0.25000000  0.18834759  1.0
  Mn  Mn14  1  0.08757882  0.75000000  0.68834759  1.0
  Mn  Mn15  1  0.58757882  0.75000000  0.81165241  1.0
  O  O16  1  0.83766586  0.47063283  0.20278557  1.0
  O  O17  1  0.83766586  0.02936717  0.20278557  1.0
  O  O18  1  0.33766586  0.47063283  0.29721443  1.0
  O  O19  1  0.33766586  0.02936717  0.29721443  1.0
  O  O20  1  0.16233414  0.97063283  0.79721443  1.0
  O  O21  1  0.16233414  0.52936717  0.79721443  1.0
  O  O22  1  0.66233414  0.97063283  0.70278557  1.0
  O  O23  1  0.66233414  0.52936717  0.70278557  1.0
  O  O24  1  0.91176989  0.25000000  0.64727846  1.0
  O  O25  1  0.41176989  0.25000000  0.85272154  1.0
  O  O26  1  0.08823011  0.75000000  0.35272154  1.0
  O  O27  1  0.58823011  0.75000000  0.14727846  1.0
  O  O28  1  0.55991270  0.25000000  0.29920966  1.0
  O  O29  1  0.05991270  0.25000000  0.20079034  1.0
  O  O30  1  0.44008730  0.75000000  0.70079034  1.0
  O  O31  1  0.94008730  0.75000000  0.79920966  1.0
