# generated using pymatgen
data_Bi2Pd3S2
_symmetry_space_group_name_H-M   'P 1'
_cell_length_a   5.73924651
_cell_length_b   5.73924651
_cell_length_c   5.73924651
_cell_angle_alpha   65.26815174
_cell_angle_beta   65.26815174
_cell_angle_gamma   65.26815174
_symmetry_Int_Tables_number   1
_chemical_formula_structural   Bi2Pd3S2
_chemical_formula_sum   'Bi2 Pd3 S2'
_cell_volume   149.01646371
_cell_formula_units_Z   1
loop_
 _symmetry_equiv_pos_site_id
 _symmetry_equiv_pos_as_xyz
  1  'x, y, z'
loop_
 _atom_site_type_symbol
 _atom_site_label
 _atom_site_symmetry_multiplicity
 _atom_site_fract_x
 _atom_site_fract_y
 _atom_site_fract_z
 _atom_site_occupancy
  Bi  Bi0  1  0.00000000  -0.00000000  -0.00000000  1.0
  Bi  Bi1  1  1.50000000  0.50000000  0.50000000  1.0
  Pd  Pd2  1  1.00000000  -0.00000000  -0.50000000  1.0
  Pd  Pd3  1  1.00000000  1.50000000  0.00000000  1.0
  Pd  Pd4  1  1.50000000  1.00000000  0.00000000  1.0
  S  S5  1  0.71968605  -0.28031395  -0.28031395  1.0
  S  S6  1  1.28031395  0.28031395  0.28031395  1.0
