# generated using pymatgen
data_KC
_symmetry_space_group_name_H-M   'P 1'
_cell_length_a   9.09774866
_cell_length_b   9.09774866
_cell_length_c   9.09774866
_cell_angle_alpha   130.24118923
_cell_angle_beta   130.24118923
_cell_angle_gamma   73.02147760
_symmetry_Int_Tables_number   1
_chemical_formula_structural   KC
_chemical_formula_sum   'K8 C8'
_cell_volume   428.49468329
_cell_formula_units_Z   8
loop_
 _symmetry_equiv_pos_site_id
 _symmetry_equiv_pos_as_xyz
  1  'x, y, z'
loop_
 _atom_site_type_symbol
 _atom_site_label
 _atom_site_symmetry_multiplicity
 _atom_site_fract_x
 _atom_site_fract_y
 _atom_site_fract_z
 _atom_site_occupancy
  K  K0  1  0.81690686  1.37500000  0.94190686  1.0
  K  K1  1  1.31690686  1.37500000  1.44190686  1.0
  K  K2  1  1.62500000  1.56690686  1.44190686  1.0
  K  K3  1  1.12500000  1.68309314  1.05809314  1.0
  K  K4  1  0.93309314  0.87500000  0.55809314  1.0
  K  K5  1  1.43309314  0.87500000  1.05809314  1.0
  K  K6  1  1.62500000  1.06690686  0.94190686  1.0
  K  K7  1  1.12500000  1.18309314  0.55809314  1.0
  C  C8  1  0.80848008  0.80848008  0.11696017  1.0
  C  C9  1  1.30848008  1.19151992  1.00000000  1.0
  C  C10  1  0.05848008  0.55848008  0.61696017  1.0
  C  C11  1  0.55848008  0.94151992  1.50000000  1.0
  C  C12  1  0.94151992  0.44151992  1.38303983  1.0
  C  C13  1  0.44151992  0.05848008  0.50000000  1.0
  C  C14  1  1.69151992  1.69151992  1.88303983  1.0
  C  C15  1  1.19151992  1.30848008  1.00000000  1.0
