# generated using pymatgen
data_BaVCu4P4O17
_symmetry_space_group_name_H-M   'P 1'
_cell_length_a   9.76638768
_cell_length_b   9.76638768
_cell_length_c   7.35121058
_cell_angle_alpha   90.00000000
_cell_angle_beta   90.00000000
_cell_angle_gamma   90.00000000
_symmetry_Int_Tables_number   1
_chemical_formula_structural   BaVCu4P4O17
_chemical_formula_sum   'Ba2 V2 Cu8 P8 O34'
_cell_volume   701.17558053
_cell_formula_units_Z   2
loop_
 _symmetry_equiv_pos_site_id
 _symmetry_equiv_pos_as_xyz
  1  'x, y, z'
loop_
 _atom_site_type_symbol
 _atom_site_label
 _atom_site_symmetry_multiplicity
 _atom_site_fract_x
 _atom_site_fract_y
 _atom_site_fract_z
 _atom_site_occupancy
  V  V0  1  0.50000000  0.00000000  0.95602627  1.0
  V  V1  1  0.00000000  0.50000000  0.04397373  1.0
  P  P2  1  0.28697576  0.80402808  0.73398621  1.0
  P  P3  1  0.78697576  0.69597192  0.26601379  1.0
  P  P4  1  0.19597192  0.71302424  0.26601379  1.0
  P  P5  1  0.69597192  0.78697576  0.73398621  1.0
  P  P6  1  0.71302424  0.19597192  0.73398621  1.0
  P  P7  1  0.21302424  0.30402808  0.26601379  1.0
  P  P8  1  0.80402808  0.28697576  0.26601379  1.0
  P  P9  1  0.30402808  0.21302424  0.73398621  1.0
  Ba  Ba10  1  0.50000000  0.50000000  0.00000000  1.0
  Ba  Ba11  1  0.00000000  0.00000000  0.00000000  1.0
  O  O12  1  0.35101914  0.88501982  0.89734043  1.0
  O  O13  1  0.85101914  0.61498018  0.10265957  1.0
  O  O14  1  0.11498018  0.64898086  0.10265957  1.0
  O  O15  1  0.61498018  0.85101914  0.89734043  1.0
  O  O16  1  0.64898086  0.11498018  0.89734043  1.0
  O  O17  1  0.14898086  0.38501982  0.10265957  1.0
  O  O18  1  0.88501982  0.35101914  0.10265957  1.0
  O  O19  1  0.38501982  0.14898086  0.89734043  1.0
  O  O20  1  0.32501507  0.65089660  0.75367083  1.0
  O  O21  1  0.82501507  0.84910340  0.24632917  1.0
  O  O22  1  0.34910340  0.67498493  0.24632917  1.0
  O  O23  1  0.84910340  0.82501507  0.75367083  1.0
  O  O24  1  0.67498493  0.34910340  0.75367083  1.0
  O  O25  1  0.17498493  0.15089660  0.24632917  1.0
  O  O26  1  0.65089660  0.32501507  0.24632917  1.0
  O  O27  1  0.15089660  0.17498493  0.75367083  1.0
  O  O28  1  0.13160633  0.83561448  0.74120770  1.0
  O  O29  1  0.63160633  0.66438552  0.25879230  1.0
  O  O30  1  0.16438552  0.86839367  0.25879230  1.0
  O  O31  1  0.66438552  0.63160633  0.74120770  1.0
  O  O32  1  0.86839367  0.16438552  0.74120770  1.0
  O  O33  1  0.36839367  0.33561448  0.25879230  1.0
  O  O34  1  0.83561448  0.13160633  0.25879230  1.0
  O  O35  1  0.33561448  0.36839367  0.74120770  1.0
  O  O36  1  0.50000000  0.00000000  0.17469030  1.0
  O  O37  1  0.00000000  0.50000000  0.82530970  1.0
  O  O38  1  0.34973530  0.86009785  0.55041299  1.0
  O  O39  1  0.84973530  0.63990215  0.44958701  1.0
  O  O40  1  0.13990215  0.65026470  0.44958701  1.0
  O  O41  1  0.63990215  0.84973530  0.55041299  1.0
  O  O42  1  0.65026470  0.13990215  0.55041299  1.0
  O  O43  1  0.15026470  0.36009785  0.44958701  1.0
  O  O44  1  0.86009785  0.34973530  0.44958701  1.0
  O  O45  1  0.36009785  0.15026470  0.55041299  1.0
  Cu  Cu46  1  0.23890860  0.50853312  0.59597371  1.0
  Cu  Cu47  1  0.73890860  0.99146688  0.40402629  1.0
  Cu  Cu48  1  0.49146688  0.76109140  0.40402629  1.0
  Cu  Cu49  1  0.99146688  0.73890860  0.59597371  1.0
  Cu  Cu50  1  0.76109140  0.49146688  0.59597371  1.0
  Cu  Cu51  1  0.26109140  0.00853312  0.40402629  1.0
  Cu  Cu52  1  0.50853312  0.23890860  0.40402629  1.0
  Cu  Cu53  1  0.00853312  0.26109140  0.59597371  1.0
