# generated using pymatgen
data_SbS2NF6
_symmetry_space_group_name_H-M   'P 1'
_cell_length_a   6.04984062
_cell_length_b   6.04984062
_cell_length_c   5.63533485
_cell_angle_alpha   87.23679078
_cell_angle_beta   92.76320922
_cell_angle_gamma   109.08398869
_symmetry_Int_Tables_number   1
_chemical_formula_structural   SbS2NF6
_chemical_formula_sum   'Sb1 S2 N1 F6'
_cell_volume   194.57899866
_cell_formula_units_Z   1
loop_
 _symmetry_equiv_pos_site_id
 _symmetry_equiv_pos_as_xyz
  1  'x, y, z'
loop_
 _atom_site_type_symbol
 _atom_site_label
 _atom_site_symmetry_multiplicity
 _atom_site_fract_x
 _atom_site_fract_y
 _atom_site_fract_z
 _atom_site_occupancy
  Sb  Sb0  1  0.50000000  -0.50000000  0.50000000  1.0
  S  S1  1  0.85571754  -0.85571754  0.89780579  1.0
  S  S2  1  0.14428246  -0.14428246  0.10219421  1.0
  N  N3  1  0.00000000  0.00000000  0.00000000  1.0
  F  F4  1  1.41901274  0.19412544  0.65664316  1.0
  F  F5  1  0.80587456  -0.41901274  0.65664316  1.0
  F  F6  1  1.19412544  0.41901274  0.34335684  1.0
  F  F7  1  0.58098726  -0.19412544  0.34335684  1.0
  F  F8  1  0.38380400  -0.38380400  0.76293811  1.0
  F  F9  1  0.61619600  -0.61619600  0.23706189  1.0
