# generated using pymatgen
data_Sr(HO)2
_symmetry_space_group_name_H-M   'P 1'
_cell_length_a   10.03500468
_cell_length_b   3.95391566
_cell_length_c   6.06138941
_cell_angle_alpha   90.00000000
_cell_angle_beta   90.00000000
_cell_angle_gamma   90.00000000
_symmetry_Int_Tables_number   1
_chemical_formula_structural   Sr(HO)2
_chemical_formula_sum   'Sr4 H8 O8'
_cell_volume   240.50115478
_cell_formula_units_Z   4
loop_
 _symmetry_equiv_pos_site_id
 _symmetry_equiv_pos_as_xyz
  1  'x, y, z'
loop_
 _atom_site_type_symbol
 _atom_site_label
 _atom_site_symmetry_multiplicity
 _atom_site_fract_x
 _atom_site_fract_y
 _atom_site_fract_z
 _atom_site_occupancy
  Sr  Sr0  1  0.15847078  0.75000000  0.90051811  1.0
  Sr  Sr1  1  0.65847078  0.75000000  0.59948189  1.0
  Sr  Sr2  1  0.84152922  0.25000000  0.09948189  1.0
  Sr  Sr3  1  0.34152922  0.25000000  0.40051811  1.0
  H  H4  1  0.40599139  0.75000000  0.81360448  1.0
  H  H5  1  0.90599139  0.75000000  0.68639552  1.0
  H  H6  1  0.59400861  0.25000000  0.18639552  1.0
  H  H7  1  0.09400861  0.25000000  0.31360448  1.0
  H  H8  1  0.46628663  0.75000000  1.12803296  1.0
  H  H9  1  0.96628663  0.75000000  0.37196704  1.0
  H  H10  1  0.53371337  0.25000000  -0.12803296  1.0
  H  H11  1  0.03371337  0.25000000  0.62803296  1.0
  O  O12  1  0.39637401  0.75000000  0.65229169  1.0
  O  O13  1  0.89637401  0.75000000  0.84770831  1.0
  O  O14  1  0.60362599  0.25000000  0.34770831  1.0
  O  O15  1  0.10362599  0.25000000  0.15229169  1.0
  O  O16  1  0.36936248  0.75000000  0.13001730  1.0
  O  O17  1  0.86936248  0.75000000  0.36998270  1.0
  O  O18  1  0.63063752  0.25000000  0.86998270  1.0
  O  O19  1  0.13063752  0.25000000  0.63001730  1.0
