# generated using pymatgen
data_PdSO4
_symmetry_space_group_name_H-M   'P 1'
_cell_length_a   7.23597008
_cell_length_b   7.23597008
_cell_length_c   7.23597008
_cell_angle_alpha   146.21331245
_cell_angle_beta   93.89332703
_cell_angle_gamma   95.79602098
_symmetry_Int_Tables_number   1
_chemical_formula_structural   PdSO4
_chemical_formula_sum   'Pd2 S2 O8'
_cell_volume   201.56582316
_cell_formula_units_Z   2
loop_
 _symmetry_equiv_pos_site_id
 _symmetry_equiv_pos_as_xyz
  1  'x, y, z'
loop_
 _atom_site_type_symbol
 _atom_site_label
 _atom_site_symmetry_multiplicity
 _atom_site_fract_x
 _atom_site_fract_y
 _atom_site_fract_z
 _atom_site_occupancy
  Pd  Pd0  1  0.72742240  0.22742240  0.50000000  1.0
  Pd  Pd1  1  1.27257760  0.77257760  0.50000000  1.0
  S  S2  1  -0.00000000  0.50000000  0.50000000  1.0
  S  S3  1  0.50000000  0.50000000  1.00000000  1.0
  O  O4  1  1.18070413  1.39697501  1.38300661  1.0
  O  O5  1  0.81929587  1.20230248  1.21627088  1.0
  O  O6  1  0.98603160  0.60302499  0.78372912  1.0
  O  O7  1  1.01396840  0.79769752  0.61699339  1.0
  O  O8  1  0.67948488  0.38385851  0.89087358  1.0
  O  O9  1  1.32051512  1.21138870  0.70437362  1.0
  O  O10  1  1.50701508  1.61614149  1.29562638  1.0
  O  O11  1  0.49298492  0.78861130  1.10912642  1.0
