# generated using pymatgen
data_TeS7Cl2
_symmetry_space_group_name_H-M   'P 1'
_cell_length_a   10.06895439
_cell_length_b   9.51425688
_cell_length_c   13.96239658
_cell_angle_alpha   90.00000000
_cell_angle_beta   90.00000000
_cell_angle_gamma   90.00000000
_symmetry_Int_Tables_number   1
_chemical_formula_structural   TeS7Cl2
_chemical_formula_sum   'Te4 S28 Cl8'
_cell_volume   1337.57830491
_cell_formula_units_Z   4
loop_
 _symmetry_equiv_pos_site_id
 _symmetry_equiv_pos_as_xyz
  1  'x, y, z'
loop_
 _atom_site_type_symbol
 _atom_site_label
 _atom_site_symmetry_multiplicity
 _atom_site_fract_x
 _atom_site_fract_y
 _atom_site_fract_z
 _atom_site_occupancy
  Te  Te0  1  0.79785220  0.75000000  0.10131436  1.0
  Te  Te1  1  0.29785220  0.75000000  0.39868564  1.0
  Te  Te2  1  0.20214780  0.25000000  0.89868564  1.0
  Te  Te3  1  0.70214780  0.25000000  0.60131436  1.0
  S  S4  1  0.85811647  0.42684743  0.29559659  1.0
  S  S5  1  0.85811647  0.07315257  0.29559659  1.0
  S  S6  1  0.35811647  0.42684743  0.20440341  1.0
  S  S7  1  0.35811647  0.07315257  0.20440341  1.0
  S  S8  1  0.14188353  0.92684743  0.70440341  1.0
  S  S9  1  0.14188353  0.57315257  0.70440341  1.0
  S  S10  1  0.64188353  0.92684743  0.79559659  1.0
  S  S11  1  0.64188353  0.57315257  0.79559659  1.0
  S  S12  1  0.74668973  0.98269011  0.40647364  1.0
  S  S13  1  0.74668973  0.51730989  0.40647364  1.0
  S  S14  1  0.24668973  0.98269011  0.09352636  1.0
  S  S15  1  0.24668973  0.51730989  0.09352636  1.0
  S  S16  1  0.25331027  0.48269011  0.59352636  1.0
  S  S17  1  0.25331027  0.01730989  0.59352636  1.0
  S  S18  1  0.75331027  0.48269011  0.90647364  1.0
  S  S19  1  0.75331027  0.01730989  0.90647364  1.0
  S  S20  1  0.67423690  0.95860830  0.03255261  1.0
  S  S21  1  0.67423690  0.54139170  0.03255261  1.0
  S  S22  1  0.17423690  0.95860830  0.46744739  1.0
  S  S23  1  0.17423690  0.54139170  0.46744739  1.0
  S  S24  1  0.32576310  0.45860830  0.96744739  1.0
  S  S25  1  0.32576310  0.04139170  0.96744739  1.0
  S  S26  1  0.82576310  0.45860830  0.53255261  1.0
  S  S27  1  0.82576310  0.04139170  0.53255261  1.0
  S  S28  1  0.73444014  0.75000000  0.74236186  1.0
  S  S29  1  0.23444014  0.75000000  0.75763814  1.0
  S  S30  1  0.26555986  0.25000000  0.25763814  1.0
  S  S31  1  0.76555986  0.25000000  0.24236186  1.0
  Cl  Cl32  1  0.59792495  0.75000000  0.21249658  1.0
  Cl  Cl33  1  0.09792495  0.75000000  0.28750342  1.0
  Cl  Cl34  1  0.40207505  0.25000000  0.78750342  1.0
  Cl  Cl35  1  0.90207505  0.25000000  0.71249658  1.0
  Cl  Cl36  1  0.46368716  0.75000000  0.52786394  1.0
  Cl  Cl37  1  0.96368716  0.75000000  0.97213606  1.0
  Cl  Cl38  1  0.53631284  0.25000000  0.47213606  1.0
  Cl  Cl39  1  0.03631284  0.25000000  0.02786394  1.0
