# generated using pymatgen
data_Rb4NaGe18
_symmetry_space_group_name_H-M   'P 1'
_cell_length_a   16.35108078
_cell_length_b   16.35108078
_cell_length_c   16.35108078
_cell_angle_alpha   60.00000000
_cell_angle_beta   60.00000000
_cell_angle_gamma   60.00000000
_symmetry_Int_Tables_number   1
_chemical_formula_structural   Rb4NaGe18
_chemical_formula_sum   'Rb8 Na2 Ge36'
_cell_volume   3091.18070906
_cell_formula_units_Z   2
loop_
 _symmetry_equiv_pos_site_id
 _symmetry_equiv_pos_as_xyz
  1  'x, y, z'
loop_
 _atom_site_type_symbol
 _atom_site_label
 _atom_site_symmetry_multiplicity
 _atom_site_fract_x
 _atom_site_fract_y
 _atom_site_fract_z
 _atom_site_occupancy
  Rb  Rb0  1  -0.15066542  0.84933458  0.45199625  1.0
  Rb  Rb1  1  0.84933458  -0.54800375  0.84933458  1.0
  Rb  Rb2  1  0.40066542  0.40066542  0.40066542  1.0
  Rb  Rb3  1  -0.20199625  0.40066542  0.40066542  1.0
  Rb  Rb4  1  -0.54800375  0.84933458  0.84933458  1.0
  Rb  Rb5  1  0.84933458  -0.15066542  0.84933458  1.0
  Rb  Rb6  1  0.40066542  -0.20199625  0.40066542  1.0
  Rb  Rb7  1  0.40066542  0.40066542  -0.20199625  1.0
  Na  Na8  1  0.50000000  0.50000000  -0.50000000  1.0
  Na  Na9  1  0.75000000  -0.25000000  0.75000000  1.0
  Ge  Ge10  1  0.88418934  -0.11581066  1.03743401  1.0
  Ge  Ge11  1  -0.80581268  0.88418934  1.03743401  1.0
  Ge  Ge12  1  -0.80581268  1.03743401  0.88418934  1.0
  Ge  Ge13  1  0.88418934  0.03743401  0.88418934  1.0
  Ge  Ge14  1  0.36581066  0.36581066  0.05581268  1.0
  Ge  Ge15  1  0.36581066  0.05581268  0.36581066  1.0
  Ge  Ge16  1  0.21256599  0.05581268  0.36581066  1.0
  Ge  Ge17  1  0.21256599  0.36581066  0.05581268  1.0
  Ge  Ge18  1  0.88418934  -0.80581268  1.03743401  1.0
  Ge  Ge19  1  -0.11581066  1.03743401  0.19418732  1.0
  Ge  Ge20  1  0.05581268  0.36581066  0.36581066  1.0
  Ge  Ge21  1  0.21256599  0.36581066  0.36581066  1.0
  Ge  Ge22  1  1.03743401  -0.80581268  0.88418934  1.0
  Ge  Ge23  1  0.03743401  0.88418934  0.19418732  1.0
  Ge  Ge24  1  -0.11581066  0.88418934  0.19418732  1.0
  Ge  Ge25  1  0.88418934  -0.80581268  0.88418934  1.0
  Ge  Ge26  1  0.05581268  0.21256599  0.36581066  1.0
  Ge  Ge27  1  0.36581066  0.21256599  0.36581066  1.0
  Ge  Ge28  1  0.36581066  0.36581066  0.21256599  1.0
  Ge  Ge29  1  0.05581268  0.36581066  0.21256599  1.0
  Ge  Ge30  1  1.03743401  -0.11581066  0.88418934  1.0
  Ge  Ge31  1  -0.80581268  0.88418934  0.88418934  1.0
  Ge  Ge32  1  0.36581066  0.21256599  0.05581268  1.0
  Ge  Ge33  1  0.36581066  0.05581268  0.21256599  1.0
  Ge  Ge34  1  0.68162739  -0.31837261  0.95511783  1.0
  Ge  Ge35  1  0.68162739  -0.04488217  0.68162739  1.0
  Ge  Ge36  1  0.56837261  -0.43162739  0.56837261  1.0
  Ge  Ge37  1  1.29488217  -0.43162739  0.56837261  1.0
  Ge  Ge38  1  0.95511783  -0.31837261  0.68162739  1.0
  Ge  Ge39  1  0.68162739  -0.31837261  0.68162739  1.0
  Ge  Ge40  1  0.56837261  0.29488217  0.56837261  1.0
  Ge  Ge41  1  0.56837261  -0.43162739  1.29488217  1.0
  Ge  Ge42  1  0.62500000  -0.37500000  1.12500000  1.0
  Ge  Ge43  1  0.62500000  0.12500000  0.62500000  1.0
  Ge  Ge44  1  0.62500000  -0.37500000  0.62500000  1.0
  Ge  Ge45  1  1.12500000  -0.37500000  0.62500000  1.0
