# generated using pymatgen
data_ScTeO3F
_symmetry_space_group_name_H-M   'P 1'
_cell_length_a   5.68219438
_cell_length_b   22.30935338
_cell_length_c   5.65338217
_cell_angle_alpha   90.00000000
_cell_angle_beta   90.00000000
_cell_angle_gamma   90.00000000
_symmetry_Int_Tables_number   1
_chemical_formula_structural   ScTeO3F
_chemical_formula_sum   'Sc8 Te8 O24 F8'
_cell_volume   716.65711041
_cell_formula_units_Z   8
loop_
 _symmetry_equiv_pos_site_id
 _symmetry_equiv_pos_as_xyz
  1  'x, y, z'
loop_
 _atom_site_type_symbol
 _atom_site_label
 _atom_site_symmetry_multiplicity
 _atom_site_fract_x
 _atom_site_fract_y
 _atom_site_fract_z
 _atom_site_occupancy
  Sc  Sc0  1  0.09119165  0.75000000  0.25000000  1.0
  Sc  Sc1  1  0.59119165  0.75000000  0.75000000  1.0
  Sc  Sc2  1  0.90880835  0.25000000  0.75000000  1.0
  Sc  Sc3  1  0.40880835  0.25000000  0.25000000  1.0
  Sc  Sc4  1  0.25000000  0.00000000  0.33162074  1.0
  Sc  Sc5  1  0.25000000  0.50000000  0.16837926  1.0
  Sc  Sc6  1  0.75000000  0.00000000  0.66837926  1.0
  Sc  Sc7  1  0.75000000  0.50000000  0.83162074  1.0
  Te  Te8  1  0.77999957  0.89085617  0.18076634  1.0
  Te  Te9  1  0.77999957  0.60914383  0.31923366  1.0
  Te  Te10  1  0.27999957  0.89085617  0.81923366  1.0
  Te  Te11  1  0.27999957  0.60914383  0.68076634  1.0
  Te  Te12  1  0.22000043  0.39085617  0.68076634  1.0
  Te  Te13  1  0.22000043  0.10914383  0.81923366  1.0
  Te  Te14  1  0.72000043  0.39085617  0.31923366  1.0
  Te  Te15  1  0.72000043  0.10914383  0.18076634  1.0
  O  O16  1  0.43839843  0.94967400  0.59923851  1.0
  O  O17  1  0.43839843  0.55032600  0.90076149  1.0
  O  O18  1  0.93839843  0.94967400  0.40076149  1.0
  O  O19  1  0.93839843  0.55032600  0.09923851  1.0
  O  O20  1  0.56160157  0.44967400  0.09923851  1.0
  O  O21  1  0.56160157  0.05032600  0.40076149  1.0
  O  O22  1  0.06160157  0.44967400  0.90076149  1.0
  O  O23  1  0.06160157  0.05032600  0.59923851  1.0
  O  O24  1  0.38923547  0.93926561  0.08733947  1.0
  O  O25  1  0.38923547  0.56073439  0.41266053  1.0
  O  O26  1  0.88923547  0.93926561  0.91266053  1.0
  O  O27  1  0.88923547  0.56073439  0.58733947  1.0
  O  O28  1  0.61076453  0.43926561  0.58733947  1.0
  O  O29  1  0.61076453  0.06073439  0.91266053  1.0
  O  O30  1  0.11076453  0.43926561  0.41266053  1.0
  O  O31  1  0.11076453  0.06073439  0.08733947  1.0
  O  O32  1  0.06250831  0.83785680  0.13004607  1.0
  O  O33  1  0.06250831  0.66214320  0.36995393  1.0
  O  O34  1  0.56250831  0.83785680  0.86995393  1.0
  O  O35  1  0.56250831  0.66214320  0.63004607  1.0
  O  O36  1  0.93749169  0.33785680  0.63004607  1.0
  O  O37  1  0.93749169  0.16214320  0.86995393  1.0
  O  O38  1  0.43749169  0.33785680  0.36995393  1.0
  O  O39  1  0.43749169  0.16214320  0.13004607  1.0
  F  F40  1  0.33261214  0.77211719  0.50306242  1.0
  F  F41  1  0.33261214  0.72788281  0.99693758  1.0
  F  F42  1  0.83261214  0.77211719  0.49693758  1.0
  F  F43  1  0.83261214  0.72788281  0.00306242  1.0
  F  F44  1  0.66738786  0.27211719  0.00306242  1.0
  F  F45  1  0.66738786  0.22788281  0.49693758  1.0
  F  F46  1  0.16738786  0.27211719  0.99693758  1.0
  F  F47  1  0.16738786  0.22788281  0.50306242  1.0
