# generated using pymatgen
data_Mg3Au
_symmetry_space_group_name_H-M   'P 1'
_cell_length_a   8.11814074
_cell_length_b   8.11814074
_cell_length_c   8.52358393
_cell_angle_alpha   90.00000000
_cell_angle_beta   90.00000000
_cell_angle_gamma   120.00000000
_symmetry_Int_Tables_number   1
_chemical_formula_structural   Mg3Au
_chemical_formula_sum   'Mg18 Au6'
_cell_volume   486.48116074
_cell_formula_units_Z   6
loop_
 _symmetry_equiv_pos_site_id
 _symmetry_equiv_pos_as_xyz
  1  'x, y, z'
loop_
 _atom_site_type_symbol
 _atom_site_label
 _atom_site_symmetry_multiplicity
 _atom_site_fract_x
 _atom_site_fract_y
 _atom_site_fract_z
 _atom_site_occupancy
  Mg  Mg0  1  0.94664925  0.63441205  0.07816972  1.0
  Mg  Mg1  1  0.94664925  0.31223720  0.57816972  1.0
  Mg  Mg2  1  0.63441205  0.94664925  0.42183028  1.0
  Mg  Mg3  1  0.63441205  0.68776280  0.92183028  1.0
  Mg  Mg4  1  0.68776280  0.63441205  0.57816972  1.0
  Mg  Mg5  1  0.68776280  0.05335075  0.07816972  1.0
  Mg  Mg6  1  0.36558795  0.05335075  0.57816972  1.0
  Mg  Mg7  1  0.36558795  0.31223720  0.07816972  1.0
  Mg  Mg8  1  0.05335075  0.68776280  0.42183028  1.0
  Mg  Mg9  1  0.05335075  0.36558795  0.92183028  1.0
  Mg  Mg10  1  0.31223720  0.94664925  0.92183028  1.0
  Mg  Mg11  1  0.31223720  0.36558795  0.42183028  1.0
  Mg  Mg12  1  0.33333333  0.66666667  0.18448443  1.0
  Mg  Mg13  1  0.33333333  0.66666667  0.68448443  1.0
  Mg  Mg14  1  0.66666667  0.33333333  0.31551557  1.0
  Mg  Mg15  1  0.66666667  0.33333333  0.81551557  1.0
  Mg  Mg16  1  0.00000000  0.00000000  0.25000000  1.0
  Mg  Mg17  1  0.00000000  -0.00000000  0.75000000  1.0
  Au  Au18  1  0.66032551  0.66032551  0.25000000  1.0
  Au  Au19  1  0.66032551  0.00000000  0.75000000  1.0
  Au  Au20  1  0.00000000  0.66032551  0.75000000  1.0
  Au  Au21  1  0.00000000  0.33967449  0.25000000  1.0
  Au  Au22  1  0.33967449  0.33967449  0.75000000  1.0
  Au  Au23  1  0.33967449  -0.00000000  0.25000000  1.0
