# generated using pymatgen
data_KLiPH2O4F
_symmetry_space_group_name_H-M   'P 1'
_cell_length_a   5.49961758
_cell_length_b   7.57052874
_cell_length_c   12.65775969
_cell_angle_alpha   90.00000000
_cell_angle_beta   109.53225246
_cell_angle_gamma   90.00000000
_symmetry_Int_Tables_number   1
_chemical_formula_structural   KLiPH2O4F
_chemical_formula_sum   'K4 Li4 P4 H8 O16 F4'
_cell_volume   496.67860639
_cell_formula_units_Z   4
loop_
 _symmetry_equiv_pos_site_id
 _symmetry_equiv_pos_as_xyz
  1  'x, y, z'
loop_
 _atom_site_type_symbol
 _atom_site_label
 _atom_site_symmetry_multiplicity
 _atom_site_fract_x
 _atom_site_fract_y
 _atom_site_fract_z
 _atom_site_occupancy
  K  K0  1  0.64994075  0.76678499  0.34556054  1.0
  K  K1  1  0.64994075  0.73321501  0.84556054  1.0
  K  K2  1  0.35005925  0.26678499  0.15443946  1.0
  K  K3  1  0.35005925  0.23321501  0.65443946  1.0
  Li  Li4  1  0.82083678  0.54256106  0.13779943  1.0
  Li  Li5  1  0.82083678  0.95743894  0.63779943  1.0
  Li  Li6  1  0.17916322  0.04256106  0.36220057  1.0
  Li  Li7  1  0.17916322  0.45743894  0.86220057  1.0
  P  P8  1  0.25456484  0.72157304  0.05173189  1.0
  P  P9  1  0.25456484  0.77842696  0.55173189  1.0
  P  P10  1  0.74543516  0.22157304  0.44826811  1.0
  P  P11  1  0.74543516  0.27842696  0.94826811  1.0
  H  H12  1  0.03509441  0.40243730  0.34283065  1.0
  H  H13  1  0.03509441  0.09756270  0.84283065  1.0
  H  H14  1  0.96490559  0.90243730  0.15716935  1.0
  H  H15  1  0.96490559  0.59756270  0.65716935  1.0
  H  H16  1  0.12491763  0.60085153  0.34454445  1.0
  H  H17  1  0.12491763  0.89914847  0.84454445  1.0
  H  H18  1  0.87508237  0.10085153  0.15545555  1.0
  H  H19  1  0.87508237  0.39914847  0.65545555  1.0
  O  O20  1  0.00020436  0.71551848  0.07657798  1.0
  O  O21  1  0.00020436  0.78448152  0.57657798  1.0
  O  O22  1  0.99979564  0.21551848  0.42342202  1.0
  O  O23  1  0.99979564  0.28448152  0.92342202  1.0
  O  O24  1  0.04203683  0.50280482  0.29348518  1.0
  O  O25  1  0.04203683  -0.00280482  0.79348518  1.0
  O  O26  1  0.95796317  1.00280482  0.20651482  1.0
  O  O27  1  0.95796317  0.49719518  0.70651482  1.0
  O  O28  1  0.21775077  0.80038161  0.42657563  1.0
  O  O29  1  0.21775077  0.69961839  0.92657563  1.0
  O  O30  1  0.78224923  0.30038161  0.07342437  1.0
  O  O31  1  0.78224923  0.19961839  0.57342437  1.0
  O  O32  1  0.47501068  0.61528561  0.13175932  1.0
  O  O33  1  0.47501068  0.88471439  0.63175932  1.0
  O  O34  1  0.52498932  0.11528561  0.36824068  1.0
  O  O35  1  0.52498932  0.38471439  0.86824068  1.0
  F  F36  1  0.34728022  0.92706796  0.07750292  1.0
  F  F37  1  0.34728022  0.57293204  0.57750292  1.0
  F  F38  1  0.65271978  0.42706796  0.42249708  1.0
  F  F39  1  0.65271978  0.07293204  0.92249708  1.0
