# generated using pymatgen
data_CaAs
_symmetry_space_group_name_H-M   'P 1'
_cell_length_a   5.30331305
_cell_length_b   7.96245899
_cell_length_c   12.65918654
_cell_angle_alpha   90.00000000
_cell_angle_beta   90.00000000
_cell_angle_gamma   90.00000000
_symmetry_Int_Tables_number   1
_chemical_formula_structural   CaAs
_chemical_formula_sum   'Ca8 As8'
_cell_volume   534.56469463
_cell_formula_units_Z   8
loop_
 _symmetry_equiv_pos_site_id
 _symmetry_equiv_pos_as_xyz
  1  'x, y, z'
loop_
 _atom_site_type_symbol
 _atom_site_label
 _atom_site_symmetry_multiplicity
 _atom_site_fract_x
 _atom_site_fract_y
 _atom_site_fract_z
 _atom_site_occupancy
  Ca  Ca0  1  0.88235353  0.69404754  0.08182603  1.0
  Ca  Ca1  1  0.61764647  0.80595246  0.58182603  1.0
  Ca  Ca2  1  0.38235353  0.80595246  0.91817397  1.0
  Ca  Ca3  1  0.11764647  0.69404754  0.41817397  1.0
  Ca  Ca4  1  0.11764647  0.30595246  0.91817397  1.0
  Ca  Ca5  1  0.38235353  0.19404754  0.41817397  1.0
  Ca  Ca6  1  0.61764647  0.19404754  0.08182603  1.0
  Ca  Ca7  1  0.88235353  0.30595246  0.58182603  1.0
  As  As8  1  0.88907289  0.03406197  0.41243388  1.0
  As  As9  1  0.61092711  0.46593803  0.91243388  1.0
  As  As10  1  0.38907289  0.46593803  0.58756612  1.0
  As  As11  1  0.11092711  0.03406197  0.08756612  1.0
  As  As12  1  0.11092711  0.96593803  0.58756612  1.0
  As  As13  1  0.38907289  0.53406197  0.08756612  1.0
  As  As14  1  0.61092711  0.53406197  0.41243388  1.0
  As  As15  1  0.88907289  0.96593803  0.91243388  1.0
