# generated using pymatgen
data_CrBiO5
_symmetry_space_group_name_H-M   'P 1'
_cell_length_a   6.28663655
_cell_length_b   9.42207346
_cell_length_c   7.88184388
_cell_angle_alpha   90.00000000
_cell_angle_beta   103.54678844
_cell_angle_gamma   90.00000000
_symmetry_Int_Tables_number   1
_chemical_formula_structural   CrBiO5
_chemical_formula_sum   'Cr4 Bi4 O20'
_cell_volume   453.87774245
_cell_formula_units_Z   4
loop_
 _symmetry_equiv_pos_site_id
 _symmetry_equiv_pos_as_xyz
  1  'x, y, z'
loop_
 _atom_site_type_symbol
 _atom_site_label
 _atom_site_symmetry_multiplicity
 _atom_site_fract_x
 _atom_site_fract_y
 _atom_site_fract_z
 _atom_site_occupancy
  O  O0  1  0.97206636  0.16428126  0.27731898  1.0
  O  O1  1  0.97206636  0.33571874  0.77731898  1.0
  O  O2  1  0.02793364  0.66428126  0.22268102  1.0
  O  O3  1  0.02793364  0.83571874  0.72268102  1.0
  O  O4  1  0.76244519  0.89681506  0.22944479  1.0
  O  O5  1  0.76244519  0.60318494  0.72944479  1.0
  O  O6  1  0.23755481  0.39681506  0.27055521  1.0
  O  O7  1  0.23755481  0.10318494  0.77055521  1.0
  O  O8  1  0.72217988  0.42631075  -0.01792761  1.0
  O  O9  1  0.72217988  0.07368925  0.48207239  1.0
  O  O10  1  0.27782012  0.92631075  0.51792761  1.0
  O  O11  1  0.27782012  0.57368925  1.01792761  1.0
  O  O12  1  0.52239649  0.14383039  0.15855341  1.0
  O  O13  1  0.52239649  0.35616961  0.65855341  1.0
  O  O14  1  0.47760351  0.64383039  0.34144659  1.0
  O  O15  1  0.47760351  0.85616961  0.84144659  1.0
  O  O16  1  0.84218420  0.44898601  0.43756384  1.0
  O  O17  1  0.84218420  0.05101399  0.93756384  1.0
  O  O18  1  0.15781580  0.94898601  0.06243616  1.0
  O  O19  1  0.15781580  0.55101399  0.56243616  1.0
  Bi  Bi20  1  0.85693788  0.68134909  0.46986662  1.0
  Bi  Bi21  1  0.85693788  0.81865091  0.96986662  1.0
  Bi  Bi22  1  0.14306212  0.18134909  0.03013338  1.0
  Bi  Bi23  1  0.14306212  0.31865091  0.53013338  1.0
  Cr  Cr24  1  0.73979132  0.06977334  0.28411804  1.0
  Cr  Cr25  1  0.73979132  0.43022666  0.78411804  1.0
  Cr  Cr26  1  0.26020868  0.56977334  0.21588196  1.0
  Cr  Cr27  1  0.26020868  0.93022666  0.71588196  1.0
