# generated using pymatgen
data_Cs4GeTe6
_symmetry_space_group_name_H-M   'P 1'
_cell_length_a   8.07275555
_cell_length_b   14.55097932
_cell_length_c   18.02859296
_cell_angle_alpha   90.00000000
_cell_angle_beta   103.32084419
_cell_angle_gamma   90.00000000
_symmetry_Int_Tables_number   1
_chemical_formula_structural   Cs4GeTe6
_chemical_formula_sum   'Cs16 Ge4 Te24'
_cell_volume   2060.77772810
_cell_formula_units_Z   4
loop_
 _symmetry_equiv_pos_site_id
 _symmetry_equiv_pos_as_xyz
  1  'x, y, z'
loop_
 _atom_site_type_symbol
 _atom_site_label
 _atom_site_symmetry_multiplicity
 _atom_site_fract_x
 _atom_site_fract_y
 _atom_site_fract_z
 _atom_site_occupancy
  Cs  Cs0  1  0.97845474  0.17777364  0.13328797  1.0
  Cs  Cs1  1  0.97845474  0.32222636  0.63328797  1.0
  Cs  Cs2  1  0.02154526  0.67777364  0.36671203  1.0
  Cs  Cs3  1  0.02154526  0.82222636  0.86671203  1.0
  Cs  Cs4  1  0.65949472  0.44821350  0.20703867  1.0
  Cs  Cs5  1  0.65949472  0.05178650  0.70703867  1.0
  Cs  Cs6  1  0.34050528  0.94821350  0.29296133  1.0
  Cs  Cs7  1  0.34050528  0.55178650  0.79296133  1.0
  Cs  Cs8  1  0.40137820  0.41300148  0.40322263  1.0
  Cs  Cs9  1  0.40137820  0.08699852  0.90322263  1.0
  Cs  Cs10  1  0.59862180  0.91300148  0.09677737  1.0
  Cs  Cs11  1  0.59862180  0.58699852  0.59677737  1.0
  Cs  Cs12  1  0.19180771  0.10040799  0.49654306  1.0
  Cs  Cs13  1  0.19180771  0.39959201  0.99654306  1.0
  Cs  Cs14  1  0.80819229  0.60040799  0.00345694  1.0
  Cs  Cs15  1  0.80819229  0.89959201  0.50345694  1.0
  Ge  Ge16  1  0.73348593  0.15659029  0.35138645  1.0
  Ge  Ge17  1  0.73348593  0.34340971  0.85138645  1.0
  Ge  Ge18  1  0.26651407  0.65659029  0.14861355  1.0
  Ge  Ge19  1  0.26651407  0.84340971  0.64861355  1.0
  Te  Te20  1  0.96997384  0.28171645  0.34153587  1.0
  Te  Te21  1  0.96997384  0.21828355  0.84153587  1.0
  Te  Te22  1  0.03002616  0.78171645  0.15846413  1.0
  Te  Te23  1  0.03002616  0.71828355  0.65846413  1.0
  Te  Te24  1  0.91639742  0.43690942  0.43061407  1.0
  Te  Te25  1  0.91639742  0.06309058  0.93061407  1.0
  Te  Te26  1  0.08360258  0.93690942  0.06938593  1.0
  Te  Te27  1  0.08360258  0.56309058  0.56938593  1.0
  Te  Te28  1  0.85160294  1.00686779  0.30487647  1.0
  Te  Te29  1  0.85160294  0.49313221  0.80487647  1.0
  Te  Te30  1  0.14839706  0.50686779  0.19512353  1.0
  Te  Te31  1  0.14839706  -0.00686779  0.69512353  1.0
  Te  Te32  1  0.65778415  0.16231597  0.48489634  1.0
  Te  Te33  1  0.65778415  0.33768403  0.98489634  1.0
  Te  Te34  1  0.34221585  0.66231597  0.01510366  1.0
  Te  Te35  1  0.34221585  0.83768403  0.51510366  1.0
  Te  Te36  1  0.49866179  0.21691413  0.11212180  1.0
  Te  Te37  1  0.49866179  0.28308587  0.61212180  1.0
  Te  Te38  1  0.50133821  0.71691413  0.38787820  1.0
  Te  Te39  1  0.50133821  0.78308587  0.88787820  1.0
  Te  Te40  1  0.43971012  0.20942119  0.26018222  1.0
  Te  Te41  1  0.43971012  0.29057881  0.76018222  1.0
  Te  Te42  1  0.56028988  0.70942119  0.23981778  1.0
  Te  Te43  1  0.56028988  0.79057881  0.73981778  1.0
