# generated using pymatgen
data_Lu2Nb3Ge4
_symmetry_space_group_name_H-M   'P 1'
_cell_length_a   6.94323730
_cell_length_b   13.45184734
_cell_length_c   7.12187865
_cell_angle_alpha   90.00000000
_cell_angle_beta   90.00000000
_cell_angle_gamma   90.00000000
_symmetry_Int_Tables_number   1
_chemical_formula_structural   Lu2Nb3Ge4
_chemical_formula_sum   'Lu8 Nb12 Ge16'
_cell_volume   665.17896653
_cell_formula_units_Z   4
loop_
 _symmetry_equiv_pos_site_id
 _symmetry_equiv_pos_as_xyz
  1  'x, y, z'
loop_
 _atom_site_type_symbol
 _atom_site_label
 _atom_site_symmetry_multiplicity
 _atom_site_fract_x
 _atom_site_fract_y
 _atom_site_fract_z
 _atom_site_occupancy
  Lu  Lu0  1  0.50561451  0.90565051  0.67500527  1.0
  Lu  Lu1  1  0.50561451  0.59434949  0.67500527  1.0
  Lu  Lu2  1  1.00561451  0.90565051  0.82499473  1.0
  Lu  Lu3  1  1.00561451  0.59434949  0.82499473  1.0
  Lu  Lu4  1  0.49438549  0.40565051  0.32499473  1.0
  Lu  Lu5  1  0.49438549  0.09434949  0.32499473  1.0
  Lu  Lu6  1  -0.00561451  0.40565051  0.17500527  1.0
  Lu  Lu7  1  -0.00561451  0.09434949  0.17500527  1.0
  Nb  Nb8  1  0.15813383  0.37356224  0.67128819  1.0
  Nb  Nb9  1  0.15813383  0.12643776  0.67128819  1.0
  Nb  Nb10  1  0.65813383  0.37356224  0.82871181  1.0
  Nb  Nb11  1  0.65813383  0.12643776  0.82871181  1.0
  Nb  Nb12  1  0.84186617  0.87356224  0.32871181  1.0
  Nb  Nb13  1  0.84186617  0.62643776  0.32871181  1.0
  Nb  Nb14  1  0.34186617  0.87356224  0.17128819  1.0
  Nb  Nb15  1  0.34186617  0.62643776  0.17128819  1.0
  Nb  Nb16  1  0.33362910  0.25000000  -0.01176545  1.0
  Nb  Nb17  1  0.83362910  0.25000000  0.51176545  1.0
  Nb  Nb18  1  0.66637090  0.75000000  1.01176545  1.0
  Nb  Nb19  1  0.16637090  0.75000000  0.48823455  1.0
  Ge  Ge20  1  0.32205573  0.45897838  0.96284030  1.0
  Ge  Ge21  1  0.32205573  0.04102162  0.96284030  1.0
  Ge  Ge22  1  0.82205573  0.45897838  0.53715970  1.0
  Ge  Ge23  1  0.82205573  0.04102162  0.53715970  1.0
  Ge  Ge24  1  0.67794427  0.95897838  0.03715970  1.0
  Ge  Ge25  1  0.67794427  0.54102162  0.03715970  1.0
  Ge  Ge26  1  0.17794427  0.95897838  0.46284030  1.0
  Ge  Ge27  1  0.17794427  0.54102162  0.46284030  1.0
  Ge  Ge28  1  0.45879091  0.25000000  0.61779612  1.0
  Ge  Ge29  1  0.95879091  0.25000000  0.88220388  1.0
  Ge  Ge30  1  0.54120909  0.75000000  0.38220388  1.0
  Ge  Ge31  1  0.04120909  0.75000000  0.11779612  1.0
  Ge  Ge32  1  0.19281152  0.25000000  0.35752220  1.0
  Ge  Ge33  1  0.69281152  0.25000000  0.14247780  1.0
  Ge  Ge34  1  0.80718848  0.75000000  0.64247780  1.0
  Ge  Ge35  1  0.30718848  0.75000000  0.85752220  1.0
