# generated using pymatgen
data_Zr2Si4Ru3
_symmetry_space_group_name_H-M   'P 1'
_cell_length_a   9.89662097
_cell_length_b   9.89662097
_cell_length_c   13.35534407
_cell_angle_alpha   53.90180021
_cell_angle_beta   126.09819979
_cell_angle_gamma   148.46939259
_symmetry_Int_Tables_number   1
_chemical_formula_structural   Zr2Si4Ru3
_chemical_formula_sum   'Zr8 Si16 Ru12'
_cell_volume   540.88589694
_cell_formula_units_Z   4
loop_
 _symmetry_equiv_pos_site_id
 _symmetry_equiv_pos_as_xyz
  1  'x, y, z'
loop_
 _atom_site_type_symbol
 _atom_site_label
 _atom_site_symmetry_multiplicity
 _atom_site_fract_x
 _atom_site_fract_y
 _atom_site_fract_z
 _atom_site_occupancy
  Zr  Zr0  1  1.70699405  0.03990578  0.13730062  1.0
  Zr  Zr1  1  0.96009422  -0.70699405  0.63730062  1.0
  Zr  Zr2  1  1.03990578  0.70699405  0.36269938  1.0
  Zr  Zr3  1  0.29300595  -0.03990578  0.86269938  1.0
  Zr  Zr4  1  0.44657469  0.29974723  0.14828174  1.0
  Zr  Zr5  1  0.70025277  0.55342531  0.64828174  1.0
  Zr  Zr6  1  1.29974723  -0.55342531  0.35171826  1.0
  Zr  Zr7  1  1.55342531  -0.29974723  0.85171826  1.0
  Si  Si8  1  0.74603003  -0.02832914  0.39475327  1.0
  Si  Si9  1  1.02832914  -0.74603003  0.89475327  1.0
  Si  Si10  1  0.97167086  0.74603003  0.10524673  1.0
  Si  Si11  1  1.25396997  0.02832914  0.60524673  1.0
  Si  Si12  1  0.61171223  0.14180670  0.39557717  1.0
  Si  Si13  1  0.85819330  -0.61171223  0.89557717  1.0
  Si  Si14  1  1.14180670  0.61171223  0.10442283  1.0
  Si  Si15  1  1.38828777  -0.14180670  0.60442283  1.0
  Si  Si16  1  0.42713337  0.08672458  0.06483295  1.0
  Si  Si17  1  0.91327542  -0.42713337  0.56483295  1.0
  Si  Si18  1  1.08672458  0.42713337  0.43516705  1.0
  Si  Si19  1  1.57286663  -0.08672458  0.93516705  1.0
  Si  Si20  1  0.62045072  0.62045072  0.25000000  1.0
  Si  Si21  1  0.37954928  0.37954928  0.75000000  1.0
  Si  Si22  1  0.13061247  0.13061247  0.25000000  1.0
  Si  Si23  1  0.86938753  0.86938753  0.75000000  1.0
  Ru  Ru24  1  1.86877324  -0.08833443  0.08498168  1.0
  Ru  Ru25  1  1.08833443  -0.86877324  0.58498168  1.0
  Ru  Ru26  1  0.91166557  0.86877324  0.41501832  1.0
  Ru  Ru27  1  0.13122676  0.08833443  0.91501832  1.0
  Ru  Ru28  1  0.35249743  -0.17153055  0.27949800  1.0
  Ru  Ru29  1  1.17153055  -0.35249743  0.77949800  1.0
  Ru  Ru30  1  0.82846945  0.35249743  0.22050200  1.0
  Ru  Ru31  1  1.64750257  0.17153055  0.72050200  1.0
  Ru  Ru32  1  0.48352027  0.23658258  0.43420495  1.0
  Ru  Ru33  1  0.76341742  0.51647973  0.93420495  1.0
  Ru  Ru34  1  1.23658258  -0.51647973  0.06579505  1.0
  Ru  Ru35  1  1.51647973  -0.23658258  0.56579505  1.0
