# generated using pymatgen
data_La(CoB)4
_symmetry_space_group_name_H-M   'P 1'
_cell_length_a   7.11881061
_cell_length_b   7.11881061
_cell_length_c   3.79013162
_cell_angle_alpha   90.00000000
_cell_angle_beta   90.00000000
_cell_angle_gamma   90.00000000
_symmetry_Int_Tables_number   1
_chemical_formula_structural   La(CoB)4
_chemical_formula_sum   'La2 Co8 B8'
_cell_volume   192.07426031
_cell_formula_units_Z   2
loop_
 _symmetry_equiv_pos_site_id
 _symmetry_equiv_pos_as_xyz
  1  'x, y, z'
loop_
 _atom_site_type_symbol
 _atom_site_label
 _atom_site_symmetry_multiplicity
 _atom_site_fract_x
 _atom_site_fract_y
 _atom_site_fract_z
 _atom_site_occupancy
  La  La0  1  0.00000000  0.00000000  0.00000000  1.0
  La  La1  1  0.50000000  0.50000000  0.50000000  1.0
  Co  Co2  1  0.14181327  0.38440767  0.89411998  1.0
  Co  Co3  1  0.85818673  0.61559233  0.89411998  1.0
  Co  Co4  1  0.88440767  0.35818673  0.39411998  1.0
  Co  Co5  1  0.11559233  0.64181327  0.39411998  1.0
  Co  Co6  1  0.35818673  0.11559233  0.60588002  1.0
  Co  Co7  1  0.64181327  0.88440767  0.60588002  1.0
  Co  Co8  1  0.61559233  0.14181327  0.10588002  1.0
  Co  Co9  1  0.38440767  0.85818673  0.10588002  1.0
  B  B10  1  0.66187799  0.79698843  0.10395168  1.0
  B  B11  1  0.33812201  0.20301157  0.10395168  1.0
  B  B12  1  0.29698843  0.83812201  0.60395168  1.0
  B  B13  1  0.70301157  0.16187799  0.60395168  1.0
  B  B14  1  0.83812201  0.70301157  0.39604832  1.0
  B  B15  1  0.16187799  0.29698843  0.39604832  1.0
  B  B16  1  0.20301157  0.66187799  0.89604832  1.0
  B  B17  1  0.79698843  0.33812201  0.89604832  1.0
