# generated using pymatgen
data_EuZnAu
_symmetry_space_group_name_H-M   'P 1'
_cell_length_a   7.32098817
_cell_length_b   4.64520939
_cell_length_c   7.89197747
_cell_angle_alpha   90.00000000
_cell_angle_beta   90.00000000
_cell_angle_gamma   90.00000000
_symmetry_Int_Tables_number   1
_chemical_formula_structural   EuZnAu
_chemical_formula_sum   'Eu4 Zn4 Au4'
_cell_volume   268.38660529
_cell_formula_units_Z   4
loop_
 _symmetry_equiv_pos_site_id
 _symmetry_equiv_pos_as_xyz
  1  'x, y, z'
loop_
 _atom_site_type_symbol
 _atom_site_label
 _atom_site_symmetry_multiplicity
 _atom_site_fract_x
 _atom_site_fract_y
 _atom_site_fract_z
 _atom_site_occupancy
  Eu  Eu0  1  0.99513187  0.75000000  0.70280962  1.0
  Eu  Eu1  1  0.49513187  0.75000000  0.79719038  1.0
  Eu  Eu2  1  0.00486813  0.25000000  0.29719038  1.0
  Eu  Eu3  1  0.50486813  0.25000000  0.20280962  1.0
  Zn  Zn4  1  0.81690266  0.75000000  0.08044593  1.0
  Zn  Zn5  1  0.31690266  0.75000000  0.41955407  1.0
  Zn  Zn6  1  0.18309734  0.25000000  0.91955407  1.0
  Zn  Zn7  1  0.68309734  0.25000000  0.58044593  1.0
  Au  Au8  1  0.70797725  0.75000000  0.40846243  1.0
  Au  Au9  1  0.20797725  0.75000000  0.09153757  1.0
  Au  Au10  1  0.29202275  0.25000000  0.59153757  1.0
  Au  Au11  1  0.79202275  0.25000000  0.90846243  1.0
