# generated using pymatgen
data_KLu3F10
_symmetry_space_group_name_H-M   'P 1'
_cell_length_a   8.14607909
_cell_length_b   8.14607909
_cell_length_c   8.14607909
_cell_angle_alpha   60.00000000
_cell_angle_beta   60.00000000
_cell_angle_gamma   60.00000000
_symmetry_Int_Tables_number   1
_chemical_formula_structural   KLu3F10
_chemical_formula_sum   'K2 Lu6 F20'
_cell_volume   382.23536692
_cell_formula_units_Z   2
loop_
 _symmetry_equiv_pos_site_id
 _symmetry_equiv_pos_as_xyz
  1  'x, y, z'
loop_
 _atom_site_type_symbol
 _atom_site_label
 _atom_site_symmetry_multiplicity
 _atom_site_fract_x
 _atom_site_fract_y
 _atom_site_fract_z
 _atom_site_occupancy
  K  K0  1  0.75000000  0.75000000  -0.25000000  1.0
  K  K1  1  1.25000000  0.25000000  0.25000000  1.0
  Lu  Lu2  1  -0.75922479  0.75922479  0.75922479  1.0
  Lu  Lu3  1  -0.24077521  0.24077521  0.75922479  1.0
  Lu  Lu4  1  0.75922479  0.75922479  -0.75922479  1.0
  Lu  Lu5  1  0.24077521  1.24077521  -0.24077521  1.0
  Lu  Lu6  1  0.24077521  -0.24077521  1.24077521  1.0
  Lu  Lu7  1  -0.24077521  0.24077521  0.24077521  1.0
  F  F8  1  1.16994114  0.50000000  0.50000000  1.0
  F  F9  1  1.50000000  -0.16994114  0.16994114  1.0
  F  F10  1  0.50000000  1.16994114  -0.16994114  1.0
  F  F11  1  0.83005886  0.50000000  -0.50000000  1.0
  F  F12  1  0.50000000  1.16994114  -0.50000000  1.0
  F  F13  1  -0.16994114  1.50000000  0.16994114  1.0
  F  F14  1  0.50000000  -0.50000000  1.16994114  1.0
  F  F15  1  -0.16994114  0.16994114  0.50000000  1.0
  F  F16  1  0.16994114  1.50000000  -0.16994114  1.0
  F  F17  1  0.50000000  0.83005886  -0.50000000  1.0
  F  F18  1  0.16994114  -0.16994114  1.50000000  1.0
  F  F19  1  -0.50000000  0.50000000  0.83005886  1.0
  F  F20  1  0.88828002  0.88828002  -0.11171998  1.0
  F  F21  1  1.11171998  0.11171998  0.66484007  1.0
  F  F22  1  1.11171998  0.66484007  0.11171998  1.0
  F  F23  1  0.33515993  0.88828002  -0.11171998  1.0
  F  F24  1  1.66484007  0.11171998  0.11171998  1.0
  F  F25  1  0.88828002  0.33515993  -0.11171998  1.0
  F  F26  1  0.88828002  0.88828002  -0.66484007  1.0
  F  F27  1  1.11171998  0.11171998  0.11171998  1.0
