# generated using pymatgen
data_Gd3Ge3Ru2
_symmetry_space_group_name_H-M   'P 1'
_cell_length_a   5.89456561
_cell_length_b   5.89456561
_cell_length_c   14.11961875
_cell_angle_alpha   90.00000000
_cell_angle_beta   90.00000000
_cell_angle_gamma   137.34329575
_symmetry_Int_Tables_number   1
_chemical_formula_structural   Gd3Ge3Ru2
_chemical_formula_sum   'Gd6 Ge6 Ru4'
_cell_volume   332.43185285
_cell_formula_units_Z   2
loop_
 _symmetry_equiv_pos_site_id
 _symmetry_equiv_pos_as_xyz
  1  'x, y, z'
loop_
 _atom_site_type_symbol
 _atom_site_label
 _atom_site_symmetry_multiplicity
 _atom_site_fract_x
 _atom_site_fract_y
 _atom_site_fract_z
 _atom_site_occupancy
  Gd  Gd0  1  0.07907694  0.92092306  0.88681456  1.0
  Gd  Gd1  1  0.07907694  0.92092306  0.61318544  1.0
  Gd  Gd2  1  -0.07907694  0.07907694  0.38681456  1.0
  Gd  Gd3  1  -0.07907694  0.07907694  0.11318544  1.0
  Gd  Gd4  1  0.35539321  0.64460679  0.75000000  1.0
  Gd  Gd5  1  -0.35539321  0.35539321  0.25000000  1.0
  Ge  Ge6  1  0.38153133  0.61846867  0.95905867  1.0
  Ge  Ge7  1  0.38153133  0.61846867  0.54094133  1.0
  Ge  Ge8  1  -0.38153133  0.38153133  0.45905867  1.0
  Ge  Ge9  1  -0.38153133  0.38153133  0.04094133  1.0
  Ge  Ge10  1  -0.33180856  0.33180856  0.75000000  1.0
  Ge  Ge11  1  0.33180856  0.66819144  0.25000000  1.0
  Ru  Ru12  1  0.21504199  0.78495801  0.41843189  1.0
  Ru  Ru13  1  0.21504199  0.78495801  0.08156811  1.0
  Ru  Ru14  1  -0.21504199  0.21504199  0.91843189  1.0
  Ru  Ru15  1  -0.21504199  0.21504199  0.58156811  1.0
