# generated using pymatgen
data_BaP2PbO7
_symmetry_space_group_name_H-M   'P 1'
_cell_length_a   9.24307276
_cell_length_b   5.69876095
_cell_length_c   13.62616601
_cell_angle_alpha   90.00000000
_cell_angle_beta   90.00000000
_cell_angle_gamma   90.00000000
_symmetry_Int_Tables_number   1
_chemical_formula_structural   BaP2PbO7
_chemical_formula_sum   'Ba4 P8 Pb4 O28'
_cell_volume   717.74551521
_cell_formula_units_Z   4
loop_
 _symmetry_equiv_pos_site_id
 _symmetry_equiv_pos_as_xyz
  1  'x, y, z'
loop_
 _atom_site_type_symbol
 _atom_site_label
 _atom_site_symmetry_multiplicity
 _atom_site_fract_x
 _atom_site_fract_y
 _atom_site_fract_z
 _atom_site_occupancy
  Ba  Ba0  1  0.83804277  0.75000000  0.73866853  1.0
  Ba  Ba1  1  0.33804277  0.75000000  0.76133147  1.0
  Ba  Ba2  1  0.16195723  0.25000000  0.26133147  1.0
  Ba  Ba3  1  0.66195723  0.25000000  0.23866853  1.0
  P  P4  1  0.95968501  0.75000000  0.18067001  1.0
  P  P5  1  0.45968501  0.75000000  0.31932999  1.0
  P  P6  1  0.04031499  0.25000000  0.81932999  1.0
  P  P7  1  0.54031499  0.25000000  0.68067001  1.0
  P  P8  1  0.72011622  0.75000000  0.03386961  1.0
  P  P9  1  0.22011622  0.75000000  0.46613039  1.0
  P  P10  1  0.27988378  0.25000000  0.96613039  1.0
  P  P11  1  0.77988378  0.25000000  0.53386961  1.0
  Pb  Pb12  1  0.86383583  0.75000000  0.41235644  1.0
  Pb  Pb13  1  0.36383583  0.75000000  0.08764356  1.0
  Pb  Pb14  1  0.13616417  0.25000000  0.58764356  1.0
  Pb  Pb15  1  0.63616417  0.25000000  0.91235644  1.0
  O  O16  1  0.91016023  0.97276037  0.23586536  1.0
  O  O17  1  0.91016023  0.52723963  0.23586536  1.0
  O  O18  1  0.41016023  0.97276037  0.26413464  1.0
  O  O19  1  0.41016023  0.52723963  0.26413464  1.0
  O  O20  1  0.08983977  0.47276037  0.76413464  1.0
  O  O21  1  0.08983977  0.02723963  0.76413464  1.0
  O  O22  1  0.58983977  0.47276037  0.73586536  1.0
  O  O23  1  0.58983977  0.02723963  0.73586536  1.0
  O  O24  1  0.64534823  0.97408817  0.07321830  1.0
  O  O25  1  0.64534823  0.52591183  0.07321830  1.0
  O  O26  1  0.14534823  0.97408817  0.42678170  1.0
  O  O27  1  0.14534823  0.52591183  0.42678170  1.0
  O  O28  1  0.35465177  0.47408817  0.92678170  1.0
  O  O29  1  0.35465177  0.02591183  0.92678170  1.0
  O  O30  1  0.85465177  0.47408817  0.57321830  1.0
  O  O31  1  0.85465177  0.02591183  0.57321830  1.0
  O  O32  1  0.88818715  0.75000000  0.07108813  1.0
  O  O33  1  0.38818715  0.75000000  0.42891187  1.0
  O  O34  1  0.11181285  0.25000000  0.92891187  1.0
  O  O35  1  0.61181285  0.25000000  0.57108813  1.0
  O  O36  1  0.62384187  0.75000000  0.33634101  1.0
  O  O37  1  0.12384187  0.75000000  0.16365899  1.0
  O  O38  1  0.37615813  0.25000000  0.66365899  1.0
  O  O39  1  0.87615813  0.25000000  0.83634101  1.0
  O  O40  1  0.22801251  0.75000000  0.57848051  1.0
  O  O41  1  0.72801251  0.75000000  0.92151949  1.0
  O  O42  1  0.77198749  0.25000000  0.42151949  1.0
  O  O43  1  0.27198749  0.25000000  0.07848051  1.0
