# generated using pymatgen
data_YInNi
_symmetry_space_group_name_H-M   'P 1'
_cell_length_a   7.47689070
_cell_length_b   7.47689070
_cell_length_c   3.79268358
_cell_angle_alpha   90.00000000
_cell_angle_beta   90.00000000
_cell_angle_gamma   120.00000000
_symmetry_Int_Tables_number   1
_chemical_formula_structural   YInNi
_chemical_formula_sum   'Y3 In3 Ni3'
_cell_volume   183.61971423
_cell_formula_units_Z   3
loop_
 _symmetry_equiv_pos_site_id
 _symmetry_equiv_pos_as_xyz
  1  'x, y, z'
loop_
 _atom_site_type_symbol
 _atom_site_label
 _atom_site_symmetry_multiplicity
 _atom_site_fract_x
 _atom_site_fract_y
 _atom_site_fract_z
 _atom_site_occupancy
  Y  Y0  1  0.41054807  0.41054807  0.00000000  1.0
  Y  Y1  1  -0.00000000  0.58945193  0.00000000  1.0
  Y  Y2  1  0.58945193  0.00000000  0.00000000  1.0
  In  In3  1  0.74526487  0.74526487  0.50000000  1.0
  In  In4  1  -0.00000000  0.25473513  0.50000000  1.0
  In  In5  1  0.25473513  0.00000000  0.50000000  1.0
  Ni  Ni6  1  0.33333333  0.66666667  0.50000000  1.0
  Ni  Ni7  1  0.66666667  0.33333333  0.50000000  1.0
  Ni  Ni8  1  0.00000000  0.00000000  0.00000000  1.0
