# generated using pymatgen
data_Cr(AgO2)2
_symmetry_space_group_name_H-M   'P 1'
_cell_length_a   10.23445687
_cell_length_b   7.00753927
_cell_length_c   5.65140824
_cell_angle_alpha   90.00000000
_cell_angle_beta   90.00000000
_cell_angle_gamma   90.00000000
_symmetry_Int_Tables_number   1
_chemical_formula_structural   Cr(AgO2)2
_chemical_formula_sum   'Cr4 Ag8 O16'
_cell_volume   405.30972207
_cell_formula_units_Z   4
loop_
 _symmetry_equiv_pos_site_id
 _symmetry_equiv_pos_as_xyz
  1  'x, y, z'
loop_
 _atom_site_type_symbol
 _atom_site_label
 _atom_site_symmetry_multiplicity
 _atom_site_fract_x
 _atom_site_fract_y
 _atom_site_fract_z
 _atom_site_occupancy
  Cr  Cr0  1  0.31842030  0.75000000  0.03883086  1.0
  Cr  Cr1  1  0.81842030  0.75000000  0.46116914  1.0
  Cr  Cr2  1  0.68157970  0.25000000  0.96116914  1.0
  Cr  Cr3  1  0.18157970  0.25000000  0.53883086  1.0
  Ag  Ag4  1  0.50000000  0.00000000  0.50000000  1.0
  Ag  Ag5  1  0.00000000  0.50000000  0.00000000  1.0
  Ag  Ag6  1  0.50000000  0.50000000  0.50000000  1.0
  Ag  Ag7  1  -0.00000000  0.00000000  0.00000000  1.0
  Ag  Ag8  1  0.14104477  0.75000000  0.52063010  1.0
  Ag  Ag9  1  0.64104477  0.75000000  0.97936990  1.0
  Ag  Ag10  1  0.85895523  0.25000000  0.47936990  1.0
  Ag  Ag11  1  0.35895523  0.25000000  0.02063010  1.0
  O  O12  1  0.15678789  0.75000000  0.09974549  1.0
  O  O13  1  0.65678789  0.75000000  0.40025451  1.0
  O  O14  1  0.84321211  0.25000000  0.90025451  1.0
  O  O15  1  0.34321211  0.25000000  0.59974549  1.0
  O  O16  1  0.34531425  0.75000000  0.74994492  1.0
  O  O17  1  0.84531425  0.75000000  0.75005508  1.0
  O  O18  1  0.65468575  0.25000000  0.25005508  1.0
  O  O19  1  0.15468575  0.25000000  0.24994492  1.0
  O  O20  1  0.38673787  0.94392730  0.15862839  1.0
  O  O21  1  0.88673787  0.55607270  0.34137161  1.0
  O  O22  1  0.61326213  0.44392730  0.84137161  1.0
  O  O23  1  0.11326213  0.05607270  0.65862839  1.0
  O  O24  1  0.61326213  0.05607270  0.84137161  1.0
  O  O25  1  0.11326213  0.44392730  0.65862839  1.0
  O  O26  1  0.38673787  0.55607270  0.15862839  1.0
  O  O27  1  0.88673787  0.94392730  0.34137161  1.0
