# generated using pymatgen
data_YAsS
_symmetry_space_group_name_H-M   'P 1'
_cell_length_a   3.82594473
_cell_length_b   17.02590837
_cell_length_c   5.43015523
_cell_angle_alpha   90.00000000
_cell_angle_beta   134.77038220
_cell_angle_gamma   90.00000000
_symmetry_Int_Tables_number   1
_chemical_formula_structural   YAsS
_chemical_formula_sum   'Y4 As4 S4'
_cell_volume   251.11910053
_cell_formula_units_Z   4
loop_
 _symmetry_equiv_pos_site_id
 _symmetry_equiv_pos_as_xyz
  1  'x, y, z'
loop_
 _atom_site_type_symbol
 _atom_site_label
 _atom_site_symmetry_multiplicity
 _atom_site_fract_x
 _atom_site_fract_y
 _atom_site_fract_z
 _atom_site_occupancy
  Y  Y0  1  0.98771376  0.14617209  0.23758197  1.0
  Y  Y1  1  0.98771376  0.35382791  0.73758197  1.0
  Y  Y2  1  0.01228624  0.64617209  0.26241803  1.0
  Y  Y3  1  0.01228624  0.85382791  0.76241803  1.0
  As  As4  1  0.47031503  0.49867297  0.22106798  1.0
  As  As5  1  0.47031503  0.00132703  0.72106798  1.0
  As  As6  1  0.52968497  0.99867297  0.27893202  1.0
  As  As7  1  0.52968497  0.50132703  0.77893202  1.0
  S  S8  1  0.98958132  0.31308578  0.23950544  1.0
  S  S9  1  0.98958132  0.18691422  0.73950544  1.0
  S  S10  1  0.01041868  0.81308578  0.26049456  1.0
  S  S11  1  0.01041868  0.68691422  0.76049456  1.0
