# generated using pymatgen
data_Na3Sb3(PO7)2
_symmetry_space_group_name_H-M   'P 1'
_cell_length_a   6.41470785
_cell_length_b   7.33986233
_cell_length_c   12.61868985
_cell_angle_alpha   90.00000000
_cell_angle_beta   108.03310928
_cell_angle_gamma   90.00000000
_symmetry_Int_Tables_number   1
_chemical_formula_structural   Na3Sb3(PO7)2
_chemical_formula_sum   'Na6 Sb6 P4 O28'
_cell_volume   564.94187090
_cell_formula_units_Z   2
loop_
 _symmetry_equiv_pos_site_id
 _symmetry_equiv_pos_as_xyz
  1  'x, y, z'
loop_
 _atom_site_type_symbol
 _atom_site_label
 _atom_site_symmetry_multiplicity
 _atom_site_fract_x
 _atom_site_fract_y
 _atom_site_fract_z
 _atom_site_occupancy
  Na  Na0  1  0.51547405  0.20244992  0.43128267  1.0
  Na  Na1  1  0.51547405  0.29755008  0.93128267  1.0
  Na  Na2  1  0.48452595  0.70244992  0.06871733  1.0
  Na  Na3  1  0.48452595  0.79755008  0.56871733  1.0
  Na  Na4  1  0.00000000  0.50000000  0.00000000  1.0
  Na  Na5  1  -0.00000000  0.00000000  0.50000000  1.0
  Sb  Sb6  1  0.96853118  0.24316094  0.24197116  1.0
  Sb  Sb7  1  0.96853118  0.25683906  0.74197116  1.0
  Sb  Sb8  1  0.03146882  0.74316094  0.25802884  1.0
  Sb  Sb9  1  0.03146882  0.75683906  0.75802884  1.0
  Sb  Sb10  1  -0.00000000  0.50000000  0.50000000  1.0
  Sb  Sb11  1  0.00000000  0.00000000  0.00000000  1.0
  P  P12  1  0.41190488  0.23594015  0.16138317  1.0
  P  P13  1  0.41190488  0.26405985  0.66138317  1.0
  P  P14  1  0.58809512  0.73594015  0.33861683  1.0
  P  P15  1  0.58809512  0.76405985  0.83861683  1.0
  O  O16  1  0.96555089  0.79901777  0.09746182  1.0
  O  O17  1  0.96555089  0.70098223  0.59746182  1.0
  O  O18  1  0.03444911  0.29901777  0.40253818  1.0
  O  O19  1  0.03444911  0.20098223  0.90253818  1.0
  O  O20  1  0.93025410  0.49944234  0.19400960  1.0
  O  O21  1  0.93025410  0.00055766  0.69400960  1.0
  O  O22  1  0.06974590  0.99944234  0.30599040  1.0
  O  O23  1  0.06974590  0.50055766  0.80599040  1.0
  O  O24  1  0.87876936  0.19015479  0.07764543  1.0
  O  O25  1  0.87876936  0.30984521  0.57764543  1.0
  O  O26  1  0.12123064  0.69015479  0.42235457  1.0
  O  O27  1  0.12123064  0.80984521  0.92235457  1.0
  O  O28  1  0.67925770  0.94972152  0.90095296  1.0
  O  O29  1  0.67925770  0.55027848  0.40095296  1.0
  O  O30  1  0.32074230  0.44972152  0.59904704  1.0
  O  O31  1  0.32074230  0.05027848  0.09904704  1.0
  O  O32  1  0.65214062  0.19489125  0.23670055  1.0
  O  O33  1  0.65214062  0.30510875  0.73670055  1.0
  O  O34  1  0.34785938  0.69489125  0.26329945  1.0
  O  O35  1  0.34785938  0.80510875  0.76329945  1.0
  O  O36  1  0.61063927  0.89247257  0.41953982  1.0
  O  O37  1  0.61063927  0.60752743  0.91953982  1.0
  O  O38  1  0.38936073  0.39247257  0.08046018  1.0
  O  O39  1  0.38936073  0.10752743  0.58046018  1.0
  O  O40  1  0.29400933  0.27314635  0.25177035  1.0
  O  O41  1  0.29400933  0.22685365  0.75177035  1.0
  O  O42  1  0.70599067  0.77314635  0.24822965  1.0
  O  O43  1  0.70599067  0.72685365  0.74822965  1.0
