# generated using pymatgen
data_TlReO2
_symmetry_space_group_name_H-M   'P 1'
_cell_length_a   8.17700243
_cell_length_b   8.17700243
_cell_length_c   8.17700243
_cell_angle_alpha   132.53131585
_cell_angle_beta   132.53131585
_cell_angle_gamma   69.39115469
_symmetry_Int_Tables_number   1
_chemical_formula_structural   TlReO2
_chemical_formula_sum   'Tl4 Re4 O8'
_cell_volume   291.29819293
_cell_formula_units_Z   4
loop_
 _symmetry_equiv_pos_site_id
 _symmetry_equiv_pos_as_xyz
  1  'x, y, z'
loop_
 _atom_site_type_symbol
 _atom_site_label
 _atom_site_symmetry_multiplicity
 _atom_site_fract_x
 _atom_site_fract_y
 _atom_site_fract_z
 _atom_site_occupancy
  Tl  Tl0  1  0.37500000  0.62500000  0.75000000  1.0
  Tl  Tl1  1  0.87500000  0.62500000  1.25000000  1.0
  Tl  Tl2  1  0.37500000  1.12500000  0.75000000  1.0
  Tl  Tl3  1  0.37500000  0.62500000  0.25000000  1.0
  Re  Re4  1  0.87500000  0.12500000  0.75000000  1.0
  Re  Re5  1  0.37500000  0.12500000  0.25000000  1.0
  Re  Re6  1  0.87500000  0.62500000  0.75000000  1.0
  Re  Re7  1  0.87500000  1.12500000  1.25000000  1.0
  O  O8  1  1.13708690  0.96222038  1.82514487  1.0
  O  O9  1  0.61292449  0.93805797  1.32514487  1.0
  O  O10  1  1.03777962  0.86292449  1.17486652  1.0
  O  O11  1  1.06194203  1.38708690  1.67486652  1.0
  O  O12  1  0.13707551  0.31194203  0.17485513  1.0
  O  O13  1  0.61291310  0.28777962  0.67485513  1.0
  O  O14  1  0.68805797  0.86291310  0.82513348  1.0
  O  O15  1  0.71222038  0.38707551  0.32513348  1.0
