# generated using pymatgen
data_SiO2
_symmetry_space_group_name_H-M   'P 1'
_cell_length_a   12.37842518
_cell_length_b   12.37842518
_cell_length_c   4.37502790
_cell_angle_alpha   90.00000000
_cell_angle_beta   90.00000000
_cell_angle_gamma   90.00000000
_symmetry_Int_Tables_number   1
_chemical_formula_structural   SiO2
_chemical_formula_sum   'Si16 O32'
_cell_volume   670.36544432
_cell_formula_units_Z   16
loop_
 _symmetry_equiv_pos_site_id
 _symmetry_equiv_pos_as_xyz
  1  'x, y, z'
loop_
 _atom_site_type_symbol
 _atom_site_label
 _atom_site_symmetry_multiplicity
 _atom_site_fract_x
 _atom_site_fract_y
 _atom_site_fract_z
 _atom_site_occupancy
  Si  Si0  1  0.77200595  0.89492494  0.25985591  1.0
  Si  Si1  1  0.22799405  0.10507506  0.25985591  1.0
  Si  Si2  1  0.27200595  0.39492494  0.74014409  1.0
  Si  Si3  1  0.72799405  0.60507506  0.74014409  1.0
  Si  Si4  1  0.77200595  0.10507506  0.74014409  1.0
  Si  Si5  1  0.22799405  0.89492494  0.74014409  1.0
  Si  Si6  1  0.27200595  0.60507506  0.25985591  1.0
  Si  Si7  1  0.72799405  0.39492494  0.25985591  1.0
  Si  Si8  1  0.89492494  0.22799405  0.25985591  1.0
  Si  Si9  1  0.10507506  0.77200595  0.25985591  1.0
  Si  Si10  1  0.39492494  0.72799405  0.74014409  1.0
  Si  Si11  1  0.60507506  0.27200595  0.74014409  1.0
  Si  Si12  1  0.10507506  0.22799405  0.74014409  1.0
  Si  Si13  1  0.89492494  0.77200595  0.74014409  1.0
  Si  Si14  1  0.60507506  0.72799405  0.25985591  1.0
  Si  Si15  1  0.39492494  0.27200595  0.25985591  1.0
  O  O16  1  0.84637866  0.65362134  0.86850015  1.0
  O  O17  1  0.15362134  0.34637866  0.86850015  1.0
  O  O18  1  0.34637866  0.15362134  0.13149985  1.0
  O  O19  1  0.65362134  0.84637866  0.13149985  1.0
  O  O20  1  0.84637866  0.34637866  0.13149985  1.0
  O  O21  1  0.15362134  0.65362134  0.13149985  1.0
  O  O22  1  0.34637866  0.84637866  0.86850015  1.0
  O  O23  1  0.65362134  0.15362134  0.86850015  1.0
  O  O24  1  0.75206224  0.00000000  0.50000000  1.0
  O  O25  1  0.24793776  0.00000000  0.50000000  1.0
  O  O26  1  0.25206224  0.50000000  0.50000000  1.0
  O  O27  1  0.74793776  0.50000000  0.50000000  1.0
  O  O28  1  0.00000000  0.24793776  0.50000000  1.0
  O  O29  1  0.00000000  0.75206224  0.50000000  1.0
  O  O30  1  0.50000000  0.74793776  0.50000000  1.0
  O  O31  1  0.50000000  0.25206224  0.50000000  1.0
  O  O32  1  0.12567924  0.12567924  0.00000000  1.0
  O  O33  1  0.87432076  0.87432076  0.00000000  1.0
  O  O34  1  0.62567924  0.62567924  -0.00000000  1.0
  O  O35  1  0.37432076  0.37432076  -0.00000000  1.0
  O  O36  1  0.12567924  0.87432076  0.00000000  1.0
  O  O37  1  0.87432076  0.12567924  0.00000000  1.0
  O  O38  1  0.62567924  0.37432076  0.00000000  1.0
  O  O39  1  0.37432076  0.62567924  0.00000000  1.0
  O  O40  1  0.18764192  0.18764192  0.50000000  1.0
  O  O41  1  0.81235808  0.81235808  0.50000000  1.0
  O  O42  1  0.68764192  0.68764192  0.50000000  1.0
  O  O43  1  0.31235808  0.31235808  0.50000000  1.0
  O  O44  1  0.18764192  0.81235808  0.50000000  1.0
  O  O45  1  0.81235808  0.18764192  0.50000000  1.0
  O  O46  1  0.68764192  0.31235808  0.50000000  1.0
  O  O47  1  0.31235808  0.68764192  0.50000000  1.0
