# generated using pymatgen
data_RbC
_symmetry_space_group_name_H-M   'P 1'
_cell_length_a   4.58091305
_cell_length_b   4.58091305
_cell_length_c   7.92423995
_cell_angle_alpha   73.21362734
_cell_angle_beta   106.78637266
_cell_angle_gamma   120.11770672
_symmetry_Int_Tables_number   1
_chemical_formula_structural   RbC
_chemical_formula_sum   'Rb2 C2'
_cell_volume   135.61497794
_cell_formula_units_Z   2
loop_
 _symmetry_equiv_pos_site_id
 _symmetry_equiv_pos_as_xyz
  1  'x, y, z'
loop_
 _atom_site_type_symbol
 _atom_site_label
 _atom_site_symmetry_multiplicity
 _atom_site_fract_x
 _atom_site_fract_y
 _atom_site_fract_z
 _atom_site_occupancy
  Rb  Rb0  1  0.75621875  0.74498420  0.49484151  1.0
  Rb  Rb1  1  0.25501580  0.24378125  -0.00515849  1.0
  C  C2  1  1.00607031  0.49330486  0.24515849  1.0
  C  C3  1  1.50669514  -0.00607031  0.74515849  1.0
