# generated using pymatgen
data_SrZnF2
_symmetry_space_group_name_H-M   'P 1'
_cell_length_a   7.89705316
_cell_length_b   7.89705316
_cell_length_c   7.89705316
_cell_angle_alpha   119.96633483
_cell_angle_beta   119.96633483
_cell_angle_gamma   90.05831967
_symmetry_Int_Tables_number   1
_chemical_formula_structural   SrZnF2
_chemical_formula_sum   'Sr4 Zn4 F8'
_cell_volume   348.41823572
_cell_formula_units_Z   4
loop_
 _symmetry_equiv_pos_site_id
 _symmetry_equiv_pos_as_xyz
  1  'x, y, z'
loop_
 _atom_site_type_symbol
 _atom_site_label
 _atom_site_symmetry_multiplicity
 _atom_site_fract_x
 _atom_site_fract_y
 _atom_site_fract_z
 _atom_site_occupancy
  Sr  Sr0  1  0.37500000  0.62500000  0.75000000  1.0
  Sr  Sr1  1  0.87500000  0.62500000  1.25000000  1.0
  Sr  Sr2  1  0.37500000  1.12500000  0.75000000  1.0
  Sr  Sr3  1  0.37500000  0.62500000  0.25000000  1.0
  Zn  Zn4  1  0.87500000  0.12500000  0.75000000  1.0
  Zn  Zn5  1  0.37500000  0.12500000  0.25000000  1.0
  Zn  Zn6  1  0.87500000  0.62500000  0.75000000  1.0
  Zn  Zn7  1  0.87500000  1.12500000  1.25000000  1.0
  F  F8  1  1.15738228  0.84240641  1.68501759  1.0
  F  F9  1  0.59261117  0.77763531  1.18501759  1.0
  F  F10  1  1.15759359  0.84261117  1.31497586  1.0
  F  F11  1  1.22236469  1.40738228  1.81497586  1.0
  F  F12  1  0.15738883  0.47236469  0.31498241  1.0
  F  F13  1  0.59261772  0.40759359  0.81498241  1.0
  F  F14  1  0.52763531  0.84261772  0.68502414  1.0
  F  F15  1  0.59240641  0.40738883  0.18502414  1.0
