# generated using pymatgen
data_CaTi2O6
_symmetry_space_group_name_H-M   'P 1'
_cell_length_a   5.17119632
_cell_length_b   5.17119632
_cell_length_c   5.03312953
_cell_angle_alpha   90.00000000
_cell_angle_beta   90.00000000
_cell_angle_gamma   120.00000000
_symmetry_Int_Tables_number   1
_chemical_formula_structural   CaTi2O6
_chemical_formula_sum   'Ca1 Ti2 O6'
_cell_volume   116.56033570
_cell_formula_units_Z   1
loop_
 _symmetry_equiv_pos_site_id
 _symmetry_equiv_pos_as_xyz
  1  'x, y, z'
loop_
 _atom_site_type_symbol
 _atom_site_label
 _atom_site_symmetry_multiplicity
 _atom_site_fract_x
 _atom_site_fract_y
 _atom_site_fract_z
 _atom_site_occupancy
  Ca  Ca0  1  -0.00000000  -0.00000000  -0.00000000  1.0
  Ti  Ti1  1  0.33333333  0.66666667  0.50000000  1.0
  Ti  Ti2  1  0.66666667  0.33333333  0.50000000  1.0
  O  O3  1  0.63869526  0.63869526  0.29060869  1.0
  O  O4  1  0.63869526  -0.00000000  0.70939131  1.0
  O  O5  1  0.00000000  0.63869526  0.70939131  1.0
  O  O6  1  0.00000000  0.36130474  0.29060869  1.0
  O  O7  1  0.36130474  0.36130474  0.70939131  1.0
  O  O8  1  0.36130474  0.00000000  0.29060869  1.0
