# generated using pymatgen
data_Cr5(Bi3Se8)2
_symmetry_space_group_name_H-M   'P 1'
_cell_length_a   9.59408833
_cell_length_b   9.59408833
_cell_length_c   11.67691838
_cell_angle_alpha   88.24751206
_cell_angle_beta   91.75248794
_cell_angle_gamma   38.56451925
_symmetry_Int_Tables_number   1
_chemical_formula_structural   Cr5(Bi3Se8)2
_chemical_formula_sum   'Cr5 Bi6 Se16'
_cell_volume   667.15833795
_cell_formula_units_Z   1
loop_
 _symmetry_equiv_pos_site_id
 _symmetry_equiv_pos_as_xyz
  1  'x, y, z'
loop_
 _atom_site_type_symbol
 _atom_site_label
 _atom_site_symmetry_multiplicity
 _atom_site_fract_x
 _atom_site_fract_y
 _atom_site_fract_z
 _atom_site_occupancy
  Bi  Bi0  1  0.65467219  -0.31570556  0.00835483  1.0
  Bi  Bi1  1  0.31570556  0.34532781  0.00835483  1.0
  Bi  Bi2  1  1.01631939  -0.33918199  0.31675557  1.0
  Bi  Bi3  1  0.33918199  -0.01631939  0.31675557  1.0
  Bi  Bi4  1  -0.04296983  0.04296983  -0.02500918  1.0
  Bi  Bi5  1  0.66826476  -0.66826476  0.29762307  1.0
  Se  Se6  1  0.89362898  -0.22890539  0.06003148  1.0
  Se  Se7  1  0.22890539  0.10637102  0.06003148  1.0
  Se  Se8  1  0.76374875  -0.43274482  0.25816445  1.0
  Se  Se9  1  0.43274482  0.23625125  0.25816445  1.0
  Se  Se10  1  0.09282601  -0.09282601  0.24698394  1.0
  Se  Se11  1  0.54647341  -0.54647341  0.05012205  1.0
  Se  Se12  1  1.09805167  -0.69433976  0.53371383  1.0
  Se  Se13  1  0.69433976  -0.09805167  0.53371383  1.0
  Se  Se14  1  1.28634105  -0.48868018  0.53646142  1.0
  Se  Se15  1  0.48868018  -0.28634105  0.53646142  1.0
  Se  Se16  1  0.86348845  -0.66944774  0.78062378  1.0
  Se  Se17  1  0.66944774  0.13651155  0.78062378  1.0
  Se  Se18  1  1.07276879  -0.47279089  0.77357599  1.0
  Se  Se19  1  0.47279089  -0.07276879  0.77357599  1.0
  Se  Se20  1  0.88364200  -0.88364200  0.53837787  1.0
  Se  Se21  1  0.25798669  -0.25798669  0.77465640  1.0
  Cr  Cr22  1  0.57699951  -0.57699951  0.65785495  1.0
  Cr  Cr23  1  0.78139211  -0.38067125  0.65378364  1.0
  Cr  Cr24  1  0.38067125  0.21860789  0.65378364  1.0
  Cr  Cr25  1  0.97551230  -0.17678618  0.65603045  1.0
  Cr  Cr26  1  0.17678618  0.02448770  0.65603045  1.0
