# generated using pymatgen
data_K2CuCl3
_symmetry_space_group_name_H-M   'P 1'
_cell_length_a   12.24270902
_cell_length_b   4.18042319
_cell_length_c   12.69886154
_cell_angle_alpha   90.00000000
_cell_angle_beta   90.00000000
_cell_angle_gamma   90.00000000
_symmetry_Int_Tables_number   1
_chemical_formula_structural   K2CuCl3
_chemical_formula_sum   'K8 Cu4 Cl12'
_cell_volume   649.92398329
_cell_formula_units_Z   4
loop_
 _symmetry_equiv_pos_site_id
 _symmetry_equiv_pos_as_xyz
  1  'x, y, z'
loop_
 _atom_site_type_symbol
 _atom_site_label
 _atom_site_symmetry_multiplicity
 _atom_site_fract_x
 _atom_site_fract_y
 _atom_site_fract_z
 _atom_site_occupancy
  K  K0  1  0.98994141  0.75000000  0.67592483  1.0
  K  K1  1  0.48994141  0.75000000  0.82407517  1.0
  K  K2  1  0.01005859  0.25000000  0.32407517  1.0
  K  K3  1  0.51005859  0.25000000  0.17592483  1.0
  K  K4  1  0.82583905  0.75000000  0.01891043  1.0
  K  K5  1  0.32583905  0.75000000  0.48108957  1.0
  K  K6  1  0.17416095  0.25000000  0.98108957  1.0
  K  K7  1  0.67416095  0.25000000  0.51891043  1.0
  Cu  Cu8  1  0.74384806  0.75000000  0.30289067  1.0
  Cu  Cu9  1  0.24384806  0.75000000  0.19710933  1.0
  Cu  Cu10  1  0.25615194  0.25000000  0.69710933  1.0
  Cu  Cu11  1  0.75615194  0.25000000  0.80289067  1.0
  Cl  Cl12  1  0.86445773  0.75000000  0.44530199  1.0
  Cl  Cl13  1  0.36445773  0.75000000  0.05469801  1.0
  Cl  Cl14  1  0.13554227  0.25000000  0.55469801  1.0
  Cl  Cl15  1  0.63554227  0.25000000  0.94530199  1.0
  Cl  Cl16  1  0.72738816  0.75000000  0.71219573  1.0
  Cl  Cl17  1  0.22738816  0.75000000  0.78780427  1.0
  Cl  Cl18  1  0.27261184  0.25000000  0.28780427  1.0
  Cl  Cl19  1  0.77261184  0.25000000  0.21219573  1.0
  Cl  Cl20  1  0.56178278  0.75000000  0.36002101  1.0
  Cl  Cl21  1  0.06178278  0.75000000  0.13997899  1.0
  Cl  Cl22  1  0.43821722  0.25000000  0.63997899  1.0
  Cl  Cl23  1  0.93821722  0.25000000  0.86002101  1.0
