# generated using pymatgen
data_Tl(MoSe)3
_symmetry_space_group_name_H-M   'P 1'
_cell_length_a   9.22851761
_cell_length_b   9.22851761
_cell_length_c   4.51400074
_cell_angle_alpha   90.00000000
_cell_angle_beta   90.00000000
_cell_angle_gamma   120.00000000
_symmetry_Int_Tables_number   1
_chemical_formula_structural   Tl(MoSe)3
_chemical_formula_sum   'Tl2 Mo6 Se6'
_cell_volume   332.93246638
_cell_formula_units_Z   2
loop_
 _symmetry_equiv_pos_site_id
 _symmetry_equiv_pos_as_xyz
  1  'x, y, z'
loop_
 _atom_site_type_symbol
 _atom_site_label
 _atom_site_symmetry_multiplicity
 _atom_site_fract_x
 _atom_site_fract_y
 _atom_site_fract_z
 _atom_site_occupancy
  Tl  Tl0  1  0.33333333  0.66666667  0.25000000  1.0
  Tl  Tl1  1  0.66666667  0.33333333  0.75000000  1.0
  Mo  Mo2  1  1.03125966  0.85162356  0.25000000  1.0
  Mo  Mo3  1  0.82036390  -0.03125966  0.25000000  1.0
  Mo  Mo4  1  0.14837644  0.17963610  0.25000000  1.0
  Mo  Mo5  1  -0.03125966  0.14837644  0.75000000  1.0
  Mo  Mo6  1  0.17963610  1.03125966  0.75000000  1.0
  Mo  Mo7  1  0.85162356  0.82036390  0.75000000  1.0
  Se  Se8  1  0.35665411  1.06352736  0.25000000  1.0
  Se  Se9  1  0.70687325  0.64334589  0.25000000  1.0
  Se  Se10  1  -0.06352736  0.29312675  0.25000000  1.0
  Se  Se11  1  0.64334589  -0.06352736  0.75000000  1.0
  Se  Se12  1  0.29312675  0.35665411  0.75000000  1.0
  Se  Se13  1  1.06352736  0.70687325  0.75000000  1.0
