# generated using pymatgen
data_GdAlGe
_symmetry_space_group_name_H-M   'P 1'
_cell_length_a   7.92553657
_cell_length_b   7.92553657
_cell_length_c   7.92553657
_cell_angle_alpha   149.32288258
_cell_angle_beta   149.32288258
_cell_angle_gamma   43.93625505
_symmetry_Int_Tables_number   1
_chemical_formula_structural   GdAlGe
_chemical_formula_sum   'Gd2 Al2 Ge2'
_cell_volume   129.22108285
_cell_formula_units_Z   2
loop_
 _symmetry_equiv_pos_site_id
 _symmetry_equiv_pos_as_xyz
  1  'x, y, z'
loop_
 _atom_site_type_symbol
 _atom_site_label
 _atom_site_symmetry_multiplicity
 _atom_site_fract_x
 _atom_site_fract_y
 _atom_site_fract_z
 _atom_site_occupancy
  Gd  Gd0  1  0.58144673  0.58144673  1.00000000  1.0
  Gd  Gd1  1  0.33144673  0.83144673  0.50000000  1.0
  Al  Al2  1  0.16534840  0.16534840  -0.00000000  1.0
  Al  Al3  1  0.91534840  0.41534840  0.50000000  1.0
  Ge  Ge4  1  0.00020487  0.00020487  -0.00000000  1.0
  Ge  Ge5  1  0.75020487  0.25020487  0.50000000  1.0
