# generated using pymatgen
data_Lu5(Co2Si7)2
_symmetry_space_group_name_H-M   'P 1'
_cell_length_a   12.21858895
_cell_length_b   7.73472824
_cell_length_c   7.67949331
_cell_angle_alpha   90.00000000
_cell_angle_beta   98.89541812
_cell_angle_gamma   90.00000000
_symmetry_Int_Tables_number   1
_chemical_formula_structural   Lu5(Co2Si7)2
_chemical_formula_sum   'Lu10 Co8 Si28'
_cell_volume   717.04005985
_cell_formula_units_Z   2
loop_
 _symmetry_equiv_pos_site_id
 _symmetry_equiv_pos_as_xyz
  1  'x, y, z'
loop_
 _atom_site_type_symbol
 _atom_site_label
 _atom_site_symmetry_multiplicity
 _atom_site_fract_x
 _atom_site_fract_y
 _atom_site_fract_z
 _atom_site_occupancy
  Lu  Lu0  1  0.63419188  0.24852512  0.15777930  1.0
  Lu  Lu1  1  0.63419188  0.25147488  0.65777930  1.0
  Lu  Lu2  1  0.36580812  0.74852512  0.34222070  1.0
  Lu  Lu3  1  0.36580812  0.75147488  0.84222070  1.0
  Lu  Lu4  1  0.36600000  0.24910005  0.34039200  1.0
  Lu  Lu5  1  0.36600000  0.25089995  0.84039200  1.0
  Lu  Lu6  1  0.63400000  0.74910005  0.15960800  1.0
  Lu  Lu7  1  0.63400000  0.75089995  0.65960800  1.0
  Lu  Lu8  1  0.00000000  0.50000000  0.00000000  1.0
  Lu  Lu9  1  0.00000000  0.00000000  0.50000000  1.0
  Co  Co10  1  0.00023754  0.37395317  0.37292432  1.0
  Co  Co11  1  0.00023754  0.12604683  0.87292432  1.0
  Co  Co12  1  -0.00023754  0.87395317  0.12707568  1.0
  Co  Co13  1  -0.00023754  0.62604683  0.62707568  1.0
  Co  Co14  1  0.74971833  0.99963487  0.43876403  1.0
  Co  Co15  1  0.74971833  0.50036513  0.93876403  1.0
  Co  Co16  1  0.25028167  0.49963487  0.06123597  1.0
  Co  Co17  1  0.25028167  0.00036513  0.56123597  1.0
  Si  Si18  1  0.99976963  0.16694687  0.16647581  1.0
  Si  Si19  1  0.99976963  0.33305313  0.66647581  1.0
  Si  Si20  1  0.00023037  0.66694687  0.33352419  1.0
  Si  Si21  1  0.00023037  0.83305313  0.83352419  1.0
  Si  Si22  1  0.82120464  0.27342085  0.44980072  1.0
  Si  Si23  1  0.82120464  0.22657915  0.94980072  1.0
  Si  Si24  1  0.17879536  0.77342085  0.05019928  1.0
  Si  Si25  1  0.17879536  0.72657915  0.55019928  1.0
  Si  Si26  1  0.82126879  0.72626410  0.46153938  1.0
  Si  Si27  1  0.82126879  0.77373590  0.96153938  1.0
  Si  Si28  1  0.17873121  0.22626410  0.03846062  1.0
  Si  Si29  1  0.17873121  0.27373590  0.53846062  1.0
  Si  Si30  1  0.82086220  0.49442865  0.23065037  1.0
  Si  Si31  1  0.82086220  0.00557135  0.73065037  1.0
  Si  Si32  1  0.17913780  0.99442865  0.26934963  1.0
  Si  Si33  1  0.17913780  0.50557135  0.76934963  1.0
  Si  Si34  1  0.82053990  0.99432753  0.18157719  1.0
  Si  Si35  1  0.82053990  0.50567247  0.68157719  1.0
  Si  Si36  1  0.17946010  0.49432753  0.31842281  1.0
  Si  Si37  1  0.17946010  0.00567247  0.81842281  1.0
  Si  Si38  1  0.56162980  0.49975991  0.38931577  1.0
  Si  Si39  1  0.56162980  0.00024009  0.88931577  1.0
  Si  Si40  1  0.43837020  0.99975991  0.11068423  1.0
  Si  Si41  1  0.43837020  0.50024009  0.61068423  1.0
  Si  Si42  1  0.55953054  0.00056159  0.38993070  1.0
  Si  Si43  1  0.55953054  0.49943841  0.88993070  1.0
  Si  Si44  1  0.44046946  0.50056159  0.11006930  1.0
  Si  Si45  1  0.44046946  0.99943841  0.61006930  1.0
