# generated using pymatgen
data_Ba5Gd8Mn4O21
_symmetry_space_group_name_H-M   'P 1'
_cell_length_a   10.38736724
_cell_length_b   10.38736724
_cell_length_c   10.38736724
_cell_angle_alpha   94.52661259
_cell_angle_beta   94.52661259
_cell_angle_gamma   147.36846489
_symmetry_Int_Tables_number   1
_chemical_formula_structural   Ba5Gd8Mn4O21
_chemical_formula_sum   'Ba5 Gd8 Mn4 O21'
_cell_volume   580.01898186
_cell_formula_units_Z   1
loop_
 _symmetry_equiv_pos_site_id
 _symmetry_equiv_pos_as_xyz
  1  'x, y, z'
loop_
 _atom_site_type_symbol
 _atom_site_label
 _atom_site_symmetry_multiplicity
 _atom_site_fract_x
 _atom_site_fract_y
 _atom_site_fract_z
 _atom_site_occupancy
  Ba  Ba0  1  0.86167508  0.53260930  0.39428438  1.0
  Ba  Ba1  1  0.53260930  0.13832492  0.67093421  1.0
  Ba  Ba2  1  1.13832492  1.46739070  1.60571562  1.0
  Ba  Ba3  1  0.46739070  0.86167508  1.32906579  1.0
  Ba  Ba4  1  0.00000000  0.00000000  0.00000000  1.0
  Gd  Gd5  1  0.75394997  0.83100446  1.58495444  1.0
  Gd  Gd6  1  0.83100446  1.24605003  1.07705449  1.0
  Gd  Gd7  1  0.24605003  0.16899554  0.41504556  1.0
  Gd  Gd8  1  1.16899554  0.75394997  0.92294551  1.0
  Gd  Gd9  1  0.58946157  0.64253911  1.23200068  1.0
  Gd  Gd10  1  0.64253911  1.41053843  1.05307754  1.0
  Gd  Gd11  1  0.41053843  0.35746089  0.76799932  1.0
  Gd  Gd12  1  1.35746089  0.58946157  0.94692246  1.0
  Mn  Mn13  1  0.95986361  0.74852265  0.70838626  1.0
  Mn  Mn14  1  0.74852265  0.04013639  0.78865904  1.0
  Mn  Mn15  1  1.04013639  1.25147735  1.29161374  1.0
  Mn  Mn16  1  0.25147735  0.95986361  1.21134096  1.0
  O  O17  1  1.10036188  0.98867977  0.59284365  1.0
  O  O18  1  0.60416388  0.49248177  0.59284365  1.0
  O  O19  1  0.98867977  0.39583612  0.88831789  1.0
  O  O20  1  1.49248177  0.89963812  0.88831789  1.0
  O  O21  1  1.39583612  1.50751823  1.40715635  1.0
  O  O22  1  0.89963812  1.01132023  1.40715635  1.0
  O  O23  1  0.50751823  1.10036188  1.11168211  1.0
  O  O24  1  1.01132023  1.60416388  1.11168211  1.0
  O  O25  1  1.07056117  1.20267759  1.77347943  1.0
  O  O26  1  1.57080184  1.70291826  1.77347943  1.0
  O  O27  1  1.20267759  1.42919816  1.13211643  1.0
  O  O28  1  0.70291826  0.92943883  1.13211643  1.0
  O  O29  1  0.42919816  0.29708174  0.22652057  1.0
  O  O30  1  0.92943883  0.79732241  0.22652057  1.0
  O  O31  1  1.29708174  1.07056117  0.86788357  1.0
  O  O32  1  0.79732241  0.57080184  0.86788357  1.0
  O  O33  1  0.62606867  0.96689559  1.59296426  1.0
  O  O34  1  0.96689559  1.37393133  1.34082692  1.0
  O  O35  1  0.37393133  0.03310441  0.40703574  1.0
  O  O36  1  1.03310441  0.62606867  0.65917308  1.0
  O  O37  1  0.50000000  0.50000000  0.00000000  1.0
