# generated using pymatgen
data_Mn2Hg(CO)10
_symmetry_space_group_name_H-M   'P 1'
_cell_length_a   6.79219541
_cell_length_b   6.63302087
_cell_length_c   19.46915760
_cell_angle_alpha   90.00000000
_cell_angle_beta   97.59297899
_cell_angle_gamma   90.00000000
_symmetry_Int_Tables_number   1
_chemical_formula_structural   Mn2Hg(CO)10
_chemical_formula_sum   'Mn4 Hg2 C20 O20'
_cell_volume   869.44856659
_cell_formula_units_Z   2
loop_
 _symmetry_equiv_pos_site_id
 _symmetry_equiv_pos_as_xyz
  1  'x, y, z'
loop_
 _atom_site_type_symbol
 _atom_site_label
 _atom_site_symmetry_multiplicity
 _atom_site_fract_x
 _atom_site_fract_y
 _atom_site_fract_z
 _atom_site_occupancy
  Mn  Mn0  1  0.81300337  0.64401805  0.38097243  1.0
  Mn  Mn1  1  0.81300337  0.85598195  0.88097243  1.0
  Mn  Mn2  1  0.18699663  0.14401805  0.11902757  1.0
  Mn  Mn3  1  0.18699663  0.35598195  0.61902757  1.0
  Hg  Hg4  1  -0.00000000  0.50000000  0.50000000  1.0
  Hg  Hg5  1  0.00000000  0.00000000  0.00000000  1.0
  C  C6  1  0.94645824  0.25748007  0.13090785  1.0
  C  C7  1  0.94645824  0.24251993  0.63090785  1.0
  C  C8  1  0.05354176  0.75748007  0.36909215  1.0
  C  C9  1  0.05354176  0.74251993  0.86909215  1.0
  C  C10  1  0.89118901  0.40754322  0.34342531  1.0
  C  C11  1  0.89118901  0.09245678  0.84342531  1.0
  C  C12  1  0.10881099  0.90754322  0.15657469  1.0
  C  C13  1  0.10881099  0.59245678  0.65657469  1.0
  C  C14  1  0.76312113  0.86122111  0.43458088  1.0
  C  C15  1  0.76312113  0.63877889  0.93458088  1.0
  C  C16  1  0.23687887  0.36122111  0.06541912  1.0
  C  C17  1  0.23687887  0.13877889  0.56541912  1.0
  C  C18  1  0.40509276  0.01214830  0.09429813  1.0
  C  C19  1  0.40509276  0.48785170  0.59429813  1.0
  C  C20  1  0.59490724  0.51214830  0.40570187  1.0
  C  C21  1  0.59490724  0.98785170  0.90570187  1.0
  C  C22  1  0.31673471  0.24257031  0.19883655  1.0
  C  C23  1  0.31673471  0.25742969  0.69883655  1.0
  C  C24  1  0.68326529  0.74257031  0.30116345  1.0
  C  C25  1  0.68326529  0.75742969  0.80116345  1.0
  O  O26  1  0.93804923  0.25934655  0.31882942  1.0
  O  O27  1  0.93804923  0.24065345  0.81882942  1.0
  O  O28  1  0.06195077  0.75934655  0.18117058  1.0
  O  O29  1  0.06195077  0.74065345  0.68117058  1.0
  O  O30  1  0.79740222  0.33050421  0.13968913  1.0
  O  O31  1  0.79740222  0.16949579  0.63968913  1.0
  O  O32  1  0.20259778  0.83050421  0.36031087  1.0
  O  O33  1  0.20259778  0.66949579  0.86031087  1.0
  O  O34  1  0.73292198  0.00104490  0.46718539  1.0
  O  O35  1  0.73292198  0.49895510  0.96718539  1.0
  O  O36  1  0.26707802  0.50104490  0.03281461  1.0
  O  O37  1  0.26707802  0.99895510  0.53281461  1.0
  O  O38  1  0.45595003  0.42951748  0.41988621  1.0
  O  O39  1  0.45595003  0.07048252  0.91988621  1.0
  O  O40  1  0.54404997  0.92951748  0.08011379  1.0
  O  O41  1  0.54404997  0.57048252  0.58011379  1.0
  O  O42  1  0.40018825  0.30626388  0.24989895  1.0
  O  O43  1  0.40018825  0.19373612  0.74989895  1.0
  O  O44  1  0.59981175  0.80626388  0.25010105  1.0
  O  O45  1  0.59981175  0.69373612  0.75010105  1.0
