# generated using pymatgen
data_Co2SiO4
_symmetry_space_group_name_H-M   'P 1'
_cell_length_a   8.70138621
_cell_length_b   8.70138621
_cell_length_c   8.70138621
_cell_angle_alpha   107.84153152
_cell_angle_beta   107.84153152
_cell_angle_gamma   107.84153152
_symmetry_Int_Tables_number   1
_chemical_formula_structural   Co2SiO4
_chemical_formula_sum   'Co12 Si6 O24'
_cell_volume   535.57551483
_cell_formula_units_Z   6
loop_
 _symmetry_equiv_pos_site_id
 _symmetry_equiv_pos_as_xyz
  1  'x, y, z'
loop_
 _atom_site_type_symbol
 _atom_site_label
 _atom_site_symmetry_multiplicity
 _atom_site_fract_x
 _atom_site_fract_y
 _atom_site_fract_z
 _atom_site_occupancy
  Co  Co0  1  0.70580863  1.11390544  -0.06231266  1.0
  Co  Co1  1  0.88609456  0.06231266  0.29419137  1.0
  Co  Co2  1  1.06231266  0.29419137  -0.11390544  1.0
  Co  Co3  1  1.29419137  -0.11390544  0.06231266  1.0
  Co  Co4  1  1.11390544  0.93768734  -0.29419137  1.0
  Co  Co5  1  0.93768734  0.70580863  0.11390544  1.0
  Co  Co6  1  1.37269096  0.78060609  -0.40472937  1.0
  Co  Co7  1  1.21939391  0.40472937  -0.37269096  1.0
  Co  Co8  1  1.40472937  -0.37269096  0.21939391  1.0
  Co  Co9  1  0.62730904  0.21939391  0.40472937  1.0
  Co  Co10  1  0.78060609  0.59527063  0.37269096  1.0
  Co  Co11  1  0.59527063  1.37269096  -0.21939391  1.0
  Si  Si12  1  1.55540500  0.73744631  -0.04392188  1.0
  Si  Si13  1  0.26255369  1.04392188  -0.55540500  1.0
  Si  Si14  1  1.04392188  0.44459500  -0.73744631  1.0
  Si  Si15  1  0.44459500  0.26255369  0.04392188  1.0
  Si  Si16  1  1.73744631  -0.04392188  0.55540500  1.0
  Si  Si17  1  0.95607812  0.55540500  0.73744631  1.0
  O  O18  1  0.76866402  0.81521328  0.09656861  1.0
  O  O19  1  1.18478672  -0.09656861  0.23133598  1.0
  O  O20  1  0.90343139  0.23133598  0.18478672  1.0
  O  O21  1  1.23133598  0.18478672  -0.09656861  1.0
  O  O22  1  0.81521328  1.09656861  -0.23133598  1.0
  O  O23  1  1.09656861  0.76866402  -0.18478672  1.0
  O  O24  1  1.47439336  0.52789359  -0.19328399  1.0
  O  O25  1  0.47210641  1.19328399  -0.47439336  1.0
  O  O26  1  1.19328399  0.52560664  -0.52789359  1.0
  O  O27  1  0.52560664  0.47210641  0.19328399  1.0
  O  O28  1  1.52789359  -0.19328399  0.47439336  1.0
  O  O29  1  0.80671601  0.47439336  0.52789359  1.0
  O  O30  1  0.56489384  1.24986517  -0.07085844  1.0
  O  O31  1  0.75013483  0.07085844  0.43510616  1.0
  O  O32  1  1.07085844  0.43510616  -0.24986517  1.0
  O  O33  1  1.43510616  -0.24986517  0.07085844  1.0
  O  O34  1  1.24986517  0.92914156  -0.43510616  1.0
  O  O35  1  0.92914156  0.56489384  0.24986517  1.0
  O  O36  1  1.53384586  0.86232414  -0.15058724  1.0
  O  O37  1  1.13767586  0.15058724  -0.53384586  1.0
  O  O38  1  1.15058724  -0.53384586  0.13767586  1.0
  O  O39  1  0.46615414  0.13767586  0.15058724  1.0
  O  O40  1  0.86232414  0.84941276  0.53384586  1.0
  O  O41  1  0.84941276  1.53384586  -0.13767586  1.0
