# generated using pymatgen
data_In5AgSe8
_symmetry_space_group_name_H-M   'P 1'
_cell_length_a   5.89804668
_cell_length_b   5.89804668
_cell_length_c   12.10903195
_cell_angle_alpha   90.00000000
_cell_angle_beta   90.00000000
_cell_angle_gamma   90.00000000
_symmetry_Int_Tables_number   1
_chemical_formula_structural   In5AgSe8
_chemical_formula_sum   'In5 Ag1 Se8'
_cell_volume   421.23634449
_cell_formula_units_Z   1
loop_
 _symmetry_equiv_pos_site_id
 _symmetry_equiv_pos_as_xyz
  1  'x, y, z'
loop_
 _atom_site_type_symbol
 _atom_site_label
 _atom_site_symmetry_multiplicity
 _atom_site_fract_x
 _atom_site_fract_y
 _atom_site_fract_z
 _atom_site_occupancy
  In  In0  1  0.50000000  0.00000000  0.25292401  1.0
  In  In1  1  0.50000000  0.00000000  0.74707599  1.0
  In  In2  1  0.00000000  0.50000000  0.25292401  1.0
  In  In3  1  0.00000000  0.50000000  0.74707599  1.0
  In  In4  1  0.00000000  0.00000000  0.00000000  1.0
  Ag  Ag5  1  0.50000000  0.50000000  0.50000000  1.0
  Se  Se6  1  0.22985209  0.77014791  0.61985581  1.0
  Se  Se7  1  0.77014791  0.77014791  0.38014419  1.0
  Se  Se8  1  0.22985209  0.22985209  0.38014419  1.0
  Se  Se9  1  0.77014791  0.22985209  0.61985581  1.0
  Se  Se10  1  0.27250578  0.72749422  0.11221735  1.0
  Se  Se11  1  0.72749422  0.72749422  0.88778265  1.0
  Se  Se12  1  0.27250578  0.27250578  0.88778265  1.0
  Se  Se13  1  0.72749422  0.27250578  0.11221735  1.0
