# generated using pymatgen
data_Y3(CuSi)4
_symmetry_space_group_name_H-M   'P 1'
_cell_length_a   7.87578904
_cell_length_b   7.87578904
_cell_length_c   7.87578904
_cell_angle_alpha   149.52890954
_cell_angle_beta   130.78205702
_cell_angle_gamma   58.99795651
_symmetry_Int_Tables_number   1
_chemical_formula_structural   Y3(CuSi)4
_chemical_formula_sum   'Y3 Cu4 Si4'
_cell_volume   186.11589062
_cell_formula_units_Z   1
loop_
 _symmetry_equiv_pos_site_id
 _symmetry_equiv_pos_as_xyz
  1  'x, y, z'
loop_
 _atom_site_type_symbol
 _atom_site_label
 _atom_site_symmetry_multiplicity
 _atom_site_fract_x
 _atom_site_fract_y
 _atom_site_fract_z
 _atom_site_occupancy
  Y  Y0  1  0.62957010  0.12957010  0.50000000  1.0
  Y  Y1  1  0.37042990  0.87042990  0.50000000  1.0
  Y  Y2  1  0.00000000  0.00000000  0.00000000  1.0
  Cu  Cu3  1  0.35892717  0.66859687  0.69033030  1.0
  Cu  Cu4  1  1.02173343  0.33140313  0.69033030  1.0
  Cu  Cu5  1  0.97826657  0.66859687  1.30966970  1.0
  Cu  Cu6  1  0.64107283  0.33140313  0.30966970  1.0
  Si  Si7  1  0.78358292  0.78358292  1.00000000  1.0
  Si  Si8  1  0.21641708  0.21641708  -0.00000000  1.0
  Si  Si9  1  0.31538430  0.50000000  0.81538430  1.0
  Si  Si10  1  0.68461570  0.50000000  1.18461570  1.0
