# generated using pymatgen
data_K2Au3
_symmetry_space_group_name_H-M   'P 1'
_cell_length_a   6.31315569
_cell_length_b   6.31315569
_cell_length_c   6.31315569
_cell_angle_alpha   133.78279247
_cell_angle_beta   127.76124584
_cell_angle_gamma   72.28401456
_symmetry_Int_Tables_number   1
_chemical_formula_structural   K2Au3
_chemical_formula_sum   'K2 Au3'
_cell_volume   140.43573133
_cell_formula_units_Z   1
loop_
 _symmetry_equiv_pos_site_id
 _symmetry_equiv_pos_as_xyz
  1  'x, y, z'
loop_
 _atom_site_type_symbol
 _atom_site_label
 _atom_site_symmetry_multiplicity
 _atom_site_fract_x
 _atom_site_fract_y
 _atom_site_fract_z
 _atom_site_occupancy
  K  K0  1  0.69441844  0.19441844  0.50000000  1.0
  K  K1  1  0.30558156  0.80558156  0.50000000  1.0
  Au  Au2  1  0.25367753  0.50000000  0.75367753  1.0
  Au  Au3  1  0.74632247  0.50000000  1.24632247  1.0
  Au  Au4  1  0.00000000  0.00000000  0.00000000  1.0
