# generated using pymatgen
data_CsAlH4(OF2)2
_symmetry_space_group_name_H-M   'P 1'
_cell_length_a   6.73003606
_cell_length_b   6.73003606
_cell_length_c   8.97204497
_cell_angle_alpha   61.65895418
_cell_angle_beta   118.34104582
_cell_angle_gamma   119.33469288
_symmetry_Int_Tables_number   1
_chemical_formula_structural   CsAlH4(OF2)2
_chemical_formula_sum   'Cs2 Al2 H8 O4 F8'
_cell_volume   295.86790984
_cell_formula_units_Z   2
loop_
 _symmetry_equiv_pos_site_id
 _symmetry_equiv_pos_as_xyz
  1  'x, y, z'
loop_
 _atom_site_type_symbol
 _atom_site_label
 _atom_site_symmetry_multiplicity
 _atom_site_fract_x
 _atom_site_fract_y
 _atom_site_fract_z
 _atom_site_occupancy
  Cs  Cs0  1  0.77625195  0.77625195  0.75000000  1.0
  Cs  Cs1  1  1.22374805  0.22374805  0.25000000  1.0
  Al  Al2  1  1.50000000  -0.00000000  0.00000000  1.0
  Al  Al3  1  1.00000000  0.50000000  0.50000000  1.0
  H  H4  1  1.59683806  0.22370932  0.69259358  1.0
  H  H5  1  0.77629068  0.40316194  0.19259358  1.0
  H  H6  1  1.22370932  0.59683806  0.80740642  1.0
  H  H7  1  1.40316194  -0.22370932  0.30740642  1.0
  H  H8  1  1.33859263  0.22339234  0.66578441  1.0
  H  H9  1  0.77660766  0.66140737  0.16578441  1.0
  H  H10  1  1.22339234  0.33859263  0.83421559  1.0
  H  H11  1  1.66140737  -0.22339234  0.33421559  1.0
  O  O12  1  1.49476907  0.20347230  0.75505794  1.0
  O  O13  1  0.79652770  0.50523093  0.25505794  1.0
  O  O14  1  1.20347230  0.49476907  0.74494206  1.0
  O  O15  1  1.50523093  -0.20347230  0.24494206  1.0
  F  F16  1  0.74199075  0.26933980  0.57665347  1.0
  F  F17  1  0.73066020  0.25800925  0.07665347  1.0
  F  F18  1  0.26933980  -0.25800925  0.92334653  1.0
  F  F19  1  1.25800925  0.73066020  0.42334653  1.0
  F  F20  1  1.26631786  0.08997950  0.97077833  1.0
  F  F21  1  0.91002050  0.73368214  0.47077833  1.0
  F  F22  1  1.08997950  0.26631786  0.52922167  1.0
  F  F23  1  1.73368214  -0.08997950  0.02922167  1.0
