# generated using pymatgen
data_Sr(AlS2)2
_symmetry_space_group_name_H-M   'P 1'
_cell_length_a   14.77491277
_cell_length_b   12.21204872
_cell_length_c   12.00612335
_cell_angle_alpha   75.18454006
_cell_angle_beta   53.04049937
_cell_angle_gamma   51.77496057
_symmetry_Int_Tables_number   1
_chemical_formula_structural   Sr(AlS2)2
_chemical_formula_sum   'Sr8 Al16 S32'
_cell_volume   1336.29745534
_cell_formula_units_Z   8
loop_
 _symmetry_equiv_pos_site_id
 _symmetry_equiv_pos_as_xyz
  1  'x, y, z'
loop_
 _atom_site_type_symbol
 _atom_site_label
 _atom_site_symmetry_multiplicity
 _atom_site_fract_x
 _atom_site_fract_y
 _atom_site_fract_z
 _atom_site_occupancy
  Sr  Sr0  1  0.75000000  0.75000000  0.75000000  1.0
  Sr  Sr1  1  0.50000000  0.50000000  -0.50000000  1.0
  Sr  Sr2  1  0.25000000  1.25000000  0.25000000  1.0
  Sr  Sr3  1  1.00000000  0.00000000  -0.00000000  1.0
  Sr  Sr4  1  0.49854581  0.49854581  0.00145419  1.0
  Sr  Sr5  1  0.00145419  1.00145419  0.49854581  1.0
  Sr  Sr6  1  0.75145419  0.75145419  0.24854581  1.0
  Sr  Sr7  1  1.24854581  0.24854581  -0.24854581  1.0
  Al  Al8  1  0.26240697  0.98792324  0.59295739  1.0
  Al  Al9  1  -0.01207676  1.26240697  0.15671240  1.0
  Al  Al10  1  0.59295739  1.15671240  0.26240697  1.0
  Al  Al11  1  0.15671240  1.59295739  -0.01207676  1.0
  Al  Al12  1  -0.01240697  1.26207676  0.65704261  1.0
  Al  Al13  1  1.26207676  -0.01240697  0.09328760  1.0
  Al  Al14  1  0.65704261  0.09328760  -0.01240697  1.0
  Al  Al15  1  0.09328760  0.65704261  1.26207676  1.0
  Al  Al16  1  0.49029819  0.76060119  0.23328133  1.0
  Al  Al17  1  0.76060119  0.49029819  -0.48418071  1.0
  Al  Al18  1  0.23328133  0.51581929  0.49029819  1.0
  Al  Al19  1  -0.48418071  1.23328133  0.76060119  1.0
  Al  Al20  1  0.75970181  0.48939881  0.01671867  1.0
  Al  Al21  1  0.48939881  0.75970181  0.73418071  1.0
  Al  Al22  1  0.01671867  0.73418071  0.75970181  1.0
  Al  Al23  1  0.73418071  0.01671867  0.48939881  1.0
  S  S24  1  1.04334825  0.54492965  -0.29289326  1.0
  S  S25  1  0.54492965  1.04334825  0.70461536  1.0
  S  S26  1  0.70710674  0.70461536  0.04334825  1.0
  S  S27  1  0.70461536  0.70710674  0.54492965  1.0
  S  S28  1  0.20665175  0.70507035  0.54289326  1.0
  S  S29  1  -0.29492965  1.20665175  0.54538464  1.0
  S  S30  1  0.54289326  0.54538464  0.20665175  1.0
  S  S31  1  0.54538464  0.54289326  -0.29492965  1.0
  S  S32  1  0.04289349  1.54457670  0.20718383  1.0
  S  S33  1  0.54457670  1.04289349  0.20534598  1.0
  S  S34  1  0.20718383  1.20534598  0.04289349  1.0
  S  S35  1  0.20534598  1.20718383  0.54457670  1.0
  S  S36  1  0.20710651  0.70542330  1.04281617  1.0
  S  S37  1  0.70542330  0.20710651  0.04465402  1.0
  S  S38  1  1.04281617  0.04465402  0.20710651  1.0
  S  S39  1  0.04465402  1.04281617  0.70542330  1.0
  S  S40  1  0.96130082  0.28732917  -0.01877269  1.0
  S  S41  1  0.28732917  0.96130082  0.77014270  1.0
  S  S42  1  -0.01877269  0.77014270  0.96130082  1.0
  S  S43  1  0.77014270  -0.01877269  0.28732917  1.0
  S  S44  1  0.28869918  0.96267083  0.26877269  1.0
  S  S45  1  -0.03732917  1.28869918  0.47985730  1.0
  S  S46  1  0.26877269  1.47985730  0.28869918  1.0
  S  S47  1  0.47985730  1.26877269  -0.03732917  1.0
  S  S48  1  -0.21346698  1.46512950  0.31409525  1.0
  S  S49  1  0.46512950  0.78653302  0.43424223  1.0
  S  S50  1  0.31409525  1.43424223  -0.21346698  1.0
  S  S51  1  0.43424223  1.31409525  0.46512950  1.0
  S  S52  1  0.46346698  0.78487050  0.93590475  1.0
  S  S53  1  0.78487050  0.46346698  -0.18424223  1.0
  S  S54  1  0.93590475  -0.18424223  0.46346698  1.0
  S  S55  1  -0.18424223  0.93590475  0.78487050  1.0
