# generated using pymatgen
data_Ca5Ge3O11
_symmetry_space_group_name_H-M   'P 1'
_cell_length_a   11.14784160
_cell_length_b   7.05398706
_cell_length_c   7.05243305
_cell_angle_alpha   77.60037294
_cell_angle_beta   84.79159753
_cell_angle_gamma   84.92987683
_symmetry_Int_Tables_number   1
_chemical_formula_structural   Ca5Ge3O11
_chemical_formula_sum   'Ca10 Ge6 O22'
_cell_volume   538.05318251
_cell_formula_units_Z   2
loop_
 _symmetry_equiv_pos_site_id
 _symmetry_equiv_pos_as_xyz
  1  'x, y, z'
loop_
 _atom_site_type_symbol
 _atom_site_label
 _atom_site_symmetry_multiplicity
 _atom_site_fract_x
 _atom_site_fract_y
 _atom_site_fract_z
 _atom_site_occupancy
  Ca  Ca0  1  -0.76189257  -0.58470528  -0.95882190  1.0
  Ca  Ca1  1  -0.23810743  -0.41529472  -0.04117810  1.0
  Ca  Ca2  1  -1.00048440  -0.20260594  -0.79617021  1.0
  Ca  Ca3  1  0.00048440  -0.79739406  -0.20382979  1.0
  Ca  Ca4  1  -0.76002308  -0.95737355  -0.58229956  1.0
  Ca  Ca5  1  -0.23997692  -0.04262645  -0.41770044  1.0
  Ca  Ca6  1  -0.75710927  -0.48124987  -0.48522710  1.0
  Ca  Ca7  1  -0.24289073  -0.51875013  -0.51477290  1.0
  Ca  Ca8  1  -0.50078740  -0.82193978  -0.17882147  1.0
  Ca  Ca9  1  -0.49921260  -0.17806022  -0.82117853  1.0
  Ge  Ge10  1  -0.26714011  -0.93709108  -0.94039142  1.0
  Ge  Ge11  1  -0.73285989  -0.06290892  -0.05960858  1.0
  Ge  Ge12  1  -0.46403070  -0.68686802  -0.68779823  1.0
  Ge  Ge13  1  -0.53596930  -0.31313198  -0.31220177  1.0
  Ge  Ge14  1  -0.98369540  -0.29018042  -0.29120196  1.0
  Ge  Ge15  1  -0.01630460  -0.70981958  -0.70879804  1.0
  O  O16  1  -0.67099501  -0.91971599  -0.91766066  1.0
  O  O17  1  -0.32900499  -0.08028401  -0.08233934  1.0
  O  O18  1  -0.79303049  -0.26865040  -0.91208963  1.0
  O  O19  1  -0.20696951  -0.73134960  -0.08791037  1.0
  O  O20  1  -0.96706180  -0.86717108  -0.86893236  1.0
  O  O21  1  -0.03293820  -0.13282892  -0.13106764  1.0
  O  O22  1  -0.42482654  -0.85234732  -0.85478426  1.0
  O  O23  1  -0.57517346  -0.14765268  -0.14521574  1.0
  O  O24  1  -0.39093332  -0.46893858  -0.78425175  1.0
  O  O25  1  -0.60906668  -0.53106142  -0.21574825  1.0
  O  O26  1  -0.62148658  -0.66133958  -0.66099506  1.0
  O  O27  1  -0.37851342  -0.33866042  -0.33900494  1.0
  O  O28  1  -0.87395383  -0.64812549  -0.64604022  1.0
  O  O29  1  -0.12604617  -0.35187451  -0.35395978  1.0
  O  O30  1  -0.89586616  -0.19888736  -0.51153359  1.0
  O  O31  1  -0.10413384  -0.80111264  -0.48846641  1.0
  O  O32  1  -0.39158087  -0.78473386  -0.46976403  1.0
  O  O33  1  -0.60841913  -0.21526614  -0.53023597  1.0
  O  O34  1  -0.79242808  -0.91510587  -0.26527447  1.0
  O  O35  1  -0.20757192  -0.08489413  -0.73472553  1.0
  O  O36  1  -0.89609193  -0.51085752  -0.20184397  1.0
  O  O37  1  -0.10390807  -0.48914248  -0.79815603  1.0
