# generated using pymatgen
data_CuAgSe
_symmetry_space_group_name_H-M   'P 1'
_cell_length_a   4.15098426
_cell_length_b   4.15309701
_cell_length_c   6.23789920
_cell_angle_alpha   90.00000000
_cell_angle_beta   90.00000000
_cell_angle_gamma   90.00000000
_symmetry_Int_Tables_number   1
_chemical_formula_structural   CuAgSe
_chemical_formula_sum   'Cu2 Ag2 Se2'
_cell_volume   107.53789068
_cell_formula_units_Z   2
loop_
 _symmetry_equiv_pos_site_id
 _symmetry_equiv_pos_as_xyz
  1  'x, y, z'
loop_
 _atom_site_type_symbol
 _atom_site_label
 _atom_site_symmetry_multiplicity
 _atom_site_fract_x
 _atom_site_fract_y
 _atom_site_fract_z
 _atom_site_occupancy
  Cu  Cu0  1  0.50000000  0.00000000  -0.00009262  1.0
  Cu  Cu1  1  0.00000000  0.50000000  1.00009262  1.0
  Ag  Ag2  1  0.00000000  0.00000000  0.30651772  1.0
  Ag  Ag3  1  0.50000000  0.50000000  0.69348228  1.0
  Se  Se4  1  0.00000000  0.00000000  0.74788710  1.0
  Se  Se5  1  0.50000000  0.50000000  0.25211290  1.0
