# generated using pymatgen
data_H12W3C4NCl9
_symmetry_space_group_name_H-M   'P 1'
_cell_length_a   11.25063952
_cell_length_b   11.25063952
_cell_length_c   8.90771819
_cell_angle_alpha   90.00000000
_cell_angle_beta   90.00000000
_cell_angle_gamma   120.00000000
_symmetry_Int_Tables_number   1
_chemical_formula_structural   H12W3C4NCl9
_chemical_formula_sum   'H24 W6 C8 N2 Cl18'
_cell_volume   976.45339685
_cell_formula_units_Z   2
loop_
 _symmetry_equiv_pos_site_id
 _symmetry_equiv_pos_as_xyz
  1  'x, y, z'
loop_
 _atom_site_type_symbol
 _atom_site_label
 _atom_site_symmetry_multiplicity
 _atom_site_fract_x
 _atom_site_fract_y
 _atom_site_fract_z
 _atom_site_occupancy
  H  H0  1  0.48815411  0.13606334  0.67150637  1.0
  H  H1  1  0.64790923  0.51184589  0.67150637  1.0
  H  H2  1  0.86393666  0.35209077  0.67150637  1.0
  H  H3  1  0.48815411  0.35209077  0.67150637  1.0
  H  H4  1  0.86393666  0.51184589  0.67150637  1.0
  H  H5  1  0.64790923  0.13606334  0.67150637  1.0
  H  H6  1  0.51184589  0.86393666  0.32849363  1.0
  H  H7  1  0.35209077  0.48815411  0.32849363  1.0
  H  H8  1  0.13606334  0.64790923  0.32849363  1.0
  H  H9  1  0.51184589  0.64790923  0.32849363  1.0
  H  H10  1  0.13606334  0.48815411  0.32849363  1.0
  H  H11  1  0.35209077  0.86393666  0.32849363  1.0
  H  H12  1  0.59475677  0.18951354  0.50705141  1.0
  H  H13  1  0.59475677  0.40524323  0.50705141  1.0
  H  H14  1  0.81048646  0.40524323  0.50705141  1.0
  H  H15  1  0.40524323  0.81048646  0.49294859  1.0
  H  H16  1  0.40524323  0.59475677  0.49294859  1.0
  H  H17  1  0.18951354  0.59475677  0.49294859  1.0
  H  H18  1  0.71984538  0.43969075  0.89458057  1.0
  H  H19  1  0.71984538  0.28015462  0.89458057  1.0
  H  H20  1  0.56030925  0.28015462  0.89458057  1.0
  H  H21  1  0.28015462  0.56030925  0.10541943  1.0
  H  H22  1  0.28015462  0.71984538  0.10541943  1.0
  H  H23  1  0.43969075  0.71984538  0.10541943  1.0
  W  W24  1  0.91178789  0.82357577  0.12262180  1.0
  W  W25  1  0.91178789  0.08821211  0.12262180  1.0
  W  W26  1  0.17642423  0.08821211  0.12262180  1.0
  W  W27  1  0.08821211  0.17642423  0.87737820  1.0
  W  W28  1  0.08821211  0.91178789  0.87737820  1.0
  W  W29  1  0.82357577  0.91178789  0.87737820  1.0
  C  C30  1  0.59391793  0.18783585  0.62994883  1.0
  C  C31  1  0.59391793  0.40608207  0.62994883  1.0
  C  C32  1  0.81216415  0.40608207  0.62994883  1.0
  C  C33  1  0.40608207  0.81216415  0.37005117  1.0
  C  C34  1  0.40608207  0.59391793  0.37005117  1.0
  C  C35  1  0.18783585  0.59391793  0.37005117  1.0
  C  C36  1  0.66666667  0.33333333  0.85493971  1.0
  C  C37  1  0.33333333  0.66666667  0.14506029  1.0
  N  N38  1  0.66666667  0.33333333  0.68628298  1.0
  N  N39  1  0.33333333  0.66666667  0.31371702  1.0
  Cl  Cl40  1  0.09848526  0.90151474  0.30170268  1.0
  Cl  Cl41  1  0.80302949  0.90151474  0.30170268  1.0
  Cl  Cl42  1  0.09848526  0.19697051  0.30170268  1.0
  Cl  Cl43  1  0.90151474  0.09848526  0.69829732  1.0
  Cl  Cl44  1  0.19697051  0.09848526  0.69829732  1.0
  Cl  Cl45  1  0.90151474  0.80302949  0.69829732  1.0
  Cl  Cl46  1  0.69162757  0.69162757  0.00000000  1.0
  Cl  Cl47  1  0.00000000  0.30837243  0.00000000  1.0
  Cl  Cl48  1  0.30837243  0.00000000  0.00000000  1.0
  Cl  Cl49  1  0.69162757  0.00000000  0.00000000  1.0
  Cl  Cl50  1  0.30837243  0.30837243  0.00000000  1.0
  Cl  Cl51  1  -0.00000000  0.69162757  0.00000000  1.0
  Cl  Cl52  1  0.81005164  0.62010329  0.28745600  1.0
  Cl  Cl53  1  0.81005164  0.18994836  0.28745600  1.0
  Cl  Cl54  1  0.37989671  0.18994836  0.28745600  1.0
  Cl  Cl55  1  0.18994836  0.37989671  0.71254400  1.0
  Cl  Cl56  1  0.18994836  0.81005164  0.71254400  1.0
  Cl  Cl57  1  0.62010329  0.81005164  0.71254400  1.0
