# generated using pymatgen
data_CaFe3P3O13
_symmetry_space_group_name_H-M   'P 1'
_cell_length_a   7.69859522
_cell_length_b   6.42841976
_cell_length_c   10.28575332
_cell_angle_alpha   90.00000000
_cell_angle_beta   99.90644624
_cell_angle_gamma   90.00000000
_symmetry_Int_Tables_number   1
_chemical_formula_structural   CaFe3P3O13
_chemical_formula_sum   'Ca2 Fe6 P6 O26'
_cell_volume   501.45009454
_cell_formula_units_Z   2
loop_
 _symmetry_equiv_pos_site_id
 _symmetry_equiv_pos_as_xyz
  1  'x, y, z'
loop_
 _atom_site_type_symbol
 _atom_site_label
 _atom_site_symmetry_multiplicity
 _atom_site_fract_x
 _atom_site_fract_y
 _atom_site_fract_z
 _atom_site_occupancy
  P  P0  1  0.78422979  0.25000000  0.50779060  1.0
  P  P1  1  0.21577021  0.75000000  0.49220940  1.0
  P  P2  1  0.31606934  0.25000000  0.88612325  1.0
  P  P3  1  0.68393066  0.75000000  0.11387675  1.0
  P  P4  1  0.26405781  0.25000000  0.23873783  1.0
  P  P5  1  0.73594219  0.75000000  0.76126217  1.0
  O  O6  1  0.20958435  0.45109171  0.90372935  1.0
  O  O7  1  0.20958435  0.04890829  0.90372935  1.0
  O  O8  1  0.79041565  0.95109171  0.09627065  1.0
  O  O9  1  0.79041565  0.54890829  0.09627065  1.0
  O  O10  1  0.87474818  0.25000000  0.90721416  1.0
  O  O11  1  0.12525182  0.75000000  0.09278584  1.0
  O  O12  1  0.97599352  0.25000000  0.58676350  1.0
  O  O13  1  0.02400648  0.75000000  0.41323650  1.0
  O  O14  1  0.08844186  0.25000000  0.13316112  1.0
  O  O15  1  0.91155814  0.75000000  0.86683888  1.0
  O  O16  1  0.36115097  0.25000000  0.74261608  1.0
  O  O17  1  0.63884903  0.75000000  0.25738392  1.0
  O  O18  1  0.65569382  0.25000000  0.60664074  1.0
  O  O19  1  0.34430618  0.75000000  0.39335926  1.0
  O  O20  1  0.21222904  0.25000000  0.37674668  1.0
  O  O21  1  0.78777096  0.75000000  0.62325332  1.0
  O  O22  1  0.75136603  0.43928564  0.41160671  1.0
  O  O23  1  0.75136603  0.06071436  0.41160671  1.0
  O  O24  1  0.24863397  0.93928564  0.58839329  1.0
  O  O25  1  0.24863397  0.56071436  0.58839329  1.0
  O  O26  1  0.50370130  0.25000000  0.96919684  1.0
  O  O27  1  0.49629870  0.75000000  0.03080316  1.0
  O  O28  1  0.62007690  0.93843919  0.78572695  1.0
  O  O29  1  0.62007690  0.56156081  0.78572695  1.0
  O  O30  1  0.37992310  0.43843919  0.21427305  1.0
  O  O31  1  0.37992310  0.06156081  0.21427305  1.0
  Ca  Ca32  1  0.65525680  0.25000000  0.19294730  1.0
  Ca  Ca33  1  0.34474320  0.75000000  0.80705270  1.0
  Fe  Fe34  1  0.21209031  0.25000000  0.56249277  1.0
  Fe  Fe35  1  0.78790969  0.75000000  0.43750723  1.0
  Fe  Fe36  1  0.64822151  0.25000000  0.79521251  1.0
  Fe  Fe37  1  0.35177849  0.75000000  0.20478749  1.0
  Fe  Fe38  1  0.00000000  0.50000000  0.00000000  1.0
  Fe  Fe39  1  0.00000000  0.00000000  0.00000000  1.0
