# generated using pymatgen
data_K2CdN12
_symmetry_space_group_name_H-M   'P 1'
_cell_length_a   7.43982931
_cell_length_b   7.43982931
_cell_length_c   9.40344480
_cell_angle_alpha   94.14765029
_cell_angle_beta   85.85234971
_cell_angle_gamma   149.60213346
_symmetry_Int_Tables_number   1
_chemical_formula_structural   K2CdN12
_chemical_formula_sum   'K2 Cd1 N12'
_cell_volume   262.62836909
_cell_formula_units_Z   1
loop_
 _symmetry_equiv_pos_site_id
 _symmetry_equiv_pos_as_xyz
  1  'x, y, z'
loop_
 _atom_site_type_symbol
 _atom_site_label
 _atom_site_symmetry_multiplicity
 _atom_site_fract_x
 _atom_site_fract_y
 _atom_site_fract_z
 _atom_site_occupancy
  K  K0  1  0.17039917  -0.17039917  0.17987578  1.0
  K  K1  1  0.82960083  0.17039917  0.82012422  1.0
  Cd  Cd2  1  0.00000000  -0.00000000  0.50000000  1.0
  N  N3  1  0.60088366  0.39911634  0.44069405  1.0
  N  N4  1  0.39911634  -0.39911634  0.55930595  1.0
  N  N5  1  0.65796996  0.34203004  0.52957848  1.0
  N  N6  1  0.34203004  -0.34203004  0.47042152  1.0
  N  N7  1  0.71204079  0.28795921  0.61406734  1.0
  N  N8  1  0.28795921  -0.28795921  0.38593266  1.0
  N  N9  1  -0.03301750  0.03301750  0.25596783  1.0
  N  N10  1  0.03301750  -0.03301750  0.74403217  1.0
  N  N11  1  0.90154446  0.09845554  0.18606730  1.0
  N  N12  1  0.09845554  -0.09845554  0.81393270  1.0
  N  N13  1  0.83861517  0.16138483  0.11276933  1.0
  N  N14  1  0.16138483  -0.16138483  0.88723067  1.0
