# generated using pymatgen
data_Li2Sn(HO)6
_symmetry_space_group_name_H-M   'P 1'
_cell_length_a   5.21072961
_cell_length_b   5.50109048
_cell_length_c   10.02173511
_cell_angle_alpha   90.00000000
_cell_angle_beta   113.87293162
_cell_angle_gamma   90.00000000
_symmetry_Int_Tables_number   1
_chemical_formula_structural   Li2Sn(HO)6
_chemical_formula_sum   'Li4 Sn2 H12 O12'
_cell_volume   262.69267117
_cell_formula_units_Z   2
loop_
 _symmetry_equiv_pos_site_id
 _symmetry_equiv_pos_as_xyz
  1  'x, y, z'
loop_
 _atom_site_type_symbol
 _atom_site_label
 _atom_site_symmetry_multiplicity
 _atom_site_fract_x
 _atom_site_fract_y
 _atom_site_fract_z
 _atom_site_occupancy
  Li  Li0  1  0.55585246  0.24649921  0.15316710  1.0
  Li  Li1  1  0.55585246  0.25350079  0.65316710  1.0
  Li  Li2  1  0.44414754  0.74649921  0.34683290  1.0
  Li  Li3  1  0.44414754  0.75350079  0.84683290  1.0
  Sn  Sn4  1  -0.00000000  0.50000000  0.50000000  1.0
  Sn  Sn5  1  0.00000000  0.00000000  0.00000000  1.0
  H  H6  1  0.94723574  0.74865444  0.26757155  1.0
  H  H7  1  0.94723574  0.75134556  0.76757155  1.0
  H  H8  1  0.05276426  0.24865444  0.23242845  1.0
  H  H9  1  0.05276426  0.25134556  0.73242845  1.0
  H  H10  1  0.49833312  0.32637951  0.37609162  1.0
  H  H11  1  0.49833312  0.17362049  0.87609162  1.0
  H  H12  1  0.50166688  0.82637951  0.12390838  1.0
  H  H13  1  0.50166688  0.67362049  0.62390838  1.0
  H  H14  1  0.15775460  0.06755249  0.42847110  1.0
  H  H15  1  0.15775460  0.43244751  0.92847110  1.0
  H  H16  1  0.84224540  0.56755249  0.07152890  1.0
  H  H17  1  0.84224540  0.93244751  0.57152890  1.0
  O  O18  1  0.90954072  0.24951494  0.13143984  1.0
  O  O19  1  0.90954072  0.25048506  0.63143984  1.0
  O  O20  1  0.09045928  0.74951494  0.36856016  1.0
  O  O21  1  0.09045928  0.75048506  0.86856016  1.0
  O  O22  1  0.61102974  0.41608632  0.33267443  1.0
  O  O23  1  0.61102974  0.08391368  0.83267443  1.0
  O  O24  1  0.38897026  0.91608632  0.16732557  1.0
  O  O25  1  0.38897026  0.58391368  0.66732557  1.0
  O  O26  1  0.23799873  0.23390549  0.44714835  1.0
  O  O27  1  0.23799873  0.26609451  0.94714835  1.0
  O  O28  1  0.76200127  0.73390549  0.05285165  1.0
  O  O29  1  0.76200127  0.76609451  0.55285165  1.0
