# generated using pymatgen
data_Al6Fe
_symmetry_space_group_name_H-M   'P 1'
_cell_length_a   4.92665732
_cell_length_b   4.92665732
_cell_length_c   8.77110940
_cell_angle_alpha   90.00000000
_cell_angle_beta   90.00000000
_cell_angle_gamma   82.20829673
_symmetry_Int_Tables_number   1
_chemical_formula_structural   Al6Fe
_chemical_formula_sum   'Al12 Fe2'
_cell_volume   210.92642092
_cell_formula_units_Z   2
loop_
 _symmetry_equiv_pos_site_id
 _symmetry_equiv_pos_as_xyz
  1  'x, y, z'
loop_
 _atom_site_type_symbol
 _atom_site_label
 _atom_site_symmetry_multiplicity
 _atom_site_fract_x
 _atom_site_fract_y
 _atom_site_fract_z
 _atom_site_occupancy
  Al  Al0  1  -0.17716948  1.82270886  0.40001125  1.0
  Al  Al1  1  0.82270886  0.82283052  0.90001125  1.0
  Al  Al2  1  -0.82270886  1.17716948  0.40001125  1.0
  Al  Al3  1  0.17716948  0.17729114  0.90001125  1.0
  Al  Al4  1  -0.10867269  1.47198487  0.14997006  1.0
  Al  Al5  1  0.47198487  0.89132731  0.64997006  1.0
  Al  Al6  1  -0.47198487  1.10867269  0.14997006  1.0
  Al  Al7  1  0.10867269  0.52801513  0.64997006  1.0
  Al  Al8  1  0.35312591  0.64687409  -0.00126650  1.0
  Al  Al9  1  -0.35312591  1.35312591  0.49873350  1.0
  Al  Al10  1  0.35324352  0.64675648  0.30126119  1.0
  Al  Al11  1  -0.35324352  1.35324352  0.80126119  1.0
  Fe  Fe12  1  0.03880459  0.96119541  0.15004268  1.0
  Fe  Fe13  1  -0.03880459  1.03880459  0.65004268  1.0
