# generated using pymatgen
data_Cr5S6
_symmetry_space_group_name_H-M   'P 1'
_cell_length_a   6.01551889
_cell_length_b   6.01551889
_cell_length_c   11.33700968
_cell_angle_alpha   90.00000000
_cell_angle_beta   90.00000000
_cell_angle_gamma   120.00000000
_symmetry_Int_Tables_number   1
_chemical_formula_structural   Cr5S6
_chemical_formula_sum   'Cr10 S12'
_cell_volume   355.28374584
_cell_formula_units_Z   2
loop_
 _symmetry_equiv_pos_site_id
 _symmetry_equiv_pos_as_xyz
  1  'x, y, z'
loop_
 _atom_site_type_symbol
 _atom_site_label
 _atom_site_symmetry_multiplicity
 _atom_site_fract_x
 _atom_site_fract_y
 _atom_site_fract_z
 _atom_site_occupancy
  Cr  Cr0  1  -0.00000000  -0.00000000  0.00000000  1.0
  Cr  Cr1  1  0.00000000  0.00000000  0.50000000  1.0
  Cr  Cr2  1  0.33333333  0.66666667  0.01082516  1.0
  Cr  Cr3  1  0.33333333  0.66666667  0.48917484  1.0
  Cr  Cr4  1  0.66666667  0.33333333  0.51082516  1.0
  Cr  Cr5  1  0.66666667  0.33333333  0.98917484  1.0
  Cr  Cr6  1  0.66666667  0.33333333  0.25000000  1.0
  Cr  Cr7  1  0.33333333  0.66666667  0.75000000  1.0
  Cr  Cr8  1  0.00000000  -0.00000000  0.25000000  1.0
  Cr  Cr9  1  0.00000000  0.00000000  0.75000000  1.0
  S  S10  1  0.67397284  0.66194183  0.12160539  1.0
  S  S11  1  0.67397284  0.01203101  0.37839461  1.0
  S  S12  1  0.66194183  0.67397284  0.62160539  1.0
  S  S13  1  0.66194183  0.98796899  0.87839461  1.0
  S  S14  1  0.98796899  0.66194183  0.37839461  1.0
  S  S15  1  0.98796899  0.32602716  0.12160539  1.0
  S  S16  1  0.33805817  0.32602716  0.37839461  1.0
  S  S17  1  0.33805817  0.01203101  0.12160539  1.0
  S  S18  1  0.32602716  0.98796899  0.62160539  1.0
  S  S19  1  0.32602716  0.33805817  0.87839461  1.0
  S  S20  1  0.01203101  0.67397284  0.87839461  1.0
  S  S21  1  0.01203101  0.33805817  0.62160539  1.0
