# generated using pymatgen
data_HfV2
_symmetry_space_group_name_H-M   'P 1'
_cell_length_a   5.21042000
_cell_length_b   5.21042000
_cell_length_c   5.21042000
_cell_angle_alpha   122.76920209
_cell_angle_beta   119.91852620
_cell_angle_gamma   87.70616237
_symmetry_Int_Tables_number   1
_chemical_formula_structural   HfV2
_chemical_formula_sum   'Hf2 V4'
_cell_volume   97.82714604
_cell_formula_units_Z   2
loop_
 _symmetry_equiv_pos_site_id
 _symmetry_equiv_pos_as_xyz
  1  'x, y, z'
loop_
 _atom_site_type_symbol
 _atom_site_label
 _atom_site_symmetry_multiplicity
 _atom_site_fract_x
 _atom_site_fract_y
 _atom_site_fract_z
 _atom_site_occupancy
  Hf  Hf0  1  0.37396015  0.62396015  0.75000000  1.0
  Hf  Hf1  1  1.62603985  1.37603985  1.25000000  1.0
  V  V2  1  -0.00000000  -0.00000000  -0.00000000  1.0
  V  V3  1  0.50000000  0.00000000  0.50000000  1.0
  V  V4  1  1.00000000  0.50000000  1.00000000  1.0
  V  V5  1  1.00000000  1.00000000  1.50000000  1.0
