# generated using pymatgen
data_Na2ReO3
_symmetry_space_group_name_H-M   'P 1'
_cell_length_a   5.64418420
_cell_length_b   5.64418420
_cell_length_c   12.39153524
_cell_angle_alpha   90.00000000
_cell_angle_beta   90.00000000
_cell_angle_gamma   120.00000000
_symmetry_Int_Tables_number   1
_chemical_formula_structural   Na2ReO3
_chemical_formula_sum   'Na8 Re4 O12'
_cell_volume   341.86772733
_cell_formula_units_Z   4
loop_
 _symmetry_equiv_pos_site_id
 _symmetry_equiv_pos_as_xyz
  1  'x, y, z'
loop_
 _atom_site_type_symbol
 _atom_site_label
 _atom_site_symmetry_multiplicity
 _atom_site_fract_x
 _atom_site_fract_y
 _atom_site_fract_z
 _atom_site_occupancy
  Na  Na0  1  0.33333333  0.66666667  0.50000000  1.0
  Na  Na1  1  0.33333333  0.66666667  0.00000000  1.0
  Na  Na2  1  0.66666667  0.33333333  0.50000000  1.0
  Na  Na3  1  0.66666667  0.33333333  0.00000000  1.0
  Na  Na4  1  0.33333333  0.66666667  0.25000000  1.0
  Na  Na5  1  0.33333333  0.66666667  0.75000000  1.0
  Na  Na6  1  0.66666667  0.33333333  0.25000000  1.0
  Na  Na7  1  0.66666667  0.33333333  0.75000000  1.0
  Re  Re8  1  0.00000000  0.00000000  0.34374619  1.0
  Re  Re9  1  0.00000000  0.00000000  0.15625381  1.0
  Re  Re10  1  0.00000000  0.00000000  0.84374619  1.0
  Re  Re11  1  0.00000000  0.00000000  0.65625381  1.0
  O  O12  1  0.68360459  0.68360459  0.37561337  1.0
  O  O13  1  0.68360459  0.68360459  0.12438663  1.0
  O  O14  1  0.68360459  0.00000000  0.87561337  1.0
  O  O15  1  0.68360459  0.00000000  0.62438663  1.0
  O  O16  1  0.00000000  0.68360459  0.87561337  1.0
  O  O17  1  0.00000000  0.68360459  0.62438663  1.0
  O  O18  1  -0.00000000  0.31639541  0.37561337  1.0
  O  O19  1  -0.00000000  0.31639541  0.12438663  1.0
  O  O20  1  0.31639541  0.31639541  0.87561337  1.0
  O  O21  1  0.31639541  0.31639541  0.62438663  1.0
  O  O22  1  0.31639541  0.00000000  0.37561337  1.0
  O  O23  1  0.31639541  0.00000000  0.12438663  1.0
