# generated using pymatgen
data_Cs3Lu2Br9
_symmetry_space_group_name_H-M   'P 1'
_cell_length_a   10.40841958
_cell_length_b   10.40841958
_cell_length_c   10.40841958
_cell_angle_alpha   82.83835705
_cell_angle_beta   82.83835705
_cell_angle_gamma   82.83835705
_symmetry_Int_Tables_number   1
_chemical_formula_structural   Cs3Lu2Br9
_chemical_formula_sum   'Cs6 Lu4 Br18'
_cell_volume   1103.23149839
_cell_formula_units_Z   2
loop_
 _symmetry_equiv_pos_site_id
 _symmetry_equiv_pos_as_xyz
  1  'x, y, z'
loop_
 _atom_site_type_symbol
 _atom_site_label
 _atom_site_symmetry_multiplicity
 _atom_site_fract_x
 _atom_site_fract_y
 _atom_site_fract_z
 _atom_site_occupancy
  Cs  Cs0  1  0.58870365  0.25000000  -0.08870365  1.0
  Cs  Cs1  1  1.08870365  -0.58870365  -0.25000000  1.0
  Cs  Cs2  1  0.75000000  0.08870365  -0.58870365  1.0
  Cs  Cs3  1  0.25000000  0.91129635  -0.41129635  1.0
  Cs  Cs4  1  0.41129635  -0.25000000  0.08870365  1.0
  Cs  Cs5  1  0.91129635  -0.41129635  0.25000000  1.0
  Lu  Lu6  1  0.34515169  0.34515169  -0.65484831  1.0
  Lu  Lu7  1  0.84515169  0.84515169  -0.15484831  1.0
  Lu  Lu8  1  1.15484831  1.15484831  0.15484831  1.0
  Lu  Lu9  1  0.65484831  0.65484831  -0.34515169  1.0
  Br  Br10  1  0.23527973  0.57706241  -0.58775091  1.0
  Br  Br11  1  0.73527973  -0.08775091  0.07706241  1.0
  Br  Br12  1  1.08775091  -0.07706241  -0.73527973  1.0
  Br  Br13  1  0.58775091  0.76472027  -0.57706241  1.0
  Br  Br14  1  0.42293759  0.58775091  -0.23527973  1.0
  Br  Br15  1  0.92293759  -0.73527973  0.08775091  1.0
  Br  Br16  1  0.76472027  0.42293759  -0.41224909  1.0
  Br  Br17  1  0.26472027  0.08775091  -0.07706241  1.0
  Br  Br18  1  0.41224909  0.23527973  -0.42293759  1.0
  Br  Br19  1  0.91224909  0.07706241  -0.26472027  1.0
  Br  Br20  1  1.07706241  -0.26472027  -0.08775091  1.0
  Br  Br21  1  0.57706241  0.41224909  -0.76472027  1.0
  Br  Br22  1  1.09512608  1.25000000  0.40487392  1.0
  Br  Br23  1  0.59512608  0.90487392  -0.25000000  1.0
  Br  Br24  1  0.75000000  0.59512608  -0.09512608  1.0
  Br  Br25  1  1.25000000  1.40487392  0.09512608  1.0
  Br  Br26  1  0.90487392  0.75000000  -0.40487392  1.0
  Br  Br27  1  1.40487392  1.09512608  0.25000000  1.0
