# generated using pymatgen
data_LiZnPS4
_symmetry_space_group_name_H-M   'P 1'
_cell_length_a   6.12887390
_cell_length_b   6.12887390
_cell_length_c   6.12887390
_cell_angle_alpha   123.37789526
_cell_angle_beta   123.37789526
_cell_angle_gamma   84.24256178
_symmetry_Int_Tables_number   1
_chemical_formula_structural   LiZnPS4
_chemical_formula_sum   'Li1 Zn1 P1 S4'
_cell_volume   153.62978455
_cell_formula_units_Z   1
loop_
 _symmetry_equiv_pos_site_id
 _symmetry_equiv_pos_as_xyz
  1  'x, y, z'
loop_
 _atom_site_type_symbol
 _atom_site_label
 _atom_site_symmetry_multiplicity
 _atom_site_fract_x
 _atom_site_fract_y
 _atom_site_fract_z
 _atom_site_occupancy
  Li  Li0  1  0.50000000  0.50000000  1.00000000  1.0
  Zn  Zn1  1  0.00000000  0.00000000  0.00000000  1.0
  P  P2  1  0.25000000  0.75000000  0.50000000  1.0
  S  S3  1  0.34445505  0.85775718  0.93313921  1.0
  S  S4  1  1.14224282  1.07538203  1.48669787  1.0
  S  S5  1  0.92461797  0.41131584  1.06686079  1.0
  S  S6  1  0.58868416  0.65554495  0.51330213  1.0
