# generated using pymatgen
data_La3CoW(SO2)3
_symmetry_space_group_name_H-M   'P 1'
_cell_length_a   9.42051489
_cell_length_b   9.42051489
_cell_length_c   5.56514664
_cell_angle_alpha   90.00000000
_cell_angle_beta   90.00000000
_cell_angle_gamma   120.00000000
_symmetry_Int_Tables_number   1
_chemical_formula_structural   La3CoW(SO2)3
_chemical_formula_sum   'La6 Co2 W2 S6 O12'
_cell_volume   427.71701225
_cell_formula_units_Z   2
loop_
 _symmetry_equiv_pos_site_id
 _symmetry_equiv_pos_as_xyz
  1  'x, y, z'
loop_
 _atom_site_type_symbol
 _atom_site_label
 _atom_site_symmetry_multiplicity
 _atom_site_fract_x
 _atom_site_fract_y
 _atom_site_fract_z
 _atom_site_occupancy
  La  La0  1  0.68513403  0.59553826  0.25000000  1.0
  La  La1  1  0.59553826  0.91040422  0.75000000  1.0
  La  La2  1  0.91040422  0.31486597  0.25000000  1.0
  La  La3  1  0.40446174  0.08959578  0.25000000  1.0
  La  La4  1  0.31486597  0.40446174  0.75000000  1.0
  La  La5  1  0.08959578  0.68513403  0.75000000  1.0
  Co  Co6  1  0.00000000  0.00000000  0.50000000  1.0
  Co  Co7  1  0.00000000  0.00000000  0.00000000  1.0
  W  W8  1  0.33333333  0.66666667  0.25000000  1.0
  W  W9  1  0.66666667  0.33333333  0.75000000  1.0
  S  S10  1  0.04409841  0.83289379  0.25000000  1.0
  S  S11  1  0.83289379  0.78879537  0.75000000  1.0
  S  S12  1  0.78879537  0.95590159  0.25000000  1.0
  S  S13  1  0.16710621  0.21120463  0.25000000  1.0
  S  S14  1  0.95590159  0.16710621  0.75000000  1.0
  S  S15  1  0.21120463  0.04409841  0.75000000  1.0
  O  O16  1  0.36373419  0.83825012  0.47500931  1.0
  O  O17  1  0.36373419  0.83825012  0.02499069  1.0
  O  O18  1  0.83825012  0.47451593  0.97500931  1.0
  O  O19  1  0.83825012  0.47451593  0.52499069  1.0
  O  O20  1  0.47451593  0.63626581  0.47500931  1.0
  O  O21  1  0.47451593  0.63626581  0.02499069  1.0
  O  O22  1  0.16174988  0.52548407  0.47500931  1.0
  O  O23  1  0.16174988  0.52548407  0.02499069  1.0
  O  O24  1  0.63626581  0.16174988  0.97500931  1.0
  O  O25  1  0.63626581  0.16174988  0.52499069  1.0
  O  O26  1  0.52548407  0.36373419  0.97500931  1.0
  O  O27  1  0.52548407  0.36373419  0.52499069  1.0
