# generated using pymatgen
data_La3BN2O3
_symmetry_space_group_name_H-M   'P 1'
_cell_length_a   12.77705479
_cell_length_b   3.72019629
_cell_length_c   11.06356288
_cell_angle_alpha   90.00000000
_cell_angle_beta   90.00000000
_cell_angle_gamma   90.00000000
_symmetry_Int_Tables_number   1
_chemical_formula_structural   La3BN2O3
_chemical_formula_sum   'La12 B4 N8 O12'
_cell_volume   525.88601406
_cell_formula_units_Z   4
loop_
 _symmetry_equiv_pos_site_id
 _symmetry_equiv_pos_as_xyz
  1  'x, y, z'
loop_
 _atom_site_type_symbol
 _atom_site_label
 _atom_site_symmetry_multiplicity
 _atom_site_fract_x
 _atom_site_fract_y
 _atom_site_fract_z
 _atom_site_occupancy
  La  La0  1  0.12738719  0.75000000  0.22464805  1.0
  La  La1  1  0.62738719  0.75000000  0.27535195  1.0
  La  La2  1  0.87261281  0.25000000  0.77535195  1.0
  La  La3  1  0.37261281  0.25000000  0.72464805  1.0
  La  La4  1  0.11530154  0.75000000  0.61096872  1.0
  La  La5  1  0.61530154  0.75000000  0.88903128  1.0
  La  La6  1  0.88469846  0.25000000  0.38903128  1.0
  La  La7  1  0.38469846  0.25000000  0.11096872  1.0
  La  La8  1  0.88360535  0.75000000  0.08248108  1.0
  La  La9  1  0.38360535  0.75000000  0.41751892  1.0
  La  La10  1  0.11639465  0.25000000  0.91751892  1.0
  La  La11  1  0.61639465  0.25000000  0.58248108  1.0
  B  B12  1  0.28997648  0.75000000  0.91804702  1.0
  B  B13  1  0.78997648  0.75000000  0.58195298  1.0
  B  B14  1  0.71002352  0.25000000  0.08195298  1.0
  B  B15  1  0.21002352  0.25000000  0.41804702  1.0
  N  N16  1  0.23822668  0.75000000  0.79995286  1.0
  N  N17  1  0.73822668  0.75000000  0.70004714  1.0
  N  N18  1  0.76177332  0.25000000  0.20004714  1.0
  N  N19  1  0.26177332  0.25000000  0.29995286  1.0
  N  N20  1  0.23223591  0.75000000  0.03182419  1.0
  N  N21  1  0.73223591  0.75000000  0.46817581  1.0
  N  N22  1  0.76776409  0.25000000  0.96817581  1.0
  N  N23  1  0.26776409  0.25000000  0.53182419  1.0
  O  O24  1  0.46572285  0.75000000  0.61023721  1.0
  O  O25  1  0.96572285  0.75000000  0.88976279  1.0
  O  O26  1  0.53427715  0.25000000  0.38976279  1.0
  O  O27  1  0.03427715  0.25000000  0.11023721  1.0
  O  O28  1  0.44598279  0.75000000  0.21081204  1.0
  O  O29  1  0.94598279  0.75000000  0.28918796  1.0
  O  O30  1  0.55401721  0.25000000  0.78918796  1.0
  O  O31  1  0.05401721  0.25000000  0.71081204  1.0
  O  O32  1  0.40288454  0.75000000  0.92179630  1.0
  O  O33  1  0.90288454  0.75000000  0.57820370  1.0
  O  O34  1  0.59711546  0.25000000  0.07820370  1.0
  O  O35  1  0.09711546  0.25000000  0.42179630  1.0
