# generated using pymatgen
data_Ba5P5I3
_symmetry_space_group_name_H-M   'P 1'
_cell_length_a   21.73951925
_cell_length_b   21.73951925
_cell_length_c   9.51810394
_cell_angle_alpha   87.28953295
_cell_angle_beta   92.71046705
_cell_angle_gamma   167.87493252
_symmetry_Int_Tables_number   1
_chemical_formula_structural   Ba5P5I3
_chemical_formula_sum   'Ba10 P10 I6'
_cell_volume   943.78656431
_cell_formula_units_Z   2
loop_
 _symmetry_equiv_pos_site_id
 _symmetry_equiv_pos_as_xyz
  1  'x, y, z'
loop_
 _atom_site_type_symbol
 _atom_site_label
 _atom_site_symmetry_multiplicity
 _atom_site_fract_x
 _atom_site_fract_y
 _atom_site_fract_z
 _atom_site_occupancy
  Ba  Ba0  1  0.86153102  -0.86153102  0.41618574  1.0
  Ba  Ba1  1  1.13846898  -0.13846898  0.58381426  1.0
  Ba  Ba2  1  0.84126237  -0.84126237  0.95369094  1.0
  Ba  Ba3  1  1.15873763  -0.15873763  0.04630906  1.0
  Ba  Ba4  1  0.56045208  -0.56045208  0.79276626  1.0
  Ba  Ba5  1  1.43954792  -0.43954792  0.20723374  1.0
  Ba  Ba6  1  1.45888853  -0.45888853  0.65070416  1.0
  Ba  Ba7  1  0.54111147  -0.54111147  0.34929584  1.0
  Ba  Ba8  1  1.23998634  -0.23998634  0.77734657  1.0
  Ba  Ba9  1  0.76001366  -0.76001366  0.22265343  1.0
  P  P10  1  0.98558759  -0.98558759  0.39553520  1.0
  P  P11  1  1.01441241  -0.01441241  0.60446480  1.0
  P  P12  1  0.93650147  -0.93650147  0.44169531  1.0
  P  P13  1  1.06349853  -0.06349853  0.55830469  1.0
  P  P14  1  0.70950889  -0.70950889  0.97132513  1.0
  P  P15  1  1.29049111  -0.29049111  0.02867487  1.0
  P  P16  1  0.68006935  -0.68006935  0.78001082  1.0
  P  P17  1  1.31993065  -0.31993065  0.21998918  1.0
  P  P18  1  0.63100522  -0.63100522  0.82450703  1.0
  P  P19  1  1.36899478  -0.36899478  0.17549297  1.0
  I  I20  1  0.95016573  -0.95016573  0.93432720  1.0
  I  I21  1  1.04983427  -0.04983427  0.06567280  1.0
  I  I22  1  0.78995494  -0.78995494  0.60614158  1.0
  I  I23  1  1.21004506  -0.21004506  0.39385842  1.0
  I  I24  1  1.37554204  -0.37554204  0.70365410  1.0
  I  I25  1  0.62445796  -0.62445796  0.29634590  1.0
