# generated using pymatgen
data_CrHg5S2O5
_symmetry_space_group_name_H-M   'P 1'
_cell_length_a   9.64400702
_cell_length_b   8.43990990
_cell_length_c   7.25321088
_cell_angle_alpha   69.63768824
_cell_angle_beta   81.08399940
_cell_angle_gamma   84.06286401
_symmetry_Int_Tables_number   1
_chemical_formula_structural   CrHg5S2O5
_chemical_formula_sum   'Cr2 Hg10 S4 O10'
_cell_volume   546.01046059
_cell_formula_units_Z   2
loop_
 _symmetry_equiv_pos_site_id
 _symmetry_equiv_pos_as_xyz
  1  'x, y, z'
loop_
 _atom_site_type_symbol
 _atom_site_label
 _atom_site_symmetry_multiplicity
 _atom_site_fract_x
 _atom_site_fract_y
 _atom_site_fract_z
 _atom_site_occupancy
  Cr  Cr0  1  -0.79741000  -0.86448885  -0.57674672  1.0
  Cr  Cr1  1  -0.20259000  -0.13551115  -0.42325328  1.0
  Hg  Hg2  1  -0.42508315  -0.92670995  -0.84529733  1.0
  Hg  Hg3  1  -0.57491685  -0.07329005  -0.15470267  1.0
  Hg  Hg4  1  -0.14867044  -0.68733963  -0.78351587  1.0
  Hg  Hg5  1  -0.85132956  -0.31266037  -0.21648413  1.0
  Hg  Hg6  1  -0.84591626  -0.38457934  -0.68636726  1.0
  Hg  Hg7  1  -0.15408374  -0.61542066  -0.31363274  1.0
  Hg  Hg8  1  -0.45802512  -0.79423744  -0.37288863  1.0
  Hg  Hg9  1  -0.54197488  -0.20576256  -0.62711137  1.0
  Hg  Hg10  1  -0.50000000  -0.50000000  0.00000000  1.0
  Hg  Hg11  1  0.00000000  0.00000000  0.00000000  1.0
  S  S12  1  -0.69734147  -0.44104828  -0.43174201  1.0
  S  S13  1  -0.30265853  -0.55895172  -0.56825799  1.0
  S  S14  1  -0.98830290  -0.70309417  -0.07603063  1.0
  S  S15  1  -0.01169710  -0.29690583  -0.92396937  1.0
  O  O16  1  -0.65099010  -0.31890844  -0.99040468  1.0
  O  O17  1  -0.34900990  -0.68109156  -0.00959532  1.0
  O  O18  1  -0.80784681  -0.96916624  -0.72580911  1.0
  O  O19  1  -0.19215319  -0.03083376  -0.27419089  1.0
  O  O20  1  -0.64286519  -0.77746779  -0.63344265  1.0
  O  O21  1  -0.35713481  -0.22253221  -0.36655735  1.0
  O  O22  1  -0.19160324  -0.99785635  -0.65880579  1.0
  O  O23  1  -0.80839676  -0.00214365  -0.34119421  1.0
  O  O24  1  -0.92562367  -0.71207129  -0.59839356  1.0
  O  O25  1  -0.07437633  -0.28792871  -0.40160644  1.0
