# generated using pymatgen
data_Sr6B(PO4)5
_symmetry_space_group_name_H-M   'P 1'
_cell_length_a   11.89341328
_cell_length_b   11.89341328
_cell_length_c   11.89341328
_cell_angle_alpha   130.82433605
_cell_angle_beta   130.82433605
_cell_angle_gamma   72.09232117
_symmetry_Int_Tables_number   1
_chemical_formula_structural   Sr6B(PO4)5
_chemical_formula_sum   'Sr12 B2 P10 O40'
_cell_volume   942.00339521
_cell_formula_units_Z   2
loop_
 _symmetry_equiv_pos_site_id
 _symmetry_equiv_pos_as_xyz
  1  'x, y, z'
loop_
 _atom_site_type_symbol
 _atom_site_label
 _atom_site_symmetry_multiplicity
 _atom_site_fract_x
 _atom_site_fract_y
 _atom_site_fract_z
 _atom_site_occupancy
  Sr  Sr0  1  0.58104965  0.88599755  1.29588551  1.0
  Sr  Sr1  1  1.08104965  0.78516414  1.69505210  1.0
  Sr  Sr2  1  0.61400245  0.91895035  0.70411449  1.0
  Sr  Sr3  1  1.11400245  1.40988796  1.69505210  1.0
  Sr  Sr4  1  0.09011204  0.38599755  0.30494790  1.0
  Sr  Sr5  1  0.59011204  0.28516414  0.70411449  1.0
  Sr  Sr6  1  0.71483586  0.41895035  0.30494790  1.0
  Sr  Sr7  1  1.21483586  0.90988796  1.29588551  1.0
  Sr  Sr8  1  0.52678361  0.97321639  1.00000000  1.0
  Sr  Sr9  1  1.02678361  1.02678361  1.55356722  1.0
  Sr  Sr10  1  0.47321639  0.47321639  0.44643279  1.0
  Sr  Sr11  1  0.97321639  0.52678361  1.00000000  1.0
  B  B12  1  0.00000000  0.00000000  0.00000000  1.0
  B  B13  1  0.50000000  0.50000000  1.00000000  1.0
  P  P14  1  0.30350915  1.07687908  1.18249705  1.0
  P  P15  1  0.80350915  0.62101211  1.22663007  1.0
  P  P16  1  0.42312092  1.19649085  0.81750295  1.0
  P  P17  1  0.92312092  1.10561797  1.22663007  1.0
  P  P18  1  0.39438203  0.57687908  0.77336993  1.0
  P  P19  1  0.89438203  0.12101211  0.81750295  1.0
  P  P20  1  0.87898789  0.69649085  0.77336993  1.0
  P  P21  1  1.37898789  0.60561797  1.18249705  1.0
  P  P22  1  0.25000000  0.75000000  0.50000000  1.0
  P  P23  1  0.75000000  0.25000000  0.50000000  1.0
  O  O24  1  0.23351112  0.83571467  0.65767908  1.0
  O  O25  1  0.73351112  1.07583204  1.39779645  1.0
  O  O26  1  0.66428533  1.26648888  1.34232092  1.0
  O  O27  1  1.16428533  0.82196441  1.39779645  1.0
  O  O28  1  0.67803559  0.33571467  0.60220355  1.0
  O  O29  1  1.17803559  0.57583204  1.34232092  1.0
  O  O30  1  0.42416796  0.76648888  0.60220355  1.0
  O  O31  1  0.92416796  0.32196441  0.65767908  1.0
  O  O32  1  0.13889471  0.96301573  1.02030797  1.0
  O  O33  1  0.63889471  0.61858673  1.17587898  1.0
  O  O34  1  0.53698427  1.36110529  0.97969203  1.0
  O  O35  1  1.03698427  1.05729224  1.17587898  1.0
  O  O36  1  0.44270776  0.46301573  0.82412102  1.0
  O  O37  1  0.94270776  0.11858673  0.97969203  1.0
  O  O38  1  0.88141327  0.86110529  0.82412102  1.0
  O  O39  1  1.38141327  0.55729224  1.02030797  1.0
  O  O40  1  0.22095101  0.56575932  0.67315131  1.0
  O  O41  1  0.72095101  1.04779970  1.65519169  1.0
  O  O42  1  0.93424068  1.27904899  1.32684869  1.0
  O  O43  1  1.43424068  1.10739199  1.65519169  1.0
  O  O44  1  0.39260801  0.06575932  0.34480831  1.0
  O  O45  1  0.89260801  0.54779970  1.32684869  1.0
  O  O46  1  0.45220030  0.77904899  0.34480831  1.0
  O  O47  1  0.95220030  0.60739199  0.67315131  1.0
  O  O48  1  0.36884004  0.99703995  1.07703107  1.0
  O  O49  1  0.86884004  0.79180897  1.37180009  1.0
  O  O50  1  0.50296005  1.13115996  0.92296893  1.0
  O  O51  1  1.00296005  1.07999111  1.37180009  1.0
  O  O52  1  0.42000889  0.49703995  0.62819991  1.0
  O  O53  1  0.92000889  0.29180897  0.92296893  1.0
  O  O54  1  0.70819103  0.63115996  0.62819991  1.0
  O  O55  1  1.20819103  0.57999111  1.07703107  1.0
  O  O56  1  0.49107833  0.73671922  0.95658025  1.0
  O  O57  1  0.99107833  1.03449807  1.75435911  1.0
  O  O58  1  0.76328078  1.00892167  1.04341975  1.0
  O  O59  1  1.26328078  1.21986103  1.75435911  1.0
  O  O60  1  0.28013897  0.23671922  0.24564089  1.0
  O  O61  1  0.78013897  0.53449807  1.04341975  1.0
  O  O62  1  0.46550193  0.50892167  0.24564089  1.0
  O  O63  1  0.96550193  0.71986103  0.95658025  1.0
