# generated using pymatgen
data_Y4CdPt
_symmetry_space_group_name_H-M   'P 1'
_cell_length_a   9.70785447
_cell_length_b   9.70785447
_cell_length_c   9.70785447
_cell_angle_alpha   60.00000000
_cell_angle_beta   60.00000000
_cell_angle_gamma   60.00000000
_symmetry_Int_Tables_number   1
_chemical_formula_structural   Y4CdPt
_chemical_formula_sum   'Y16 Cd4 Pt4'
_cell_volume   646.92625052
_cell_formula_units_Z   4
loop_
 _symmetry_equiv_pos_site_id
 _symmetry_equiv_pos_as_xyz
  1  'x, y, z'
loop_
 _atom_site_type_symbol
 _atom_site_label
 _atom_site_symmetry_multiplicity
 _atom_site_fract_x
 _atom_site_fract_y
 _atom_site_fract_z
 _atom_site_occupancy
  Y  Y0  1  0.06432521  0.43567479  0.43567479  1.0
  Y  Y1  1  0.43567479  0.43567479  0.06432521  1.0
  Y  Y2  1  0.43567479  0.06432521  0.43567479  1.0
  Y  Y3  1  0.06432521  0.06432521  0.43567479  1.0
  Y  Y4  1  0.06432521  0.43567479  0.06432521  1.0
  Y  Y5  1  0.43567479  0.06432521  0.06432521  1.0
  Y  Y6  1  -0.80952261  0.80952261  0.80952261  1.0
  Y  Y7  1  -0.19047739  0.80952261  0.19047739  1.0
  Y  Y8  1  -0.19047739  0.19047739  0.80952261  1.0
  Y  Y9  1  0.19047739  1.19047739  -0.19047739  1.0
  Y  Y10  1  0.19047739  -0.19047739  0.19047739  1.0
  Y  Y11  1  -0.19047739  0.19047739  0.19047739  1.0
  Y  Y12  1  -0.35219972  0.64780028  0.64780028  1.0
  Y  Y13  1  1.05659915  0.64780028  -0.35219972  1.0
  Y  Y14  1  -0.35219972  0.64780028  1.05659915  1.0
  Y  Y15  1  0.64780028  1.05659915  -0.35219972  1.0
  Cd  Cd16  1  0.41820540  1.41820540  0.41820540  1.0
  Cd  Cd17  1  -0.25461619  0.41820540  0.41820540  1.0
  Cd  Cd18  1  0.41820540  1.41820540  -0.25461619  1.0
  Cd  Cd19  1  0.41820540  -0.25461619  0.41820540  1.0
  Pt  Pt20  1  0.85692782  0.85692782  -0.14307218  1.0
  Pt  Pt21  1  0.42921653  0.85692782  -0.14307218  1.0
  Pt  Pt22  1  0.85692782  0.85692782  -0.57078347  1.0
  Pt  Pt23  1  0.85692782  0.42921653  -0.14307218  1.0
