# generated using pymatgen
data_K2HgH2Cl4O
_symmetry_space_group_name_H-M   'P 1'
_cell_length_a   8.53254307
_cell_length_b   11.85048740
_cell_length_c   9.10199876
_cell_angle_alpha   90.00000000
_cell_angle_beta   90.00000000
_cell_angle_gamma   90.00000000
_symmetry_Int_Tables_number   1
_chemical_formula_structural   K2HgH2Cl4O
_chemical_formula_sum   'K8 Hg4 H8 Cl16 O4'
_cell_volume   920.34673065
_cell_formula_units_Z   4
loop_
 _symmetry_equiv_pos_site_id
 _symmetry_equiv_pos_as_xyz
  1  'x, y, z'
loop_
 _atom_site_type_symbol
 _atom_site_label
 _atom_site_symmetry_multiplicity
 _atom_site_fract_x
 _atom_site_fract_y
 _atom_site_fract_z
 _atom_site_occupancy
  K  K0  1  0.38781178  0.80305248  0.50000000  1.0
  K  K1  1  0.88781178  0.69694752  0.50000000  1.0
  K  K2  1  0.61218822  0.19694752  0.50000000  1.0
  K  K3  1  0.11218822  0.30305248  0.50000000  1.0
  K  K4  1  0.42020050  0.84598480  -0.00000000  1.0
  K  K5  1  0.92020050  0.65401520  0.00000000  1.0
  K  K6  1  0.57979950  0.15401520  -0.00000000  1.0
  K  K7  1  0.07979950  0.34598480  0.00000000  1.0
  Hg  Hg8  1  0.50000000  0.50000000  0.77805100  1.0
  Hg  Hg9  1  0.50000000  0.50000000  0.22194900  1.0
  Hg  Hg10  1  0.00000000  0.00000000  0.77805100  1.0
  Hg  Hg11  1  0.00000000  0.00000000  0.22194900  1.0
  H  H12  1  0.08462871  0.52406242  0.70014217  1.0
  H  H13  1  0.08462871  0.52406242  0.29985783  1.0
  H  H14  1  0.58462871  0.97593758  0.70014217  1.0
  H  H15  1  0.58462871  0.97593758  0.29985783  1.0
  H  H16  1  0.91537129  0.47593758  0.70014217  1.0
  H  H17  1  0.91537129  0.47593758  0.29985783  1.0
  H  H18  1  0.41537129  0.02406242  0.70014217  1.0
  H  H19  1  0.41537129  0.02406242  0.29985783  1.0
  Cl  Cl20  1  0.11200200  0.81467495  0.74628746  1.0
  Cl  Cl21  1  0.11200200  0.81467495  0.25371254  1.0
  Cl  Cl22  1  0.61200200  0.68532505  0.74628746  1.0
  Cl  Cl23  1  0.61200200  0.68532505  0.25371254  1.0
  Cl  Cl24  1  0.88799800  0.18532505  0.74628746  1.0
  Cl  Cl25  1  0.88799800  0.18532505  0.25371254  1.0
  Cl  Cl26  1  0.38799800  0.31467495  0.74628746  1.0
  Cl  Cl27  1  0.38799800  0.31467495  0.25371254  1.0
  Cl  Cl28  1  0.23143170  0.56244036  0.50000000  1.0
  Cl  Cl29  1  0.73143170  0.93755964  0.50000000  1.0
  Cl  Cl30  1  0.76856830  0.43755964  0.50000000  1.0
  Cl  Cl31  1  0.26856830  0.06244036  0.50000000  1.0
  Cl  Cl32  1  0.29744194  0.57684315  -0.00000000  1.0
  Cl  Cl33  1  0.79744194  0.92315685  -0.00000000  1.0
  Cl  Cl34  1  0.70255806  0.42315685  -0.00000000  1.0
  Cl  Cl35  1  0.20255806  0.07684315  -0.00000000  1.0
  O  O36  1  0.50000000  0.00000000  0.76694737  1.0
  O  O37  1  0.50000000  0.00000000  0.23305263  1.0
  O  O38  1  0.00000000  0.50000000  0.76694737  1.0
  O  O39  1  0.00000000  0.50000000  0.23305263  1.0
