# generated using pymatgen
data_CaSbPd
_symmetry_space_group_name_H-M   'P 1'
_cell_length_a   7.39577629
_cell_length_b   4.66608999
_cell_length_c   7.98730057
_cell_angle_alpha   90.00000000
_cell_angle_beta   90.00000000
_cell_angle_gamma   90.00000000
_symmetry_Int_Tables_number   1
_chemical_formula_structural   CaSbPd
_chemical_formula_sum   'Ca4 Sb4 Pd4'
_cell_volume   275.63661275
_cell_formula_units_Z   4
loop_
 _symmetry_equiv_pos_site_id
 _symmetry_equiv_pos_as_xyz
  1  'x, y, z'
loop_
 _atom_site_type_symbol
 _atom_site_label
 _atom_site_symmetry_multiplicity
 _atom_site_fract_x
 _atom_site_fract_y
 _atom_site_fract_z
 _atom_site_occupancy
  Ca  Ca0  1  0.00502918  0.75000000  0.70320970  1.0
  Ca  Ca1  1  0.50502918  0.75000000  0.79679030  1.0
  Ca  Ca2  1  0.99497082  0.25000000  0.29679030  1.0
  Ca  Ca3  1  0.49497082  0.25000000  0.20320970  1.0
  Sb  Sb4  1  0.69886820  0.75000000  0.40675734  1.0
  Sb  Sb5  1  0.19886820  0.75000000  0.09324266  1.0
  Sb  Sb6  1  0.30113180  0.25000000  0.59324266  1.0
  Sb  Sb7  1  0.80113180  0.25000000  0.90675734  1.0
  Pd  Pd8  1  0.81333939  0.75000000  0.08007583  1.0
  Pd  Pd9  1  0.31333939  0.75000000  0.41992417  1.0
  Pd  Pd10  1  0.18666061  0.25000000  0.91992417  1.0
  Pd  Pd11  1  0.68666061  0.25000000  0.58007583  1.0
