# generated using pymatgen
data_Mg3(SO5)2
_symmetry_space_group_name_H-M   'P 1'
_cell_length_a   7.59053639
_cell_length_b   7.59053639
_cell_length_c   13.05038043
_cell_angle_alpha   90.00000000
_cell_angle_beta   90.00000000
_cell_angle_gamma   90.00000000
_symmetry_Int_Tables_number   1
_chemical_formula_structural   Mg3(SO5)2
_chemical_formula_sum   'Mg12 S8 O40'
_cell_volume   751.91388530
_cell_formula_units_Z   4
loop_
 _symmetry_equiv_pos_site_id
 _symmetry_equiv_pos_as_xyz
  1  'x, y, z'
loop_
 _atom_site_type_symbol
 _atom_site_label
 _atom_site_symmetry_multiplicity
 _atom_site_fract_x
 _atom_site_fract_y
 _atom_site_fract_z
 _atom_site_occupancy
  Mg  Mg0  1  0.61948227  0.38051773  0.75000000  1.0
  Mg  Mg1  1  0.38051773  0.61948227  0.25000000  1.0
  Mg  Mg2  1  0.88051773  0.88051773  0.00000000  1.0
  Mg  Mg3  1  0.11948227  0.11948227  0.50000000  1.0
  Mg  Mg4  1  0.59885779  0.15137782  0.99710707  1.0
  Mg  Mg5  1  0.40114221  0.84862218  0.49710707  1.0
  Mg  Mg6  1  0.65137782  0.90114221  0.24710707  1.0
  Mg  Mg7  1  0.34862218  0.09885779  0.74710707  1.0
  Mg  Mg8  1  0.84862218  0.40114221  0.50289293  1.0
  Mg  Mg9  1  0.15137782  0.59885779  0.00289293  1.0
  Mg  Mg10  1  0.90114221  0.65137782  0.75289293  1.0
  Mg  Mg11  1  0.09885779  0.34862218  0.25289293  1.0
  S  S12  1  0.75233481  0.50490440  0.12443541  1.0
  S  S13  1  0.24766519  0.49509560  0.62443541  1.0
  S  S14  1  0.00490440  0.74766519  0.37443541  1.0
  S  S15  1  0.99509560  0.25233481  0.87443541  1.0
  S  S16  1  0.49509560  0.24766519  0.37556459  1.0
  S  S17  1  0.50490440  0.75233481  0.87556459  1.0
  S  S18  1  0.74766519  0.00490440  0.62556459  1.0
  S  S19  1  0.25233481  0.99509560  0.12556459  1.0
  O  O20  1  0.64379859  0.39543442  0.05562483  1.0
  O  O21  1  0.35620141  0.60456558  0.55562483  1.0
  O  O22  1  0.89543442  0.85620141  0.30562483  1.0
  O  O23  1  0.10456558  0.14379859  0.80562483  1.0
  O  O24  1  0.60456558  0.35620141  0.44437517  1.0
  O  O25  1  0.39543442  0.64379859  0.94437517  1.0
  O  O26  1  0.85620141  0.89543442  0.69437517  1.0
  O  O27  1  0.14379859  0.10456558  0.19437517  1.0
  O  O28  1  0.87451621  0.62170818  0.06314409  1.0
  O  O29  1  0.12548379  0.37829182  0.56314409  1.0
  O  O30  1  0.12170818  0.62548379  0.31314409  1.0
  O  O31  1  0.87829182  0.37451621  0.81314409  1.0
  O  O32  1  0.37829182  0.12548379  0.43685591  1.0
  O  O33  1  0.62170818  0.87451621  0.93685591  1.0
  O  O34  1  0.62548379  0.12170818  0.68685591  1.0
  O  O35  1  0.37451621  0.87829182  0.18685591  1.0
  O  O36  1  0.63319417  0.62551681  0.18484485  1.0
  O  O37  1  0.36680583  0.37448319  0.68484485  1.0
  O  O38  1  0.12551681  0.86680583  0.43484485  1.0
  O  O39  1  0.87448319  0.13319417  0.93484485  1.0
  O  O40  1  0.37448319  0.36680583  0.31515515  1.0
  O  O41  1  0.62551681  0.63319417  0.81515515  1.0
  O  O42  1  0.86680583  0.12551681  0.56515515  1.0
  O  O43  1  0.13319417  0.87448319  0.06515515  1.0
  O  O44  1  0.85652938  0.39420823  0.19448390  1.0
  O  O45  1  0.14347062  0.60579177  0.69448390  1.0
  O  O46  1  0.89420823  0.64347062  0.44448390  1.0
  O  O47  1  0.10579177  0.35652938  0.94448390  1.0
  O  O48  1  0.60579177  0.14347062  0.30551610  1.0
  O  O49  1  0.39420823  0.85652938  0.80551610  1.0
  O  O50  1  0.64347062  0.89420823  0.55551610  1.0
  O  O51  1  0.35652938  0.10579177  0.05551610  1.0
  O  O52  1  0.72204858  -0.00641801  0.10650302  1.0
  O  O53  1  0.27795142  1.00641801  0.60650302  1.0
  O  O54  1  0.49358199  0.77795142  0.35650302  1.0
  O  O55  1  0.50641801  0.22204858  0.85650302  1.0
  O  O56  1  1.00641801  0.27795142  0.39349698  1.0
  O  O57  1  -0.00641801  0.72204858  0.89349698  1.0
  O  O58  1  0.77795142  0.49358199  0.64349698  1.0
  O  O59  1  0.22204858  0.50641801  0.14349698  1.0
