# generated using pymatgen
data_LaSiGe
_symmetry_space_group_name_H-M   'P 1'
_cell_length_a   8.14488922
_cell_length_b   8.14488922
_cell_length_c   8.14488922
_cell_angle_alpha   149.50957434
_cell_angle_beta   149.50957434
_cell_angle_gamma   43.66177406
_symmetry_Int_Tables_number   1
_chemical_formula_structural   LaSiGe
_chemical_formula_sum   'La2 Si2 Ge2'
_cell_volume   138.72203340
_cell_formula_units_Z   2
loop_
 _symmetry_equiv_pos_site_id
 _symmetry_equiv_pos_as_xyz
  1  'x, y, z'
loop_
 _atom_site_type_symbol
 _atom_site_label
 _atom_site_symmetry_multiplicity
 _atom_site_fract_x
 _atom_site_fract_y
 _atom_site_fract_z
 _atom_site_occupancy
  La  La0  1  0.25000000  0.75000000  0.50000000  1.0
  La  La1  1  0.00000000  0.00000000  0.00000000  1.0
  Si  Si2  1  0.42138315  0.42138315  -0.00000000  1.0
  Si  Si3  1  0.57861685  0.57861685  1.00000000  1.0
  Ge  Ge4  1  0.66284634  0.16284634  0.50000000  1.0
  Ge  Ge5  1  0.83715366  0.33715366  0.50000000  1.0
