# generated using pymatgen
data_SiH12(CO)4
_symmetry_space_group_name_H-M   'P 1'
_cell_length_a   8.90287470
_cell_length_b   8.90287470
_cell_length_c   8.90287470
_cell_angle_alpha   96.61618795
_cell_angle_beta   96.61618795
_cell_angle_gamma   140.31478729
_symmetry_Int_Tables_number   1
_chemical_formula_structural   SiH12(CO)4
_chemical_formula_sum   'Si2 H24 C8 O8'
_cell_volume   423.85465250
_cell_formula_units_Z   2
loop_
 _symmetry_equiv_pos_site_id
 _symmetry_equiv_pos_as_xyz
  1  'x, y, z'
loop_
 _atom_site_type_symbol
 _atom_site_label
 _atom_site_symmetry_multiplicity
 _atom_site_fract_x
 _atom_site_fract_y
 _atom_site_fract_z
 _atom_site_occupancy
  Si  Si0  1  0.75000000  1.25000000  0.50000000  1.0
  Si  Si1  1  0.00000000  0.00000000  0.00000000  1.0
  H  H2  1  1.34372515  1.25107545  1.40066914  1.0
  H  H3  1  0.85040631  0.94305601  1.59933086  1.0
  H  H4  1  1.00107545  1.10040631  1.40735031  1.0
  H  H5  1  1.69305601  1.59372515  1.59264969  1.0
  H  H6  1  0.40627485  0.99892455  1.09933086  1.0
  H  H7  1  0.89959369  1.30694399  0.90066914  1.0
  H  H8  1  0.74892455  1.14959369  1.09264969  1.0
  H  H9  1  1.05694399  1.65627485  0.90735031  1.0
  H  H10  1  1.40055380  1.09647538  1.58222863  1.0
  H  H11  1  0.51424675  0.81832517  0.41777137  1.0
  H  H12  1  0.84647538  0.76424675  0.19592158  1.0
  H  H13  1  1.56832517  1.65055380  1.80407842  1.0
  H  H14  1  0.34944620  1.15352462  0.91777137  1.0
  H  H15  1  1.23575325  0.43167483  1.08222863  1.0
  H  H16  1  0.90352462  0.48575325  1.30407842  1.0
  H  H17  1  0.18167483  0.59944620  0.69592158  1.0
  H  H18  1  1.30865754  0.97012497  1.37285073  1.0
  H  H19  1  0.59727424  0.93580681  0.62714927  1.0
  H  H20  1  0.72012497  0.84727424  0.16146743  1.0
  H  H21  1  1.68580681  1.55865754  1.83853257  1.0
  H  H22  1  0.44134246  1.27987503  1.12714927  1.0
  H  H23  1  1.15272576  0.31419319  0.87285073  1.0
  H  H24  1  1.02987503  0.40272576  1.33853257  1.0
  H  H25  1  0.06419319  0.69134246  0.66146743  1.0
  C  C26  1  1.46080773  1.14227343  1.47574898  1.0
  C  C27  1  0.66652445  0.98505876  0.52425102  1.0
  C  C28  1  0.89227343  0.91652445  0.18146569  1.0
  C  C29  1  1.73505876  1.71080773  1.81853431  1.0
  C  C30  1  0.28919227  1.10772657  1.02425102  1.0
  C  C31  1  1.08347555  0.26494124  0.97574898  1.0
  C  C32  1  1.85772657  1.33347555  1.31853431  1.0
  C  C33  1  1.01494124  1.53919227  0.68146569  1.0
  O  O34  1  1.50790553  1.33082842  1.44852879  1.0
  O  O35  1  0.88229964  1.05937674  1.55147121  1.0
  O  O36  1  1.08082842  1.13229964  1.32292290  1.0
  O  O37  1  1.80937674  1.75790553  1.67707710  1.0
  O  O38  1  0.24209447  0.91917158  1.05147121  1.0
  O  O39  1  0.86770036  1.19062326  0.94852879  1.0
  O  O40  1  0.66917158  1.11770036  1.17707710  1.0
  O  O41  1  0.94062326  1.49209447  0.82292290  1.0
