# generated using pymatgen
data_Sr6CdSn(BO3)6
_symmetry_space_group_name_H-M   'P 1'
_cell_length_a   7.81435361
_cell_length_b   7.81435361
_cell_length_c   7.81435361
_cell_angle_alpha   105.45478855
_cell_angle_beta   105.45478855
_cell_angle_gamma   105.45478855
_symmetry_Int_Tables_number   1
_chemical_formula_structural   Sr6CdSn(BO3)6
_chemical_formula_sum   'Sr6 Cd1 Sn1 B6 O18'
_cell_volume   413.00545269
_cell_formula_units_Z   1
loop_
 _symmetry_equiv_pos_site_id
 _symmetry_equiv_pos_as_xyz
  1  'x, y, z'
loop_
 _atom_site_type_symbol
 _atom_site_label
 _atom_site_symmetry_multiplicity
 _atom_site_fract_x
 _atom_site_fract_y
 _atom_site_fract_z
 _atom_site_occupancy
  Sr  Sr0  1  0.76114700  0.65652633  0.16065349  1.0
  Sr  Sr1  1  1.34347367  -0.16065349  0.23885300  1.0
  Sr  Sr2  1  0.83934651  0.23885300  0.34347367  1.0
  Sr  Sr3  1  1.23885300  0.34347367  -0.16065349  1.0
  Sr  Sr4  1  0.65652633  1.16065349  -0.23885300  1.0
  Sr  Sr5  1  1.16065349  0.76114700  -0.34347367  1.0
  Cd  Cd6  1  0.50000000  0.50000000  0.50000000  1.0
  Sn  Sn7  1  0.00000000  0.00000000  0.00000000  1.0
  B  B8  1  1.54847545  0.79407340  -0.12216495  1.0
  B  B9  1  1.20592660  0.12216495  -0.54847545  1.0
  B  B10  1  1.12216495  -0.54847545  0.20592660  1.0
  B  B11  1  0.45152455  0.20592660  0.12216495  1.0
  B  B12  1  0.79407340  0.87783505  0.54847545  1.0
  B  B13  1  0.87783505  1.54847545  -0.20592660  1.0
  O  O14  1  0.72980768  0.91986017  0.01462407  1.0
  O  O15  1  1.08013983  -0.01462407  -0.72980768  1.0
  O  O16  1  0.98537593  -0.72980768  0.08013983  1.0
  O  O17  1  0.27019232  0.08013983  -0.01462407  1.0
  O  O18  1  0.91986017  1.01462407  -0.27019232  1.0
  O  O19  1  1.01462407  0.72980768  -0.08013983  1.0
  O  O20  1  1.49741954  0.79071962  -0.30621015  1.0
  O  O21  1  1.20928038  0.30621015  -0.49741954  1.0
  O  O22  1  1.30621015  -0.49741954  0.20928038  1.0
  O  O23  1  0.50258046  0.20928038  0.30621015  1.0
  O  O24  1  0.79071962  0.69378985  0.49741954  1.0
  O  O25  1  0.69378985  1.49741954  -0.20928038  1.0
  O  O26  1  0.57462592  0.30559487  0.05589513  1.0
  O  O27  1  0.69440513  0.94410487  0.42537408  1.0
  O  O28  1  0.94410487  1.42537408  -0.30559487  1.0
  O  O29  1  1.42537408  0.69440513  -0.05589513  1.0
  O  O30  1  1.30559487  0.05589513  -0.42537408  1.0
  O  O31  1  1.05589513  -0.42537408  0.30559487  1.0
