# generated using pymatgen
data_HfFeAs
_symmetry_space_group_name_H-M   'P 1'
_cell_length_a   6.40848607
_cell_length_b   3.90196364
_cell_length_c   7.20674768
_cell_angle_alpha   90.00000000
_cell_angle_beta   90.00000000
_cell_angle_gamma   90.00000000
_symmetry_Int_Tables_number   1
_chemical_formula_structural   HfFeAs
_chemical_formula_sum   'Hf4 Fe4 As4'
_cell_volume   180.20962352
_cell_formula_units_Z   4
loop_
 _symmetry_equiv_pos_site_id
 _symmetry_equiv_pos_as_xyz
  1  'x, y, z'
loop_
 _atom_site_type_symbol
 _atom_site_label
 _atom_site_symmetry_multiplicity
 _atom_site_fract_x
 _atom_site_fract_y
 _atom_site_fract_z
 _atom_site_occupancy
  Hf  Hf0  1  1.01586027  0.75000000  0.68837672  1.0
  Hf  Hf1  1  0.51586027  0.75000000  0.81162328  1.0
  Hf  Hf2  1  -0.01586027  0.25000000  0.31162328  1.0
  Hf  Hf3  1  0.48413973  0.25000000  0.18837672  1.0
  Fe  Fe4  1  0.64918507  0.75000000  0.43732207  1.0
  Fe  Fe5  1  0.14918507  0.75000000  0.06267793  1.0
  Fe  Fe6  1  0.35081493  0.25000000  0.56267793  1.0
  Fe  Fe7  1  0.85081493  0.25000000  0.93732207  1.0
  As  As8  1  0.77654140  0.75000000  0.11558814  1.0
  As  As9  1  0.27654140  0.75000000  0.38441186  1.0
  As  As10  1  0.22345860  0.25000000  0.88441186  1.0
  As  As11  1  0.72345860  0.25000000  0.61558814  1.0
