# generated using pymatgen
data_CrPC5Br3O5
_symmetry_space_group_name_H-M   'P 1'
_cell_length_a   14.54249353
_cell_length_b   7.24300096
_cell_length_c   7.24563162
_cell_angle_alpha   87.40151341
_cell_angle_beta   86.53806307
_cell_angle_gamma   88.68705846
_symmetry_Int_Tables_number   1
_chemical_formula_structural   CrPC5Br3O5
_chemical_formula_sum   'Cr2 P2 C10 Br6 O10'
_cell_volume   760.85994091
_cell_formula_units_Z   2
loop_
 _symmetry_equiv_pos_site_id
 _symmetry_equiv_pos_as_xyz
  1  'x, y, z'
loop_
 _atom_site_type_symbol
 _atom_site_label
 _atom_site_symmetry_multiplicity
 _atom_site_fract_x
 _atom_site_fract_y
 _atom_site_fract_z
 _atom_site_occupancy
  Cr  Cr0  1  -0.82680139  -0.72260714  -0.78032141  1.0
  Cr  Cr1  1  -0.17319861  -0.27739286  -0.21967859  1.0
  P  P2  1  -0.67954162  -0.69581972  -0.68842837  1.0
  P  P3  1  -0.32045838  -0.30418028  -0.31157163  1.0
  C  C4  1  -0.20795780  -0.40763298  -0.99401601  1.0
  C  C5  1  -0.79204220  -0.59236702  -0.00598399  1.0
  C  C6  1  -0.79078317  -0.95113132  -0.88379352  1.0
  C  C7  1  -0.20921683  -0.04886868  -0.11620648  1.0
  C  C8  1  -0.94412890  -0.74658485  -0.86934665  1.0
  C  C9  1  -0.05587110  -0.25341515  -0.13065335  1.0
  C  C10  1  -0.86707415  -0.49802554  -0.67410239  1.0
  C  C11  1  -0.13292585  -0.50197446  -0.32589761  1.0
  C  C12  1  -0.86704835  -0.84784498  -0.55495966  1.0
  C  C13  1  -0.13295165  -0.15215502  -0.44504034  1.0
  Br  Br14  1  -0.56539781  -0.76167333  -0.90043157  1.0
  Br  Br15  1  -0.43460219  -0.23832667  -0.09956843  1.0
  Br  Br16  1  -0.63487861  -0.41985878  -0.60421194  1.0
  Br  Br17  1  -0.36512139  -0.58014122  -0.39578806  1.0
  Br  Br18  1  -0.63590566  -0.87836208  -0.44855846  1.0
  Br  Br19  1  -0.36409434  -0.12163792  -0.55144154  1.0
  O  O20  1  -0.77003954  -0.09046002  -0.94745076  1.0
  O  O21  1  -0.22996046  -0.90953998  -0.05254924  1.0
  O  O22  1  -0.01592318  -0.75950935  -0.92743486  1.0
  O  O23  1  -0.98407682  -0.24049065  -0.07256514  1.0
  O  O24  1  -0.22630462  -0.48599851  -0.85482084  1.0
  O  O25  1  -0.77369538  -0.51400149  -0.14517916  1.0
  O  O26  1  -0.89439626  -0.36335128  -0.60889588  1.0
  O  O27  1  -0.10560374  -0.63664872  -0.39110412  1.0
  O  O28  1  -0.89348638  -0.92104132  -0.41778620  1.0
  O  O29  1  -0.10651362  -0.07895868  -0.58221380  1.0
