# generated using pymatgen
data_H6CN6O5
_symmetry_space_group_name_H-M   'P 1'
_cell_length_a   7.12468599
_cell_length_b   3.80927453
_cell_length_c   14.45819426
_cell_angle_alpha   90.00000000
_cell_angle_beta   97.95380560
_cell_angle_gamma   90.00000000
_symmetry_Int_Tables_number   1
_chemical_formula_structural   H6CN6O5
_chemical_formula_sum   'H12 C2 N12 O10'
_cell_volume   388.61888190
_cell_formula_units_Z   2
loop_
 _symmetry_equiv_pos_site_id
 _symmetry_equiv_pos_as_xyz
  1  'x, y, z'
loop_
 _atom_site_type_symbol
 _atom_site_label
 _atom_site_symmetry_multiplicity
 _atom_site_fract_x
 _atom_site_fract_y
 _atom_site_fract_z
 _atom_site_occupancy
  H  H0  1  0.88524270  0.43527691  0.11950540  1.0
  H  H1  1  0.88524270  0.56472309  0.61950540  1.0
  H  H2  1  0.74733441  0.60134151  0.97561349  1.0
  H  H3  1  0.74733441  0.39865849  0.47561349  1.0
  H  H4  1  0.75562147  0.59100833  0.31552195  1.0
  H  H5  1  0.75562147  0.40899167  0.81552195  1.0
  H  H6  1  0.25871043  0.89607784  0.50151062  1.0
  H  H7  1  0.25871043  0.10392216  1.00151063  1.0
  H  H8  1  0.13537805  0.81431028  0.39012132  1.0
  H  H9  1  0.13537805  0.18568972  0.89012132  1.0
  H  H10  1  0.09478928  0.19058829  0.13590913  1.0
  H  H11  1  0.09478928  0.80941171  0.63590913  1.0
  C  C12  1  -0.00302951  0.67518914  0.49981109  1.0
  C  C13  1  -0.00302951  0.32481086  -0.00018891  1.0
  N  N14  1  0.99888509  0.33406868  0.09244836  1.0
  N  N15  1  0.99888509  0.66593132  0.59244836  1.0
  N  N16  1  0.84068449  0.55385250  0.44571846  1.0
  N  N17  1  0.84068449  0.44614750  0.94571846  1.0
  N  N18  1  0.55235409  0.79360301  0.12592899  1.0
  N  N19  1  0.55235409  0.20639699  0.62592899  1.0
  N  N20  1  0.39352296  0.92720794  0.15531076  1.0
  N  N21  1  0.39352296  0.07279206  0.65531076  1.0
  N  N22  1  0.36933769  0.87254385  0.24789610  1.0
  N  N23  1  0.36933769  0.12745615  0.74789610  1.0
  N  N24  1  0.14101798  0.80361035  0.46094209  1.0
  N  N25  1  0.14101798  0.19638965  0.96094209  1.0
  O  O26  1  0.86040815  0.46698879  0.35402436  1.0
  O  O27  1  0.86040815  0.53301121  0.85402436  1.0
  O  O28  1  0.67521747  0.61343592  0.17410892  1.0
  O  O29  1  0.67521747  0.38656408  0.67410892  1.0
  O  O30  1  0.56061086  0.86461569  0.04195731  1.0
  O  O31  1  0.56061086  0.13538431  0.54195731  1.0
  O  O32  1  0.48832622  0.75357048  0.30993006  1.0
  O  O33  1  0.48832622  0.24642952  0.80993006  1.0
  O  O34  1  0.20798819  0.97006884  0.26194157  1.0
  O  O35  1  0.20798819  0.02993116  0.76194157  1.0
