# generated using pymatgen
data_Ag3SbO4
_symmetry_space_group_name_H-M   'P 1'
_cell_length_a   7.24781749
_cell_length_b   7.24781749
_cell_length_c   8.88968497
_cell_angle_alpha   90.00000000
_cell_angle_beta   90.00000000
_cell_angle_gamma   90.00000000
_symmetry_Int_Tables_number   1
_chemical_formula_structural   Ag3SbO4
_chemical_formula_sum   'Ag12 Sb4 O16'
_cell_volume   466.98278153
_cell_formula_units_Z   4
loop_
 _symmetry_equiv_pos_site_id
 _symmetry_equiv_pos_as_xyz
  1  'x, y, z'
loop_
 _atom_site_type_symbol
 _atom_site_label
 _atom_site_symmetry_multiplicity
 _atom_site_fract_x
 _atom_site_fract_y
 _atom_site_fract_z
 _atom_site_occupancy
  Ag  Ag0  1  0.50000000  0.76718727  0.50000000  1.0
  Ag  Ag1  1  0.50000000  0.23281273  0.00000000  1.0
  Ag  Ag2  1  0.76718727  0.50000000  0.25000000  1.0
  Ag  Ag3  1  0.23281273  0.50000000  0.75000000  1.0
  Ag  Ag4  1  0.50000000  0.32824562  0.50000000  1.0
  Ag  Ag5  1  0.50000000  0.67175438  0.00000000  1.0
  Ag  Ag6  1  0.32824562  0.50000000  0.25000000  1.0
  Ag  Ag7  1  0.67175438  0.50000000  0.75000000  1.0
  Ag  Ag8  1  0.00000000  0.70236531  0.50000000  1.0
  Ag  Ag9  1  0.00000000  0.29763469  0.00000000  1.0
  Ag  Ag10  1  0.70236531  0.00000000  0.25000000  1.0
  Ag  Ag11  1  0.29763469  0.00000000  0.75000000  1.0
  Sb  Sb12  1  0.00000000  0.22101386  0.50000000  1.0
  Sb  Sb13  1  0.00000000  0.77898614  0.00000000  1.0
  Sb  Sb14  1  0.22101386  0.00000000  0.25000000  1.0
  Sb  Sb15  1  0.77898614  0.00000000  0.75000000  1.0
  O  O16  1  0.98433837  0.80344955  0.77009677  1.0
  O  O17  1  0.98433837  0.19655045  0.72990323  1.0
  O  O18  1  0.80344955  0.98433837  0.97990323  1.0
  O  O19  1  0.80344955  0.01566163  0.52009677  1.0
  O  O20  1  0.01566163  0.80344955  0.22990323  1.0
  O  O21  1  0.01566163  0.19655045  0.27009677  1.0
  O  O22  1  0.19655045  0.98433837  0.02009677  1.0
  O  O23  1  0.19655045  0.01566163  0.47990323  1.0
  O  O24  1  0.58446355  0.80410532  0.73257760  1.0
  O  O25  1  0.58446355  0.19589468  0.76742240  1.0
  O  O26  1  0.80410532  0.58446355  0.01742240  1.0
  O  O27  1  0.80410532  0.41553645  0.48257760  1.0
  O  O28  1  0.41553645  0.80410532  0.26742240  1.0
  O  O29  1  0.41553645  0.19589468  0.23257760  1.0
  O  O30  1  0.19589468  0.58446355  0.98257760  1.0
  O  O31  1  0.19589468  0.41553645  0.51742240  1.0
