# generated using pymatgen
data_TaTe5Pt
_symmetry_space_group_name_H-M   'P 1'
_cell_length_a   7.29223031
_cell_length_b   7.29223031
_cell_length_c   15.74518157
_cell_angle_alpha   90.00000000
_cell_angle_beta   90.00000000
_cell_angle_gamma   149.93522351
_symmetry_Int_Tables_number   1
_chemical_formula_structural   TaTe5Pt
_chemical_formula_sum   'Ta2 Te10 Pt2'
_cell_volume   419.45729766
_cell_formula_units_Z   2
loop_
 _symmetry_equiv_pos_site_id
 _symmetry_equiv_pos_as_xyz
  1  'x, y, z'
loop_
 _atom_site_type_symbol
 _atom_site_label
 _atom_site_symmetry_multiplicity
 _atom_site_fract_x
 _atom_site_fract_y
 _atom_site_fract_z
 _atom_site_occupancy
  Ta  Ta0  1  0.49244741  0.50755259  0.75000000  1.0
  Ta  Ta1  1  -0.49244741  0.49244741  0.25000000  1.0
  Te  Te2  1  0.39713923  0.60286077  0.91618102  1.0
  Te  Te3  1  0.39713923  0.60286077  0.58381898  1.0
  Te  Te4  1  -0.39713923  0.39713923  0.41618102  1.0
  Te  Te5  1  -0.39713923  0.39713923  0.08381898  1.0
  Te  Te6  1  0.09843693  0.90156307  0.85121301  1.0
  Te  Te7  1  0.09843693  0.90156307  0.64878699  1.0
  Te  Te8  1  -0.09843693  0.09843693  0.35121301  1.0
  Te  Te9  1  -0.09843693  0.09843693  0.14878699  1.0
  Te  Te10  1  -0.16069424  0.16069424  0.75000000  1.0
  Te  Te11  1  0.16069424  0.83930576  0.25000000  1.0
  Pt  Pt12  1  0.00000000  0.00000000  0.00000000  1.0
  Pt  Pt13  1  0.00000000  0.00000000  0.50000000  1.0
