# generated using pymatgen
data_MgCuCO5
_symmetry_space_group_name_H-M   'P 1'
_cell_length_a   3.41430233
_cell_length_b   8.69469645
_cell_length_c   12.54739192
_cell_angle_alpha   90.00000000
_cell_angle_beta   93.41858917
_cell_angle_gamma   90.00000000
_symmetry_Int_Tables_number   1
_chemical_formula_structural   MgCuCO5
_chemical_formula_sum   'Mg4 Cu4 C4 O20'
_cell_volume   371.82309519
_cell_formula_units_Z   4
loop_
 _symmetry_equiv_pos_site_id
 _symmetry_equiv_pos_as_xyz
  1  'x, y, z'
loop_
 _atom_site_type_symbol
 _atom_site_label
 _atom_site_symmetry_multiplicity
 _atom_site_fract_x
 _atom_site_fract_y
 _atom_site_fract_z
 _atom_site_occupancy
  C  C0  1  0.65826226  0.23053158  0.63212985  1.0
  C  C1  1  0.34173774  0.73053158  0.86787015  1.0
  C  C2  1  0.34173774  0.76946842  0.36787015  1.0
  C  C3  1  0.65826226  0.26946842  0.13212985  1.0
  O  O4  1  0.71673889  0.37889554  0.62546078  1.0
  O  O5  1  0.28326111  0.87889554  0.87453922  1.0
  O  O6  1  0.28326111  0.62110446  0.37453922  1.0
  O  O7  1  0.71673889  0.12110446  0.12546078  1.0
  O  O8  1  0.63477062  0.16881686  0.72794639  1.0
  O  O9  1  0.36522938  0.66881686  0.77205361  1.0
  O  O10  1  0.36522938  0.83118314  0.27205361  1.0
  O  O11  1  0.63477062  0.33118314  0.22794639  1.0
  O  O12  1  0.59738214  0.15422953  0.54836805  1.0
  O  O13  1  0.40261786  0.65422953  0.95163195  1.0
  O  O14  1  0.40261786  0.84577047  0.45163195  1.0
  O  O15  1  0.59738214  0.34577047  0.04836805  1.0
  O  O16  1  0.08530095  0.15581791  0.89170121  1.0
  O  O17  1  0.91469905  0.65581791  0.60829879  1.0
  O  O18  1  0.91469905  0.84418209  0.10829879  1.0
  O  O19  1  0.08530095  0.34418209  0.39170121  1.0
  O  O20  1  0.07526965  0.40029368  0.83540814  1.0
  O  O21  1  0.92473035  0.90029368  0.66459186  1.0
  O  O22  1  0.92473035  0.59970632  0.16459186  1.0
  O  O23  1  0.07526965  0.09970632  0.33540814  1.0
  Cu  Cu24  1  1.00453640  0.51617542  0.71621621  1.0
  Cu  Cu25  1  -0.00453640  0.01617542  0.78378379  1.0
  Cu  Cu26  1  -0.00453640  0.48382458  0.28378379  1.0
  Cu  Cu27  1  1.00453640  0.98382458  0.21621621  1.0
  Mg  Mg28  1  0.58533469  0.29099314  0.89011723  1.0
  Mg  Mg29  1  0.41466531  0.79099314  0.60988277  1.0
  Mg  Mg30  1  0.41466531  0.70900686  0.10988277  1.0
  Mg  Mg31  1  0.58533469  0.20900686  0.39011723  1.0
