# generated using pymatgen
data_VGe2
_symmetry_space_group_name_H-M   'P 1'
_cell_length_a   4.81831235
_cell_length_b   4.81831235
_cell_length_c   6.62376364
_cell_angle_alpha   90.00000000
_cell_angle_beta   90.00000000
_cell_angle_gamma   120.00000000
_symmetry_Int_Tables_number   1
_chemical_formula_structural   VGe2
_chemical_formula_sum   'V3 Ge6'
_cell_volume   133.17581339
_cell_formula_units_Z   3
loop_
 _symmetry_equiv_pos_site_id
 _symmetry_equiv_pos_as_xyz
  1  'x, y, z'
loop_
 _atom_site_type_symbol
 _atom_site_label
 _atom_site_symmetry_multiplicity
 _atom_site_fract_x
 _atom_site_fract_y
 _atom_site_fract_z
 _atom_site_occupancy
  V  V0  1  0.50000000  0.50000000  0.33333333  1.0
  V  V1  1  0.50000000  0.00000000  -0.00000000  1.0
  V  V2  1  0.00000000  0.50000000  0.66666667  1.0
  Ge  Ge3  1  0.16652564  0.83347436  0.33333333  1.0
  Ge  Ge4  1  0.16652564  0.33305127  0.00000000  1.0
  Ge  Ge5  1  0.83347436  0.16652564  0.33333333  1.0
  Ge  Ge6  1  0.83347436  0.66694873  -0.00000000  1.0
  Ge  Ge7  1  0.66694873  0.83347436  0.66666667  1.0
  Ge  Ge8  1  0.33305127  0.16652564  0.66666667  1.0
