# generated using pymatgen
data_Ca(BH4)2
_symmetry_space_group_name_H-M   'P 1'
_cell_length_a   7.89697908
_cell_length_b   5.75871433
_cell_length_c   7.56662961
_cell_angle_alpha   71.22114816
_cell_angle_beta   43.66271271
_cell_angle_gamma   65.11613914
_symmetry_Int_Tables_number   1
_chemical_formula_structural   Ca(BH4)2
_chemical_formula_sum   'Ca2 B4 H16'
_cell_volume   215.43307880
_cell_formula_units_Z   2
loop_
 _symmetry_equiv_pos_site_id
 _symmetry_equiv_pos_as_xyz
  1  'x, y, z'
loop_
 _atom_site_type_symbol
 _atom_site_label
 _atom_site_symmetry_multiplicity
 _atom_site_fract_x
 _atom_site_fract_y
 _atom_site_fract_z
 _atom_site_occupancy
  Ca  Ca0  1  1.00590926  0.00590926  -0.00590926  1.0
  Ca  Ca1  1  1.25590926  0.25590926  0.24409074  1.0
  B  B2  1  0.78473075  0.22695790  0.77274375  1.0
  B  B3  1  1.47725625  0.03443240  0.46526925  1.0
  B  B4  1  1.22695790  -0.21526925  0.21556760  1.0
  B  B5  1  1.03443240  0.47725625  0.02304210  1.0
  H  H6  1  0.83251802  0.40470578  0.61629659  1.0
  H  H7  1  0.63370341  0.10352038  0.41748198  1.0
  H  H8  1  1.40470578  -0.16748198  0.14647962  1.0
  H  H9  1  1.10352038  -0.36629659  0.84529422  1.0
  H  H10  1  0.28937061  0.22333183  1.54719513  1.0
  H  H11  1  0.70280487  0.30989757  0.96062939  1.0
  H  H12  1  0.22333183  0.28937061  0.94010243  1.0
  H  H13  1  0.30989757  0.70280487  1.02666817  1.0
  H  H14  1  0.97290533  0.03835391  0.69062289  1.0
  H  H15  1  1.55937711  -0.04811788  0.27709467  1.0
  H  H16  1  1.03835391  -0.02709467  0.29811788  1.0
  H  H17  1  0.95188212  0.55937711  0.21164609  1.0
  H  H18  1  0.85662357  0.42879304  1.09288335  1.0
  H  H19  1  1.15711665  -0.37170004  0.39337643  1.0
  H  H20  1  0.42879304  0.85662357  0.62170004  1.0
  H  H21  1  0.62829996  0.15711665  0.82120696  1.0
