# generated using pymatgen
data_TiBr4
_symmetry_space_group_name_H-M   'P 1'
_cell_length_a   12.35687241
_cell_length_b   12.35687241
_cell_length_c   12.35687241
_cell_angle_alpha   90.00000000
_cell_angle_beta   90.00000000
_cell_angle_gamma   90.00000000
_symmetry_Int_Tables_number   1
_chemical_formula_structural   TiBr4
_chemical_formula_sum   'Ti8 Br32'
_cell_volume   1886.79921446
_cell_formula_units_Z   8
loop_
 _symmetry_equiv_pos_site_id
 _symmetry_equiv_pos_as_xyz
  1  'x, y, z'
loop_
 _atom_site_type_symbol
 _atom_site_label
 _atom_site_symmetry_multiplicity
 _atom_site_fract_x
 _atom_site_fract_y
 _atom_site_fract_z
 _atom_site_occupancy
  Ti  Ti0  1  0.36725842  0.86725842  0.63274158  1.0
  Ti  Ti1  1  0.36725842  0.63274158  0.13274158  1.0
  Ti  Ti2  1  0.86725842  0.86725842  0.86725842  1.0
  Ti  Ti3  1  0.86725842  0.63274158  0.36725842  1.0
  Ti  Ti4  1  0.63274158  0.36725842  0.86725842  1.0
  Ti  Ti5  1  0.63274158  0.13274158  0.36725842  1.0
  Ti  Ti6  1  0.13274158  0.36725842  0.63274158  1.0
  Ti  Ti7  1  0.13274158  0.13274158  0.13274158  1.0
  Br  Br8  1  0.52837105  0.48117013  0.75826535  1.0
  Br  Br9  1  0.52837105  1.01882987  0.25826535  1.0
  Br  Br10  1  1.02837105  0.48117013  0.74173465  1.0
  Br  Br11  1  1.02837105  1.01882987  0.24173465  1.0
  Br  Br12  1  -0.01882987  0.74173465  0.47162895  1.0
  Br  Br13  1  -0.01882987  0.75826535  -0.02837105  1.0
  Br  Br14  1  0.48117013  0.74173465  1.02837105  1.0
  Br  Br15  1  0.48117013  0.75826535  0.52837105  1.0
  Br  Br16  1  0.24173465  1.02837105  1.01882987  1.0
  Br  Br17  1  0.24173465  0.47162895  0.51882987  1.0
  Br  Br18  1  0.74173465  1.02837105  0.48117013  1.0
  Br  Br19  1  0.74173465  0.47162895  -0.01882987  1.0
  Br  Br20  1  0.47162895  -0.01882987  0.74173465  1.0
  Br  Br21  1  0.47162895  0.51882987  0.24173465  1.0
  Br  Br22  1  -0.02837105  -0.01882987  0.75826535  1.0
  Br  Br23  1  -0.02837105  0.51882987  0.25826535  1.0
  Br  Br24  1  1.01882987  0.24173465  1.02837105  1.0
  Br  Br25  1  1.01882987  0.25826535  0.52837105  1.0
  Br  Br26  1  0.51882987  0.24173465  0.47162895  1.0
  Br  Br27  1  0.51882987  0.25826535  -0.02837105  1.0
  Br  Br28  1  0.75826535  0.52837105  0.48117013  1.0
  Br  Br29  1  0.75826535  -0.02837105  -0.01882987  1.0
  Br  Br30  1  0.25826535  0.52837105  1.01882987  1.0
  Br  Br31  1  0.25826535  -0.02837105  0.51882987  1.0
  Br  Br32  1  0.25816798  0.75816798  0.74183202  1.0
  Br  Br33  1  0.25816798  0.74183202  0.24183202  1.0
  Br  Br34  1  0.75816798  0.75816798  0.75816798  1.0
  Br  Br35  1  0.75816798  0.74183202  0.25816798  1.0
  Br  Br36  1  0.74183202  0.25816798  0.75816798  1.0
  Br  Br37  1  0.74183202  0.24183202  0.25816798  1.0
  Br  Br38  1  0.24183202  0.25816798  0.74183202  1.0
  Br  Br39  1  0.24183202  0.24183202  0.24183202  1.0
