# generated using pymatgen
data_GdAl
_symmetry_space_group_name_H-M   'P 1'
_cell_length_a   5.91588035
_cell_length_b   11.58415303
_cell_length_c   5.63996628
_cell_angle_alpha   90.00000000
_cell_angle_beta   90.00000000
_cell_angle_gamma   90.00000000
_symmetry_Int_Tables_number   1
_chemical_formula_structural   GdAl
_chemical_formula_sum   'Gd8 Al8'
_cell_volume   386.50950226
_cell_formula_units_Z   8
loop_
 _symmetry_equiv_pos_site_id
 _symmetry_equiv_pos_as_xyz
  1  'x, y, z'
loop_
 _atom_site_type_symbol
 _atom_site_label
 _atom_site_symmetry_multiplicity
 _atom_site_fract_x
 _atom_site_fract_y
 _atom_site_fract_z
 _atom_site_occupancy
  Gd  Gd0  1  0.84098735  0.48305035  0.75000000  1.0
  Gd  Gd1  1  0.84098735  0.01694965  0.25000000  1.0
  Gd  Gd2  1  0.15901265  0.98305035  0.75000000  1.0
  Gd  Gd3  1  0.15901265  0.51694965  0.25000000  1.0
  Gd  Gd4  1  0.39808804  0.66763020  0.75000000  1.0
  Gd  Gd5  1  0.39808804  0.83236980  0.25000000  1.0
  Gd  Gd6  1  0.60191196  0.16763020  0.75000000  1.0
  Gd  Gd7  1  0.60191196  0.33236980  0.25000000  1.0
  Al  Al8  1  0.92193418  0.75000000  0.00000000  1.0
  Al  Al9  1  0.92193418  0.75000000  0.50000000  1.0
  Al  Al10  1  0.07806582  0.25000000  0.00000000  1.0
  Al  Al11  1  0.07806582  0.25000000  0.50000000  1.0
  Al  Al12  1  0.65861218  0.90134735  0.75000000  1.0
  Al  Al13  1  0.65861218  0.59865265  0.25000000  1.0
  Al  Al14  1  0.34138782  0.40134735  0.75000000  1.0
  Al  Al15  1  0.34138782  0.09865265  0.25000000  1.0
