# generated using pymatgen
data_Rb2Cr2O7
_symmetry_space_group_name_H-M   'P 1'
_cell_length_a   7.98308363
_cell_length_b   7.68135109
_cell_length_c   8.06514090
_cell_angle_alpha   113.09927167
_cell_angle_beta   103.95971231
_cell_angle_gamma   95.21751628
_symmetry_Int_Tables_number   1
_chemical_formula_structural   Rb2Cr2O7
_chemical_formula_sum   'Rb4 Cr4 O14'
_cell_volume   431.82926836
_cell_formula_units_Z   2
loop_
 _symmetry_equiv_pos_site_id
 _symmetry_equiv_pos_as_xyz
  1  'x, y, z'
loop_
 _atom_site_type_symbol
 _atom_site_label
 _atom_site_symmetry_multiplicity
 _atom_site_fract_x
 _atom_site_fract_y
 _atom_site_fract_z
 _atom_site_occupancy
  Rb  Rb0  1  0.74257649  0.86055943  1.01824945  1.0
  Rb  Rb1  1  0.25742351  0.13944057  -0.01824945  1.0
  Rb  Rb2  1  0.71763350  0.30399146  0.58805031  1.0
  Rb  Rb3  1  0.28236650  0.69600854  0.41194969  1.0
  Cr  Cr4  1  0.77225277  0.79845728  0.50561461  1.0
  Cr  Cr5  1  0.22774723  0.20154272  0.49438539  1.0
  Cr  Cr6  1  0.20040696  0.59131542  0.84469295  1.0
  Cr  Cr7  1  0.79959304  0.40868458  0.15530705  1.0
  O  O8  1  0.91969633  0.98098800  0.67201169  1.0
  O  O9  1  0.08030367  0.01901200  0.32798831  1.0
  O  O10  1  0.64140642  0.87274230  0.37100028  1.0
  O  O11  1  0.35859358  0.12725770  0.62899972  1.0
  O  O12  1  0.34227231  0.74347680  0.82524063  1.0
  O  O13  1  0.65772769  0.25652320  0.17475937  1.0
  O  O14  1  0.65650181  0.69600092  0.59594507  1.0
  O  O15  1  0.34349819  0.30399908  0.40405493  1.0
  O  O16  1  0.03059732  0.68337140  0.87891159  1.0
  O  O17  1  0.96940268  0.31662860  0.12108841  1.0
  O  O18  1  0.87882300  0.62627109  0.36990803  1.0
  O  O19  1  0.12117700  0.37372891  0.63009197  1.0
  O  O20  1  0.70916513  0.46034361  0.98265290  1.0
  O  O21  1  0.29083487  0.53965639  0.01734710  1.0
