# generated using pymatgen
data_Tl3InF6
_symmetry_space_group_name_H-M   'P 1'
_cell_length_a   6.82441272
_cell_length_b   6.82441272
_cell_length_c   6.82441272
_cell_angle_alpha   118.20480442
_cell_angle_beta   118.20480442
_cell_angle_gamma   93.13855191
_symmetry_Int_Tables_number   1
_chemical_formula_structural   Tl3InF6
_chemical_formula_sum   'Tl3 In1 F6'
_cell_volume   230.46440209
_cell_formula_units_Z   1
loop_
 _symmetry_equiv_pos_site_id
 _symmetry_equiv_pos_as_xyz
  1  'x, y, z'
loop_
 _atom_site_type_symbol
 _atom_site_label
 _atom_site_symmetry_multiplicity
 _atom_site_fract_x
 _atom_site_fract_y
 _atom_site_fract_z
 _atom_site_occupancy
  Tl  Tl0  1  0.25000000  0.75000000  0.50000000  1.0
  Tl  Tl1  1  0.75000000  0.25000000  0.50000000  1.0
  Tl  Tl2  1  0.50000000  0.50000000  1.00000000  1.0
  In  In3  1  0.00000000  0.00000000  0.00000000  1.0
  F  F4  1  0.00000000  0.70046033  0.70046033  1.0
  F  F5  1  0.70046033  0.00000000  0.70046033  1.0
  F  F6  1  0.29953967  0.00000000  0.29953967  1.0
  F  F7  1  0.00000000  0.29953967  0.29953967  1.0
  F  F8  1  0.77163688  0.77163688  1.00000000  1.0
  F  F9  1  0.22836312  0.22836312  -0.00000000  1.0
