# generated using pymatgen
data_Lu5Rh3
_symmetry_space_group_name_H-M   'P 1'
_cell_length_a   8.12675376
_cell_length_b   8.12675376
_cell_length_c   6.12966478
_cell_angle_alpha   90.00000000
_cell_angle_beta   90.00000000
_cell_angle_gamma   120.00000000
_symmetry_Int_Tables_number   1
_chemical_formula_structural   Lu5Rh3
_chemical_formula_sum   'Lu10 Rh6'
_cell_volume   350.59164116
_cell_formula_units_Z   2
loop_
 _symmetry_equiv_pos_site_id
 _symmetry_equiv_pos_as_xyz
  1  'x, y, z'
loop_
 _atom_site_type_symbol
 _atom_site_label
 _atom_site_symmetry_multiplicity
 _atom_site_fract_x
 _atom_site_fract_y
 _atom_site_fract_z
 _atom_site_occupancy
  Lu  Lu0  1  0.75012619  0.75012619  0.25000000  1.0
  Lu  Lu1  1  0.75012619  0.00000000  0.75000000  1.0
  Lu  Lu2  1  0.00000000  0.75012619  0.75000000  1.0
  Lu  Lu3  1  -0.00000000  0.24987381  0.25000000  1.0
  Lu  Lu4  1  0.24987381  0.24987381  0.75000000  1.0
  Lu  Lu5  1  0.24987381  -0.00000000  0.25000000  1.0
  Lu  Lu6  1  0.33333333  0.66666667  0.50000000  1.0
  Lu  Lu7  1  0.33333333  0.66666667  0.00000000  1.0
  Lu  Lu8  1  0.66666667  0.33333333  0.50000000  1.0
  Lu  Lu9  1  0.66666667  0.33333333  0.00000000  1.0
  Rh  Rh10  1  0.39880104  0.39880104  0.25000000  1.0
  Rh  Rh11  1  0.39880104  0.00000000  0.75000000  1.0
  Rh  Rh12  1  -0.00000000  0.39880104  0.75000000  1.0
  Rh  Rh13  1  0.00000000  0.60119896  0.25000000  1.0
  Rh  Rh14  1  0.60119896  0.60119896  0.75000000  1.0
  Rh  Rh15  1  0.60119896  -0.00000000  0.25000000  1.0
