# generated using pymatgen
data_Ti4Co4Ge7
_symmetry_space_group_name_H-M   'P 1'
_cell_length_a   9.44803657
_cell_length_b   9.44803657
_cell_length_c   9.44803657
_cell_angle_alpha   94.15658738
_cell_angle_beta   94.15658738
_cell_angle_gamma   148.76359769
_symmetry_Int_Tables_number   1
_chemical_formula_structural   Ti4Co4Ge7
_chemical_formula_sum   'Ti8 Co8 Ge14'
_cell_volume   421.20491656
_cell_formula_units_Z   2
loop_
 _symmetry_equiv_pos_site_id
 _symmetry_equiv_pos_as_xyz
  1  'x, y, z'
loop_
 _atom_site_type_symbol
 _atom_site_label
 _atom_site_symmetry_multiplicity
 _atom_site_fract_x
 _atom_site_fract_y
 _atom_site_fract_z
 _atom_site_occupancy
  Ti  Ti0  1  0.00000000  0.80831551  0.80831551  1.0
  Ti  Ti1  1  0.80831551  1.00000000  0.80831551  1.0
  Ti  Ti2  1  1.19168449  1.00000000  1.19168449  1.0
  Ti  Ti3  1  0.00000000  0.19168449  0.19168449  1.0
  Ti  Ti4  1  0.63685219  0.63685219  0.27370438  1.0
  Ti  Ti5  1  1.36314781  0.63685219  1.00000000  1.0
  Ti  Ti6  1  0.63685219  0.36314781  1.00000000  1.0
  Ti  Ti7  1  0.36314781  0.36314781  0.72629562  1.0
  Co  Co8  1  1.09961802  0.59961802  1.19923603  1.0
  Co  Co9  1  1.59961802  1.09961802  1.19923603  1.0
  Co  Co10  1  0.40038198  0.59961802  0.50000000  1.0
  Co  Co11  1  0.90038198  1.09961802  0.50000000  1.0
  Co  Co12  1  1.09961802  0.90038198  1.50000000  1.0
  Co  Co13  1  1.59961802  1.40038198  1.50000000  1.0
  Co  Co14  1  0.40038198  0.90038198  0.80076397  1.0
  Co  Co15  1  0.90038198  1.40038198  0.80076397  1.0
  Ge  Ge16  1  0.50000000  0.78435052  0.28435052  1.0
  Ge  Ge17  1  0.78435052  0.50000000  1.28435052  1.0
  Ge  Ge18  1  0.21564948  0.50000000  0.71564948  1.0
  Ge  Ge19  1  0.50000000  1.21564948  0.71564948  1.0
  Ge  Ge20  1  0.00000000  0.59699753  0.59699753  1.0
  Ge  Ge21  1  0.59699753  1.00000000  0.59699753  1.0
  Ge  Ge22  1  1.40300247  1.00000000  1.40300247  1.0
  Ge  Ge23  1  0.00000000  0.40300247  0.40300247  1.0
  Ge  Ge24  1  0.79747908  0.79747908  0.59495815  1.0
  Ge  Ge25  1  1.20252092  0.79747908  1.00000000  1.0
  Ge  Ge26  1  0.79747908  0.20252092  1.00000000  1.0
  Ge  Ge27  1  0.20252092  0.20252092  0.40504185  1.0
  Ge  Ge28  1  0.74894892  0.74894892  0.00000000  1.0
  Ge  Ge29  1  0.25105108  0.25105108  -0.00000000  1.0
