# generated using pymatgen
data_SrAl2B2O7
_symmetry_space_group_name_H-M   'P 1'
_cell_length_a   16.45519269
_cell_length_b   16.45519269
_cell_length_c   16.45519269
_cell_angle_alpha   17.29902022
_cell_angle_beta   17.29902022
_cell_angle_gamma   17.29902022
_symmetry_Int_Tables_number   1
_chemical_formula_structural   SrAl2B2O7
_chemical_formula_sum   'Sr2 Al4 B4 O14'
_cell_volume   343.78472018
_cell_formula_units_Z   2
loop_
 _symmetry_equiv_pos_site_id
 _symmetry_equiv_pos_as_xyz
  1  'x, y, z'
loop_
 _atom_site_type_symbol
 _atom_site_label
 _atom_site_symmetry_multiplicity
 _atom_site_fract_x
 _atom_site_fract_y
 _atom_site_fract_z
 _atom_site_occupancy
  Sr  Sr0  1  1.00000000  0.00000000  -0.00000000  1.0
  Sr  Sr1  1  0.50000000  0.50000000  0.50000000  1.0
  Al  Al2  1  0.78483949  0.78483949  -0.21516051  1.0
  Al  Al3  1  0.28483949  0.28483949  0.28483949  1.0
  Al  Al4  1  0.71516051  0.71516051  -0.28483949  1.0
  Al  Al5  1  0.21516051  0.21516051  0.21516051  1.0
  B  B6  1  0.86743136  -0.13256864  -0.13256864  1.0
  B  B7  1  0.36743136  0.36743136  0.36743136  1.0
  B  B8  1  0.63256864  0.63256864  -0.36743136  1.0
  B  B9  1  1.13256864  0.13256864  0.13256864  1.0
  O  O10  1  0.75000000  0.75000000  -0.25000000  1.0
  O  O11  1  0.25000000  0.25000000  0.25000000  1.0
  O  O12  1  0.56329016  -0.07645914  0.11176759  1.0
  O  O13  1  1.06329016  0.61176759  -0.57645914  1.0
  O  O14  1  0.38823241  0.57645914  -0.06329016  1.0
  O  O15  1  0.88823241  0.43670984  0.07645914  1.0
  O  O16  1  1.07645914  -0.11176759  0.43670984  1.0
  O  O17  1  0.57645914  0.93670984  -0.61176759  1.0
  O  O18  1  1.43670984  0.07645914  -0.11176759  1.0
  O  O19  1  0.93670984  0.38823241  -0.42354086  1.0
  O  O20  1  1.11176759  -0.43670984  -0.07645914  1.0
  O  O21  1  0.61176759  0.42354086  0.06329016  1.0
  O  O22  1  0.42354086  1.06329016  -0.38823241  1.0
  O  O23  1  0.92354086  0.11176759  -0.43670984  1.0
