# generated using pymatgen
data_NiSb2
_symmetry_space_group_name_H-M   'P 1'
_cell_length_a   6.33981177
_cell_length_b   6.43178271
_cell_length_c   12.50278758
_cell_angle_alpha   90.00000000
_cell_angle_beta   90.00000000
_cell_angle_gamma   90.00000000
_symmetry_Int_Tables_number   1
_chemical_formula_structural   NiSb2
_chemical_formula_sum   'Ni8 Sb16'
_cell_volume   509.81731413
_cell_formula_units_Z   8
loop_
 _symmetry_equiv_pos_site_id
 _symmetry_equiv_pos_as_xyz
  1  'x, y, z'
loop_
 _atom_site_type_symbol
 _atom_site_label
 _atom_site_symmetry_multiplicity
 _atom_site_fract_x
 _atom_site_fract_y
 _atom_site_fract_z
 _atom_site_occupancy
  Ni  Ni0  1  0.49448402  0.83102700  0.62869781  1.0
  Ni  Ni1  1  0.49448402  0.66897300  0.12869781  1.0
  Ni  Ni2  1  0.99448402  0.83102700  0.87130219  1.0
  Ni  Ni3  1  0.99448402  0.66897300  0.37130219  1.0
  Ni  Ni4  1  0.50551598  0.33102700  0.87130219  1.0
  Ni  Ni5  1  0.50551598  0.16897300  0.37130219  1.0
  Ni  Ni6  1  0.00551598  0.33102700  0.62869781  1.0
  Ni  Ni7  1  0.00551598  0.16897300  0.12869781  1.0
  Sb  Sb8  1  0.35150409  0.68472436  0.93499028  1.0
  Sb  Sb9  1  0.35150409  0.81527564  0.43499028  1.0
  Sb  Sb10  1  0.85150409  0.68472436  0.56500972  1.0
  Sb  Sb11  1  0.85150409  0.81527564  0.06500972  1.0
  Sb  Sb12  1  0.64849591  0.18472436  0.56500972  1.0
  Sb  Sb13  1  0.64849591  0.31527564  0.06500972  1.0
  Sb  Sb14  1  0.14849591  0.18472436  0.93499028  1.0
  Sb  Sb15  1  0.14849591  0.31527564  0.43499028  1.0
  Sb  Sb16  1  0.12806498  0.96130040  0.68490093  1.0
  Sb  Sb17  1  0.12806498  0.53869960  0.18490093  1.0
  Sb  Sb18  1  0.62806498  0.96130040  0.81509907  1.0
  Sb  Sb19  1  0.62806498  0.53869960  0.31509907  1.0
  Sb  Sb20  1  0.87193502  0.46130040  0.81509907  1.0
  Sb  Sb21  1  0.87193502  0.03869960  0.31509907  1.0
  Sb  Sb22  1  0.37193502  0.46130040  0.68490093  1.0
  Sb  Sb23  1  0.37193502  0.03869960  0.18490093  1.0
