# generated using pymatgen
data_BaPb2C2(O3F)2
_symmetry_space_group_name_H-M   'P 1'
_cell_length_a   8.72481058
_cell_length_b   8.72481058
_cell_length_c   8.72481058
_cell_angle_alpha   34.90176668
_cell_angle_beta   34.90176668
_cell_angle_gamma   34.90176668
_symmetry_Int_Tables_number   1
_chemical_formula_structural   BaPb2C2(O3F)2
_chemical_formula_sum   'Ba1 Pb2 C2 O6 F2'
_cell_volume   194.10672326
_cell_formula_units_Z   1
loop_
 _symmetry_equiv_pos_site_id
 _symmetry_equiv_pos_as_xyz
  1  'x, y, z'
loop_
 _atom_site_type_symbol
 _atom_site_label
 _atom_site_symmetry_multiplicity
 _atom_site_fract_x
 _atom_site_fract_y
 _atom_site_fract_z
 _atom_site_occupancy
  Ba  Ba0  1  -0.00000000  -0.00000000  0.00000000  1.0
  Pb  Pb1  1  0.78091204  0.78091204  0.78091204  1.0
  Pb  Pb2  1  1.21908796  1.21908796  0.21908796  1.0
  C  C3  1  1.57240232  0.57240232  0.57240232  1.0
  C  C4  1  1.42759768  0.42759768  0.42759768  1.0
  O  O5  1  1.28526102  0.28526102  0.71467018  1.0
  O  O6  1  1.28526102  0.71467018  0.28526102  1.0
  O  O7  1  1.28532982  0.71473898  0.71473898  1.0
  O  O8  1  1.71473898  0.28532982  0.71473898  1.0
  O  O9  1  1.71473898  0.71473898  0.28532982  1.0
  O  O10  1  1.71467018  0.28526102  0.28526102  1.0
  F  F11  1  0.68980661  0.68980661  0.68980661  1.0
  F  F12  1  1.31019339  1.31019339  0.31019339  1.0
