# generated using pymatgen
data_H4CN4O
_symmetry_space_group_name_H-M   'P 1'
_cell_length_a   4.75740314
_cell_length_b   11.29703186
_cell_length_c   8.58138871
_cell_angle_alpha   106.52060298
_cell_angle_beta   110.53984506
_cell_angle_gamma   89.04512911
_symmetry_Int_Tables_number   1
_chemical_formula_structural   H4CN4O
_chemical_formula_sum   'H16 C4 N16 O4'
_cell_volume   412.27633055
_cell_formula_units_Z   4
loop_
 _symmetry_equiv_pos_site_id
 _symmetry_equiv_pos_as_xyz
  1  'x, y, z'
loop_
 _atom_site_type_symbol
 _atom_site_label
 _atom_site_symmetry_multiplicity
 _atom_site_fract_x
 _atom_site_fract_y
 _atom_site_fract_z
 _atom_site_occupancy
  H  H0  1  -1.01195976  -0.67996394  -0.54690544  1.0
  H  H1  1  0.01195976  -0.32003606  -0.45309456  1.0
  H  H2  1  -0.91032036  -0.15281167  -0.84317576  1.0
  H  H3  1  -0.08967964  -0.84718833  -0.15682424  1.0
  H  H4  1  -0.68598100  -0.59471235  -0.37593316  1.0
  H  H5  1  -0.31401900  -0.40528765  -0.62406684  1.0
  H  H6  1  -0.70351308  -0.30918755  -0.77516717  1.0
  H  H7  1  -0.29648692  -0.69081245  -0.22483283  1.0
  H  H8  1  -0.44601624  -0.93283257  -0.23903521  1.0
  H  H9  1  -0.55398376  -0.06716743  -0.76096479  1.0
  H  H10  1  -0.43751908  -0.91388555  -0.83823254  1.0
  H  H11  1  -0.56248092  -0.08611445  -0.16176746  1.0
  H  H12  1  -0.23628703  -0.94181931  -0.36726899  1.0
  H  H13  1  -0.76371297  -0.05818069  -0.63273101  1.0
  H  H14  1  -0.16730597  -0.94182969  -0.68879117  1.0
  H  H15  1  -0.83269403  -0.05817031  -0.31120883  1.0
  C  C16  1  -0.78748298  -0.61482920  -0.92627176  1.0
  C  C17  1  -0.21251702  -0.38517080  -0.07372824  1.0
  C  C18  1  -0.69507895  -0.78522568  -0.43206855  1.0
  C  C19  1  -0.30492105  -0.21477432  -0.56793145  1.0
  N  N20  1  -0.98729432  -0.44117764  -0.97523419  1.0
  N  N21  1  -0.01270568  -0.55882236  -0.02476581  1.0
  N  N22  1  -0.80929540  -0.67850451  -0.45005663  1.0
  N  N23  1  -0.19070460  -0.32149549  -0.54994337  1.0
  N  N24  1  -0.80139010  -0.73999143  -0.97428092  1.0
  N  N25  1  -0.19860990  -0.26000857  -0.02571908  1.0
  N  N26  1  -0.71063447  -0.11953027  -0.73183554  1.0
  N  N27  1  -0.28936553  -0.88046973  -0.26816446  1.0
  N  N28  1  -0.59490642  -0.22607347  -0.68565068  1.0
  N  N29  1  -0.40509358  -0.77392653  -0.31434932  1.0
  N  N30  1  -0.56011853  -0.76639721  -0.85923140  1.0
  N  N31  1  -0.43988147  -0.23360279  -0.14076860  1.0
  N  N32  1  -0.54028880  -0.56462023  -0.78305697  1.0
  N  N33  1  -0.45971120  -0.43537977  -0.21694303  1.0
  N  N34  1  -0.40301075  -0.66129615  -0.74402816  1.0
  N  N35  1  -0.59698925  -0.33870385  -0.25597184  1.0
  O  O36  1  -0.83170536  -0.89148290  -0.51481853  1.0
  O  O37  1  -0.16829464  -0.10851710  -0.48518147  1.0
  O  O38  1  -0.33912923  -0.98370463  -0.79701446  1.0
  O  O39  1  -0.66087077  -0.01629537  -0.20298554  1.0
