# generated using pymatgen
data_YbI3
_symmetry_space_group_name_H-M   'P 1'
_cell_length_a   8.58517476
_cell_length_b   8.58517476
_cell_length_c   8.58517476
_cell_angle_alpha   52.87348187
_cell_angle_beta   52.87348187
_cell_angle_gamma   52.87348187
_symmetry_Int_Tables_number   1
_chemical_formula_structural   YbI3
_chemical_formula_sum   'Yb2 I6'
_cell_volume   372.66835936
_cell_formula_units_Z   2
loop_
 _symmetry_equiv_pos_site_id
 _symmetry_equiv_pos_as_xyz
  1  'x, y, z'
loop_
 _atom_site_type_symbol
 _atom_site_label
 _atom_site_symmetry_multiplicity
 _atom_site_fract_x
 _atom_site_fract_y
 _atom_site_fract_z
 _atom_site_occupancy
  Yb  Yb0  1  0.16659289  0.16659289  0.16659289  1.0
  Yb  Yb1  1  0.83340711  -0.16659289  -0.16659289  1.0
  I  I2  1  0.42138918  0.07267795  -0.23039153  1.0
  I  I3  1  0.23039153  0.57861082  -0.07267795  1.0
  I  I4  1  0.92732205  0.23039153  -0.42138918  1.0
  I  I5  1  0.57861082  0.92732205  -0.76960847  1.0
  I  I6  1  0.76960847  -0.57861082  0.07267795  1.0
  I  I7  1  1.07267795  -0.23039153  -0.57861082  1.0
