# generated using pymatgen
data_V3(NO4)2
_symmetry_space_group_name_H-M   'P 1'
_cell_length_a   8.83090813
_cell_length_b   8.83090813
_cell_length_c   6.60309775
_cell_angle_alpha   90.00000000
_cell_angle_beta   90.00000000
_cell_angle_gamma   90.00000000
_symmetry_Int_Tables_number   1
_chemical_formula_structural   V3(NO4)2
_chemical_formula_sum   'V6 N4 O16'
_cell_volume   514.94217099
_cell_formula_units_Z   2
loop_
 _symmetry_equiv_pos_site_id
 _symmetry_equiv_pos_as_xyz
  1  'x, y, z'
loop_
 _atom_site_type_symbol
 _atom_site_label
 _atom_site_symmetry_multiplicity
 _atom_site_fract_x
 _atom_site_fract_y
 _atom_site_fract_z
 _atom_site_occupancy
  N  N0  1  0.72700433  0.77299567  0.84420870  1.0
  N  N1  1  0.22700433  0.72700433  0.84420870  1.0
  N  N2  1  0.27299567  0.22700433  0.84420870  1.0
  N  N3  1  0.77299567  0.27299567  0.84420870  1.0
  O  O4  1  0.30402830  0.57717483  0.38518560  1.0
  O  O5  1  0.80402830  0.92282517  0.38518560  1.0
  O  O6  1  0.42282517  0.30402830  0.38518560  1.0
  O  O7  1  0.92282517  0.19597170  0.38518560  1.0
  O  O8  1  0.69597170  0.42282517  0.38518560  1.0
  O  O9  1  0.19597170  0.07717483  0.38518560  1.0
  O  O10  1  0.57717483  0.69597170  0.38518560  1.0
  O  O11  1  0.07717483  0.80402830  0.38518560  1.0
  O  O12  1  0.00000000  0.50000000  0.27004528  1.0
  O  O13  1  0.50000000  0.00000000  0.27004528  1.0
  O  O14  1  0.50000000  0.50000000  0.07430454  1.0
  O  O15  1  0.00000000  0.00000000  0.07430454  1.0
  O  O16  1  0.31637079  0.18362921  1.00967351  1.0
  O  O17  1  0.81637079  0.31637079  1.00967351  1.0
  O  O18  1  0.68362921  0.81637079  1.00967351  1.0
  O  O19  1  0.18362921  0.68362921  1.00967351  1.0
  V  V20  1  0.35763582  0.14236418  0.27504385  1.0
  V  V21  1  0.85763582  0.35763582  0.27504385  1.0
  V  V22  1  0.64236418  0.85763582  0.27504385  1.0
  V  V23  1  0.14236418  0.64236418  0.27504385  1.0
  V  V24  1  0.50000000  0.50000000  0.31435566  1.0
  V  V25  1  0.00000000  0.00000000  0.31435566  1.0
