# generated using pymatgen
data_InOF
_symmetry_space_group_name_H-M   'P 1'
_cell_length_a   6.70785987
_cell_length_b   6.30473698
_cell_length_c   5.56417611
_cell_angle_alpha   68.49985495
_cell_angle_beta   60.98600989
_cell_angle_gamma   50.51413517
_symmetry_Int_Tables_number   1
_chemical_formula_structural   InOF
_chemical_formula_sum   'In4 O4 F4'
_cell_volume   158.23131218
_cell_formula_units_Z   4
loop_
 _symmetry_equiv_pos_site_id
 _symmetry_equiv_pos_as_xyz
  1  'x, y, z'
loop_
 _atom_site_type_symbol
 _atom_site_label
 _atom_site_symmetry_multiplicity
 _atom_site_fract_x
 _atom_site_fract_y
 _atom_site_fract_z
 _atom_site_occupancy
  In  In0  1  1.29919315  -0.29919315  0.29919315  1.0
  In  In1  1  0.70080685  0.29919315  -0.29919315  1.0
  In  In2  1  0.95080685  0.54919315  0.95080685  1.0
  In  In3  1  0.54919315  0.95080685  0.54919315  1.0
  O  O4  1  1.36357759  0.36357759  -0.36357759  1.0
  O  O5  1  0.63642241  0.63642241  0.36357759  1.0
  O  O6  1  -0.11357759  0.88642241  0.61357759  1.0
  O  O7  1  0.61357759  0.61357759  -0.11357759  1.0
  F  F8  1  0.12500000  1.12500000  0.12500000  1.0
  F  F9  1  0.12500000  0.62500000  1.12500000  1.0
  F  F10  1  0.12500000  1.12500000  0.62500000  1.0
  F  F11  1  0.62500000  0.12500000  0.12500000  1.0
