# generated using pymatgen
data_Ca3N2
_symmetry_space_group_name_H-M   'P 1'
_cell_length_a   9.91574675
_cell_length_b   9.91574675
_cell_length_c   9.91574675
_cell_angle_alpha   109.47122063
_cell_angle_beta   109.47122063
_cell_angle_gamma   109.47122063
_symmetry_Int_Tables_number   1
_chemical_formula_structural   Ca3N2
_chemical_formula_sum   'Ca24 N16'
_cell_volume   750.50637988
_cell_formula_units_Z   8
loop_
 _symmetry_equiv_pos_site_id
 _symmetry_equiv_pos_as_xyz
  1  'x, y, z'
loop_
 _atom_site_type_symbol
 _atom_site_label
 _atom_site_symmetry_multiplicity
 _atom_site_fract_x
 _atom_site_fract_y
 _atom_site_fract_z
 _atom_site_occupancy
  Ca  Ca0  1  0.54369997  0.53719073  0.77227171  1.0
  Ca  Ca1  1  1.04369997  0.27142826  1.00650924  1.0
  Ca  Ca2  1  0.26491902  0.77142826  0.72772829  1.0
  Ca  Ca3  1  0.76491902  1.03719073  0.49349076  1.0
  Ca  Ca4  1  0.50650924  1.23508098  0.96280927  1.0
  Ca  Ca5  1  1.00650924  1.04369997  0.27142826  1.0
  Ca  Ca6  1  0.77227171  0.54369997  0.53719073  1.0
  Ca  Ca7  1  1.27227171  0.73508098  1.22857174  1.0
  Ca  Ca8  1  0.77142826  0.72772829  0.26491902  1.0
  Ca  Ca9  1  1.27142826  1.00650924  1.04369997  1.0
  Ca  Ca10  1  0.96280927  0.50650924  1.23508098  1.0
  Ca  Ca11  1  1.46280927  1.22772829  1.45630003  1.0
  Ca  Ca12  1  1.73508098  1.22857174  1.27227171  1.0
  Ca  Ca13  1  1.23508098  0.96280927  1.50650924  1.0
  Ca  Ca14  1  1.45630003  1.46280927  1.22772829  1.0
  Ca  Ca15  1  0.95630003  1.72857174  0.99349076  1.0
  Ca  Ca16  1  1.22772829  1.45630003  1.46280927  1.0
  Ca  Ca17  1  0.72772829  1.26491902  0.77142826  1.0
  Ca  Ca18  1  1.49349076  0.76491902  1.03719073  1.0
  Ca  Ca19  1  0.99349076  0.95630003  1.72857174  1.0
  Ca  Ca20  1  1.03719073  1.49349076  0.76491902  1.0
  Ca  Ca21  1  0.53719073  0.77227171  0.54369997  1.0
  Ca  Ca22  1  1.22857174  1.27227171  1.73508098  1.0
  Ca  Ca23  1  0.72857174  0.99349076  0.95630003  1.0
  N  N24  1  1.71048332  1.46048332  1.25000000  1.0
  N  N25  1  1.21048332  0.96048332  1.25000000  1.0
  N  N26  1  0.75000000  0.78951668  0.03951668  1.0
  N  N27  1  0.25000000  1.21048332  0.96048332  1.0
  N  N28  1  0.25000000  0.71048332  0.46048332  1.0
  N  N29  1  0.75000000  1.28951668  0.53951668  1.0
  N  N30  1  1.46048332  1.25000000  1.71048332  1.0
  N  N31  1  0.96048332  0.25000000  1.21048332  1.0
  N  N32  1  0.03951668  0.75000000  0.78951668  1.0
  N  N33  1  0.53951668  0.75000000  0.28951668  1.0
  N  N34  1  0.28951668  0.53951668  0.75000000  1.0
  N  N35  1  0.78951668  1.03951668  0.75000000  1.0
  N  N36  1  1.00000000  0.50000000  1.00000000  1.0
  N  N37  1  0.50000000  0.50000000  0.50000000  1.0
  N  N38  1  1.00000000  1.00000000  1.50000000  1.0
  N  N39  1  1.50000000  1.00000000  1.00000000  1.0
