# generated using pymatgen
data_Cu2H5C3N3O5
_symmetry_space_group_name_H-M   'P 1'
_cell_length_a   8.02106694
_cell_length_b   8.02106694
_cell_length_c   6.01365731
_cell_angle_alpha   86.32838537
_cell_angle_beta   93.67161463
_cell_angle_gamma   75.66154337
_symmetry_Int_Tables_number   1
_chemical_formula_structural   Cu2H5C3N3O5
_chemical_formula_sum   'Cu4 H10 C6 N6 O10'
_cell_volume   372.80279846
_cell_formula_units_Z   2
loop_
 _symmetry_equiv_pos_site_id
 _symmetry_equiv_pos_as_xyz
  1  'x, y, z'
loop_
 _atom_site_type_symbol
 _atom_site_label
 _atom_site_symmetry_multiplicity
 _atom_site_fract_x
 _atom_site_fract_y
 _atom_site_fract_z
 _atom_site_occupancy
  Cu  Cu0  1  1.45725610  0.20726473  0.18505346  1.0
  Cu  Cu1  1  0.79273527  -0.45725610  0.68505346  1.0
  Cu  Cu2  1  1.20726473  0.45725610  0.31494654  1.0
  Cu  Cu3  1  0.54274390  -0.20726473  0.81494654  1.0
  H  H4  1  1.73317444  0.22193296  0.42382920  1.0
  H  H5  1  0.77806704  -0.73317444  0.92382920  1.0
  H  H6  1  1.22193296  0.73317444  0.07617080  1.0
  H  H7  1  0.26682556  -0.22193296  0.57617080  1.0
  H  H8  1  1.55900200  0.29768603  0.54086852  1.0
  H  H9  1  0.70231397  -0.55900200  1.04086852  1.0
  H  H10  1  1.29768603  0.55900200  -0.04086852  1.0
  H  H11  1  0.44099800  -0.29768603  0.45913148  1.0
  H  H12  1  0.98660981  -0.01339019  0.25000000  1.0
  H  H13  1  1.01339019  0.01339019  0.75000000  1.0
  C  C14  1  0.78688018  -0.07512875  0.06838595  1.0
  C  C15  1  1.07512875  0.21311982  0.56838595  1.0
  C  C16  1  0.92487125  -0.21311982  0.43161405  1.0
  C  C17  1  1.21311982  0.07512875  0.93161405  1.0
  C  C18  1  0.69541269  -0.30458731  0.25000000  1.0
  C  C19  1  1.30458731  0.30458731  0.75000000  1.0
  N  N20  1  0.68801029  -0.19134002  0.06567191  1.0
  N  N21  1  1.19134002  0.31198971  0.56567191  1.0
  N  N22  1  0.80865998  -0.31198971  0.43432809  1.0
  N  N23  1  1.31198971  0.19134002  0.93432809  1.0
  N  N24  1  0.90590881  -0.09409119  0.25000000  1.0
  N  N25  1  1.09409119  0.09409119  0.75000000  1.0
  O  O26  1  1.77338962  0.04270396  0.91661741  1.0
  O  O27  1  0.95729604  -0.77338962  0.41661741  1.0
  O  O28  1  1.04270396  0.77338962  0.58338259  1.0
  O  O29  1  0.22661038  -0.04270396  0.08338259  1.0
  O  O30  1  1.61173595  0.21495922  0.43439486  1.0
  O  O31  1  0.78504078  -0.61173595  0.93439486  1.0
  O  O32  1  1.21495922  0.61173595  0.06560514  1.0
  O  O33  1  0.38826405  -0.21495922  0.56560514  1.0
  O  O34  1  0.59558151  -0.40441849  0.25000000  1.0
  O  O35  1  1.40441849  0.40441849  0.75000000  1.0
