# generated using pymatgen
data_Rh2(SO4)3
_symmetry_space_group_name_H-M   'P 1'
_cell_length_a   8.85539637
_cell_length_b   8.85539637
_cell_length_c   8.85539637
_cell_angle_alpha   55.53777655
_cell_angle_beta   55.53777655
_cell_angle_gamma   55.53777655
_symmetry_Int_Tables_number   1
_chemical_formula_structural   Rh2(SO4)3
_chemical_formula_sum   'Rh4 S6 O24'
_cell_volume   440.16621909
_cell_formula_units_Z   2
loop_
 _symmetry_equiv_pos_site_id
 _symmetry_equiv_pos_as_xyz
  1  'x, y, z'
loop_
 _atom_site_type_symbol
 _atom_site_label
 _atom_site_symmetry_multiplicity
 _atom_site_fract_x
 _atom_site_fract_y
 _atom_site_fract_z
 _atom_site_occupancy
  Rh  Rh0  1  0.84603484  -0.15396516  -0.15396516  1.0
  Rh  Rh1  1  0.15396516  0.15396516  0.15396516  1.0
  Rh  Rh2  1  0.35636243  0.35636243  -0.64363757  1.0
  Rh  Rh3  1  0.64363757  0.64363757  -0.35636243  1.0
  S  S4  1  0.54080222  0.25136128  -0.04259385  1.0
  S  S5  1  0.25136128  0.95740615  -0.45919778  1.0
  S  S6  1  0.95740615  0.54080222  -0.74863872  1.0
  S  S7  1  0.45919778  -0.25136128  0.04259385  1.0
  S  S8  1  0.74863872  0.04259385  -0.54080222  1.0
  S  S9  1  1.04259385  -0.54080222  -0.25136128  1.0
  O  O10  1  0.52563788  0.30546695  0.09796218  1.0
  O  O11  1  0.30546695  1.09796218  -0.47436212  1.0
  O  O12  1  1.09796218  0.52563788  -0.69453305  1.0
  O  O13  1  0.47436212  -0.30546695  -0.09796218  1.0
  O  O14  1  0.69453305  -0.09796218  -0.52563788  1.0
  O  O15  1  0.90203782  -0.52563788  -0.30546695  1.0
  O  O16  1  0.63644156  0.37292826  -0.24749403  1.0
  O  O17  1  0.37292826  0.75250597  -0.36355844  1.0
  O  O18  1  0.75250597  0.63644156  -0.62707174  1.0
  O  O19  1  0.36355844  0.62707174  -0.75250597  1.0
  O  O20  1  0.62707174  0.24749403  -0.63644156  1.0
  O  O21  1  0.24749403  0.36355844  -0.37292826  1.0
  O  O22  1  0.34287868  0.29926532  -0.03206203  1.0
  O  O23  1  0.29926532  0.96793797  -0.65712132  1.0
  O  O24  1  0.96793797  0.34287868  -0.70073467  1.0
  O  O25  1  0.65712132  -0.29926532  0.03206203  1.0
  O  O26  1  0.70073467  0.03206203  -0.34287868  1.0
  O  O27  1  1.03206203  -0.34287868  -0.29926533  1.0
  O  O28  1  0.66707769  0.03933821  -0.00446301  1.0
  O  O29  1  1.03933821  -0.00446301  -0.33292231  1.0
  O  O30  1  0.99553699  -0.33292231  0.03933821  1.0
  O  O31  1  0.33292231  -0.03933821  0.00446301  1.0
  O  O32  1  0.96066179  0.00446301  -0.66707769  1.0
  O  O33  1  1.00446301  -0.66707769  -0.03933821  1.0
