# generated using pymatgen
data_SrAl2(SiO5)2
_symmetry_space_group_name_H-M   'P 1'
_cell_length_a   5.35981305
_cell_length_b   13.21268688
_cell_length_c   5.44306069
_cell_angle_alpha   90.00000000
_cell_angle_beta   113.45865900
_cell_angle_gamma   90.00000000
_symmetry_Int_Tables_number   1
_chemical_formula_structural   SrAl2(SiO5)2
_chemical_formula_sum   'Sr2 Al4 Si4 O20'
_cell_volume   353.60456662
_cell_formula_units_Z   2
loop_
 _symmetry_equiv_pos_site_id
 _symmetry_equiv_pos_as_xyz
  1  'x, y, z'
loop_
 _atom_site_type_symbol
 _atom_site_label
 _atom_site_symmetry_multiplicity
 _atom_site_fract_x
 _atom_site_fract_y
 _atom_site_fract_z
 _atom_site_occupancy
  Si  Si0  1  0.50660064  0.87175649  0.97442173  1.0
  Si  Si1  1  0.50660064  0.62824351  0.97442173  1.0
  Si  Si2  1  0.49339936  0.37175649  0.02557827  1.0
  Si  Si3  1  0.49339936  0.12824351  0.02557827  1.0
  Al  Al4  1  0.50000000  0.50000000  0.50000000  1.0
  Al  Al5  1  0.50000000  0.00000000  0.50000000  1.0
  Al  Al6  1  0.00000000  0.50000000  0.00000000  1.0
  Al  Al7  1  0.00000000  0.00000000  0.00000000  1.0
  Sr  Sr8  1  0.82439839  0.25000000  0.65490976  1.0
  Sr  Sr9  1  0.17560161  0.75000000  0.34509024  1.0
  O  O10  1  0.64868372  0.42682734  0.85245739  1.0
  O  O11  1  0.64868372  0.07317266  0.85245739  1.0
  O  O12  1  0.35131628  0.92682734  0.14754261  1.0
  O  O13  1  0.35131628  0.57317266  0.14754261  1.0
  O  O14  1  0.55691719  0.25000000  -0.00395456  1.0
  O  O15  1  0.44308281  0.75000000  1.00395456  1.0
  O  O16  1  0.23436622  0.25000000  0.48507781  1.0
  O  O17  1  0.76563378  0.75000000  0.51492219  1.0
  O  O18  1  0.84431344  0.93459203  0.66003577  1.0
  O  O19  1  0.84431344  0.56540797  0.66003577  1.0
  O  O20  1  0.15568656  0.43459203  0.33996423  1.0
  O  O21  1  0.15568656  0.06540797  0.33996423  1.0
  O  O22  1  0.63024940  0.39860615  0.34427033  1.0
  O  O23  1  0.63024940  0.10139385  0.34427033  1.0
  O  O24  1  0.36975060  0.89860615  0.65572967  1.0
  O  O25  1  0.36975060  0.60139385  0.65572967  1.0
  O  O26  1  0.16503304  0.39106308  0.89828026  1.0
  O  O27  1  0.16503304  0.10893692  0.89828026  1.0
  O  O28  1  0.83496696  0.89106308  0.10171974  1.0
  O  O29  1  0.83496696  0.60893692  0.10171974  1.0
