# generated using pymatgen
data_MgO
_symmetry_space_group_name_H-M   'P 1'
_cell_length_a   8.72366458
_cell_length_b   8.72366458
_cell_length_c   5.66798493
_cell_angle_alpha   89.75236296
_cell_angle_beta   90.24763704
_cell_angle_gamma   120.09676977
_symmetry_Int_Tables_number   1
_chemical_formula_structural   MgO
_chemical_formula_sum   'Mg12 O12'
_cell_volume   373.18787041
_cell_formula_units_Z   12
loop_
 _symmetry_equiv_pos_site_id
 _symmetry_equiv_pos_as_xyz
  1  'x, y, z'
loop_
 _atom_site_type_symbol
 _atom_site_label
 _atom_site_symmetry_multiplicity
 _atom_site_fract_x
 _atom_site_fract_y
 _atom_site_fract_z
 _atom_site_occupancy
  Mg  Mg0  1  0.82362522  0.38061254  0.92307836  1.0
  Mg  Mg1  1  0.38061254  -0.17637478  0.57692164  1.0
  Mg  Mg2  1  1.17637478  0.61938746  0.07692164  1.0
  Mg  Mg3  1  0.61938746  0.17637478  0.42307836  1.0
  Mg  Mg4  1  0.96225443  0.82964510  0.92442603  1.0
  Mg  Mg5  1  0.82964510  -0.03774557  0.57557397  1.0
  Mg  Mg6  1  1.03774557  0.17035490  0.07557397  1.0
  Mg  Mg7  1  0.17035490  0.03774557  0.42442603  1.0
  Mg  Mg8  1  0.94108411  0.61586517  0.42274451  1.0
  Mg  Mg9  1  0.61586517  -0.05891589  0.07725549  1.0
  Mg  Mg10  1  1.05891589  0.38413483  0.57725549  1.0
  Mg  Mg11  1  0.38413483  0.05891589  0.92274451  1.0
  O  O12  1  0.95906545  0.82473007  0.57024439  1.0
  O  O13  1  0.82473007  -0.04093455  0.92975561  1.0
  O  O14  1  1.04093455  0.17526993  0.42975561  1.0
  O  O15  1  0.17526993  0.04093455  0.07024439  1.0
  O  O16  1  0.81844711  0.37919971  0.57313414  1.0
  O  O17  1  0.37919971  -0.18155289  0.92686586  1.0
  O  O18  1  1.18155289  0.62080029  0.42686586  1.0
  O  O19  1  0.62080029  0.18155289  0.07313414  1.0
  O  O20  1  0.93627825  0.61676697  0.07262269  1.0
  O  O21  1  0.61676697  -0.06372175  0.42737731  1.0
  O  O22  1  1.06372175  0.38323303  0.92737731  1.0
  O  O23  1  0.38323303  0.06372175  0.57262269  1.0
