# generated using pymatgen
data_Sc4Mn4Si7
_symmetry_space_group_name_H-M   'P 1'
_cell_length_a   9.62806490
_cell_length_b   9.62806490
_cell_length_c   9.62806490
_cell_angle_alpha   94.02379293
_cell_angle_beta   94.02379293
_cell_angle_gamma   149.27826738
_symmetry_Int_Tables_number   1
_chemical_formula_structural   Sc4Mn4Si7
_chemical_formula_sum   'Sc8 Mn8 Si14'
_cell_volume   439.67139391
_cell_formula_units_Z   2
loop_
 _symmetry_equiv_pos_site_id
 _symmetry_equiv_pos_as_xyz
  1  'x, y, z'
loop_
 _atom_site_type_symbol
 _atom_site_label
 _atom_site_symmetry_multiplicity
 _atom_site_fract_x
 _atom_site_fract_y
 _atom_site_fract_z
 _atom_site_occupancy
  Si  Si0  1  0.75078758  0.75078758  0.00000000  1.0
  Si  Si1  1  0.24921242  0.24921242  0.00000000  1.0
  Si  Si2  1  0.00000000  0.59037825  0.59037825  1.0
  Si  Si3  1  0.59037825  1.00000000  0.59037825  1.0
  Si  Si4  1  1.40962175  1.00000000  1.40962175  1.0
  Si  Si5  1  0.00000000  0.40962175  0.40962175  1.0
  Si  Si6  1  0.50000000  0.79813024  0.29813024  1.0
  Si  Si7  1  0.79813024  0.50000000  1.29813024  1.0
  Si  Si8  1  0.20186976  0.50000000  0.70186976  1.0
  Si  Si9  1  0.50000000  1.20186976  0.70186976  1.0
  Si  Si10  1  0.79043363  0.79043363  0.58086725  1.0
  Si  Si11  1  1.20956637  0.79043363  1.00000000  1.0
  Si  Si12  1  0.79043363  0.20956637  1.00000000  1.0
  Si  Si13  1  0.20956637  0.20956637  0.41913275  1.0
  Mn  Mn14  1  1.10216085  0.60216085  1.20432169  1.0
  Mn  Mn15  1  1.60216085  1.10216085  1.20432169  1.0
  Mn  Mn16  1  0.39783915  0.60216085  0.50000000  1.0
  Mn  Mn17  1  0.89783915  1.10216085  0.50000000  1.0
  Mn  Mn18  1  1.10216085  0.89783915  1.50000000  1.0
  Mn  Mn19  1  1.60216085  1.39783915  1.50000000  1.0
  Mn  Mn20  1  0.39783915  0.89783915  0.79567831  1.0
  Mn  Mn21  1  0.89783915  1.39783915  0.79567831  1.0
  Sc  Sc22  1  0.00000000  0.80221823  0.80221823  1.0
  Sc  Sc23  1  0.80221823  1.00000000  0.80221823  1.0
  Sc  Sc24  1  1.19778177  1.00000000  1.19778177  1.0
  Sc  Sc25  1  0.00000000  0.19778177  0.19778177  1.0
  Sc  Sc26  1  0.63925649  0.63925649  0.27851298  1.0
  Sc  Sc27  1  1.36074351  0.63925649  1.00000000  1.0
  Sc  Sc28  1  0.63925649  0.36074351  1.00000000  1.0
  Sc  Sc29  1  0.36074351  0.36074351  0.72148702  1.0
