# generated using pymatgen
data_Sm(Mo4O7)2
_symmetry_space_group_name_H-M   'P 1'
_cell_length_a   7.52172912
_cell_length_b   7.52172912
_cell_length_c   9.41216988
_cell_angle_alpha   90.00000000
_cell_angle_beta   90.00000000
_cell_angle_gamma   96.43620985
_symmetry_Int_Tables_number   1
_chemical_formula_structural   Sm(Mo4O7)2
_chemical_formula_sum   'Sm2 Mo16 O28'
_cell_volume   529.15052853
_cell_formula_units_Z   2
loop_
 _symmetry_equiv_pos_site_id
 _symmetry_equiv_pos_as_xyz
  1  'x, y, z'
loop_
 _atom_site_type_symbol
 _atom_site_label
 _atom_site_symmetry_multiplicity
 _atom_site_fract_x
 _atom_site_fract_y
 _atom_site_fract_z
 _atom_site_occupancy
  Sm  Sm0  1  -0.29208039  1.29208039  0.50000000  1.0
  Sm  Sm1  1  0.20791961  0.79208039  0.00000000  1.0
  Mo  Mo2  1  0.44562001  0.70350650  0.38142333  1.0
  Mo  Mo3  1  -0.20350650  1.05437999  0.88142333  1.0
  Mo  Mo4  1  0.29649350  0.55437999  0.61857667  1.0
  Mo  Mo5  1  -0.05437999  1.20350650  0.11857667  1.0
  Mo  Mo6  1  0.21072107  0.95246439  0.37414512  1.0
  Mo  Mo7  1  -0.45246439  1.28927893  0.87414512  1.0
  Mo  Mo8  1  0.04753561  0.78927893  0.62585488  1.0
  Mo  Mo9  1  -0.28927893  1.45246439  0.12585488  1.0
  Mo  Mo10  1  -0.64437646  1.32187939  0.12631673  1.0
  Mo  Mo11  1  -0.82187939  1.14437646  0.62631673  1.0
  Mo  Mo12  1  -0.32187939  1.64437646  0.87368327  1.0
  Mo  Mo13  1  -0.14437646  1.82187939  0.37368327  1.0
  Mo  Mo14  1  -0.41222234  1.09056145  0.11852462  1.0
  Mo  Mo15  1  0.40943855  0.91222234  0.61852462  1.0
  Mo  Mo16  1  -0.09056145  1.41222234  0.88147538  1.0
  Mo  Mo17  1  0.08777766  0.59056145  0.38147538  1.0
  O  O18  1  -0.60922150  1.12673896  0.48859393  1.0
  O  O19  1  -0.62673896  1.10922150  0.98859393  1.0
  O  O20  1  -0.12673896  1.60922150  0.51140607  1.0
  O  O21  1  -0.10922150  1.62673896  0.01140607  1.0
  O  O22  1  0.62357567  0.86973062  0.48527558  1.0
  O  O23  1  0.63026938  0.87642433  0.98527558  1.0
  O  O24  1  0.13026938  0.37642433  0.51472442  1.0
  O  O25  1  0.12357567  0.36973062  0.01472442  1.0
  O  O26  1  -0.44030296  1.28598536  0.26571046  1.0
  O  O27  1  0.21401464  0.94030296  0.76571046  1.0
  O  O28  1  -0.28598536  1.44030296  0.73428954  1.0
  O  O29  1  0.05969704  0.78598536  0.23428954  1.0
  O  O30  1  -0.20091226  1.03423594  0.24711312  1.0
  O  O31  1  0.46576406  0.70091226  0.74711312  1.0
  O  O32  1  -0.03423594  1.20091226  0.75288688  1.0
  O  O33  1  0.29908774  0.53423594  0.25288688  1.0
  O  O34  1  -0.81800809  1.16109585  0.23698320  1.0
  O  O35  1  -0.66109585  1.31800809  0.73698320  1.0
  O  O36  1  -0.16109585  1.81800809  0.76301680  1.0
  O  O37  1  -0.31800809  1.66109585  0.26301680  1.0
  O  O38  1  0.41190537  0.90451339  0.23790284  1.0
  O  O39  1  -0.40451339  1.08809463  0.73790284  1.0
  O  O40  1  0.09548661  0.58809463  0.76209716  1.0
  O  O41  1  -0.08809463  1.40451339  0.26209716  1.0
  O  O42  1  0.49667129  0.50332871  0.50000000  1.0
  O  O43  1  -0.00332871  0.00332871  0.00000000  1.0
  O  O44  1  -0.01805754  1.01805754  0.50000000  1.0
  O  O45  1  0.48194246  0.51805754  0.00000000  1.0
