# generated using pymatgen
data_Cs2TeH6(ClO3)2
_symmetry_space_group_name_H-M   'P 1'
_cell_length_a   6.54537356
_cell_length_b   11.34452756
_cell_length_c   8.00079962
_cell_angle_alpha   90.00000000
_cell_angle_beta   107.72783603
_cell_angle_gamma   90.00000000
_symmetry_Int_Tables_number   1
_chemical_formula_structural   Cs2TeH6(ClO3)2
_chemical_formula_sum   'Cs4 Te2 H12 Cl4 O12'
_cell_volume   565.88145126
_cell_formula_units_Z   2
loop_
 _symmetry_equiv_pos_site_id
 _symmetry_equiv_pos_as_xyz
  1  'x, y, z'
loop_
 _atom_site_type_symbol
 _atom_site_label
 _atom_site_symmetry_multiplicity
 _atom_site_fract_x
 _atom_site_fract_y
 _atom_site_fract_z
 _atom_site_occupancy
  Cs  Cs0  1  0.75116619  0.87060732  0.43952756  1.0
  Cs  Cs1  1  0.75116619  0.62939268  0.93952756  1.0
  Cs  Cs2  1  0.24883381  0.37060732  0.06047244  1.0
  Cs  Cs3  1  0.24883381  0.12939268  0.56047244  1.0
  Te  Te4  1  -0.00000000  0.50000000  0.50000000  1.0
  Te  Te5  1  0.00000000  0.00000000  0.00000000  1.0
  H  H6  1  0.84610214  0.14113225  0.17417888  1.0
  H  H7  1  0.84610214  0.35886775  0.67417888  1.0
  H  H8  1  0.15389786  0.64113225  0.32582112  1.0
  H  H9  1  0.15389786  0.85886775  0.82582112  1.0
  H  H10  1  0.77991507  0.34509990  0.30129324  1.0
  H  H11  1  0.77991507  0.15490010  0.80129324  1.0
  H  H12  1  0.22008493  0.84509990  0.19870676  1.0
  H  H13  1  0.22008493  0.65490010  0.69870676  1.0
  H  H14  1  0.62690990  0.91769729  0.92507977  1.0
  H  H15  1  0.62690990  0.58230271  0.42507977  1.0
  H  H16  1  0.37309010  0.41769729  0.57492023  1.0
  H  H17  1  0.37309010  0.08230271  0.07492023  1.0
  Cl  Cl18  1  0.61854544  0.16996844  0.30186466  1.0
  Cl  Cl19  1  0.61854544  0.33003156  0.80186466  1.0
  Cl  Cl20  1  0.38145456  0.66996844  0.19813534  1.0
  Cl  Cl21  1  0.38145456  0.83003156  0.69813534  1.0
  O  O22  1  0.98302919  0.14174691  0.14279591  1.0
  O  O23  1  0.98302919  0.35825309  0.64279591  1.0
  O  O24  1  0.01697081  0.64174691  0.35720409  1.0
  O  O25  1  0.01697081  0.85825309  0.85720409  1.0
  O  O26  1  0.82417507  0.42505730  0.27483274  1.0
  O  O27  1  0.82417507  0.07494270  0.77483274  1.0
  O  O28  1  0.17582493  0.92505730  0.22516726  1.0
  O  O29  1  0.17582493  0.57494270  0.72516726  1.0
  O  O30  1  0.26044708  0.42695460  0.46000072  1.0
  O  O31  1  0.26044708  0.07304540  0.96000072  1.0
  O  O32  1  0.73955292  0.92695460  0.03999928  1.0
  O  O33  1  0.73955292  0.57304540  0.53999928  1.0
