# generated using pymatgen
data_In2Te3
_symmetry_space_group_name_H-M   'P 1'
_cell_length_a   9.99477588
_cell_length_b   9.99477588
_cell_length_c   9.99477588
_cell_angle_alpha   25.10894945
_cell_angle_beta   25.10894945
_cell_angle_gamma   25.10894945
_symmetry_Int_Tables_number   1
_chemical_formula_structural   In2Te3
_chemical_formula_sum   'In2 Te3'
_cell_volume   158.18677744
_cell_formula_units_Z   1
loop_
 _symmetry_equiv_pos_site_id
 _symmetry_equiv_pos_as_xyz
  1  'x, y, z'
loop_
 _atom_site_type_symbol
 _atom_site_label
 _atom_site_symmetry_multiplicity
 _atom_site_fract_x
 _atom_site_fract_y
 _atom_site_fract_z
 _atom_site_occupancy
  In  In0  1  1.59927959  0.59927959  0.59927959  1.0
  In  In1  1  1.40072041  0.40072041  0.40072041  1.0
  Te  Te2  1  0.78619337  0.78619337  0.78619337  1.0
  Te  Te3  1  1.21380663  1.21380663  0.21380663  1.0
  Te  Te4  1  0.00000000  0.00000000  0.00000000  1.0
