# generated using pymatgen
data_KAgTeS3
_symmetry_space_group_name_H-M   'P 1'
_cell_length_a   6.41231764
_cell_length_b   16.51124243
_cell_length_c   8.76697360
_cell_angle_alpha   90.00000000
_cell_angle_beta   132.26247612
_cell_angle_gamma   90.00000000
_symmetry_Int_Tables_number   1
_chemical_formula_structural   KAgTeS3
_chemical_formula_sum   'K4 Ag4 Te4 S12'
_cell_volume   686.93916597
_cell_formula_units_Z   4
loop_
 _symmetry_equiv_pos_site_id
 _symmetry_equiv_pos_as_xyz
  1  'x, y, z'
loop_
 _atom_site_type_symbol
 _atom_site_label
 _atom_site_symmetry_multiplicity
 _atom_site_fract_x
 _atom_site_fract_y
 _atom_site_fract_z
 _atom_site_occupancy
  K  K0  1  0.76249413  0.10671083  0.27223121  1.0
  K  K1  1  0.76249413  0.39328917  0.77223121  1.0
  K  K2  1  0.23750587  0.60671083  0.22776879  1.0
  K  K3  1  0.23750587  0.89328917  0.72776879  1.0
  Ag  Ag4  1  0.28423509  0.25800784  0.28103415  1.0
  Ag  Ag5  1  0.28423509  0.24199216  0.78103415  1.0
  Ag  Ag6  1  0.71576491  0.75800784  0.21896585  1.0
  Ag  Ag7  1  0.71576491  0.74199216  0.71896585  1.0
  Te  Te8  1  0.76470313  0.41268747  0.26380129  1.0
  Te  Te9  1  0.76470313  0.08731253  0.76380129  1.0
  Te  Te10  1  0.23529687  0.91268747  0.23619871  1.0
  Te  Te11  1  0.23529687  0.58731253  0.73619871  1.0
  S  S12  1  0.83686379  0.90274036  0.21061925  1.0
  S  S13  1  0.83686379  0.59725964  0.71061925  1.0
  S  S14  1  0.16313621  0.40274036  0.28938075  1.0
  S  S15  1  0.16313621  0.09725964  0.78938075  1.0
  S  S16  1  0.79105224  0.28905693  0.42374796  1.0
  S  S17  1  0.79105224  0.21094307  0.92374796  1.0
  S  S18  1  0.20894776  0.78905693  0.07625204  1.0
  S  S19  1  0.20894776  0.71094307  0.57625204  1.0
  S  S20  1  0.37275812  0.11242215  0.40370938  1.0
  S  S21  1  0.37275812  0.38757785  0.90370938  1.0
  S  S22  1  0.62724188  0.61242215  0.09629062  1.0
  S  S23  1  0.62724188  0.88757785  0.59629062  1.0
