# generated using pymatgen
data_Gd(BIr)4
_symmetry_space_group_name_H-M   'P 1'
_cell_length_a   7.64551778
_cell_length_b   7.64551778
_cell_length_c   3.98054531
_cell_angle_alpha   90.00000000
_cell_angle_beta   90.00000000
_cell_angle_gamma   90.00000000
_symmetry_Int_Tables_number   1
_chemical_formula_structural   Gd(BIr)4
_chemical_formula_sum   'Gd2 B8 Ir8'
_cell_volume   232.67856530
_cell_formula_units_Z   2
loop_
 _symmetry_equiv_pos_site_id
 _symmetry_equiv_pos_as_xyz
  1  'x, y, z'
loop_
 _atom_site_type_symbol
 _atom_site_label
 _atom_site_symmetry_multiplicity
 _atom_site_fract_x
 _atom_site_fract_y
 _atom_site_fract_z
 _atom_site_occupancy
  Gd  Gd0  1  0.00000000  0.00000000  0.00000000  1.0
  Gd  Gd1  1  0.50000000  0.50000000  0.50000000  1.0
  B  B2  1  0.65775044  0.77813841  0.11030321  1.0
  B  B3  1  0.34224956  0.22186159  0.11030321  1.0
  B  B4  1  0.27813841  0.84224956  0.61030321  1.0
  B  B5  1  0.72186159  0.15775044  0.61030321  1.0
  B  B6  1  0.84224956  0.72186159  0.38969679  1.0
  B  B7  1  0.15775044  0.27813841  0.38969679  1.0
  B  B8  1  0.22186159  0.65775044  0.88969679  1.0
  B  B9  1  0.77813841  0.34224956  0.88969679  1.0
  Ir  Ir10  1  0.15954041  0.39036946  0.88904415  1.0
  Ir  Ir11  1  0.84045959  0.60963054  0.88904415  1.0
  Ir  Ir12  1  0.89036946  0.34045959  0.38904415  1.0
  Ir  Ir13  1  0.10963054  0.65954041  0.38904415  1.0
  Ir  Ir14  1  0.34045959  0.10963054  0.61095585  1.0
  Ir  Ir15  1  0.65954041  0.89036946  0.61095585  1.0
  Ir  Ir16  1  0.60963054  0.15954041  0.11095585  1.0
  Ir  Ir17  1  0.39036946  0.84045959  0.11095585  1.0
