# generated using pymatgen
data_SrMg2Au
_symmetry_space_group_name_H-M   'P 1'
_cell_length_a   6.08797125
_cell_length_b   6.08797125
_cell_length_c   8.36945765
_cell_angle_alpha   90.00000000
_cell_angle_beta   90.00000000
_cell_angle_gamma   137.15255514
_symmetry_Int_Tables_number   1
_chemical_formula_structural   SrMg2Au
_chemical_formula_sum   'Sr2 Mg4 Au2'
_cell_volume   210.95143552
_cell_formula_units_Z   2
loop_
 _symmetry_equiv_pos_site_id
 _symmetry_equiv_pos_as_xyz
  1  'x, y, z'
loop_
 _atom_site_type_symbol
 _atom_site_label
 _atom_site_symmetry_multiplicity
 _atom_site_fract_x
 _atom_site_fract_y
 _atom_site_fract_z
 _atom_site_occupancy
  Sr  Sr0  1  0.44626884  0.55373116  0.75000000  1.0
  Sr  Sr1  1  -0.44626884  0.44626884  0.25000000  1.0
  Mg  Mg2  1  0.16090589  0.83909411  0.94200393  1.0
  Mg  Mg3  1  0.16090589  0.83909411  0.55799607  1.0
  Mg  Mg4  1  -0.16090589  0.16090589  0.44200393  1.0
  Mg  Mg5  1  -0.16090589  0.16090589  0.05799607  1.0
  Au  Au6  1  -0.27037679  0.27037679  0.75000000  1.0
  Au  Au7  1  0.27037679  0.72962321  0.25000000  1.0
