# generated using pymatgen
data_NaAlCr2O10
_symmetry_space_group_name_H-M   'P 1'
_cell_length_a   8.59713699
_cell_length_b   8.59713699
_cell_length_c   10.14853044
_cell_angle_alpha   62.56999231
_cell_angle_beta   117.43000769
_cell_angle_gamma   144.15504335
_symmetry_Int_Tables_number   1
_chemical_formula_structural   NaAlCr2O10
_chemical_formula_sum   'Na2 Al2 Cr4 O20'
_cell_volume   384.33107213
_cell_formula_units_Z   2
loop_
 _symmetry_equiv_pos_site_id
 _symmetry_equiv_pos_as_xyz
  1  'x, y, z'
loop_
 _atom_site_type_symbol
 _atom_site_label
 _atom_site_symmetry_multiplicity
 _atom_site_fract_x
 _atom_site_fract_y
 _atom_site_fract_z
 _atom_site_occupancy
  Cr  Cr0  1  0.33874084  0.10886890  1.00055972  1.0
  Cr  Cr1  1  0.89113110  0.66125916  0.50055972  1.0
  Cr  Cr2  1  1.10886890  0.33874084  0.49944028  1.0
  Cr  Cr3  1  0.66125916  -0.10886890  -0.00055972  1.0
  Al  Al4  1  0.50000000  0.00000000  0.50000000  1.0
  Al  Al5  1  1.00000000  0.50000000  -0.00000000  1.0
  O  O6  1  1.28815699  0.27530729  0.89666527  1.0
  O  O7  1  0.72469271  -0.28815699  0.39666527  1.0
  O  O8  1  0.27530729  0.28815699  0.60333473  1.0
  O  O9  1  0.71184301  0.72469271  0.10333473  1.0
  O  O10  1  0.49653247  -0.06010530  0.70377100  1.0
  O  O11  1  1.06010530  0.50346753  0.20377100  1.0
  O  O12  1  0.93989470  0.49653247  0.79622900  1.0
  O  O13  1  0.50346753  0.06010530  0.29622900  1.0
  O  O14  1  0.79630014  0.07637835  0.54440526  1.0
  O  O15  1  0.92362165  0.20369986  0.04440526  1.0
  O  O16  1  1.07637835  0.79630014  0.95559474  1.0
  O  O17  1  0.20369986  -0.07637835  0.45559474  1.0
  O  O18  1  0.62491909  -0.11565716  0.81456794  1.0
  O  O19  1  1.11565716  0.37508091  0.31456794  1.0
  O  O20  1  0.88434284  0.62491909  0.68543206  1.0
  O  O21  1  0.37508091  0.11565716  0.18543206  1.0
  O  O22  1  0.62675513  0.26692817  0.98590747  1.0
  O  O23  1  0.73307183  0.37324487  0.48590747  1.0
  O  O24  1  1.26692817  0.62675513  0.51409253  1.0
  O  O25  1  0.37324487  -0.26692817  0.01409253  1.0
  Na  Na26  1  0.70288359  0.70288359  0.75000000  1.0
  Na  Na27  1  0.29711641  0.29711641  0.25000000  1.0
