# generated using pymatgen
data_AuClO
_symmetry_space_group_name_H-M   'P 1'
_cell_length_a   8.31603206
_cell_length_b   8.31603206
_cell_length_c   8.31603206
_cell_angle_alpha   113.38161720
_cell_angle_beta   113.38161720
_cell_angle_gamma   113.38161720
_symmetry_Int_Tables_number   1
_chemical_formula_structural   AuClO
_chemical_formula_sum   'Au6 Cl6 O6'
_cell_volume   364.87299310
_cell_formula_units_Z   6
loop_
 _symmetry_equiv_pos_site_id
 _symmetry_equiv_pos_as_xyz
  1  'x, y, z'
loop_
 _atom_site_type_symbol
 _atom_site_label
 _atom_site_symmetry_multiplicity
 _atom_site_fract_x
 _atom_site_fract_y
 _atom_site_fract_z
 _atom_site_occupancy
  Au  Au0  1  0.73209921  0.20208674  0.08230710  1.0
  Au  Au1  1  0.91769290  1.26790079  -0.20208674  1.0
  Au  Au2  1  0.79791326  -0.08230710  0.26790079  1.0
  Au  Au3  1  1.26790079  0.79791326  0.91769290  1.0
  Au  Au4  1  1.08230710  0.73209921  0.20208674  1.0
  Au  Au5  1  0.20208674  0.08230710  -0.26790079  1.0
  Cl  Cl6  1  1.11554033  0.41051441  0.36469188  1.0
  Cl  Cl7  1  0.63530812  0.88445967  -0.41051441  1.0
  Cl  Cl8  1  0.58948559  -0.36469188  -0.11554033  1.0
  Cl  Cl9  1  0.88445967  0.58948559  0.63530812  1.0
  Cl  Cl10  1  1.36469188  1.11554033  0.41051441  1.0
  Cl  Cl11  1  0.41051441  0.36469188  0.11554033  1.0
  O  O12  1  0.96882227  0.81080383  0.37070940  1.0
  O  O13  1  0.62929060  0.03117773  0.18919617  1.0
  O  O14  1  1.18919617  1.62929060  0.03117773  1.0
  O  O15  1  1.03117773  1.18919617  -0.37070940  1.0
  O  O16  1  0.37070940  -0.03117773  -0.18919617  1.0
  O  O17  1  0.81080383  0.37070940  -0.03117773  1.0
