# generated using pymatgen
data_K3AuSe2
_symmetry_space_group_name_H-M   'P 1'
_cell_length_a   8.03731344
_cell_length_b   8.03731344
_cell_length_c   8.03731344
_cell_angle_alpha   68.41342239
_cell_angle_beta   68.41342239
_cell_angle_gamma   68.41342239
_symmetry_Int_Tables_number   1
_chemical_formula_structural   K3AuSe2
_chemical_formula_sum   'K6 Au2 Se4'
_cell_volume   432.37981178
_cell_formula_units_Z   2
loop_
 _symmetry_equiv_pos_site_id
 _symmetry_equiv_pos_as_xyz
  1  'x, y, z'
loop_
 _atom_site_type_symbol
 _atom_site_label
 _atom_site_symmetry_multiplicity
 _atom_site_fract_x
 _atom_site_fract_y
 _atom_site_fract_z
 _atom_site_occupancy
  K  K0  1  0.95902069  0.25000000  -0.45902069  1.0
  K  K1  1  0.45902069  0.04097931  -0.25000000  1.0
  K  K2  1  0.75000000  -0.54097931  0.04097931  1.0
  K  K3  1  0.25000000  0.54097931  -0.04097931  1.0
  K  K4  1  1.04097931  -0.25000000  -0.54097931  1.0
  K  K5  1  0.54097931  -0.04097931  0.25000000  1.0
  Au  Au6  1  0.50000000  0.50000000  -0.50000000  1.0
  Au  Au7  1  0.00000000  0.00000000  0.00000000  1.0
  Se  Se8  1  0.36635117  0.36635117  -0.63364883  1.0
  Se  Se9  1  0.86635117  0.86635117  -0.13364883  1.0
  Se  Se10  1  1.13364883  1.13364883  0.13364883  1.0
  Se  Se11  1  0.63364883  0.63364883  -0.36635117  1.0
