# generated using pymatgen
data_Lu2Si2O7
_symmetry_space_group_name_H-M   'P 1'
_cell_length_a   6.62814155
_cell_length_b   6.62814155
_cell_length_c   12.07955156
_cell_angle_alpha   90.00000000
_cell_angle_beta   90.00000000
_cell_angle_gamma   90.00000000
_symmetry_Int_Tables_number   1
_chemical_formula_structural   Lu2Si2O7
_chemical_formula_sum   'Lu8 Si8 O28'
_cell_volume   530.68200424
_cell_formula_units_Z   4
loop_
 _symmetry_equiv_pos_site_id
 _symmetry_equiv_pos_as_xyz
  1  'x, y, z'
loop_
 _atom_site_type_symbol
 _atom_site_label
 _atom_site_symmetry_multiplicity
 _atom_site_fract_x
 _atom_site_fract_y
 _atom_site_fract_z
 _atom_site_occupancy
  Lu  Lu0  1  0.14796666  0.62424334  0.86651511  1.0
  Lu  Lu1  1  0.64796666  0.87575666  0.88348489  1.0
  Lu  Lu2  1  0.37575666  0.85203334  0.63348489  1.0
  Lu  Lu3  1  0.87575666  0.64796666  0.11651511  1.0
  Lu  Lu4  1  0.85203334  0.37575666  0.36651511  1.0
  Lu  Lu5  1  0.35203334  0.12424334  0.38348489  1.0
  Lu  Lu6  1  0.62424334  0.14796666  0.13348489  1.0
  Lu  Lu7  1  0.12424334  0.35203334  0.61651511  1.0
  Si  Si8  1  0.40215110  0.65251613  0.12212753  1.0
  Si  Si9  1  0.90215110  0.84748387  0.62787247  1.0
  Si  Si10  1  0.34748387  0.59784890  0.37787247  1.0
  Si  Si11  1  0.84748387  0.90215110  0.37212753  1.0
  Si  Si12  1  0.59784890  0.34748387  0.62212753  1.0
  Si  Si13  1  0.09784890  0.15251613  0.12787247  1.0
  Si  Si14  1  0.65251613  0.40215110  0.87787247  1.0
  Si  Si15  1  0.15251613  0.09784890  0.87212753  1.0
  O  O16  1  0.47164750  0.56956666  0.87497330  1.0
  O  O17  1  0.97164750  0.93043334  0.87502670  1.0
  O  O18  1  0.43043334  0.52835250  0.62502670  1.0
  O  O19  1  0.93043334  0.97164750  0.12497330  1.0
  O  O20  1  0.52835250  0.43043334  0.37497330  1.0
  O  O21  1  0.02835250  0.06956666  0.37502670  1.0
  O  O22  1  0.56956666  0.47164750  0.12502670  1.0
  O  O23  1  0.06956666  0.02835250  0.62497330  1.0
  O  O24  1  0.33514335  0.94598260  0.82399553  1.0
  O  O25  1  0.83514335  0.55401740  0.92600447  1.0
  O  O26  1  0.05401740  0.66485665  0.67600447  1.0
  O  O27  1  0.55401740  0.83514335  0.07399553  1.0
  O  O28  1  0.66485665  0.05401740  0.32399553  1.0
  O  O29  1  0.16485665  0.44598260  0.42600447  1.0
  O  O30  1  0.94598260  0.33514335  0.17600447  1.0
  O  O31  1  0.44598260  0.16485665  0.57399553  1.0
  O  O32  1  0.19451344  0.63843583  0.04878363  1.0
  O  O33  1  0.69451344  0.86156417  0.70121637  1.0
  O  O34  1  0.36156417  0.80548656  0.45121637  1.0
  O  O35  1  0.86156417  0.69451344  0.29878363  1.0
  O  O36  1  0.80548656  0.36156417  0.54878363  1.0
  O  O37  1  0.30548656  0.13843583  0.20121637  1.0
  O  O38  1  0.63843583  0.19451344  0.95121637  1.0
  O  O39  1  0.13843583  0.30548656  0.79878363  1.0
  O  O40  1  0.31588110  0.68411890  0.25000000  1.0
  O  O41  1  0.81588110  0.81588110  0.50000000  1.0
  O  O42  1  0.68411890  0.31588110  0.75000000  1.0
  O  O43  1  0.18411890  0.18411890  0.00000000  1.0
