# generated using pymatgen
data_K3H(SO4)2
_symmetry_space_group_name_H-M   'P 1'
_cell_length_a   8.08348323
_cell_length_b   8.08348323
_cell_length_c   9.88903457
_cell_angle_alpha   76.83692846
_cell_angle_beta   103.16307154
_cell_angle_gamma   137.56926741
_symmetry_Int_Tables_number   1
_chemical_formula_structural   K3H(SO4)2
_chemical_formula_sum   'K6 H2 S4 O16'
_cell_volume   422.76623388
_cell_formula_units_Z   2
loop_
 _symmetry_equiv_pos_site_id
 _symmetry_equiv_pos_as_xyz
  1  'x, y, z'
loop_
 _atom_site_type_symbol
 _atom_site_label
 _atom_site_symmetry_multiplicity
 _atom_site_fract_x
 _atom_site_fract_y
 _atom_site_fract_z
 _atom_site_occupancy
  K  K0  1  0.40891337  0.03013381  0.65253881  1.0
  K  K1  1  0.96986619  0.59108663  0.15253881  1.0
  K  K2  1  1.03013381  0.40891337  0.84746119  1.0
  K  K3  1  0.59108663  -0.03013381  0.34746119  1.0
  K  K4  1  0.75515427  0.75515427  0.75000000  1.0
  K  K5  1  0.24484573  0.24484573  0.25000000  1.0
  H  H6  1  0.50000000  0.50000000  0.00000000  1.0
  H  H7  1  0.50000000  0.50000000  0.50000000  1.0
  S  S8  1  0.39523626  0.16443163  0.96533688  1.0
  S  S9  1  0.83556837  0.60476374  0.46533688  1.0
  S  S10  1  1.16443163  0.39523626  0.53466312  1.0
  S  S11  1  0.60476374  -0.16443163  0.03466312  1.0
  O  O12  1  0.58674452  -0.10666550  0.88131276  1.0
  O  O13  1  1.10666550  0.41325548  0.38131276  1.0
  O  O14  1  0.89333450  0.58674452  0.61868724  1.0
  O  O15  1  0.41325548  0.10666550  0.11868724  1.0
  O  O16  1  0.63508584  0.32849621  0.90762915  1.0
  O  O17  1  0.67150379  0.36491416  0.40762915  1.0
  O  O18  1  1.32849621  0.63508584  0.59237085  1.0
  O  O19  1  0.36491416  -0.32849621  0.09237085  1.0
  O  O20  1  0.19188091  -0.06004197  0.89120885  1.0
  O  O21  1  1.06004197  0.80811909  0.39120885  1.0
  O  O22  1  0.93995803  0.19188091  0.60879115  1.0
  O  O23  1  0.80811909  0.06004197  0.10879115  1.0
  O  O24  1  0.33250191  0.31176079  0.94237283  1.0
  O  O25  1  0.68823921  0.66749809  0.44237283  1.0
  O  O26  1  1.31176079  0.33250191  0.55762717  1.0
  O  O27  1  0.66749809  -0.31176079  0.05762717  1.0
