# generated using pymatgen
data_LiAlSiO4
_symmetry_space_group_name_H-M   'P 1'
_cell_length_a   10.11306901
_cell_length_b   6.66347805
_cell_length_c   4.99301995
_cell_angle_alpha   90.00000000
_cell_angle_beta   90.00000000
_cell_angle_gamma   90.00000000
_symmetry_Int_Tables_number   1
_chemical_formula_structural   LiAlSiO4
_chemical_formula_sum   'Li4 Al4 Si4 O16'
_cell_volume   336.47069325
_cell_formula_units_Z   4
loop_
 _symmetry_equiv_pos_site_id
 _symmetry_equiv_pos_as_xyz
  1  'x, y, z'
loop_
 _atom_site_type_symbol
 _atom_site_label
 _atom_site_symmetry_multiplicity
 _atom_site_fract_x
 _atom_site_fract_y
 _atom_site_fract_z
 _atom_site_occupancy
  Li  Li0  1  0.14928734  0.98507621  0.35750675  1.0
  Li  Li1  1  0.64928734  0.51492379  0.35750675  1.0
  Li  Li2  1  0.85071266  0.01492379  0.85750675  1.0
  Li  Li3  1  0.35071266  0.48507621  0.85750675  1.0
  Al  Al4  1  0.17122977  0.48528212  0.35421727  1.0
  Al  Al5  1  0.67122977  0.01471788  0.35421727  1.0
  Al  Al6  1  0.82877023  0.51471788  0.85421727  1.0
  Al  Al7  1  0.32877023  0.98528212  0.85421727  1.0
  Si  Si8  1  0.40598645  0.22250799  0.35344415  1.0
  Si  Si9  1  0.90598645  0.27749201  0.35344415  1.0
  Si  Si10  1  0.59401355  0.77749201  0.85344415  1.0
  Si  Si11  1  0.09401355  0.72250799  0.85344415  1.0
  O  O12  1  0.37708226  0.20488855  0.02976499  1.0
  O  O13  1  0.87708226  0.29511145  0.02976499  1.0
  O  O14  1  0.62291774  0.79511145  0.52976499  1.0
  O  O15  1  0.12291774  0.70488855  0.52976499  1.0
  O  O16  1  0.33623481  0.43132981  0.45957154  1.0
  O  O17  1  0.83623481  0.06867019  0.45957154  1.0
  O  O18  1  0.66376519  0.56867019  0.95957154  1.0
  O  O19  1  0.16376519  0.93132981  0.95957154  1.0
  O  O20  1  0.33047719  0.03646599  0.50579720  1.0
  O  O21  1  0.83047719  0.46353401  0.50579720  1.0
  O  O22  1  0.66952281  0.96353401  0.00579720  1.0
  O  O23  1  0.16952281  0.53646599  0.00579720  1.0
  O  O24  1  0.06557623  0.27380024  0.41229810  1.0
  O  O25  1  0.56557623  0.22619976  0.41229810  1.0
  O  O26  1  0.93442377  0.72619976  0.91229810  1.0
  O  O27  1  0.43442377  0.77380024  0.91229810  1.0
