# generated using pymatgen
data_YCoSi
_symmetry_space_group_name_H-M   'P 1'
_cell_length_a   6.86373687
_cell_length_b   4.16385385
_cell_length_c   6.99700800
_cell_angle_alpha   90.00000000
_cell_angle_beta   90.00000000
_cell_angle_gamma   90.00000000
_symmetry_Int_Tables_number   1
_chemical_formula_structural   YCoSi
_chemical_formula_sum   'Y4 Co4 Si4'
_cell_volume   199.97166985
_cell_formula_units_Z   4
loop_
 _symmetry_equiv_pos_site_id
 _symmetry_equiv_pos_as_xyz
  1  'x, y, z'
loop_
 _atom_site_type_symbol
 _atom_site_label
 _atom_site_symmetry_multiplicity
 _atom_site_fract_x
 _atom_site_fract_y
 _atom_site_fract_z
 _atom_site_occupancy
  Y  Y0  1  1.01471067  0.75000000  0.68971847  1.0
  Y  Y1  1  0.51471067  0.75000000  0.81028153  1.0
  Y  Y2  1  -0.01471067  0.25000000  0.31028153  1.0
  Y  Y3  1  0.48528933  0.25000000  0.18971847  1.0
  Co  Co4  1  0.85314303  0.75000000  0.06493765  1.0
  Co  Co5  1  0.35314303  0.75000000  0.43506235  1.0
  Co  Co6  1  0.14685697  0.25000000  0.93506235  1.0
  Co  Co7  1  0.64685697  0.25000000  0.56493765  1.0
  Si  Si8  1  0.69508599  0.75000000  0.39634251  1.0
  Si  Si9  1  0.19508599  0.75000000  0.10365749  1.0
  Si  Si10  1  0.30491401  0.25000000  0.60365749  1.0
  Si  Si11  1  0.80491401  0.25000000  0.89634251  1.0
