# generated using pymatgen
data_NaH12AuC4(SO3)4
_symmetry_space_group_name_H-M   'P 1'
_cell_length_a   9.94397923
_cell_length_b   8.90700552
_cell_length_c   5.61598951
_cell_angle_alpha   77.32630288
_cell_angle_beta   75.02888145
_cell_angle_gamma   72.83809162
_symmetry_Int_Tables_number   1
_chemical_formula_structural   NaH12AuC4(SO3)4
_chemical_formula_sum   'Na1 H12 Au1 C4 S4 O12'
_cell_volume   453.57768522
_cell_formula_units_Z   1
loop_
 _symmetry_equiv_pos_site_id
 _symmetry_equiv_pos_as_xyz
  1  'x, y, z'
loop_
 _atom_site_type_symbol
 _atom_site_label
 _atom_site_symmetry_multiplicity
 _atom_site_fract_x
 _atom_site_fract_y
 _atom_site_fract_z
 _atom_site_occupancy
  Na  Na0  1  -0.50000000  -0.50000000  0.00000000  1.0
  H  H1  1  -0.88411028  -0.17652511  -0.34805310  1.0
  H  H2  1  -0.11588972  -0.82347489  -0.65194690  1.0
  H  H3  1  -0.78745229  -0.05595386  -0.27482779  1.0
  H  H4  1  -0.21254771  -0.94404614  -0.72517221  1.0
  H  H5  1  -0.84275901  -0.00793899  -0.57090684  1.0
  H  H6  1  -0.15724099  -0.99206101  -0.42909316  1.0
  H  H7  1  -0.12541963  -0.48657542  -0.73451325  1.0
  H  H8  1  -0.87458037  -0.51342458  -0.26548675  1.0
  H  H9  1  -0.11849525  -0.29801526  -0.68032534  1.0
  H  H10  1  -0.88150475  -0.70198474  -0.31967466  1.0
  H  H11  1  -0.28743558  -0.35249930  -0.59167876  1.0
  H  H12  1  -0.71256442  -0.64750070  -0.40832124  1.0
  Au  Au13  1  -0.50000000  0.00000000  0.00000000  1.0
  C  C14  1  -0.80675013  -0.10331291  -0.42384395  1.0
  C  C15  1  -0.19324987  -0.89668709  -0.57615605  1.0
  C  C16  1  -0.18475771  -0.36211344  -0.72587167  1.0
  C  C17  1  -0.81524229  -0.63788656  -0.27412833  1.0
  S  S18  1  -0.21893070  -0.27755859  -0.02789889  1.0
  S  S19  1  -0.78106930  -0.72244141  -0.97210111  1.0
  S  S20  1  -0.64184416  -0.22916940  -0.55488423  1.0
  S  S21  1  -0.35815584  -0.77083060  -0.44511577  1.0
  O  O22  1  -0.28729537  -0.09545037  -1.01118746  1.0
  O  O23  1  -0.71270463  -0.90454963  0.01118746  1.0
  O  O24  1  -0.53346600  -0.12086150  -0.64887685  1.0
  O  O25  1  -0.46653400  -0.87913850  -0.35112315  1.0
  O  O26  1  -0.66169513  -0.28871144  -0.76193344  1.0
  O  O27  1  -0.33830487  -0.71128856  -0.23806656  1.0
  O  O28  1  -0.08144507  -0.28698080  -0.20397326  1.0
  O  O29  1  -0.91855493  -0.71301920  -0.79602674  1.0
  O  O30  1  -0.32198286  -0.34695599  -0.07963021  1.0
  O  O31  1  -0.67801714  -0.65304401  -0.92036979  1.0
  O  O32  1  -0.58820314  -0.34491846  -0.35240547  1.0
  O  O33  1  -0.41179686  -0.65508154  -0.64759453  1.0
