# generated using pymatgen
data_Sc2Cu2Ge4O13
_symmetry_space_group_name_H-M   'P 1'
_cell_length_a   4.99226366
_cell_length_b   8.93367512
_cell_length_c   12.44581871
_cell_angle_alpha   90.00000000
_cell_angle_beta   96.18584172
_cell_angle_gamma   90.00000000
_symmetry_Int_Tables_number   1
_chemical_formula_structural   Sc2Cu2Ge4O13
_chemical_formula_sum   'Sc4 Cu4 Ge8 O26'
_cell_volume   551.84247220
_cell_formula_units_Z   2
loop_
 _symmetry_equiv_pos_site_id
 _symmetry_equiv_pos_as_xyz
  1  'x, y, z'
loop_
 _atom_site_type_symbol
 _atom_site_label
 _atom_site_symmetry_multiplicity
 _atom_site_fract_x
 _atom_site_fract_y
 _atom_site_fract_z
 _atom_site_occupancy
  Sc  Sc0  1  0.95326654  0.43680323  0.62613696  1.0
  Sc  Sc1  1  0.95326654  0.06319677  0.62613696  1.0
  Sc  Sc2  1  0.04673346  0.93680323  0.37386304  1.0
  Sc  Sc3  1  0.04673346  0.56319677  0.37386304  1.0
  Cu  Cu4  1  0.95174825  0.99719886  0.87217785  1.0
  Cu  Cu5  1  0.95174825  0.50280114  0.87217785  1.0
  Cu  Cu6  1  0.04825175  0.49719886  0.12782215  1.0
  Cu  Cu7  1  0.04825175  0.00280114  0.12782215  1.0
  Ge  Ge8  1  0.60337121  0.75000000  0.51655341  1.0
  Ge  Ge9  1  0.39662879  0.25000000  0.48344659  1.0
  Ge  Ge10  1  0.49128504  0.75000000  0.23366497  1.0
  Ge  Ge11  1  0.50871496  0.25000000  0.76633503  1.0
  Ge  Ge12  1  0.37748559  0.75000000  0.99339840  1.0
  Ge  Ge13  1  0.62251441  0.25000000  0.00660160  1.0
  Ge  Ge14  1  0.32123736  0.75000000  0.75085503  1.0
  Ge  Ge15  1  0.67876264  0.25000000  0.24914497  1.0
  O  O16  1  0.79420239  0.91601505  0.50604839  1.0
  O  O17  1  0.79420239  0.58398495  0.50604839  1.0
  O  O18  1  0.20579761  0.41601505  0.49395161  1.0
  O  O19  1  0.20579761  0.08398495  0.49395161  1.0
  O  O20  1  0.71247488  0.41162256  0.75632300  1.0
  O  O21  1  0.71247488  0.08837744  0.75632300  1.0
  O  O22  1  0.28752512  0.91162256  0.24367700  1.0
  O  O23  1  0.28752512  0.58837744  0.24367700  1.0
  O  O24  1  0.17573015  0.91459689  0.99630765  1.0
  O  O25  1  0.17573015  0.58540311  0.99630765  1.0
  O  O26  1  0.82426985  0.41459689  0.00369235  1.0
  O  O27  1  0.82426985  0.08540311  0.00369235  1.0
  O  O28  1  0.12160143  0.91487432  0.74571819  1.0
  O  O29  1  0.12160143  0.58512568  0.74571819  1.0
  O  O30  1  0.87839857  0.41487432  0.25428181  1.0
  O  O31  1  0.87839857  0.08512568  0.25428181  1.0
  O  O32  1  0.79062594  0.75000000  0.32367173  1.0
  O  O33  1  0.20937406  0.25000000  0.67632827  1.0
  O  O34  1  0.62622213  0.75000000  0.10624668  1.0
  O  O35  1  0.37377787  0.25000000  0.89375332  1.0
  O  O36  1  0.54959185  0.75000000  0.65471161  1.0
  O  O37  1  0.45040815  0.25000000  0.34528839  1.0
  O  O38  1  0.54253673  0.75000000  0.87370773  1.0
  O  O39  1  0.45746327  0.25000000  0.12629227  1.0
  O  O40  1  0.29069528  0.75000000  0.43475146  1.0
  O  O41  1  0.70930472  0.25000000  0.56524854  1.0
