# generated using pymatgen
data_NaLa6RuI12
_symmetry_space_group_name_H-M   'P 1'
_cell_length_a   10.21099225
_cell_length_b   10.21099225
_cell_length_c   10.21099225
_cell_angle_alpha   107.07275225
_cell_angle_beta   107.07275225
_cell_angle_gamma   107.07275225
_symmetry_Int_Tables_number   1
_chemical_formula_structural   NaLa6RuI12
_chemical_formula_sum   'Na1 La6 Ru1 I12'
_cell_volume   884.87901568
_cell_formula_units_Z   1
loop_
 _symmetry_equiv_pos_site_id
 _symmetry_equiv_pos_as_xyz
  1  'x, y, z'
loop_
 _atom_site_type_symbol
 _atom_site_label
 _atom_site_symmetry_multiplicity
 _atom_site_fract_x
 _atom_site_fract_y
 _atom_site_fract_z
 _atom_site_occupancy
  Na  Na0  1  0.50000000  0.50000000  0.50000000  1.0
  La  La1  1  1.69272413  0.89506059  -0.02966301  1.0
  La  La2  1  1.10493941  0.02966301  -0.69272413  1.0
  La  La3  1  1.02966301  -0.69272413  0.10493941  1.0
  La  La4  1  0.30727587  0.10493941  0.02966301  1.0
  La  La5  1  0.89506059  0.97033699  0.69272413  1.0
  La  La6  1  0.97033699  1.69272413  -0.10493941  1.0
  Ru  Ru7  1  0.00000000  0.00000000  0.00000000  1.0
  I  I8  1  0.68207458  0.22387126  0.07455841  1.0
  I  I9  1  0.77612874  0.92544159  0.31792542  1.0
  I  I10  1  0.92544159  1.31792542  -0.22387126  1.0
  I  I11  1  1.31792542  0.77612874  -0.07455841  1.0
  I  I12  1  1.22387126  0.07455841  -0.31792542  1.0
  I  I13  1  1.07455841  -0.31792542  0.22387126  1.0
  I  I14  1  1.62376906  0.54236835  -0.15176972  1.0
  I  I15  1  0.45763165  1.15176972  -0.62376906  1.0
  I  I16  1  1.15176972  0.37623094  -0.54236835  1.0
  I  I17  1  0.37623094  0.45763165  0.15176972  1.0
  I  I18  1  1.54236835  -0.15176972  0.62376906  1.0
  I  I19  1  0.84823028  0.62376906  0.54236835  1.0
