# generated using pymatgen
data_KGd(PSe3)2
_symmetry_space_group_name_H-M   'P 1'
_cell_length_a   6.87349538
_cell_length_b   7.62417767
_cell_length_c   21.82509115
_cell_angle_alpha   90.00000000
_cell_angle_beta   90.00000000
_cell_angle_gamma   90.00000000
_symmetry_Int_Tables_number   1
_chemical_formula_structural   KGd(PSe3)2
_chemical_formula_sum   'K4 Gd4 P8 Se24'
_cell_volume   1143.73844423
_cell_formula_units_Z   4
loop_
 _symmetry_equiv_pos_site_id
 _symmetry_equiv_pos_as_xyz
  1  'x, y, z'
loop_
 _atom_site_type_symbol
 _atom_site_label
 _atom_site_symmetry_multiplicity
 _atom_site_fract_x
 _atom_site_fract_y
 _atom_site_fract_z
 _atom_site_occupancy
  K  K0  1  0.37177023  0.48662609  0.50377237  1.0
  K  K1  1  0.87177023  0.01337391  0.49622763  1.0
  K  K2  1  0.62822977  0.98662609  0.99622763  1.0
  K  K3  1  0.12822977  0.51337391  0.00377237  1.0
  Gd  Gd4  1  0.28347782  0.31734609  0.74813389  1.0
  Gd  Gd5  1  0.78347782  0.18265391  0.25186611  1.0
  Gd  Gd6  1  0.71652218  0.81734609  0.75186611  1.0
  Gd  Gd7  1  0.21652218  0.68265391  0.24813389  1.0
  P  P8  1  0.19241020  0.82564747  0.66593633  1.0
  P  P9  1  0.69241020  0.67435253  0.33406367  1.0
  P  P10  1  0.80758980  0.32564747  0.83406367  1.0
  P  P11  1  0.30758980  0.17435253  0.16593633  1.0
  P  P12  1  0.17831402  0.95261468  0.11010235  1.0
  P  P13  1  0.67831402  0.54738532  0.88989765  1.0
  P  P14  1  0.82168598  0.45261468  0.38989765  1.0
  P  P15  1  0.32168598  0.04738532  0.61010235  1.0
  Se  Se16  1  0.91384981  0.73267244  0.62921158  1.0
  Se  Se17  1  0.41384981  0.76732756  0.37078842  1.0
  Se  Se18  1  0.08615019  0.23267244  0.87078842  1.0
  Se  Se19  1  0.58615019  0.26732756  0.12921158  1.0
  Se  Se20  1  0.13231948  0.94796098  0.75782081  1.0
  Se  Se21  1  0.63231948  0.55203902  0.24217919  1.0
  Se  Se22  1  0.86768052  0.44796098  0.74217919  1.0
  Se  Se23  1  0.36768052  0.05203902  0.25782081  1.0
  Se  Se24  1  0.43199765  0.62691392  0.66811594  1.0
  Se  Se25  1  0.93199765  0.87308608  0.33188406  1.0
  Se  Se26  1  0.56800235  0.12691392  0.83188406  1.0
  Se  Se27  1  0.06800235  0.37308608  0.16811594  1.0
  Se  Se28  1  0.42651059  0.62634604  0.83035629  1.0
  Se  Se29  1  0.92651059  0.87365396  0.16964371  1.0
  Se  Se30  1  0.57348941  0.12634604  0.66964371  1.0
  Se  Se31  1  0.07348941  0.37365396  0.33035629  1.0
  Se  Se32  1  0.38996798  0.74045764  0.11910301  1.0
  Se  Se33  1  0.88996798  0.75954236  0.88089699  1.0
  Se  Se34  1  0.61003202  0.24045764  0.38089699  1.0
  Se  Se35  1  0.11003202  0.25954236  0.61910301  1.0
  Se  Se36  1  0.37741611  0.95752348  0.51740262  1.0
  Se  Se37  1  0.87741611  0.54247652  0.48259738  1.0
  Se  Se38  1  0.62258389  0.45752348  0.98259738  1.0
  Se  Se39  1  0.12258389  0.04247652  0.01740262  1.0
