# generated using pymatgen
data_NaMnCrF6
_symmetry_space_group_name_H-M   'P 1'
_cell_length_a   9.11100679
_cell_length_b   9.11100679
_cell_length_c   5.09769766
_cell_angle_alpha   90.00000000
_cell_angle_beta   90.00000000
_cell_angle_gamma   120.00000000
_symmetry_Int_Tables_number   1
_chemical_formula_structural   NaMnCrF6
_chemical_formula_sum   'Na3 Mn3 Cr3 F18'
_cell_volume   366.46917119
_cell_formula_units_Z   3
loop_
 _symmetry_equiv_pos_site_id
 _symmetry_equiv_pos_as_xyz
  1  'x, y, z'
loop_
 _atom_site_type_symbol
 _atom_site_label
 _atom_site_symmetry_multiplicity
 _atom_site_fract_x
 _atom_site_fract_y
 _atom_site_fract_z
 _atom_site_occupancy
  Na  Na0  1  0.37046096  0.37046096  0.00000000  1.0
  Na  Na1  1  -0.00000000  0.62953904  0.00000000  1.0
  Na  Na2  1  0.62953904  0.00000000  0.00000000  1.0
  Mn  Mn3  1  0.70157139  0.70157139  0.50000000  1.0
  Mn  Mn4  1  0.00000000  0.29842861  0.50000000  1.0
  Mn  Mn5  1  0.29842861  -0.00000000  0.50000000  1.0
  Cr  Cr6  1  0.33333333  0.66666667  0.49561448  1.0
  Cr  Cr7  1  0.66666667  0.33333333  0.50438552  1.0
  Cr  Cr8  1  -0.00000000  -0.00000000  0.00000000  1.0
  F  F9  1  0.10140431  0.90117753  0.22110903  1.0
  F  F10  1  0.90117753  0.10140431  0.77889097  1.0
  F  F11  1  0.79977321  0.89859569  0.22110903  1.0
  F  F12  1  0.09882247  0.20022679  0.22110903  1.0
  F  F13  1  0.89859569  0.79977321  0.77889097  1.0
  F  F14  1  0.20022679  0.09882247  0.77889097  1.0
  F  F15  1  0.40714451  0.86896632  0.28852036  1.0
  F  F16  1  0.86896632  0.40714451  0.71147964  1.0
  F  F17  1  0.46182182  0.59285549  0.28852036  1.0
  F  F18  1  0.13103368  0.53817818  0.28852036  1.0
  F  F19  1  0.59285549  0.46182182  0.71147964  1.0
  F  F20  1  0.53817818  0.13103368  0.71147964  1.0
  F  F21  1  0.77412075  0.54052677  0.29829907  1.0
  F  F22  1  0.54052677  0.77412075  0.70170093  1.0
  F  F23  1  0.76640603  0.22587925  0.29829907  1.0
  F  F24  1  0.45947323  0.23359397  0.29829907  1.0
  F  F25  1  0.22587925  0.76640603  0.70170093  1.0
  F  F26  1  0.23359397  0.45947323  0.70170093  1.0
