# generated using pymatgen
data_B4W
_symmetry_space_group_name_H-M   'P 1'
_cell_length_a   2.94887107
_cell_length_b   2.94887107
_cell_length_c   10.98755080
_cell_angle_alpha   90.00000000
_cell_angle_beta   90.00000000
_cell_angle_gamma   120.00000000
_symmetry_Int_Tables_number   1
_chemical_formula_structural   B4W
_chemical_formula_sum   'B8 W2'
_cell_volume   82.74525461
_cell_formula_units_Z   2
loop_
 _symmetry_equiv_pos_site_id
 _symmetry_equiv_pos_as_xyz
  1  'x, y, z'
loop_
 _atom_site_type_symbol
 _atom_site_label
 _atom_site_symmetry_multiplicity
 _atom_site_fract_x
 _atom_site_fract_y
 _atom_site_fract_z
 _atom_site_occupancy
  B  B0  1  0.33333333  0.66666667  0.95437003  1.0
  B  B1  1  0.66666667  0.33333333  0.04562997  1.0
  B  B2  1  0.66666667  0.33333333  0.45437003  1.0
  B  B3  1  0.33333333  0.66666667  0.54562997  1.0
  B  B4  1  0.33333333  0.66666667  0.38909283  1.0
  B  B5  1  0.66666667  0.33333333  0.61090717  1.0
  B  B6  1  0.66666667  0.33333333  0.88909283  1.0
  B  B7  1  0.33333333  0.66666667  0.11090717  1.0
  W  W8  1  0.66666667  0.33333333  0.25000000  1.0
  W  W9  1  0.33333333  0.66666667  0.75000000  1.0
