# generated using pymatgen
data_OsBr3N5O
_symmetry_space_group_name_H-M   'P 1'
_cell_length_a   7.44628476
_cell_length_b   7.44628476
_cell_length_c   7.44628476
_cell_angle_alpha   133.18231781
_cell_angle_beta   133.18231781
_cell_angle_gamma   68.36797357
_symmetry_Int_Tables_number   1
_chemical_formula_structural   OsBr3N5O
_chemical_formula_sum   'Os1 Br3 N5 O1'
_cell_volume   215.63704576
_cell_formula_units_Z   1
loop_
 _symmetry_equiv_pos_site_id
 _symmetry_equiv_pos_as_xyz
  1  'x, y, z'
loop_
 _atom_site_type_symbol
 _atom_site_label
 _atom_site_symmetry_multiplicity
 _atom_site_fract_x
 _atom_site_fract_y
 _atom_site_fract_z
 _atom_site_occupancy
  Os  Os0  1  0.65298700  0.65298700  0.00000000  1.0
  Br  Br1  1  0.43206633  0.43206633  0.00000000  1.0
  Br  Br2  1  0.57291301  1.07291301  0.50000000  1.0
  Br  Br3  1  1.07291301  0.57291301  0.50000000  1.0
  O  O4  1  -0.10359863  -0.10359863  -0.00000000  1.0
  N  N5  1  0.39730378  0.85511966  1.00000000  1.0
  N  N6  1  0.85511966  0.85511966  0.45781588  1.0
  N  N7  1  1.39730378  1.39730378  1.54218412  1.0
  N  N8  1  0.85511966  1.39730378  1.00000000  1.0
  N  N9  1  0.80137240  0.80137240  0.00000000  1.0
