# generated using pymatgen
data_Tl4S3
_symmetry_space_group_name_H-M   'P 1'
_cell_length_a   8.37670815
_cell_length_b   13.11277860
_cell_length_c   8.14505566
_cell_angle_alpha   90.00000000
_cell_angle_beta   103.49363340
_cell_angle_gamma   90.00000000
_symmetry_Int_Tables_number   1
_chemical_formula_structural   Tl4S3
_chemical_formula_sum   'Tl16 S12'
_cell_volume   869.97198603
_cell_formula_units_Z   4
loop_
 _symmetry_equiv_pos_site_id
 _symmetry_equiv_pos_as_xyz
  1  'x, y, z'
loop_
 _atom_site_type_symbol
 _atom_site_label
 _atom_site_symmetry_multiplicity
 _atom_site_fract_x
 _atom_site_fract_y
 _atom_site_fract_z
 _atom_site_occupancy
  Tl  Tl0  1  0.97042717  0.49648736  0.22890428  1.0
  Tl  Tl1  1  0.97042717  0.00351264  0.72890428  1.0
  Tl  Tl2  1  0.02957283  -0.00351264  0.27109572  1.0
  Tl  Tl3  1  0.02957283  0.50351264  0.77109572  1.0
  Tl  Tl4  1  0.78999939  0.27716207  0.46271595  1.0
  Tl  Tl5  1  0.78999939  0.22283793  0.96271595  1.0
  Tl  Tl6  1  0.21000061  0.77716207  0.03728405  1.0
  Tl  Tl7  1  0.21000061  0.72283793  0.53728405  1.0
  Tl  Tl8  1  0.41357845  0.46768503  0.22326047  1.0
  Tl  Tl9  1  0.41357845  0.03231497  0.72326047  1.0
  Tl  Tl10  1  0.58642155  0.96768503  0.27673953  1.0
  Tl  Tl11  1  0.58642155  0.53231497  0.77673953  1.0
  Tl  Tl12  1  0.29828032  0.21128308  0.08719404  1.0
  Tl  Tl13  1  0.29828032  0.28871692  0.58719404  1.0
  Tl  Tl14  1  0.70171968  0.71128308  0.41280596  1.0
  Tl  Tl15  1  0.70171968  0.78871692  0.91280596  1.0
  S  S16  1  1.01166668  0.75177303  0.24059600  1.0
  S  S17  1  1.01166668  0.74822697  0.74059600  1.0
  S  S18  1  -0.01166668  0.25177303  0.25940400  1.0
  S  S19  1  -0.01166668  0.24822697  0.75940400  1.0
  S  S20  1  0.74121548  0.47410104  0.45787837  1.0
  S  S21  1  0.74121548  0.02589896  0.95787837  1.0
  S  S22  1  0.25878452  0.97410104  0.04212163  1.0
  S  S23  1  0.25878452  0.52589896  0.54212163  1.0
  S  S24  1  0.53524678  0.16736075  0.41781369  1.0
  S  S25  1  0.53524678  0.33263925  0.91781369  1.0
  S  S26  1  0.46475322  0.66736075  0.08218631  1.0
  S  S27  1  0.46475322  0.83263925  0.58218631  1.0
