# generated using pymatgen
data_K2Zr6BeCl15
_symmetry_space_group_name_H-M   'P 1'
_cell_length_a   10.10557135
_cell_length_b   10.10557135
_cell_length_c   14.39348330
_cell_angle_alpha   90.00000000
_cell_angle_beta   90.00000000
_cell_angle_gamma   110.74216804
_symmetry_Int_Tables_number   1
_chemical_formula_structural   K2Zr6BeCl15
_chemical_formula_sum   'K4 Zr12 Be2 Cl30'
_cell_volume   1374.62598597
_cell_formula_units_Z   2
loop_
 _symmetry_equiv_pos_site_id
 _symmetry_equiv_pos_as_xyz
  1  'x, y, z'
loop_
 _atom_site_type_symbol
 _atom_site_label
 _atom_site_symmetry_multiplicity
 _atom_site_fract_x
 _atom_site_fract_y
 _atom_site_fract_z
 _atom_site_occupancy
  K  K0  1  0.00000000  0.00000000  0.75000000  1.0
  K  K1  1  0.00000000  0.00000000  0.25000000  1.0
  K  K2  1  0.50000000  1.00000000  0.00000000  1.0
  K  K3  1  0.00000000  1.50000000  0.50000000  1.0
  Zr  Zr4  1  0.17841306  0.56248134  0.88220656  1.0
  Zr  Zr5  1  0.17841306  0.56248134  0.11779344  1.0
  Zr  Zr6  1  -0.43751866  1.17841306  0.38220656  1.0
  Zr  Zr7  1  -0.43751866  1.17841306  0.61779344  1.0
  Zr  Zr8  1  0.43751866  0.82158694  0.38220656  1.0
  Zr  Zr9  1  0.43751866  0.82158694  0.61779344  1.0
  Zr  Zr10  1  -0.17841306  1.43751866  0.88220656  1.0
  Zr  Zr11  1  -0.17841306  1.43751866  0.11779344  1.0
  Zr  Zr12  1  -0.00681701  0.73145469  -0.00000000  1.0
  Zr  Zr13  1  -0.26854531  0.99318299  0.50000000  1.0
  Zr  Zr14  1  0.26854531  1.00681701  0.50000000  1.0
  Zr  Zr15  1  0.00681701  1.26854531  0.00000000  1.0
  Be  Be16  1  0.00000000  1.50000000  0.00000000  1.0
  Be  Be17  1  0.50000000  1.00000000  0.50000000  1.0
  Cl  Cl18  1  0.17570055  0.81019069  0.62359696  1.0
  Cl  Cl19  1  0.17570055  0.81019069  0.37640304  1.0
  Cl  Cl20  1  -0.18980931  1.17570055  0.12359696  1.0
  Cl  Cl21  1  -0.18980931  1.17570055  0.87640304  1.0
  Cl  Cl22  1  0.18980931  0.82429945  0.12359696  1.0
  Cl  Cl23  1  0.18980931  0.82429945  0.87640304  1.0
  Cl  Cl24  1  -0.17570055  1.18980931  0.62359696  1.0
  Cl  Cl25  1  -0.17570055  1.18980931  0.37640304  1.0
  Cl  Cl26  1  -0.19346243  1.68691183  0.87200597  1.0
  Cl  Cl27  1  -0.19346243  1.68691183  0.12799403  1.0
  Cl  Cl28  1  0.68691183  0.80653757  0.37200597  1.0
  Cl  Cl29  1  0.68691183  0.80653757  0.62799403  1.0
  Cl  Cl30  1  -0.68691183  1.19346243  0.37200597  1.0
  Cl  Cl31  1  -0.68691183  1.19346243  0.62799403  1.0
  Cl  Cl32  1  0.19346243  0.31308817  0.87200597  1.0
  Cl  Cl33  1  0.19346243  0.31308817  0.12799403  1.0
  Cl  Cl34  1  -0.38489034  1.35453487  -0.00000000  1.0
  Cl  Cl35  1  0.35453487  0.61510966  0.50000000  1.0
  Cl  Cl36  1  -0.35453487  1.38489034  0.50000000  1.0
  Cl  Cl37  1  0.38489034  0.64546513  -0.00000000  1.0
  Cl  Cl38  1  0.00000000  1.50000000  0.74834548  1.0
  Cl  Cl39  1  0.00000000  1.50000000  0.25165452  1.0
  Cl  Cl40  1  0.50000000  1.00000000  0.24834548  1.0
  Cl  Cl41  1  0.50000000  1.00000000  0.75165452  1.0
  Cl  Cl42  1  0.37233543  0.62766457  0.75000000  1.0
  Cl  Cl43  1  0.37233543  0.62766457  0.25000000  1.0
  Cl  Cl44  1  -0.37233543  1.37233543  0.25000000  1.0
  Cl  Cl45  1  -0.37233543  1.37233543  0.75000000  1.0
  Cl  Cl46  1  0.00000000  0.00000000  0.00000000  1.0
  Cl  Cl47  1  0.00000000  0.00000000  0.50000000  1.0
