# generated using pymatgen
data_Mg3(MnAl9)2
_symmetry_space_group_name_H-M   'P 1'
_cell_length_a   10.20372769
_cell_length_b   10.20372769
_cell_length_c   10.20372769
_cell_angle_alpha   60.00000000
_cell_angle_beta   60.00000000
_cell_angle_gamma   60.00000000
_symmetry_Int_Tables_number   1
_chemical_formula_structural   Mg3(MnAl9)2
_chemical_formula_sum   'Mg6 Mn4 Al36'
_cell_volume   751.21038285
_cell_formula_units_Z   2
loop_
 _symmetry_equiv_pos_site_id
 _symmetry_equiv_pos_as_xyz
  1  'x, y, z'
loop_
 _atom_site_type_symbol
 _atom_site_label
 _atom_site_symmetry_multiplicity
 _atom_site_fract_x
 _atom_site_fract_y
 _atom_site_fract_z
 _atom_site_occupancy
  Mg  Mg0  1  1.12500000  0.62500000  0.62500000  1.0
  Mg  Mg1  1  0.62500000  1.12500000  -0.37500000  1.0
  Mg  Mg2  1  -0.37500000  0.62500000  1.12500000  1.0
  Mg  Mg3  1  -0.37500000  0.62500000  0.62500000  1.0
  Mg  Mg4  1  0.50000000  -0.50000000  0.50000000  1.0
  Mg  Mg5  1  0.75000000  0.75000000  0.75000000  1.0
  Mn  Mn6  1  0.62500000  1.12500000  0.12500000  1.0
  Mn  Mn7  1  0.12500000  1.62500000  0.12500000  1.0
  Mn  Mn8  1  0.12500000  0.12500000  1.62500000  1.0
  Mn  Mn9  1  0.12500000  0.12500000  0.12500000  1.0
  Al  Al10  1  0.86305321  0.86305321  -0.86305321  1.0
  Al  Al11  1  0.13694679  1.13694679  -0.13694679  1.0
  Al  Al12  1  0.86305321  -0.86305321  0.86305321  1.0
  Al  Al13  1  0.13694679  -0.13694679  0.13694679  1.0
  Al  Al14  1  -0.86305321  0.86305321  0.86305321  1.0
  Al  Al15  1  -0.13694679  0.13694679  0.13694679  1.0
  Al  Al16  1  0.38694679  1.38694679  0.11305321  1.0
  Al  Al17  1  0.11305321  0.11305321  0.38694679  1.0
  Al  Al18  1  0.38694679  1.11305321  0.38694679  1.0
  Al  Al19  1  0.11305321  1.38694679  0.11305321  1.0
  Al  Al20  1  0.11305321  1.38694679  0.38694679  1.0
  Al  Al21  1  0.38694679  1.11305321  0.11305321  1.0
  Al  Al22  1  0.56683967  1.29881174  0.29881174  1.0
  Al  Al23  1  0.29881174  1.56683967  -0.16446316  1.0
  Al  Al24  1  0.29881174  -0.16446316  0.56683967  1.0
  Al  Al25  1  -0.16446316  0.29881174  0.29881174  1.0
  Al  Al26  1  0.29881174  1.29881174  0.56683967  1.0
  Al  Al27  1  0.56683967  0.83553684  0.29881174  1.0
  Al  Al28  1  -0.16446316  1.56683967  0.29881174  1.0
  Al  Al29  1  0.29881174  1.29881174  -0.16446316  1.0
  Al  Al30  1  0.29881174  1.56683967  0.29881174  1.0
  Al  Al31  1  -0.16446316  0.29881174  0.56683967  1.0
  Al  Al32  1  0.56683967  1.29881174  -0.16446316  1.0
  Al  Al33  1  0.29881174  -0.16446316  0.29881174  1.0
  Al  Al34  1  0.68316033  0.95118826  0.95118826  1.0
  Al  Al35  1  0.95118826  0.68316033  -0.58553684  1.0
  Al  Al36  1  0.95118826  0.41446316  0.68316033  1.0
  Al  Al37  1  0.41446316  0.95118826  -0.04881174  1.0
  Al  Al38  1  0.95118826  0.95118826  0.68316033  1.0
  Al  Al39  1  0.68316033  -0.58553684  0.95118826  1.0
  Al  Al40  1  -0.58553684  0.68316033  0.95118826  1.0
  Al  Al41  1  0.95118826  0.95118826  -0.58553684  1.0
  Al  Al42  1  0.95118826  0.68316033  0.95118826  1.0
  Al  Al43  1  0.41446316  0.95118826  -0.31683967  1.0
  Al  Al44  1  0.68316033  0.95118826  -0.58553684  1.0
  Al  Al45  1  0.95118826  0.41446316  0.95118826  1.0
