# generated using pymatgen
data_InSnBr3
_symmetry_space_group_name_H-M   'P 1'
_cell_length_a   11.91448610
_cell_length_b   11.91448610
_cell_length_c   11.91448610
_cell_angle_alpha   115.56369229
_cell_angle_beta   115.56369229
_cell_angle_gamma   97.87264570
_symmetry_Int_Tables_number   1
_chemical_formula_structural   InSnBr3
_chemical_formula_sum   'In8 Sn8 Br24'
_cell_volume   1263.20289628
_cell_formula_units_Z   8
loop_
 _symmetry_equiv_pos_site_id
 _symmetry_equiv_pos_as_xyz
  1  'x, y, z'
loop_
 _atom_site_type_symbol
 _atom_site_label
 _atom_site_symmetry_multiplicity
 _atom_site_fract_x
 _atom_site_fract_y
 _atom_site_fract_z
 _atom_site_occupancy
  In  In0  1  0.64956093  1.14956093  1.18033870  1.0
  In  In1  1  1.03077777  0.53077777  1.18033870  1.0
  In  In2  1  0.46922223  0.64956093  0.50000000  1.0
  In  In3  1  0.85043907  1.03077777  1.50000000  1.0
  In  In4  1  1.14956093  0.96922223  1.50000000  1.0
  In  In5  1  0.53077777  0.35043907  0.50000000  1.0
  In  In6  1  0.96922223  0.46922223  0.81966130  1.0
  In  In7  1  0.35043907  0.85043907  0.81966130  1.0
  Sn  Sn8  1  0.34828707  0.84828707  1.19657413  1.0
  Sn  Sn9  1  0.15171293  0.34828707  0.50000000  1.0
  Sn  Sn10  1  0.84828707  0.65171293  0.50000000  1.0
  Sn  Sn11  1  0.65171293  1.15171293  0.80342587  1.0
  Sn  Sn12  1  0.50000000  0.50000000  0.00000000  1.0
  Sn  Sn13  1  0.00000000  0.00000000  0.00000000  1.0
  Sn  Sn14  1  0.25000000  0.25000000  0.00000000  1.0
  Sn  Sn15  1  0.75000000  0.75000000  0.00000000  1.0
  Br  Br16  1  1.17851201  1.31664472  1.75277208  1.0
  Br  Br17  1  0.43612736  0.57426007  0.75277208  1.0
  Br  Br18  1  1.06387264  1.81664472  1.13813271  1.0
  Br  Br19  1  0.32148799  1.07426007  1.13813271  1.0
  Br  Br20  1  0.81664472  0.67851201  0.75277208  1.0
  Br  Br21  1  1.07426007  0.93612736  0.75277208  1.0
  Br  Br22  1  0.42573993  1.17851201  0.86186729  1.0
  Br  Br23  1  0.68335528  0.43612736  0.86186729  1.0
  Br  Br24  1  0.67851201  0.92573993  0.86186729  1.0
  Br  Br25  1  0.93612736  1.18335528  0.86186729  1.0
  Br  Br26  1  0.56387264  0.42573993  0.24722792  1.0
  Br  Br27  1  0.82148799  0.68335528  1.24722792  1.0
  Br  Br28  1  1.31664472  0.56387264  1.13813271  1.0
  Br  Br29  1  0.57426007  0.82148799  1.13813271  1.0
  Br  Br30  1  0.92573993  1.06387264  0.24722792  1.0
  Br  Br31  1  0.18335528  0.32148799  0.24722792  1.0
  Br  Br32  1  0.80935043  0.30935043  1.11870086  1.0
  Br  Br33  1  0.69064957  0.80935043  0.50000000  1.0
  Br  Br34  1  0.30935043  0.19064957  0.50000000  1.0
  Br  Br35  1  1.19064957  0.69064957  0.88129914  1.0
  Br  Br36  1  0.87677684  0.37677684  0.50000000  1.0
  Br  Br37  1  0.12322316  0.62322316  0.50000000  1.0
  Br  Br38  1  0.37677684  0.87677684  0.50000000  1.0
  Br  Br39  1  0.62322316  0.12322316  0.50000000  1.0
