# generated using pymatgen
data_AgO2
_symmetry_space_group_name_H-M   'P 1'
_cell_length_a   7.53065588
_cell_length_b   7.53065588
_cell_length_c   7.53065588
_cell_angle_alpha   138.97665450
_cell_angle_beta   138.97665450
_cell_angle_gamma   59.41045094
_symmetry_Int_Tables_number   1
_chemical_formula_structural   AgO2
_chemical_formula_sum   'Ag4 O8'
_cell_volume   182.17766015
_cell_formula_units_Z   4
loop_
 _symmetry_equiv_pos_site_id
 _symmetry_equiv_pos_as_xyz
  1  'x, y, z'
loop_
 _atom_site_type_symbol
 _atom_site_label
 _atom_site_symmetry_multiplicity
 _atom_site_fract_x
 _atom_site_fract_y
 _atom_site_fract_z
 _atom_site_occupancy
  Ag  Ag0  1  1.25000000  0.75000000  0.50000000  1.0
  Ag  Ag1  1  0.50000000  0.50000000  0.00000000  1.0
  Ag  Ag2  1  0.75000000  0.25000000  0.50000000  1.0
  Ag  Ag3  1  1.00000000  1.00000000  1.00000000  1.0
  O  O4  1  1.40699327  1.09297777  1.49999954  1.0
  O  O5  1  1.15702177  1.34300627  0.99999954  1.0
  O  O6  1  1.09300627  0.59300673  0.68598449  1.0
  O  O7  1  0.84297777  0.84297823  1.18598449  1.0
  O  O8  1  0.59297823  0.90699373  1.50000046  1.0
  O  O9  1  0.34300673  1.15702223  1.00000046  1.0
  O  O10  1  1.90702223  1.40702177  1.31401551  1.0
  O  O11  1  1.65699373  1.65699327  1.81401551  1.0
