# generated using pymatgen
data_KAgO2
_symmetry_space_group_name_H-M   'P 1'
_cell_length_a   6.46209708
_cell_length_b   6.46209708
_cell_length_c   5.98561300
_cell_angle_alpha   90.00000000
_cell_angle_beta   90.00000000
_cell_angle_gamma   140.31616591
_symmetry_Int_Tables_number   1
_chemical_formula_structural   KAgO2
_chemical_formula_sum   'K2 Ag2 O4'
_cell_volume   159.60664936
_cell_formula_units_Z   2
loop_
 _symmetry_equiv_pos_site_id
 _symmetry_equiv_pos_as_xyz
  1  'x, y, z'
loop_
 _atom_site_type_symbol
 _atom_site_label
 _atom_site_symmetry_multiplicity
 _atom_site_fract_x
 _atom_site_fract_y
 _atom_site_fract_z
 _atom_site_occupancy
  K  K0  1  -0.29425866  1.29425866  0.75000000  1.0
  K  K1  1  -0.70574134  0.70574134  0.25000000  1.0
  Ag  Ag2  1  -0.00310799  1.00310799  0.75000000  1.0
  Ag  Ag3  1  -0.99689201  0.99689201  0.25000000  1.0
  O  O4  1  -0.88804962  0.88804962  0.99370973  1.0
  O  O5  1  -0.11195038  1.11195038  0.00629027  1.0
  O  O6  1  -0.88804962  0.88804962  0.50629027  1.0
  O  O7  1  -0.11195038  1.11195038  0.49370973  1.0
