# generated using pymatgen
data_CsC15
_symmetry_space_group_name_H-M   'P 1'
_cell_length_a   10.52360556
_cell_length_b   10.52360556
_cell_length_c   10.52360556
_cell_angle_alpha   113.88657994
_cell_angle_beta   107.04048443
_cell_angle_gamma   107.57928326
_symmetry_Int_Tables_number   1
_chemical_formula_structural   CsC15
_chemical_formula_sum   'Cs4 C60'
_cell_volume   893.11766180
_cell_formula_units_Z   4
loop_
 _symmetry_equiv_pos_site_id
 _symmetry_equiv_pos_as_xyz
  1  'x, y, z'
loop_
 _atom_site_type_symbol
 _atom_site_label
 _atom_site_symmetry_multiplicity
 _atom_site_fract_x
 _atom_site_fract_y
 _atom_site_fract_z
 _atom_site_occupancy
  Cs  Cs0  1  0.72335201  1.22335201  0.50000000  1.0
  Cs  Cs1  1  1.27664799  0.77664799  0.50000000  1.0
  Cs  Cs2  1  0.29152844  0.50000000  0.79152844  1.0
  Cs  Cs3  1  0.70847156  0.50000000  0.20847156  1.0
  C  C4  1  0.60492564  0.72716450  0.75198496  1.0
  C  C5  1  1.02482046  1.14705932  0.75198496  1.0
  C  C6  1  0.97517954  1.72716450  1.12223886  1.0
  C  C7  1  0.39507436  1.14705932  1.12223886  1.0
  C  C8  1  0.60492564  0.85294068  0.87776114  1.0
  C  C9  1  1.02482046  1.27283550  0.87776114  1.0
  C  C10  1  0.97517954  0.85294068  0.24801504  1.0
  C  C11  1  0.39507436  0.27283550  0.24801504  1.0
  C  C12  1  1.64197844  1.78320223  1.65538861  1.0
  C  C13  1  0.87218639  1.01341017  0.65538861  1.0
  C  C14  1  1.12781361  1.78320223  1.14122378  1.0
  C  C15  1  1.35802156  1.01341017  1.14122378  1.0
  C  C16  1  1.64197844  0.98658983  0.85877622  1.0
  C  C17  1  0.87218639  1.21679777  0.85877622  1.0
  C  C18  1  1.12781361  0.98658983  0.34461139  1.0
  C  C19  1  1.35802156  1.21679777  1.34461139  1.0
  C  C20  1  0.66101644  0.62998952  0.78129388  1.0
  C  C21  1  1.15130436  1.12027744  0.78129388  1.0
  C  C22  1  0.84869564  0.62998952  0.96897308  1.0
  C  C23  1  1.33898356  1.12027744  0.96897308  1.0
  C  C24  1  1.66101644  0.87972256  1.03102692  1.0
  C  C25  1  1.15130436  0.37001048  1.03102692  1.0
  C  C26  1  0.84869564  0.87972256  0.21870612  1.0
  C  C27  1  0.33898356  0.37001048  0.21870612  1.0
  C  C28  1  0.73386733  0.74032775  0.59113240  1.0
  C  C29  1  0.85080466  0.85726507  0.59113240  1.0
  C  C30  1  1.14919534  0.74032775  1.00646041  1.0
  C  C31  1  1.26613267  0.85726507  1.00646041  1.0
  C  C32  1  1.73386733  1.14273493  0.99353959  1.0
  C  C33  1  0.85080466  0.25967225  0.99353959  1.0
  C  C34  1  1.14919534  1.14273493  0.40886760  1.0
  C  C35  1  0.26613267  0.25967225  0.40886760  1.0
  C  C36  1  1.75533270  1.58689478  1.71604417  1.0
  C  C37  1  1.12914940  0.96071147  0.71604417  1.0
  C  C38  1  0.87085060  1.58689478  0.83156207  1.0
  C  C39  1  1.24466730  0.96071147  0.83156207  1.0
  C  C40  1  1.75533270  1.03928853  1.16843793  1.0
  C  C41  1  1.12914940  1.41310522  1.16843793  1.0
  C  C42  1  0.87085060  1.03928853  0.28395583  1.0
  C  C43  1  1.24466730  1.41310522  1.28395583  1.0
  C  C44  1  0.79080959  0.64063621  0.62051173  1.0
  C  C45  1  0.97987551  0.82970214  0.62051173  1.0
  C  C46  1  1.02012449  1.64063621  0.84982662  1.0
  C  C47  1  0.20919041  0.82970214  0.84982662  1.0
  C  C48  1  0.79080959  1.17029786  1.15017338  1.0
  C  C49  1  0.97987551  1.35936379  1.15017338  1.0
  C  C50  1  1.02012449  1.17029786  0.37948827  1.0
  C  C51  1  0.20919041  0.35936379  0.37948827  1.0
  C  C52  1  0.94332602  0.69678134  0.64010737  1.0
  C  C53  1  0.05667398  0.69678134  0.75345532  1.0
  C  C54  1  0.94332602  1.30321866  1.24654468  1.0
  C  C55  1  0.05667398  0.30321866  0.35989263  1.0
  C  C56  1  0.71898881  0.65753202  0.93854322  1.0
  C  C57  1  1.28101119  1.21955441  0.93854322  1.0
  C  C58  1  0.71898881  0.78044559  0.06145678  1.0
  C  C59  1  0.28101119  0.34246798  0.06145678  1.0
  C  C60  1  1.66334696  0.94267369  0.72067326  1.0
  C  C61  1  0.77799957  1.05732631  0.72067326  1.0
  C  C62  1  1.22200043  0.94267369  0.27932674  1.0
  C  C63  1  1.33665304  1.05732631  1.27932674  1.0
