# generated using pymatgen
data_Fe2Ni(PO4)2
_symmetry_space_group_name_H-M   'P 1'
_cell_length_a   6.04751115
_cell_length_b   4.78889015
_cell_length_c   10.45256025
_cell_angle_alpha   90.00000000
_cell_angle_beta   90.49886605
_cell_angle_gamma   90.00000000
_symmetry_Int_Tables_number   1
_chemical_formula_structural   Fe2Ni(PO4)2
_chemical_formula_sum   'Fe4 Ni2 P4 O16'
_cell_volume   302.70372868
_cell_formula_units_Z   2
loop_
 _symmetry_equiv_pos_site_id
 _symmetry_equiv_pos_as_xyz
  1  'x, y, z'
loop_
 _atom_site_type_symbol
 _atom_site_label
 _atom_site_symmetry_multiplicity
 _atom_site_fract_x
 _atom_site_fract_y
 _atom_site_fract_z
 _atom_site_occupancy
  P  P0  1  0.76318243  0.43455485  0.10005704  1.0
  P  P1  1  0.76318243  0.06544515  0.60005704  1.0
  P  P2  1  0.23681757  0.93455485  0.39994296  1.0
  P  P3  1  0.23681757  0.56544515  0.89994296  1.0
  O  O4  1  0.75735988  0.17877113  0.46044011  1.0
  O  O5  1  0.75735988  0.32122887  0.96044011  1.0
  O  O6  1  0.24264012  0.67877113  0.03955989  1.0
  O  O7  1  0.24264012  0.82122887  0.53955989  1.0
  O  O8  1  0.22515442  0.25702925  0.39351176  1.0
  O  O9  1  0.22515442  0.24297075  0.89351176  1.0
  O  O10  1  0.77484558  0.75702925  0.10648824  1.0
  O  O11  1  0.77484558  0.74297075  0.60648824  1.0
  O  O12  1  0.56821138  0.31694379  0.18147100  1.0
  O  O13  1  0.56821138  0.18305621  0.68147100  1.0
  O  O14  1  0.43178862  0.81694379  0.31852900  1.0
  O  O15  1  0.43178862  0.68305621  0.81852900  1.0
  O  O16  1  0.97265511  0.28517840  0.16392712  1.0
  O  O17  1  0.97265511  0.21482160  0.66392712  1.0
  O  O18  1  0.02734489  0.78517840  0.33607288  1.0
  O  O19  1  0.02734489  0.71482160  0.83607288  1.0
  Fe  Fe20  1  0.73651060  0.98294153  0.28288876  1.0
  Fe  Fe21  1  0.73651060  0.51705847  0.78288876  1.0
  Fe  Fe22  1  0.26348940  0.48294153  0.21711124  1.0
  Fe  Fe23  1  0.26348940  0.01705847  0.71711124  1.0
  Ni  Ni24  1  -0.00000000  0.50000000  0.50000000  1.0
  Ni  Ni25  1  -0.00000000  -0.00000000  -0.00000000  1.0
