# generated using pymatgen
data_Gd(SiNi)6
_symmetry_space_group_name_H-M   'P 1'
_cell_length_a   7.75730061
_cell_length_b   7.75730061
_cell_length_c   11.22479828
_cell_angle_alpha   90.00000000
_cell_angle_beta   90.00000000
_cell_angle_gamma   90.00000000
_symmetry_Int_Tables_number   1
_chemical_formula_structural   Gd(SiNi)6
_chemical_formula_sum   'Gd4 Si24 Ni24'
_cell_volume   675.46023641
_cell_formula_units_Z   4
loop_
 _symmetry_equiv_pos_site_id
 _symmetry_equiv_pos_as_xyz
  1  'x, y, z'
loop_
 _atom_site_type_symbol
 _atom_site_label
 _atom_site_symmetry_multiplicity
 _atom_site_fract_x
 _atom_site_fract_y
 _atom_site_fract_z
 _atom_site_occupancy
  Si  Si0  1  0.36195327  0.38982829  0.07939466  1.0
  Si  Si1  1  0.13804673  0.88982829  0.07939466  1.0
  Si  Si2  1  0.61017171  0.36195327  0.92060534  1.0
  Si  Si3  1  0.88982829  0.86195327  0.92060534  1.0
  Si  Si4  1  0.63804673  0.61017171  0.07939466  1.0
  Si  Si5  1  0.86195327  0.11017171  0.07939466  1.0
  Si  Si6  1  0.38982829  0.63804673  0.92060534  1.0
  Si  Si7  1  0.11017171  0.13804673  0.92060534  1.0
  Si  Si8  1  0.43127216  0.21189601  0.24922084  1.0
  Si  Si9  1  0.06872784  0.71189601  0.24922084  1.0
  Si  Si10  1  0.78810399  0.43127216  0.75077916  1.0
  Si  Si11  1  0.71189601  0.93127216  0.75077916  1.0
  Si  Si12  1  0.56872784  0.78810399  0.24922084  1.0
  Si  Si13  1  0.93127216  0.28810399  0.24922084  1.0
  Si  Si14  1  0.21189601  0.56872784  0.75077916  1.0
  Si  Si15  1  0.28810399  0.06872784  0.75077916  1.0
  Si  Si16  1  0.16847403  0.15649643  0.36915915  1.0
  Si  Si17  1  0.33152597  0.65649643  0.36915915  1.0
  Si  Si18  1  0.84350357  0.16847403  0.63084085  1.0
  Si  Si19  1  0.65649643  0.66847403  0.63084085  1.0
  Si  Si20  1  0.83152597  0.84350357  0.36915915  1.0
  Si  Si21  1  0.66847403  0.34350357  0.36915915  1.0
  Si  Si22  1  0.15649643  0.83152597  0.63084085  1.0
  Si  Si23  1  0.34350357  0.33152597  0.63084085  1.0
  Gd  Gd24  1  -0.00000000  0.50000000  0.50000000  1.0
  Gd  Gd25  1  0.50000000  -0.00000000  0.50000000  1.0
  Gd  Gd26  1  -0.00000000  0.50000000  0.00000000  1.0
  Gd  Gd27  1  0.50000000  -0.00000000  0.00000000  1.0
  Ni  Ni28  1  0.18919820  0.44329783  0.25111250  1.0
  Ni  Ni29  1  0.31080180  0.94329783  0.25111250  1.0
  Ni  Ni30  1  0.55670217  0.18919820  0.74888750  1.0
  Ni  Ni31  1  0.94329783  0.68919820  0.74888750  1.0
  Ni  Ni32  1  0.81080180  0.55670217  0.25111250  1.0
  Ni  Ni33  1  0.68919820  0.05670217  0.25111250  1.0
  Ni  Ni34  1  0.44329783  0.81080180  0.74888750  1.0
  Ni  Ni35  1  0.05670217  0.31080180  0.74888750  1.0
  Ni  Ni36  1  0.37489135  0.36388917  0.42655624  1.0
  Ni  Ni37  1  0.12510865  0.86388917  0.42655624  1.0
  Ni  Ni38  1  0.63611083  0.37489135  0.57344376  1.0
  Ni  Ni39  1  0.86388917  0.87489135  0.57344376  1.0
  Ni  Ni40  1  0.62510865  0.63611083  0.42655624  1.0
  Ni  Ni41  1  0.87489135  0.13611083  0.42655624  1.0
  Ni  Ni42  1  0.36388917  0.62510865  0.57344376  1.0
  Ni  Ni43  1  0.13611083  0.12510865  0.57344376  1.0
  Ni  Ni44  1  0.15715712  0.17662670  0.12325924  1.0
  Ni  Ni45  1  0.34284288  0.67662670  0.12325924  1.0
  Ni  Ni46  1  0.82337330  0.15715712  0.87674076  1.0
  Ni  Ni47  1  0.67662670  0.65715712  0.87674076  1.0
  Ni  Ni48  1  0.84284288  0.82337330  0.12325924  1.0
  Ni  Ni49  1  0.65715712  0.32337330  0.12325924  1.0
  Ni  Ni50  1  0.17662670  0.84284288  0.87674076  1.0
  Ni  Ni51  1  0.32337330  0.34284288  0.87674076  1.0
