# generated using pymatgen
data_Zr2Si4Ni3
_symmetry_space_group_name_H-M   'P 1'
_cell_length_a   7.37357365
_cell_length_b   7.37357365
_cell_length_c   6.90797129
_cell_angle_alpha   90.00000000
_cell_angle_beta   90.00000000
_cell_angle_gamma   138.59027107
_symmetry_Int_Tables_number   1
_chemical_formula_structural   Zr2Si4Ni3
_chemical_formula_sum   'Zr4 Si8 Ni6'
_cell_volume   248.42569617
_cell_formula_units_Z   2
loop_
 _symmetry_equiv_pos_site_id
 _symmetry_equiv_pos_as_xyz
  1  'x, y, z'
loop_
 _atom_site_type_symbol
 _atom_site_label
 _atom_site_symmetry_multiplicity
 _atom_site_fract_x
 _atom_site_fract_y
 _atom_site_fract_z
 _atom_site_occupancy
  Zr  Zr0  1  -0.39558204  0.39558204  0.09779018  1.0
  Zr  Zr1  1  0.10441796  0.89558204  0.40220982  1.0
  Zr  Zr2  1  0.39558204  0.60441796  0.90220982  1.0
  Zr  Zr3  1  -0.10441796  0.10441796  0.59779018  1.0
  Si  Si4  1  -0.31762455  0.31762455  0.47669281  1.0
  Si  Si5  1  0.18237545  0.81762455  0.02330719  1.0
  Si  Si6  1  0.31762455  0.68237545  0.52330719  1.0
  Si  Si7  1  -0.18237545  0.18237545  0.97669281  1.0
  Si  Si8  1  0.68889038  0.81110962  0.25000000  1.0
  Si  Si9  1  0.18889038  0.31110962  0.25000000  1.0
  Si  Si10  1  -0.18889038  0.68889038  0.75000000  1.0
  Si  Si11  1  0.31110962  1.18889038  0.75000000  1.0
  Ni  Ni12  1  0.52265388  0.97734612  0.25000000  1.0
  Ni  Ni13  1  0.02265388  0.47734612  0.25000000  1.0
  Ni  Ni14  1  -0.02265388  0.52265388  0.75000000  1.0
  Ni  Ni15  1  0.47734612  1.02265388  0.75000000  1.0
  Ni  Ni16  1  -0.50000000  0.50000000  0.50000000  1.0
  Ni  Ni17  1  -0.00000000  1.00000000  0.00000000  1.0
