# generated using pymatgen
data_Y4In5S13
_symmetry_space_group_name_H-M   'P 1'
_cell_length_a   11.97392441
_cell_length_b   21.51726835
_cell_length_c   3.86510593
_cell_angle_alpha   90.00000000
_cell_angle_beta   90.00000000
_cell_angle_gamma   90.00000000
_symmetry_Int_Tables_number   1
_chemical_formula_structural   Y4In5S13
_chemical_formula_sum   'Y8 In10 S26'
_cell_volume   995.82964114
_cell_formula_units_Z   2
loop_
 _symmetry_equiv_pos_site_id
 _symmetry_equiv_pos_as_xyz
  1  'x, y, z'
loop_
 _atom_site_type_symbol
 _atom_site_label
 _atom_site_symmetry_multiplicity
 _atom_site_fract_x
 _atom_site_fract_y
 _atom_site_fract_z
 _atom_site_occupancy
  Y  Y0  1  0.47946296  0.82507167  0.00000000  1.0
  Y  Y1  1  0.97946296  0.67492833  -0.00000000  1.0
  Y  Y2  1  0.52053704  0.17492833  0.00000000  1.0
  Y  Y3  1  0.02053704  0.32507167  -0.00000000  1.0
  Y  Y4  1  0.31735214  0.66056404  -0.00000000  1.0
  Y  Y5  1  0.81735214  0.83943596  0.00000000  1.0
  Y  Y6  1  0.68264786  0.33943596  -0.00000000  1.0
  Y  Y7  1  0.18264786  0.16056404  0.00000000  1.0
  In  In8  1  0.15331805  0.50824028  0.50000000  1.0
  In  In9  1  0.65331805  0.99175972  0.50000000  1.0
  In  In10  1  0.84668195  0.49175972  0.50000000  1.0
  In  In11  1  0.34668195  0.00824028  0.50000000  1.0
  In  In12  1  0.15787152  0.83335399  0.50000000  1.0
  In  In13  1  0.65787152  0.66664601  0.50000000  1.0
  In  In14  1  0.84212848  0.16664601  0.50000000  1.0
  In  In15  1  0.34212848  0.33335399  0.50000000  1.0
  In  In16  1  0.50000000  0.50000000  0.00000000  1.0
  In  In17  1  0.00000000  0.00000000  0.00000000  1.0
  S  S18  1  0.49710577  0.59203214  0.50000000  1.0
  S  S19  1  0.99710577  0.90796786  0.50000000  1.0
  S  S20  1  0.50289423  0.40796786  0.50000000  1.0
  S  S21  1  0.00289423  0.09203214  0.50000000  1.0
  S  S22  1  0.40969064  0.73724246  0.50000000  1.0
  S  S23  1  0.90969064  0.76275754  0.50000000  1.0
  S  S24  1  0.59030936  0.26275754  0.50000000  1.0
  S  S25  1  0.09030936  0.23724246  0.50000000  1.0
  S  S26  1  0.34559620  0.88519525  0.50000000  1.0
  S  S27  1  0.84559620  0.61480475  0.50000000  1.0
  S  S28  1  0.65440380  0.11480475  0.50000000  1.0
  S  S29  1  0.15440380  0.38519525  0.50000000  1.0
  S  S30  1  0.14416179  0.63626820  0.50000000  1.0
  S  S31  1  0.64416179  0.86373180  0.50000000  1.0
  S  S32  1  0.85583821  0.36373180  0.50000000  1.0
  S  S33  1  0.35583821  0.13626820  0.50000000  1.0
  S  S34  1  0.29555834  0.52841072  0.00000000  1.0
  S  S35  1  0.79555834  0.97158928  -0.00000000  1.0
  S  S36  1  0.70444166  0.47158928  0.00000000  1.0
  S  S37  1  0.20444166  0.02841072  -0.00000000  1.0
  S  S38  1  0.15989768  0.76060887  0.00000000  1.0
  S  S39  1  0.65989768  0.73939113  0.00000000  1.0
  S  S40  1  0.84010232  0.23939113  0.00000000  1.0
  S  S41  1  0.34010232  0.26060887  0.00000000  1.0
  S  S42  1  0.50000000  0.00000000  0.00000000  1.0
  S  S43  1  0.00000000  0.50000000  0.00000000  1.0
