# generated using pymatgen
data_SnH10C3NCl3
_symmetry_space_group_name_H-M   'P 1'
_cell_length_a   6.54109112
_cell_length_b   6.54109112
_cell_length_c   12.60553396
_cell_angle_alpha   90.00000000
_cell_angle_beta   90.00000000
_cell_angle_gamma   82.40520248
_symmetry_Int_Tables_number   1
_chemical_formula_structural   SnH10C3NCl3
_chemical_formula_sum   'Sn2 H20 C6 N2 Cl6'
_cell_volume   534.60745102
_cell_formula_units_Z   2
loop_
 _symmetry_equiv_pos_site_id
 _symmetry_equiv_pos_as_xyz
  1  'x, y, z'
loop_
 _atom_site_type_symbol
 _atom_site_label
 _atom_site_symmetry_multiplicity
 _atom_site_fract_x
 _atom_site_fract_y
 _atom_site_fract_z
 _atom_site_occupancy
  Sn  Sn0  1  0.05271241  0.94728759  0.26466956  1.0
  Sn  Sn1  1  -0.05271241  1.05271241  0.76466956  1.0
  H  H2  1  -0.35287475  1.35287475  0.91987887  1.0
  H  H3  1  0.35287475  0.64712525  0.41987887  1.0
  H  H4  1  0.60756320  0.64450185  0.10035676  1.0
  H  H5  1  0.35549815  0.39243680  0.10035676  1.0
  H  H6  1  -0.60756320  1.35549815  0.60035676  1.0
  H  H7  1  -0.35549815  1.60756320  0.60035676  1.0
  H  H8  1  -0.18833788  1.43601368  0.07927370  1.0
  H  H9  1  -0.43601368  1.18833788  0.07927370  1.0
  H  H10  1  0.18833788  0.56398632  0.57927370  1.0
  H  H11  1  0.43601368  0.81166212  0.57927370  1.0
  H  H12  1  -0.22098675  1.65007408  0.98924428  1.0
  H  H13  1  -0.65007408  1.22098675  0.98924428  1.0
  H  H14  1  0.22098675  0.34992592  0.48924428  1.0
  H  H15  1  0.65007408  0.77901325  0.48924428  1.0
  H  H16  1  0.31211413  0.68788587  0.97029635  1.0
  H  H17  1  -0.31211413  1.31211413  0.47029635  1.0
  H  H18  1  0.49576393  0.68716996  0.86459131  1.0
  H  H19  1  0.31283004  0.50423607  0.86459131  1.0
  H  H20  1  -0.49576393  1.31283004  0.36459131  1.0
  H  H21  1  -0.31283004  1.49576393  0.36459131  1.0
  C  C22  1  -0.30048872  1.55126686  0.04072391  1.0
  C  C23  1  -0.55126686  1.30048872  0.04072391  1.0
  C  C24  1  0.30048872  0.44873314  0.54072391  1.0
  C  C25  1  0.55126686  0.69951128  0.54072391  1.0
  C  C26  1  0.40888681  0.59111319  0.91394862  1.0
  C  C27  1  -0.40888681  1.40888681  0.41394862  1.0
  N  N28  1  -0.44234100  1.44234100  0.97478395  1.0
  N  N29  1  0.44234100  0.55765900  0.47478395  1.0
  Cl  Cl30  1  0.03084035  0.96915965  0.46603397  1.0
  Cl  Cl31  1  -0.03084035  1.03084035  0.96603397  1.0
  Cl  Cl32  1  0.44397017  0.92155083  0.26795438  1.0
  Cl  Cl33  1  0.07844917  0.55602983  0.26795438  1.0
  Cl  Cl34  1  -0.44397017  1.07844917  0.76795438  1.0
  Cl  Cl35  1  -0.07844917  1.44397017  0.76795438  1.0
