# generated using pymatgen
data_Ba3Ta6(Si2O13)2
_symmetry_space_group_name_H-M   'P 1'
_cell_length_a   9.12000759
_cell_length_b   9.12000759
_cell_length_c   7.82124471
_cell_angle_alpha   90.00000000
_cell_angle_beta   90.00000000
_cell_angle_gamma   120.00000000
_symmetry_Int_Tables_number   1
_chemical_formula_structural   Ba3Ta6(Si2O13)2
_chemical_formula_sum   'Ba3 Ta6 Si4 O26'
_cell_volume   563.37413605
_cell_formula_units_Z   1
loop_
 _symmetry_equiv_pos_site_id
 _symmetry_equiv_pos_as_xyz
  1  'x, y, z'
loop_
 _atom_site_type_symbol
 _atom_site_label
 _atom_site_symmetry_multiplicity
 _atom_site_fract_x
 _atom_site_fract_y
 _atom_site_fract_z
 _atom_site_occupancy
  Ba  Ba0  1  0.39812720  0.39812720  0.00000000  1.0
  Ba  Ba1  1  -0.00000000  0.60187280  0.00000000  1.0
  Ba  Ba2  1  0.60187280  0.00000000  0.00000000  1.0
  Ta  Ta3  1  0.76190147  0.76190147  0.74500872  1.0
  Ta  Ta4  1  0.76190147  0.76190147  0.25499128  1.0
  Ta  Ta5  1  0.00000000  0.23809853  0.74500872  1.0
  Ta  Ta6  1  0.00000000  0.23809853  0.25499128  1.0
  Ta  Ta7  1  0.23809853  0.00000000  0.74500872  1.0
  Ta  Ta8  1  0.23809853  0.00000000  0.25499128  1.0
  Si  Si9  1  0.33333333  0.66666667  0.70603843  1.0
  Si  Si10  1  0.33333333  0.66666667  0.29396157  1.0
  Si  Si11  1  0.66666667  0.33333333  0.70603843  1.0
  Si  Si12  1  0.66666667  0.33333333  0.29396157  1.0
  O  O13  1  0.30524417  0.81762115  0.78355230  1.0
  O  O14  1  0.30524417  0.81762115  0.21644770  1.0
  O  O15  1  0.81762115  0.30524417  0.78355230  1.0
  O  O16  1  0.81762115  0.30524417  0.21644770  1.0
  O  O17  1  0.51237697  0.69475583  0.78355230  1.0
  O  O18  1  0.51237697  0.69475583  0.21644770  1.0
  O  O19  1  0.18237885  0.48762303  0.78355230  1.0
  O  O20  1  0.18237885  0.48762303  0.21644770  1.0
  O  O21  1  0.69475583  0.51237697  0.78355230  1.0
  O  O22  1  0.69475583  0.51237697  0.21644770  1.0
  O  O23  1  0.48762303  0.18237885  0.78355230  1.0
  O  O24  1  0.48762303  0.18237885  0.21644770  1.0
  O  O25  1  0.17763251  0.17763251  0.73650382  1.0
  O  O26  1  0.17763251  0.17763251  0.26349618  1.0
  O  O27  1  -0.00000000  0.82236749  0.73650382  1.0
  O  O28  1  -0.00000000  0.82236749  0.26349618  1.0
  O  O29  1  0.82236749  0.00000000  0.73650382  1.0
  O  O30  1  0.82236749  0.00000000  0.26349618  1.0
  O  O31  1  0.72560453  0.72560453  0.50000000  1.0
  O  O32  1  0.00000000  0.27439547  0.50000000  1.0
  O  O33  1  0.27439547  0.00000000  0.50000000  1.0
  O  O34  1  0.76979925  0.76979925  0.00000000  1.0
  O  O35  1  -0.00000000  0.23020075  0.00000000  1.0
  O  O36  1  0.23020075  0.00000000  0.00000000  1.0
  O  O37  1  0.33333333  0.66666667  0.50000000  1.0
  O  O38  1  0.66666667  0.33333333  0.50000000  1.0
