# generated using pymatgen
data_TaP
_symmetry_space_group_name_H-M   'P 1'
_cell_length_a   6.16711863
_cell_length_b   6.16711863
_cell_length_c   6.16711863
_cell_angle_alpha   148.63054577
_cell_angle_beta   148.63054577
_cell_angle_gamma   44.95540916
_symmetry_Int_Tables_number   1
_chemical_formula_structural   TaP
_chemical_formula_sum   'Ta2 P2'
_cell_volume   63.36144842
_cell_formula_units_Z   2
loop_
 _symmetry_equiv_pos_site_id
 _symmetry_equiv_pos_as_xyz
  1  'x, y, z'
loop_
 _atom_site_type_symbol
 _atom_site_label
 _atom_site_symmetry_multiplicity
 _atom_site_fract_x
 _atom_site_fract_y
 _atom_site_fract_z
 _atom_site_occupancy
  Ta  Ta0  1  -0.00051815  -0.00051815  -0.00000000  1.0
  Ta  Ta1  1  0.74948185  0.24948185  0.50000000  1.0
  P  P2  1  0.41651815  0.41651815  0.00000000  1.0
  P  P3  1  0.16651815  0.66651815  0.50000000  1.0
