# generated using pymatgen
data_Ag2PbO2
_symmetry_space_group_name_H-M   'P 1'
_cell_length_a   6.33505400
_cell_length_b   6.33505400
_cell_length_c   6.23280291
_cell_angle_alpha   62.51219819
_cell_angle_beta   117.48780181
_cell_angle_gamma   87.95668528
_symmetry_Int_Tables_number   1
_chemical_formula_structural   Ag2PbO2
_chemical_formula_sum   'Ag4 Pb2 O4'
_cell_volume   186.76338921
_cell_formula_units_Z   2
loop_
 _symmetry_equiv_pos_site_id
 _symmetry_equiv_pos_as_xyz
  1  'x, y, z'
loop_
 _atom_site_type_symbol
 _atom_site_label
 _atom_site_symmetry_multiplicity
 _atom_site_fract_x
 _atom_site_fract_y
 _atom_site_fract_z
 _atom_site_occupancy
  Ag  Ag0  1  1.50000000  -0.00000000  0.00000000  1.0
  Ag  Ag1  1  1.00000000  -0.50000000  0.50000000  1.0
  Ag  Ag2  1  -0.00000000  0.00000000  -0.00000000  1.0
  Ag  Ag3  1  -0.00000000  0.00000000  0.50000000  1.0
  Pb  Pb4  1  0.61416897  -0.38583103  0.75000000  1.0
  Pb  Pb5  1  1.38583103  0.38583103  0.25000000  1.0
  O  O6  1  1.63490468  0.24735511  0.76404164  1.0
  O  O7  1  0.75264489  -0.63490468  0.26404164  1.0
  O  O8  1  1.24735511  0.63490468  0.73595836  1.0
  O  O9  1  0.36509532  -0.24735511  0.23595836  1.0
