# generated using pymatgen
data_S3N2Cl
_symmetry_space_group_name_H-M   'P 1'
_cell_length_a   9.15418320
_cell_length_b   14.40509915
_cell_length_c   8.22833959
_cell_angle_alpha   90.00000000
_cell_angle_beta   90.00000000
_cell_angle_gamma   90.00000000
_symmetry_Int_Tables_number   1
_chemical_formula_structural   S3N2Cl
_chemical_formula_sum   'S24 N16 Cl8'
_cell_volume   1085.04577006
_cell_formula_units_Z   8
loop_
 _symmetry_equiv_pos_site_id
 _symmetry_equiv_pos_as_xyz
  1  'x, y, z'
loop_
 _atom_site_type_symbol
 _atom_site_label
 _atom_site_symmetry_multiplicity
 _atom_site_fract_x
 _atom_site_fract_y
 _atom_site_fract_z
 _atom_site_occupancy
  S  S0  1  0.47156525  0.04187466  0.29492284  1.0
  S  S1  1  0.47156525  0.45812534  0.79492284  1.0
  S  S2  1  0.97156525  0.04187466  0.20507716  1.0
  S  S3  1  0.97156525  0.45812534  0.70507716  1.0
  S  S4  1  0.52843475  0.54187466  0.20507716  1.0
  S  S5  1  0.52843475  0.95812534  0.70507716  1.0
  S  S6  1  0.02843475  0.54187466  0.29492284  1.0
  S  S7  1  0.02843475  0.95812534  0.79492284  1.0
  S  S8  1  0.34820781  0.42207630  0.01541561  1.0
  S  S9  1  0.34820781  0.07792370  0.51541561  1.0
  S  S10  1  0.84820781  0.42207630  0.48458439  1.0
  S  S11  1  0.84820781  0.07792370  0.98458439  1.0
  S  S12  1  0.65179219  0.92207630  0.48458439  1.0
  S  S13  1  0.65179219  0.57792370  0.98458439  1.0
  S  S14  1  0.15179219  0.92207630  0.01541561  1.0
  S  S15  1  0.15179219  0.57792370  0.51541561  1.0
  S  S16  1  0.02665246  0.22068384  0.09499779  1.0
  S  S17  1  0.02665246  0.27931616  0.59499779  1.0
  S  S18  1  0.52665246  0.22068384  0.40500221  1.0
  S  S19  1  0.52665246  0.27931616  0.90500221  1.0
  S  S20  1  0.97334754  0.72068384  0.40500221  1.0
  S  S21  1  0.97334754  0.77931616  0.90500221  1.0
  S  S22  1  0.47334754  0.72068384  0.09499779  1.0
  S  S23  1  0.47334754  0.77931616  0.59499779  1.0
  N  N24  1  0.40681862  0.31616777  0.02803268  1.0
  N  N25  1  0.40681862  0.18383223  0.52803268  1.0
  N  N26  1  0.90681862  0.31616777  0.47196732  1.0
  N  N27  1  0.90681862  0.18383223  0.97196732  1.0
  N  N28  1  0.59318138  0.81616777  0.47196732  1.0
  N  N29  1  0.59318138  0.68383223  0.97196732  1.0
  N  N30  1  0.09318138  0.81616777  0.02803268  1.0
  N  N31  1  0.09318138  0.68383223  0.52803268  1.0
  N  N32  1  0.05265129  0.14191267  0.22674924  1.0
  N  N33  1  0.05265129  0.35808733  0.72674924  1.0
  N  N34  1  0.55265129  0.14191267  0.27325076  1.0
  N  N35  1  0.55265129  0.35808733  0.77325076  1.0
  N  N36  1  0.94734871  0.64191267  0.27325076  1.0
  N  N37  1  0.94734871  0.85808733  0.77325076  1.0
  N  N38  1  0.44734871  0.64191267  0.22674924  1.0
  N  N39  1  0.44734871  0.85808733  0.72674924  1.0
  Cl  Cl40  1  0.23396321  0.40398719  0.37457232  1.0
  Cl  Cl41  1  0.23396321  0.09601281  0.87457232  1.0
  Cl  Cl42  1  0.73396321  0.40398719  0.12542768  1.0
  Cl  Cl43  1  0.73396321  0.09601281  0.62542768  1.0
  Cl  Cl44  1  0.76603679  0.90398719  0.12542768  1.0
  Cl  Cl45  1  0.76603679  0.59601281  0.62542768  1.0
  Cl  Cl46  1  0.26603679  0.90398719  0.37457232  1.0
  Cl  Cl47  1  0.26603679  0.59601281  0.87457232  1.0
