# generated using pymatgen
data_Na7Fe3O8
_symmetry_space_group_name_H-M   'P 1'
_cell_length_a   5.97505040
_cell_length_b   11.49724474
_cell_length_c   8.46463643
_cell_angle_alpha   68.36412249
_cell_angle_beta   70.38474431
_cell_angle_gamma   78.48851905
_symmetry_Int_Tables_number   1
_chemical_formula_structural   Na7Fe3O8
_chemical_formula_sum   'Na14 Fe6 O16'
_cell_volume   507.24487541
_cell_formula_units_Z   2
loop_
 _symmetry_equiv_pos_site_id
 _symmetry_equiv_pos_as_xyz
  1  'x, y, z'
loop_
 _atom_site_type_symbol
 _atom_site_label
 _atom_site_symmetry_multiplicity
 _atom_site_fract_x
 _atom_site_fract_y
 _atom_site_fract_z
 _atom_site_occupancy
  Na  Na0  1  -0.87504167  -0.66442336  -0.21689743  1.0
  Na  Na1  1  -0.12495833  -0.33557664  -0.78310257  1.0
  Na  Na2  1  -0.73477804  -0.95017352  -0.54627643  1.0
  Na  Na3  1  -0.26522196  -0.04982648  -0.45372357  1.0
  Na  Na4  1  -0.69798057  -0.95307950  -0.13223558  1.0
  Na  Na5  1  -0.30201943  -0.04692050  -0.86776442  1.0
  Na  Na6  1  -0.62974461  -0.43353724  -0.63895076  1.0
  Na  Na7  1  -0.37025539  -0.56646276  -0.36104924  1.0
  Na  Na8  1  -0.54228860  -0.78144683  -0.93658915  1.0
  Na  Na9  1  -0.45771140  -0.21855317  -0.06341085  1.0
  Na  Na10  1  -0.49838551  -0.72054631  -0.56103075  1.0
  Na  Na11  1  -0.50161449  -0.27945369  -0.43896925  1.0
  Na  Na12  1  -0.27574929  -0.52851279  -0.93255174  1.0
  Na  Na13  1  -0.72425071  -0.47148721  -0.06744826  1.0
  Fe  Fe14  1  -0.95714807  -0.63783523  -0.68782159  1.0
  Fe  Fe15  1  -0.04285193  -0.36216477  -0.31217841  1.0
  Fe  Fe16  1  -0.81569067  -0.14904549  -0.73952341  1.0
  Fe  Fe17  1  -0.18430933  -0.85095451  -0.26047659  1.0
  Fe  Fe18  1  -0.06032740  -0.84670071  -0.84388803  1.0
  Fe  Fe19  1  -0.93967260  -0.15329929  -0.15611197  1.0
  O  O20  1  -0.94667556  -0.68875379  -0.89413537  1.0
  O  O21  1  -0.05332444  -0.31124621  -0.10586463  1.0
  O  O22  1  -0.93595775  -0.77455017  -0.46782664  1.0
  O  O23  1  -0.06404225  -0.22544983  -0.53217336  1.0
  O  O24  1  -0.90177446  -0.15811052  -0.93534479  1.0
  O  O25  1  -0.09822554  -0.84188948  -0.06465521  1.0
  O  O26  1  -0.79170387  -0.97024264  -0.79636991  1.0
  O  O27  1  -0.20829613  -0.02975736  -0.20363009  1.0
  O  O28  1  -0.75971758  -0.46280601  -0.34367206  1.0
  O  O29  1  -0.24028242  -0.53719399  -0.65632794  1.0
  O  O30  1  -0.68079415  -0.55620289  -0.78123297  1.0
  O  O31  1  -0.31920585  -0.44379711  -0.21876703  1.0
  O  O32  1  -0.48721776  -0.77232689  -0.25108670  1.0
  O  O33  1  -0.51278224  -0.22767311  -0.74891330  1.0
  O  O34  1  -0.35442291  -0.88441954  -0.68763334  1.0
  O  O35  1  -0.64557709  -0.11558046  -0.31236666  1.0
