# generated using pymatgen
data_Ba(FeO2)2
_symmetry_space_group_name_H-M   'P 1'
_cell_length_a   10.57213294
_cell_length_b   10.57213294
_cell_length_c   5.47475252
_cell_angle_alpha   90.00000000
_cell_angle_beta   90.00000000
_cell_angle_gamma   132.10486492
_symmetry_Int_Tables_number   1
_chemical_formula_structural   Ba(FeO2)2
_chemical_formula_sum   'Ba4 Fe8 O16'
_cell_volume   453.98987324
_cell_formula_units_Z   4
loop_
 _symmetry_equiv_pos_site_id
 _symmetry_equiv_pos_as_xyz
  1  'x, y, z'
loop_
 _atom_site_type_symbol
 _atom_site_label
 _atom_site_symmetry_multiplicity
 _atom_site_fract_x
 _atom_site_fract_y
 _atom_site_fract_z
 _atom_site_occupancy
  Ba  Ba0  1  0.11840413  0.88159587  -0.00207860  1.0
  Ba  Ba1  1  -0.11840413  0.11840413  0.49792140  1.0
  Ba  Ba2  1  0.36891036  0.63108964  0.53353195  1.0
  Ba  Ba3  1  -0.36891036  0.36891036  0.03353195  1.0
  Fe  Fe4  1  0.00095087  0.58114746  0.52629583  1.0
  Fe  Fe5  1  0.58114746  1.00095087  0.02629583  1.0
  Fe  Fe6  1  0.41885254  0.99904913  0.52629583  1.0
  Fe  Fe7  1  -0.00095087  0.41885254  0.02629583  1.0
  Fe  Fe8  1  -0.17680882  0.73552945  0.50556905  1.0
  Fe  Fe9  1  0.73552945  0.82319118  0.00556905  1.0
  Fe  Fe10  1  0.26447055  1.17680882  0.50556905  1.0
  Fe  Fe11  1  0.17680882  0.26447055  0.00556905  1.0
  O  O12  1  0.23873335  0.31763007  0.66958344  1.0
  O  O13  1  0.31763007  1.23873335  0.16958344  1.0
  O  O14  1  0.68236993  0.76126665  0.66958344  1.0
  O  O15  1  -0.23873335  0.68236993  0.16958344  1.0
  O  O16  1  -0.16903234  0.57784388  0.65482834  1.0
  O  O17  1  0.57784388  0.83096766  0.15482834  1.0
  O  O18  1  0.42215612  1.16903234  0.65482834  1.0
  O  O19  1  0.16903234  0.42215612  0.15482834  1.0
  O  O20  1  0.00408859  0.42079362  0.67861969  1.0
  O  O21  1  0.42079362  1.00408859  0.17861969  1.0
  O  O22  1  0.57920638  0.99591141  0.67861969  1.0
  O  O23  1  -0.00408859  0.57920638  0.17861969  1.0
  O  O24  1  0.05007111  0.94992889  0.51731269  1.0
  O  O25  1  -0.05007111  0.05007111  0.01731269  1.0
  O  O26  1  0.21680447  0.78319553  0.63244125  1.0
  O  O27  1  -0.21680447  0.21680447  0.13244125  1.0
