# generated using pymatgen
data_Nb6C5
_symmetry_space_group_name_H-M   'P 1'
_cell_length_a   5.48545037
_cell_length_b   5.48545037
_cell_length_c   5.48398002
_cell_angle_alpha   80.29465417
_cell_angle_beta   99.70534583
_cell_angle_gamma   60.11960336
_symmetry_Int_Tables_number   1
_chemical_formula_structural   Nb6C5
_chemical_formula_sum   'Nb6 C5'
_cell_volume   134.73151634
_cell_formula_units_Z   1
loop_
 _symmetry_equiv_pos_site_id
 _symmetry_equiv_pos_as_xyz
  1  'x, y, z'
loop_
 _atom_site_type_symbol
 _atom_site_label
 _atom_site_symmetry_multiplicity
 _atom_site_fract_x
 _atom_site_fract_y
 _atom_site_fract_z
 _atom_site_occupancy
  Nb  Nb0  1  0.58285848  0.06419485  0.75374883  1.0
  Nb  Nb1  1  0.93580515  -0.58285848  0.75374883  1.0
  Nb  Nb2  1  1.06419485  -0.41714152  0.24625117  1.0
  Nb  Nb3  1  0.41714152  -0.06419485  0.24625117  1.0
  Nb  Nb4  1  0.23579066  -0.23579066  0.76417226  1.0
  Nb  Nb5  1  0.76420934  -0.76420934  0.23582774  1.0
  C  C6  1  0.83516375  -0.16483625  0.50000000  1.0
  C  C7  1  0.16483625  0.16483625  0.50000000  1.0
  C  C8  1  0.66667469  -0.33332531  0.00000000  1.0
  C  C9  1  0.33332531  0.33332531  0.00000000  1.0
  C  C10  1  0.00000000  0.00000000  0.00000000  1.0
