# generated using pymatgen
data_H10C2N2O5
_symmetry_space_group_name_H-M   'P 1'
_cell_length_a   8.01909945
_cell_length_b   10.30129500
_cell_length_c   3.87656346
_cell_angle_alpha   90.00000000
_cell_angle_beta   90.00000000
_cell_angle_gamma   90.00000000
_symmetry_Int_Tables_number   1
_chemical_formula_structural   H10C2N2O5
_chemical_formula_sum   'H20 C4 N4 O10'
_cell_volume   320.23170053
_cell_formula_units_Z   2
loop_
 _symmetry_equiv_pos_site_id
 _symmetry_equiv_pos_as_xyz
  1  'x, y, z'
loop_
 _atom_site_type_symbol
 _atom_site_label
 _atom_site_symmetry_multiplicity
 _atom_site_fract_x
 _atom_site_fract_y
 _atom_site_fract_z
 _atom_site_occupancy
  H  H0  1  0.40246695  0.98048713  0.95198974  1.0
  H  H1  1  0.90246695  0.51951287  0.04801026  1.0
  H  H2  1  0.59753305  0.01951287  0.95198974  1.0
  H  H3  1  0.09753305  0.48048713  0.04801026  1.0
  H  H4  1  0.21145306  0.69827382  0.72880263  1.0
  H  H5  1  0.71145306  0.80172618  0.27119737  1.0
  H  H6  1  0.78854694  0.30172618  0.72880263  1.0
  H  H7  1  0.28854694  0.19827382  0.27119737  1.0
  H  H8  1  0.14806506  0.79802629  0.39900193  1.0
  H  H9  1  0.64806506  0.70197371  0.60099807  1.0
  H  H10  1  0.85193494  0.20197371  0.39900193  1.0
  H  H11  1  0.35193494  0.29802629  0.60099807  1.0
  H  H12  1  0.06313182  0.64713377  0.44457676  1.0
  H  H13  1  0.56313182  0.85286623  0.55542324  1.0
  H  H14  1  0.93686818  0.35286623  0.44457676  1.0
  H  H15  1  0.43686818  0.14713377  0.55542324  1.0
  H  H16  1  0.02130450  0.76906666  0.73898044  1.0
  H  H17  1  0.52130450  0.73093334  0.26101956  1.0
  H  H18  1  0.97869550  0.23093334  0.73898044  1.0
  H  H19  1  0.47869550  0.26906666  0.26101956  1.0
  C  C20  1  0.40685726  0.52357641  0.92666922  1.0
  C  C21  1  0.90685726  0.97642359  0.07333078  1.0
  C  C22  1  0.59314274  0.47642359  0.92666922  1.0
  C  C23  1  0.09314274  0.02357641  0.07333078  1.0
  N  N24  1  0.11058846  0.72742209  0.57623520  1.0
  N  N25  1  0.61058846  0.77257791  0.42376480  1.0
  N  N26  1  0.88941154  0.27257791  0.57623520  1.0
  N  N27  1  0.38941154  0.22742209  0.42376480  1.0
  O  O28  1  0.38063152  0.64262392  0.99069697  1.0
  O  O29  1  0.88063152  0.85737608  0.00930303  1.0
  O  O30  1  0.61936848  0.35737608  0.99069697  1.0
  O  O31  1  0.11936848  0.14262392  0.00930303  1.0
  O  O32  1  0.70447175  0.55985695  0.86027067  1.0
  O  O33  1  0.20447175  0.94014305  0.13972933  1.0
  O  O34  1  0.29552825  0.44014305  0.86027067  1.0
  O  O35  1  0.79552825  0.05985695  0.13972933  1.0
  O  O36  1  0.50000000  0.00000000  0.80187165  1.0
  O  O37  1  0.00000000  0.50000000  0.19812835  1.0
