# generated using pymatgen
data_Mg2TiO4
_symmetry_space_group_name_H-M   'P 1'
_cell_length_a   6.02950588
_cell_length_b   6.02950588
_cell_length_c   8.46988761
_cell_angle_alpha   90.00000000
_cell_angle_beta   90.00000000
_cell_angle_gamma   90.00000000
_symmetry_Int_Tables_number   1
_chemical_formula_structural   Mg2TiO4
_chemical_formula_sum   'Mg8 Ti4 O16'
_cell_volume   307.92226534
_cell_formula_units_Z   4
loop_
 _symmetry_equiv_pos_site_id
 _symmetry_equiv_pos_as_xyz
  1  'x, y, z'
loop_
 _atom_site_type_symbol
 _atom_site_label
 _atom_site_symmetry_multiplicity
 _atom_site_fract_x
 _atom_site_fract_y
 _atom_site_fract_z
 _atom_site_occupancy
  Mg  Mg0  1  0.74804895  0.74804895  0.87500000  1.0
  Mg  Mg1  1  0.74804895  0.25195105  0.62500000  1.0
  Mg  Mg2  1  0.25195105  0.74804895  0.12500000  1.0
  Mg  Mg3  1  0.25195105  0.25195105  0.37500000  1.0
  Mg  Mg4  1  0.00000000  0.75018832  0.50000000  1.0
  Mg  Mg5  1  0.00000000  0.24981168  0.00000000  1.0
  Mg  Mg6  1  0.75018832  0.00000000  0.25000000  1.0
  Mg  Mg7  1  0.24981168  0.00000000  0.75000000  1.0
  Ti  Ti8  1  0.50000000  0.76352919  0.50000000  1.0
  Ti  Ti9  1  0.50000000  0.23647081  0.00000000  1.0
  Ti  Ti10  1  0.76352919  0.50000000  0.25000000  1.0
  Ti  Ti11  1  0.23647081  0.50000000  0.75000000  1.0
  O  O12  1  0.73693284  -0.02748811  0.49822620  1.0
  O  O13  1  0.73693284  0.02748811  0.00177380  1.0
  O  O14  1  -0.02748811  0.73693284  0.25177380  1.0
  O  O15  1  -0.02748811  0.26306716  0.24822620  1.0
  O  O16  1  0.26306716  -0.02748811  0.50177380  1.0
  O  O17  1  0.26306716  0.02748811  -0.00177380  1.0
  O  O18  1  0.02748811  0.73693284  0.74822620  1.0
  O  O19  1  0.02748811  0.26306716  0.75177380  1.0
  O  O20  1  0.73918023  0.51586401  0.48279250  1.0
  O  O21  1  0.73918023  0.48413599  0.01720750  1.0
  O  O22  1  0.51586401  0.73918023  0.26720750  1.0
  O  O23  1  0.51586401  0.26081977  0.23279250  1.0
  O  O24  1  0.26081977  0.51586401  0.51720750  1.0
  O  O25  1  0.26081977  0.48413599  -0.01720750  1.0
  O  O26  1  0.48413599  0.73918023  0.73279250  1.0
  O  O27  1  0.48413599  0.26081977  0.76720750  1.0
