# generated using pymatgen
data_RbP2(HO2)3
_symmetry_space_group_name_H-M   'P 1'
_cell_length_a   7.77668692
_cell_length_b   7.78746815
_cell_length_c   7.39301030
_cell_angle_alpha   59.45325982
_cell_angle_beta   64.14973267
_cell_angle_gamma   66.80554197
_symmetry_Int_Tables_number   1
_chemical_formula_structural   RbP2(HO2)3
_chemical_formula_sum   'Rb2 P4 H6 O12'
_cell_volume   338.32652878
_cell_formula_units_Z   2
loop_
 _symmetry_equiv_pos_site_id
 _symmetry_equiv_pos_as_xyz
  1  'x, y, z'
loop_
 _atom_site_type_symbol
 _atom_site_label
 _atom_site_symmetry_multiplicity
 _atom_site_fract_x
 _atom_site_fract_y
 _atom_site_fract_z
 _atom_site_occupancy
  Rb  Rb0  1  0.22611475  -0.68839100  1.65360685  1.0
  Rb  Rb1  1  0.77388525  -0.31160900  0.34639315  1.0
  P  P2  1  0.86886131  -0.96774472  1.63070540  1.0
  P  P3  1  0.13113869  -0.03225528  0.36929460  1.0
  P  P4  1  0.64402912  -0.56911722  1.03150517  1.0
  P  P5  1  0.35597088  -0.43088278  0.96849483  1.0
  H  H6  1  0.66584086  -0.77311490  1.42064463  1.0
  H  H7  1  0.33415914  -0.22688510  0.57935537  1.0
  H  H8  1  0.82633848  -0.29324838  0.83837870  1.0
  H  H9  1  0.17366152  -0.70675162  1.16162130  1.0
  H  H10  1  0.77296728  -0.79932861  0.89483563  1.0
  H  H11  1  0.22703272  -0.20067139  1.10516437  1.0
  O  O12  1  0.88668609  -0.79882085  1.66353816  1.0
  O  O13  1  0.11331391  -0.20117915  0.33646184  1.0
  O  O14  1  0.61518438  -0.57915974  1.25505820  1.0
  O  O15  1  0.38481562  -0.42084026  0.74494180  1.0
  O  O16  1  0.85882026  -0.17117119  0.84365380  1.0
  O  O17  1  0.14117974  -0.82882881  1.15634620  1.0
  O  O18  1  0.68625046  -0.91599094  1.55659584  1.0
  O  O19  1  0.31374954  -0.08400906  0.44340416  1.0
  O  O20  1  0.79341209  -0.44809330  0.83204743  1.0
  O  O21  1  0.20658791  -0.55190670  1.16795257  1.0
  O  O22  1  0.70285522  -0.79610941  1.04780874  1.0
  O  O23  1  0.29714478  -0.20389059  0.95219126  1.0
