# generated using pymatgen
data_NaIn3S5
_symmetry_space_group_name_H-M   'P 1'
_cell_length_a   12.64370920
_cell_length_b   16.40334578
_cell_length_c   3.85408556
_cell_angle_alpha   90.00000000
_cell_angle_beta   90.00000000
_cell_angle_gamma   90.00000000
_symmetry_Int_Tables_number   1
_chemical_formula_structural   NaIn3S5
_chemical_formula_sum   'Na4 In12 S20'
_cell_volume   799.33400757
_cell_formula_units_Z   4
loop_
 _symmetry_equiv_pos_site_id
 _symmetry_equiv_pos_as_xyz
  1  'x, y, z'
loop_
 _atom_site_type_symbol
 _atom_site_label
 _atom_site_symmetry_multiplicity
 _atom_site_fract_x
 _atom_site_fract_y
 _atom_site_fract_z
 _atom_site_occupancy
  Na  Na0  1  0.24764192  0.62780108  0.50000000  1.0
  Na  Na1  1  0.74764192  0.87219892  0.50000000  1.0
  Na  Na2  1  0.75235808  0.37219892  0.50000000  1.0
  Na  Na3  1  0.25235808  0.12780108  0.50000000  1.0
  In  In4  1  0.03776818  0.80292695  0.50000000  1.0
  In  In5  1  0.53776818  0.69707305  0.50000000  1.0
  In  In6  1  0.96223182  0.19707305  0.50000000  1.0
  In  In7  1  0.46223182  0.30292695  0.50000000  1.0
  In  In8  1  0.29225933  0.87733355  0.00000000  1.0
  In  In9  1  0.79225933  0.62266645  0.00000000  1.0
  In  In10  1  0.70774067  0.12266645  0.00000000  1.0
  In  In11  1  0.20774067  0.37733355  0.00000000  1.0
  In  In12  1  0.50000000  0.00000000  0.50000000  1.0
  In  In13  1  0.00000000  0.50000000  0.50000000  1.0
  In  In14  1  0.50000000  0.50000000  0.00000000  1.0
  In  In15  1  0.00000000  0.00000000  0.00000000  1.0
  S  S16  1  0.42440760  0.84258407  0.50000000  1.0
  S  S17  1  0.92440760  0.65741593  0.50000000  1.0
  S  S18  1  0.57559240  0.15741593  0.50000000  1.0
  S  S19  1  0.07559240  0.34258407  0.50000000  1.0
  S  S20  1  0.13611787  0.94479097  0.50000000  1.0
  S  S21  1  0.63611787  0.55520903  0.50000000  1.0
  S  S22  1  0.86388213  0.05520903  0.50000000  1.0
  S  S23  1  0.36388213  0.44479097  0.50000000  1.0
  S  S24  1  0.41530576  0.64123077  0.00000000  1.0
  S  S25  1  0.91530576  0.85876923  0.00000000  1.0
  S  S26  1  0.58469424  0.35876923  0.00000000  1.0
  S  S27  1  0.08469424  0.14123077  0.00000000  1.0
  S  S28  1  0.16830337  0.75462116  0.00000000  1.0
  S  S29  1  0.66830337  0.74537884  0.00000000  1.0
  S  S30  1  0.83169663  0.24537884  0.00000000  1.0
  S  S31  1  0.33169663  0.25462116  0.00000000  1.0
  S  S32  1  0.13917204  0.52465242  0.00000000  1.0
  S  S33  1  0.63917204  0.97534758  0.00000000  1.0
  S  S34  1  0.86082796  0.47534758  0.00000000  1.0
  S  S35  1  0.36082796  0.02465242  0.00000000  1.0
