# generated using pymatgen
data_Rh4Pb5
_symmetry_space_group_name_H-M   'P 1'
_cell_length_a   14.42105341
_cell_length_b   13.84145214
_cell_length_c   5.76709774
_cell_angle_alpha   83.93126566
_cell_angle_beta   72.63631944
_cell_angle_gamma   23.43241490
_symmetry_Int_Tables_number   1
_chemical_formula_structural   Rh4Pb5
_chemical_formula_sum   'Rh8 Pb10'
_cell_volume   391.72663126
_cell_formula_units_Z   2
loop_
 _symmetry_equiv_pos_site_id
 _symmetry_equiv_pos_as_xyz
  1  'x, y, z'
loop_
 _atom_site_type_symbol
 _atom_site_label
 _atom_site_symmetry_multiplicity
 _atom_site_fract_x
 _atom_site_fract_y
 _atom_site_fract_z
 _atom_site_occupancy
  Rh  Rh0  1  -0.08137209  0.91862791  0.58137209  1.0
  Rh  Rh1  1  0.08137209  0.08137209  1.41862791  1.0
  Rh  Rh2  1  0.41862791  0.41862791  1.08137209  1.0
  Rh  Rh3  1  -0.41862791  0.58137209  0.91862791  1.0
  Rh  Rh4  1  -0.08412381  0.91587619  0.08412381  1.0
  Rh  Rh5  1  0.08412381  0.08412381  -0.08412381  1.0
  Rh  Rh6  1  -0.25000000  0.75000000  0.75000000  1.0
  Rh  Rh7  1  0.25000000  0.25000000  1.25000000  1.0
  Pb  Pb8  1  -0.16387486  0.16387486  0.83612514  1.0
  Pb  Pb9  1  0.16387486  -0.16387486  1.16387486  1.0
  Pb  Pb10  1  0.66641406  0.00142159  -0.00142159  1.0
  Pb  Pb11  1  -0.00142159  0.33358594  0.66641406  1.0
  Pb  Pb12  1  1.00142159  -0.33358594  0.33358594  1.0
  Pb  Pb13  1  0.33358594  -0.00142159  1.00142159  1.0
  Pb  Pb14  1  -0.28559586  0.71440414  0.28559586  1.0
  Pb  Pb15  1  0.28559586  0.28559586  -0.28559586  1.0
  Pb  Pb16  1  -0.41193469  0.58806531  0.41193469  1.0
  Pb  Pb17  1  0.41193469  0.41193469  -0.41193469  1.0
