# generated using pymatgen
data_GdInO3
_symmetry_space_group_name_H-M   'P 1'
_cell_length_a   5.91098470
_cell_length_b   8.24826081
_cell_length_c   5.60035879
_cell_angle_alpha   90.00000000
_cell_angle_beta   90.00000000
_cell_angle_gamma   90.00000000
_symmetry_Int_Tables_number   1
_chemical_formula_structural   GdInO3
_chemical_formula_sum   'Gd4 In4 O12'
_cell_volume   273.04741634
_cell_formula_units_Z   4
loop_
 _symmetry_equiv_pos_site_id
 _symmetry_equiv_pos_as_xyz
  1  'x, y, z'
loop_
 _atom_site_type_symbol
 _atom_site_label
 _atom_site_symmetry_multiplicity
 _atom_site_fract_x
 _atom_site_fract_y
 _atom_site_fract_z
 _atom_site_occupancy
  Gd  Gd0  1  0.06281547  0.75000000  0.52180467  1.0
  Gd  Gd1  1  0.56281547  0.75000000  0.97819533  1.0
  Gd  Gd2  1  0.93718453  0.25000000  0.47819533  1.0
  Gd  Gd3  1  0.43718453  0.25000000  0.02180467  1.0
  In  In4  1  0.50000000  0.00000000  0.50000000  1.0
  In  In5  1  0.50000000  0.50000000  0.50000000  1.0
  In  In6  1  0.00000000  0.00000000  0.00000000  1.0
  In  In7  1  0.00000000  0.50000000  0.00000000  1.0
  O  O8  1  0.30762645  0.92736831  0.81046978  1.0
  O  O9  1  0.30762645  0.57263169  0.81046978  1.0
  O  O10  1  0.80762645  0.92736831  0.68953022  1.0
  O  O11  1  0.80762645  0.57263169  0.68953022  1.0
  O  O12  1  0.69237355  0.42736831  0.18953022  1.0
  O  O13  1  0.69237355  0.07263169  0.18953022  1.0
  O  O14  1  0.19237355  0.42736831  0.31046978  1.0
  O  O15  1  0.19237355  0.07263169  0.31046978  1.0
  O  O16  1  0.93476261  0.75000000  0.13940236  1.0
  O  O17  1  0.43476261  0.75000000  0.36059764  1.0
  O  O18  1  0.06523739  0.25000000  0.86059764  1.0
  O  O19  1  0.56523739  0.25000000  0.63940236  1.0
