# generated using pymatgen
data_La3Cu3Sb4
_symmetry_space_group_name_H-M   'P 1'
_cell_length_a   8.58242837
_cell_length_b   8.58242837
_cell_length_c   8.58242837
_cell_angle_alpha   109.47122063
_cell_angle_beta   109.47122063
_cell_angle_gamma   109.47122063
_symmetry_Int_Tables_number   1
_chemical_formula_structural   La3Cu3Sb4
_chemical_formula_sum   'La6 Cu6 Sb8'
_cell_volume   486.64097327
_cell_formula_units_Z   2
loop_
 _symmetry_equiv_pos_site_id
 _symmetry_equiv_pos_as_xyz
  1  'x, y, z'
loop_
 _atom_site_type_symbol
 _atom_site_label
 _atom_site_symmetry_multiplicity
 _atom_site_fract_x
 _atom_site_fract_y
 _atom_site_fract_z
 _atom_site_occupancy
  La  La0  1  1.12500000  0.87500000  1.25000000  1.0
  La  La1  1  0.37500000  0.62500000  0.75000000  1.0
  La  La2  1  0.25000000  1.12500000  0.87500000  1.0
  La  La3  1  0.75000000  1.37500000  0.62500000  1.0
  La  La4  1  0.62500000  0.75000000  0.37500000  1.0
  La  La5  1  0.87500000  0.25000000  1.12500000  1.0
  Cu  Cu6  1  1.62500000  1.37500000  1.25000000  1.0
  Cu  Cu7  1  0.87500000  1.12500000  0.75000000  1.0
  Cu  Cu8  1  0.25000000  0.62500000  0.37500000  1.0
  Cu  Cu9  1  0.75000000  0.87500000  0.12500000  1.0
  Cu  Cu10  1  0.12500000  0.75000000  0.87500000  1.0
  Cu  Cu11  1  1.37500000  1.25000000  1.62500000  1.0
  Sb  Sb12  1  1.34098997  1.34098997  1.34098997  1.0
  Sb  Sb13  1  1.50000000  1.00000000  1.15901003  1.0
  Sb  Sb14  1  0.84098997  0.84098997  0.84098997  1.0
  Sb  Sb15  1  0.50000000  1.00000000  0.65901003  1.0
  Sb  Sb16  1  1.00000000  1.15901003  1.50000000  1.0
  Sb  Sb17  1  1.15901003  0.50000000  1.00000000  1.0
  Sb  Sb18  1  1.00000000  0.65901003  1.50000000  1.0
  Sb  Sb19  1  0.65901003  1.50000000  1.00000000  1.0
