# generated using pymatgen
data_Sr2Cu(HO)6
_symmetry_space_group_name_H-M   'P 1'
_cell_length_a   5.82108039
_cell_length_b   6.25898899
_cell_length_c   9.77626129
_cell_angle_alpha   90.00000000
_cell_angle_beta   124.16286486
_cell_angle_gamma   90.00000000
_symmetry_Int_Tables_number   1
_chemical_formula_structural   Sr2Cu(HO)6
_chemical_formula_sum   'Sr4 Cu2 H12 O12'
_cell_volume   294.72675736
_cell_formula_units_Z   2
loop_
 _symmetry_equiv_pos_site_id
 _symmetry_equiv_pos_as_xyz
  1  'x, y, z'
loop_
 _atom_site_type_symbol
 _atom_site_label
 _atom_site_symmetry_multiplicity
 _atom_site_fract_x
 _atom_site_fract_y
 _atom_site_fract_z
 _atom_site_occupancy
  Sr  Sr0  1  0.71314233  0.07387907  0.25309355  1.0
  Sr  Sr1  1  0.71314233  0.42612093  0.75309355  1.0
  Sr  Sr2  1  0.28685767  0.57387907  0.24690645  1.0
  Sr  Sr3  1  0.28685767  0.92612093  0.74690645  1.0
  Cu  Cu4  1  0.00000000  0.50000000  0.50000000  1.0
  Cu  Cu5  1  0.00000000  0.00000000  0.00000000  1.0
  H  H6  1  0.71310114  0.77223977  0.51523623  1.0
  H  H7  1  0.71310114  0.72776023  1.01523623  1.0
  H  H8  1  0.28689886  0.27223977  -0.01523623  1.0
  H  H9  1  0.28689886  0.22776023  0.48476377  1.0
  H  H10  1  0.67328176  0.33453417  0.02337529  1.0
  H  H11  1  0.67328176  0.16546583  0.52337529  1.0
  H  H12  1  0.32671824  0.83453417  0.47662471  1.0
  H  H13  1  0.32671824  0.66546583  0.97662471  1.0
  H  H14  1  0.26873679  0.07406247  0.29954059  1.0
  H  H15  1  0.26873679  0.42593753  0.79954059  1.0
  H  H16  1  0.73126321  0.57406247  0.20045941  1.0
  H  H17  1  0.73126321  0.92593753  0.70045941  1.0
  O  O18  1  0.87576827  0.46324986  0.26500215  1.0
  O  O19  1  0.87576827  0.03675014  0.76500215  1.0
  O  O20  1  0.12423173  0.96324986  0.23499785  1.0
  O  O21  1  0.12423173  0.53675014  0.73499785  1.0
  O  O22  1  0.80064800  0.77482775  0.45280617  1.0
  O  O23  1  0.80064800  0.72517225  0.95280617  1.0
  O  O24  1  0.19935200  0.27482775  0.04719383  1.0
  O  O25  1  0.19935200  0.22517225  0.54719383  1.0
  O  O26  1  0.54298594  0.25665929  0.43016144  1.0
  O  O27  1  0.54298594  0.24334071  0.93016144  1.0
  O  O28  1  0.45701406  0.75665929  0.06983856  1.0
  O  O29  1  0.45701406  0.74334071  0.56983856  1.0
