# generated using pymatgen
data_La2Ga10Ni
_symmetry_space_group_name_H-M   'P 1'
_cell_length_a   13.55250187
_cell_length_b   13.55250187
_cell_length_c   13.55250187
_cell_angle_alpha   161.39903885
_cell_angle_beta   161.39903885
_cell_angle_gamma   26.42391178
_symmetry_Int_Tables_number   1
_chemical_formula_structural   La2Ga10Ni
_chemical_formula_sum   'La2 Ga10 Ni1'
_cell_volume   253.17221808
_cell_formula_units_Z   1
loop_
 _symmetry_equiv_pos_site_id
 _symmetry_equiv_pos_as_xyz
  1  'x, y, z'
loop_
 _atom_site_type_symbol
 _atom_site_label
 _atom_site_symmetry_multiplicity
 _atom_site_fract_x
 _atom_site_fract_y
 _atom_site_fract_z
 _atom_site_occupancy
  La  La0  1  0.85697114  0.85697114  1.00000000  1.0
  La  La1  1  0.14302886  0.14302886  0.00000000  1.0
  Ga  Ga2  1  0.45144190  0.95144190  0.50000000  1.0
  Ga  Ga3  1  0.54855810  0.04855810  0.50000000  1.0
  Ga  Ga4  1  0.95144190  0.45144190  0.50000000  1.0
  Ga  Ga5  1  0.04855810  0.54855810  0.50000000  1.0
  Ga  Ga6  1  0.69628626  0.69628626  1.00000000  1.0
  Ga  Ga7  1  0.30371374  0.30371374  0.00000000  1.0
  Ga  Ga8  1  0.60326569  0.60326569  1.00000000  1.0
  Ga  Ga9  1  0.39673431  0.39673431  0.00000000  1.0
  Ga  Ga10  1  0.25000000  0.75000000  0.50000000  1.0
  Ga  Ga11  1  0.75000000  0.25000000  0.50000000  1.0
  Ni  Ni12  1  0.00000000  0.00000000  0.00000000  1.0
