# generated using pymatgen
data_SrCu3(SnO3)4
_symmetry_space_group_name_H-M   'P 1'
_cell_length_a   6.75721106
_cell_length_b   6.75721106
_cell_length_c   6.75721106
_cell_angle_alpha   109.47122063
_cell_angle_beta   109.47122063
_cell_angle_gamma   109.47122063
_symmetry_Int_Tables_number   1
_chemical_formula_structural   SrCu3(SnO3)4
_chemical_formula_sum   'Sr1 Cu3 Sn4 O12'
_cell_volume   237.50926800
_cell_formula_units_Z   1
loop_
 _symmetry_equiv_pos_site_id
 _symmetry_equiv_pos_as_xyz
  1  'x, y, z'
loop_
 _atom_site_type_symbol
 _atom_site_label
 _atom_site_symmetry_multiplicity
 _atom_site_fract_x
 _atom_site_fract_y
 _atom_site_fract_z
 _atom_site_occupancy
  Sr  Sr0  1  0.00000000  0.00000000  0.00000000  1.0
  Cu  Cu1  1  0.50000000  0.50000000  -0.00000000  1.0
  Cu  Cu2  1  -0.00000000  0.50000000  0.50000000  1.0
  Cu  Cu3  1  0.50000000  0.00000000  0.50000000  1.0
  Sn  Sn4  1  0.50000000  1.00000000  1.00000000  1.0
  Sn  Sn5  1  0.50000000  0.50000000  0.50000000  1.0
  Sn  Sn6  1  1.00000000  1.00000000  0.50000000  1.0
  Sn  Sn7  1  1.00000000  0.50000000  1.00000000  1.0
  O  O8  1  0.82880193  1.30931721  1.13811914  1.0
  O  O9  1  0.82880193  0.69068279  0.51948472  1.0
  O  O10  1  0.17119807  0.30931721  0.48051528  1.0
  O  O11  1  0.17119807  0.69068279  0.86188086  1.0
  O  O12  1  0.51948472  0.82880193  0.69068279  1.0
  O  O13  1  1.13811914  0.82880193  1.30931721  1.0
  O  O14  1  0.69068279  0.86188086  0.17119807  1.0
  O  O15  1  0.69068279  0.51948472  0.82880193  1.0
  O  O16  1  0.86188086  0.17119807  0.69068279  1.0
  O  O17  1  0.48051528  0.17119807  0.30931721  1.0
  O  O18  1  0.30931721  0.48051528  0.17119807  1.0
  O  O19  1  1.30931721  1.13811914  0.82880193  1.0
