# generated using pymatgen
data_Cs2HgBr4
_symmetry_space_group_name_H-M   'P 1'
_cell_length_a   10.90151643
_cell_length_b   7.95511570
_cell_length_c   20.60848453
_cell_angle_alpha   90.00000000
_cell_angle_beta   134.97768438
_cell_angle_gamma   90.00000000
_symmetry_Int_Tables_number   1
_chemical_formula_structural   Cs2HgBr4
_chemical_formula_sum   'Cs8 Hg4 Br16'
_cell_volume   1264.25172947
_cell_formula_units_Z   4
loop_
 _symmetry_equiv_pos_site_id
 _symmetry_equiv_pos_as_xyz
  1  'x, y, z'
loop_
 _atom_site_type_symbol
 _atom_site_label
 _atom_site_symmetry_multiplicity
 _atom_site_fract_x
 _atom_site_fract_y
 _atom_site_fract_z
 _atom_site_occupancy
  Cs  Cs0  1  0.71760691  0.24967274  0.83322718  1.0
  Cs  Cs1  1  0.71760691  0.25032726  0.33322718  1.0
  Cs  Cs2  1  0.28239309  0.74967274  0.66677282  1.0
  Cs  Cs3  1  0.28239309  0.75032726  0.16677282  1.0
  Cs  Cs4  1  0.77356588  0.25011455  0.60164856  1.0
  Cs  Cs5  1  0.77356588  0.24988545  0.10164856  1.0
  Cs  Cs6  1  0.22643412  0.75011455  0.89835144  1.0
  Cs  Cs7  1  0.22643412  0.74988545  0.39835144  1.0
  Hg  Hg8  1  0.28044110  0.25001032  0.53815784  1.0
  Hg  Hg9  1  0.28044110  0.24998968  0.03815784  1.0
  Hg  Hg10  1  0.71955890  0.75001032  0.96184216  1.0
  Hg  Hg11  1  0.71955890  0.74998968  0.46184216  1.0
  Br  Br12  1  0.89037730  0.75009428  0.91364408  1.0
  Br  Br13  1  0.89037730  0.74990572  0.41364408  1.0
  Br  Br14  1  0.10962270  0.25009428  0.58635592  1.0
  Br  Br15  1  0.10962270  0.24990572  0.08635592  1.0
  Br  Br16  1  0.50378148  -0.00823118  0.61905453  1.0
  Br  Br17  1  0.50378148  0.50823118  0.11905453  1.0
  Br  Br18  1  0.49621852  0.49176882  0.88094547  1.0
  Br  Br19  1  0.49621852  1.00823118  0.38094547  1.0
  Br  Br20  1  0.50422358  0.50804610  0.61931811  1.0
  Br  Br21  1  0.50422358  0.99195390  0.11931811  1.0
  Br  Br22  1  0.49577642  0.00804610  0.88068189  1.0
  Br  Br23  1  0.49577642  0.49195390  0.38068189  1.0
  Br  Br24  1  0.08458300  0.24944795  0.85873970  1.0
  Br  Br25  1  0.08458300  0.25055205  0.35873970  1.0
  Br  Br26  1  0.91541700  0.74944795  0.64126030  1.0
  Br  Br27  1  0.91541700  0.75055205  0.14126030  1.0
