# generated using pymatgen
data_CuAu(CN)2
_symmetry_space_group_name_H-M   'P 1'
_cell_length_a   6.09693094
_cell_length_b   6.09693094
_cell_length_c   6.09693094
_cell_angle_alpha   143.93465741
_cell_angle_beta   120.20109165
_cell_angle_gamma   71.85743110
_symmetry_Int_Tables_number   1
_chemical_formula_structural   CuAu(CN)2
_chemical_formula_sum   'Cu1 Au1 C2 N2'
_cell_volume   113.27513895
_cell_formula_units_Z   1
loop_
 _symmetry_equiv_pos_site_id
 _symmetry_equiv_pos_as_xyz
  1  'x, y, z'
loop_
 _atom_site_type_symbol
 _atom_site_label
 _atom_site_symmetry_multiplicity
 _atom_site_fract_x
 _atom_site_fract_y
 _atom_site_fract_z
 _atom_site_occupancy
  Cu  Cu0  1  0.00000000  0.00000000  0.00000000  1.0
  Au  Au1  1  0.50000000  0.50000000  1.00000000  1.0
  C  C2  1  0.69947767  0.69947767  1.00000000  1.0
  C  C3  1  0.30052233  0.30052233  0.00000000  1.0
  N  N4  1  0.81763707  0.81763707  1.00000000  1.0
  N  N5  1  0.18236293  0.18236293  0.00000000  1.0
