# generated using pymatgen
data_Cr2Te4O11
_symmetry_space_group_name_H-M   'P 1'
_cell_length_a   7.01290364
_cell_length_b   7.79993697
_cell_length_c   9.90913299
_cell_angle_alpha   90.00000000
_cell_angle_beta   100.71077866
_cell_angle_gamma   90.00000000
_symmetry_Int_Tables_number   1
_chemical_formula_structural   Cr2Te4O11
_chemical_formula_sum   'Cr4 Te8 O22'
_cell_volume   532.58826467
_cell_formula_units_Z   2
loop_
 _symmetry_equiv_pos_site_id
 _symmetry_equiv_pos_as_xyz
  1  'x, y, z'
loop_
 _atom_site_type_symbol
 _atom_site_label
 _atom_site_symmetry_multiplicity
 _atom_site_fract_x
 _atom_site_fract_y
 _atom_site_fract_z
 _atom_site_occupancy
  Cr  Cr0  1  0.81901173  0.50430110  0.88483766  1.0
  Cr  Cr1  1  0.81901173  -0.00430110  0.38483766  1.0
  Cr  Cr2  1  0.18098827  1.00430110  0.61516234  1.0
  Cr  Cr3  1  0.18098827  0.49569890  0.11516234  1.0
  Te  Te4  1  0.82095567  0.64321831  0.58721798  1.0
  Te  Te5  1  0.82095567  0.85678169  0.08721798  1.0
  Te  Te6  1  0.17904433  0.14321831  0.91278202  1.0
  Te  Te7  1  0.17904433  0.35678169  0.41278202  1.0
  Te  Te8  1  0.34695931  0.65040502  0.82706790  1.0
  Te  Te9  1  0.34695931  0.84959498  0.32706790  1.0
  Te  Te10  1  0.65304069  0.15040502  0.67293210  1.0
  Te  Te11  1  0.65304069  0.34959498  0.17293210  1.0
  O  O12  1  0.97353728  0.63980841  0.77282149  1.0
  O  O13  1  0.97353728  0.86019159  0.27282149  1.0
  O  O14  1  0.02646272  0.13980841  0.72717851  1.0
  O  O15  1  0.02646272  0.36019159  0.22717851  1.0
  O  O16  1  0.93645306  0.86921903  0.55330898  1.0
  O  O17  1  0.93645306  0.63078097  0.05330898  1.0
  O  O18  1  0.06354694  0.36921903  0.94669102  1.0
  O  O19  1  0.06354694  0.13078097  0.44669102  1.0
  O  O20  1  0.65955005  0.35201472  0.97703509  1.0
  O  O21  1  0.65955005  0.14798528  0.47703509  1.0
  O  O22  1  0.34044995  0.85201472  0.52296491  1.0
  O  O23  1  0.34044995  0.64798528  0.02296491  1.0
  O  O24  1  0.63043734  0.69182933  0.85083019  1.0
  O  O25  1  0.63043734  0.80817067  0.35083019  1.0
  O  O26  1  0.36956266  0.19182933  0.64916981  1.0
  O  O27  1  0.36956266  0.30817067  0.14916981  1.0
  O  O28  1  0.29414751  0.89684000  0.79449781  1.0
  O  O29  1  0.29414751  0.60316000  0.29449781  1.0
  O  O30  1  0.70585249  0.39684000  0.70550219  1.0
  O  O31  1  0.70585249  0.10316000  0.20550219  1.0
  O  O32  1  0.00000000  0.00000000  0.00000000  1.0
  O  O33  1  0.00000000  0.50000000  0.50000000  1.0
