# generated using pymatgen
data_GdAgSe2
_symmetry_space_group_name_H-M   'P 1'
_cell_length_a   7.47023367
_cell_length_b   7.47023367
_cell_length_c   7.47023367
_cell_angle_alpha   135.00966101
_cell_angle_beta   135.00966101
_cell_angle_gamma   65.51518882
_symmetry_Int_Tables_number   1
_chemical_formula_structural   GdAgSe2
_chemical_formula_sum   'Gd2 Ag2 Se4'
_cell_volume   205.27883354
_cell_formula_units_Z   2
loop_
 _symmetry_equiv_pos_site_id
 _symmetry_equiv_pos_as_xyz
  1  'x, y, z'
loop_
 _atom_site_type_symbol
 _atom_site_label
 _atom_site_symmetry_multiplicity
 _atom_site_fract_x
 _atom_site_fract_y
 _atom_site_fract_z
 _atom_site_occupancy
  Gd  Gd0  1  0.00056743  0.00056743  0.00000000  1.0
  Gd  Gd1  1  0.75056743  0.25056743  0.50000000  1.0
  Ag  Ag2  1  0.54218350  0.54218350  1.00000000  1.0
  Ag  Ag3  1  0.29218350  0.79218350  0.50000000  1.0
  Se  Se4  1  0.76649243  0.76649243  1.00000000  1.0
  Se  Se5  1  0.51649243  0.01649243  0.50000000  1.0
  Se  Se6  1  0.23075664  0.23075664  0.00000000  1.0
  Se  Se7  1  0.98075664  0.48075664  0.50000000  1.0
