# generated using pymatgen
data_CaZn3Ni2
_symmetry_space_group_name_H-M   'P 1'
_cell_length_a   8.98665937
_cell_length_b   8.98665937
_cell_length_c   4.09032598
_cell_angle_alpha   90.00000000
_cell_angle_beta   90.00000000
_cell_angle_gamma   120.00000000
_symmetry_Int_Tables_number   1
_chemical_formula_structural   CaZn3Ni2
_chemical_formula_sum   'Ca3 Zn9 Ni6'
_cell_volume   286.07842947
_cell_formula_units_Z   3
loop_
 _symmetry_equiv_pos_site_id
 _symmetry_equiv_pos_as_xyz
  1  'x, y, z'
loop_
 _atom_site_type_symbol
 _atom_site_label
 _atom_site_symmetry_multiplicity
 _atom_site_fract_x
 _atom_site_fract_y
 _atom_site_fract_z
 _atom_site_occupancy
  Ca  Ca0  1  0.33333333  0.66666667  0.50000000  1.0
  Ca  Ca1  1  0.66666667  0.33333333  0.50000000  1.0
  Ca  Ca2  1  0.00000000  0.00000000  0.00000000  1.0
  Zn  Zn3  1  0.70804382  0.70804382  0.50000000  1.0
  Zn  Zn4  1  0.70804382  0.00000000  0.50000000  1.0
  Zn  Zn5  1  -0.00000000  0.70804382  0.50000000  1.0
  Zn  Zn6  1  -0.00000000  0.29195618  0.50000000  1.0
  Zn  Zn7  1  0.29195618  0.29195618  0.50000000  1.0
  Zn  Zn8  1  0.29195618  0.00000000  0.50000000  1.0
  Zn  Zn9  1  0.50000000  0.50000000  0.00000000  1.0
  Zn  Zn10  1  0.50000000  0.00000000  0.00000000  1.0
  Zn  Zn11  1  0.00000000  0.50000000  0.00000000  1.0
  Ni  Ni12  1  0.18195576  0.81804424  0.00000000  1.0
  Ni  Ni13  1  0.18195576  0.36391152  0.00000000  1.0
  Ni  Ni14  1  0.81804424  0.18195576  0.00000000  1.0
  Ni  Ni15  1  0.81804424  0.63608848  0.00000000  1.0
  Ni  Ni16  1  0.63608848  0.81804424  0.00000000  1.0
  Ni  Ni17  1  0.36391152  0.18195576  0.00000000  1.0
