# generated using pymatgen
data_Mn2VBiO6
_symmetry_space_group_name_H-M   'P 1'
_cell_length_a   12.50966568
_cell_length_b   5.57011863
_cell_length_c   8.12824439
_cell_angle_alpha   90.00000000
_cell_angle_beta   90.00000000
_cell_angle_gamma   90.00000000
_symmetry_Int_Tables_number   1
_chemical_formula_structural   Mn2VBiO6
_chemical_formula_sum   'Mn8 V4 Bi4 O24'
_cell_volume   566.37868477
_cell_formula_units_Z   4
loop_
 _symmetry_equiv_pos_site_id
 _symmetry_equiv_pos_as_xyz
  1  'x, y, z'
loop_
 _atom_site_type_symbol
 _atom_site_label
 _atom_site_symmetry_multiplicity
 _atom_site_fract_x
 _atom_site_fract_y
 _atom_site_fract_z
 _atom_site_occupancy
  Mn  Mn0  1  0.41180576  0.75000000  0.20316530  1.0
  Mn  Mn1  1  0.91180576  0.75000000  0.29683470  1.0
  Mn  Mn2  1  0.58819424  0.25000000  0.79683470  1.0
  Mn  Mn3  1  0.08819424  0.25000000  0.70316530  1.0
  Mn  Mn4  1  0.40033119  0.75000000  0.81500445  1.0
  Mn  Mn5  1  0.90033119  0.75000000  0.68499555  1.0
  Mn  Mn6  1  0.59966881  0.25000000  0.18499555  1.0
  Mn  Mn7  1  0.09966881  0.25000000  0.31500445  1.0
  V  V8  1  0.19914872  0.75000000  0.53049105  1.0
  V  V9  1  0.69914872  0.75000000  0.96950895  1.0
  V  V10  1  0.80085128  0.25000000  0.46950895  1.0
  V  V11  1  0.30085128  0.25000000  0.03049105  1.0
  Bi  Bi12  1  0.09105879  0.75000000  0.98173221  1.0
  Bi  Bi13  1  0.59105879  0.75000000  0.51826779  1.0
  Bi  Bi14  1  0.90894121  0.25000000  0.01826779  1.0
  Bi  Bi15  1  0.40894121  0.25000000  0.48173221  1.0
  O  O16  1  0.49068592  0.99597938  0.67014456  1.0
  O  O17  1  0.49068592  0.50402062  0.67014456  1.0
  O  O18  1  0.99068592  0.99597938  0.82985544  1.0
  O  O19  1  0.99068592  0.50402062  0.82985544  1.0
  O  O20  1  0.50931408  0.49597938  0.32985544  1.0
  O  O21  1  0.50931408  0.00402062  0.32985544  1.0
  O  O22  1  0.00931408  0.49597938  0.17014456  1.0
  O  O23  1  0.00931408  0.00402062  0.17014456  1.0
  O  O24  1  0.12136621  1.00959419  0.51046343  1.0
  O  O25  1  0.12136621  0.49040581  0.51046343  1.0
  O  O26  1  0.62136621  1.00959419  0.98953657  1.0
  O  O27  1  0.62136621  0.49040581  0.98953657  1.0
  O  O28  1  0.87863379  0.50959419  0.48953657  1.0
  O  O29  1  0.87863379  -0.00959419  0.48953657  1.0
  O  O30  1  0.37863379  0.50959419  0.01046343  1.0
  O  O31  1  0.37863379  -0.00959419  0.01046343  1.0
  O  O32  1  0.24887341  0.75000000  0.72797341  1.0
  O  O33  1  0.74887341  0.75000000  0.77202659  1.0
  O  O34  1  0.75112659  0.25000000  0.27202659  1.0
  O  O35  1  0.25112659  0.25000000  0.22797341  1.0
  O  O36  1  0.80252009  0.75000000  0.10891141  1.0
  O  O37  1  0.30252009  0.75000000  0.39108859  1.0
  O  O38  1  0.19747991  0.25000000  0.89108859  1.0
  O  O39  1  0.69747991  0.25000000  0.60891141  1.0
