# generated using pymatgen
data_Ba3(SnAs2)2
_symmetry_space_group_name_H-M   'P 1'
_cell_length_a   8.16238680
_cell_length_b   20.12973379
_cell_length_c   8.04857330
_cell_angle_alpha   90.00000000
_cell_angle_beta   112.22151141
_cell_angle_gamma   90.00000000
_symmetry_Int_Tables_number   1
_chemical_formula_structural   Ba3(SnAs2)2
_chemical_formula_sum   'Ba12 Sn8 As16'
_cell_volume   1224.21533930
_cell_formula_units_Z   4
loop_
 _symmetry_equiv_pos_site_id
 _symmetry_equiv_pos_as_xyz
  1  'x, y, z'
loop_
 _atom_site_type_symbol
 _atom_site_label
 _atom_site_symmetry_multiplicity
 _atom_site_fract_x
 _atom_site_fract_y
 _atom_site_fract_z
 _atom_site_occupancy
  Ba  Ba0  1  0.73819028  0.93886916  0.99480272  1.0
  Ba  Ba1  1  0.73819028  0.56113084  0.49480272  1.0
  Ba  Ba2  1  0.26180972  0.43886916  0.50519728  1.0
  Ba  Ba3  1  0.26180972  0.06113084  0.00519728  1.0
  Ba  Ba4  1  0.78641385  0.18285680  0.99122936  1.0
  Ba  Ba5  1  0.78641385  0.31714320  0.49122936  1.0
  Ba  Ba6  1  0.21358615  0.68285680  0.50877064  1.0
  Ba  Ba7  1  0.21358615  0.81714320  0.00877064  1.0
  Ba  Ba8  1  0.74247296  0.43693581  0.98868049  1.0
  Ba  Ba9  1  0.74247296  0.06306419  0.48868049  1.0
  Ba  Ba10  1  0.25752704  0.93693581  0.51131951  1.0
  Ba  Ba11  1  0.25752704  0.56306419  0.01131951  1.0
  Sn  Sn12  1  0.79026432  0.62313290  0.97479768  1.0
  Sn  Sn13  1  0.79026432  0.87686710  0.47479768  1.0
  Sn  Sn14  1  0.20973568  0.12313290  0.52520232  1.0
  Sn  Sn15  1  0.20973568  0.37686710  0.02520232  1.0
  Sn  Sn16  1  0.68402316  0.75786433  0.59915795  1.0
  Sn  Sn17  1  0.68402316  0.74213567  0.09915794  1.0
  Sn  Sn18  1  0.31597684  0.25786433  0.90084206  1.0
  Sn  Sn19  1  0.31597684  0.24213567  0.40084205  1.0
  As  As20  1  0.50149984  0.56406323  0.75348667  1.0
  As  As21  1  0.50149984  0.93593677  0.25348667  1.0
  As  As22  1  0.49850016  0.06406323  0.74651333  1.0
  As  As23  1  0.49850016  0.43593677  0.24651333  1.0
  As  As24  1  0.48722647  0.80080143  0.78412689  1.0
  As  As25  1  0.48722647  0.69919857  0.28412689  1.0
  As  As26  1  0.51277353  0.30080143  0.71587311  1.0
  As  As27  1  0.51277353  0.19919857  0.21587311  1.0
  As  As28  1  0.99985030  0.94560226  0.75114500  1.0
  As  As29  1  0.99985030  0.55439774  0.25114500  1.0
  As  As30  1  0.00014970  0.44560226  0.74885500  1.0
  As  As31  1  0.00014970  0.05439774  0.24885500  1.0
  As  As32  1  0.96572760  0.68260710  0.78442582  1.0
  As  As33  1  0.96572760  0.81739290  0.28442582  1.0
  As  As34  1  0.03427240  0.18260710  0.71557418  1.0
  As  As35  1  0.03427240  0.31739290  0.21557418  1.0
