# generated using pymatgen
data_BaFe2Se3
_symmetry_space_group_name_H-M   'P 1'
_cell_length_a   7.61038480
_cell_length_b   7.61038480
_cell_length_c   5.41099405
_cell_angle_alpha   90.00000000
_cell_angle_beta   90.00000000
_cell_angle_gamma   105.93672759
_symmetry_Int_Tables_number   1
_chemical_formula_structural   BaFe2Se3
_chemical_formula_sum   'Ba2 Fe4 Se6'
_cell_volume   301.34858865
_cell_formula_units_Z   2
loop_
 _symmetry_equiv_pos_site_id
 _symmetry_equiv_pos_as_xyz
  1  'x, y, z'
loop_
 _atom_site_type_symbol
 _atom_site_label
 _atom_site_symmetry_multiplicity
 _atom_site_fract_x
 _atom_site_fract_y
 _atom_site_fract_z
 _atom_site_occupancy
  Ba  Ba0  1  -0.30980188  1.30980188  0.25000000  1.0
  Ba  Ba1  1  0.30980188  0.69019812  0.75000000  1.0
  Fe  Fe2  1  0.86089200  0.86089200  0.50000000  1.0
  Fe  Fe3  1  0.86089200  0.86089200  0.00000000  1.0
  Fe  Fe4  1  0.13910800  0.13910800  0.50000000  1.0
  Fe  Fe5  1  0.13910800  0.13910800  0.00000000  1.0
  Se  Se6  1  0.13243447  0.86756553  0.25000000  1.0
  Se  Se7  1  -0.13243447  1.13243447  0.75000000  1.0
  Se  Se8  1  0.16875930  0.40940289  0.25000000  1.0
  Se  Se9  1  -0.59059711  1.16875930  0.75000000  1.0
  Se  Se10  1  0.59059711  0.83124070  0.25000000  1.0
  Se  Se11  1  -0.16875930  1.59059711  0.75000000  1.0
