# generated using pymatgen
data_KAl(BH4)4
_symmetry_space_group_name_H-M   'P 1'
_cell_length_a   9.82170539
_cell_length_b   8.92914421
_cell_length_c   8.04498167
_cell_angle_alpha   70.48834369
_cell_angle_beta   58.97204128
_cell_angle_gamma   50.53961503
_symmetry_Int_Tables_number   1
_chemical_formula_structural   KAl(BH4)4
_chemical_formula_sum   'K2 Al2 B8 H32'
_cell_volume   466.75938201
_cell_formula_units_Z   2
loop_
 _symmetry_equiv_pos_site_id
 _symmetry_equiv_pos_as_xyz
  1  'x, y, z'
loop_
 _atom_site_type_symbol
 _atom_site_label
 _atom_site_symmetry_multiplicity
 _atom_site_fract_x
 _atom_site_fract_y
 _atom_site_fract_z
 _atom_site_occupancy
  K  K0  1  0.50098650  0.50098650  0.49901350  1.0
  K  K1  1  0.75098650  -0.24901350  0.74901350  1.0
  Al  Al2  1  1.00101350  0.00101350  -0.00101350  1.0
  Al  Al3  1  0.25101350  0.25101350  0.24898650  1.0
  B  B4  1  0.43115627  0.26977898  0.93347274  1.0
  B  B5  1  0.31652726  -0.11559201  0.81884373  1.0
  B  B6  1  0.26977898  0.43115627  0.36559201  1.0
  B  B7  1  0.88440799  -0.68347274  0.98022102  1.0
  B  B8  1  0.36757608  -0.06447166  0.26787809  1.0
  B  B9  1  0.98212191  -0.17901749  0.88242392  1.0
  B  B10  1  -0.06447166  0.36757608  1.42901749  1.0
  B  B11  1  0.82098251  -0.01787809  0.31447166  1.0
  H  H12  1  0.49978935  0.17159941  0.05572674  1.0
  H  H13  1  0.19427326  -0.02288449  0.75021065  1.0
  H  H14  1  0.17159941  0.49978935  0.27288449  1.0
  H  H15  1  -0.02288449  0.19427326  1.07840059  1.0
  H  H16  1  0.45762065  0.39602460  0.87909575  1.0
  H  H17  1  0.37090425  -0.01725900  0.79237935  1.0
  H  H18  1  0.39602460  0.45762065  0.26725900  1.0
  H  H19  1  0.98274100  -0.62909575  0.85397540  1.0
  H  H20  1  0.26925555  -0.11881904  0.39422546  1.0
  H  H21  1  0.85577454  -0.20533804  0.98074445  1.0
  H  H22  1  -0.11881904  0.26925555  1.45533804  1.0
  H  H23  1  0.79466196  -0.14422546  0.36881904  1.0
  H  H24  1  0.75222208  0.08037689  0.19232146  1.0
  H  H25  1  0.05767854  0.27492043  0.49777792  1.0
  H  H26  1  0.08037689  0.75222208  0.97507957  1.0
  H  H27  1  0.27492043  0.05767854  0.16962311  1.0
  H  H28  1  0.39296826  0.00752875  0.34930388  1.0
  H  H29  1  0.90069612  -0.00019911  0.85703174  1.0
  H  H30  1  0.00752875  0.39296826  0.25019911  1.0
  H  H31  1  -0.00019911  0.90069612  0.24247125  1.0
  H  H32  1  0.09203217  0.75123928  0.72231789  1.0
  H  H33  1  -0.47231789  0.81558934  1.15796783  1.0
  H  H34  1  0.75123928  0.09203217  0.43441066  1.0
  H  H35  1  0.81558934  -0.47231789  0.49876072  1.0
  H  H36  1  0.35132607  0.25232924  0.39098883  1.0
  H  H37  1  0.85901117  -0.75535586  0.89867393  1.0
  H  H38  1  0.25232924  0.35132607  1.00535586  1.0
  H  H39  1  0.24464414  -0.14098883  0.99767076  1.0
  H  H40  1  0.15978312  0.50098394  0.52566419  1.0
  H  H41  1  -0.27566419  0.43643125  1.09021688  1.0
  H  H42  1  0.50098394  0.15978312  0.81356875  1.0
  H  H43  1  0.43643125  -0.27566419  0.74901606  1.0
