# generated using pymatgen
data_CsNiP(H6O5)2
_symmetry_space_group_name_H-M   'P 1'
_cell_length_a   7.12685454
_cell_length_b   7.12685454
_cell_length_c   7.12685454
_cell_angle_alpha   60.00000000
_cell_angle_beta   60.00000000
_cell_angle_gamma   60.00000000
_symmetry_Int_Tables_number   1
_chemical_formula_structural   CsNiP(H6O5)2
_chemical_formula_sum   'Cs1 Ni1 P1 H12 O10'
_cell_volume   255.96388115
_cell_formula_units_Z   1
loop_
 _symmetry_equiv_pos_site_id
 _symmetry_equiv_pos_as_xyz
  1  'x, y, z'
loop_
 _atom_site_type_symbol
 _atom_site_label
 _atom_site_symmetry_multiplicity
 _atom_site_fract_x
 _atom_site_fract_y
 _atom_site_fract_z
 _atom_site_occupancy
  Cs  Cs0  1  0.25000000  0.25000000  0.25000000  1.0
  Ni  Ni1  1  0.00000000  -0.00000000  0.00000000  1.0
  P  P2  1  0.75000000  0.75000000  -0.25000000  1.0
  H  H3  1  0.73978336  1.14292841  -0.26021664  1.0
  H  H4  1  -0.26021664  0.73978336  1.14292841  1.0
  H  H5  1  -0.62249512  0.73978336  1.14292841  1.0
  H  H6  1  0.37750488  1.14292841  -0.26021664  1.0
  H  H7  1  1.14292841  0.73978336  -0.26021664  1.0
  H  H8  1  -0.62249512  0.73978336  0.73978336  1.0
  H  H9  1  1.14292841  0.73978336  -0.62249512  1.0
  H  H10  1  -0.26021664  0.73978336  0.37750488  1.0
  H  H11  1  -0.26021664  0.37750488  0.73978336  1.0
  H  H12  1  1.14292841  0.37750488  -0.26021664  1.0
  H  H13  1  0.73978336  1.14292841  -0.62249512  1.0
  H  H14  1  -0.26021664  0.37750488  1.14292841  1.0
  O  O15  1  -0.79463746  0.79463746  0.79463746  1.0
  O  O16  1  -0.20536254  0.79463746  0.20536254  1.0
  O  O17  1  -0.20536254  0.20536254  0.79463746  1.0
  O  O18  1  0.20536254  1.20536254  -0.20536254  1.0
  O  O19  1  0.20536254  -0.20536254  0.20536254  1.0
  O  O20  1  -0.20536254  0.20536254  0.20536254  1.0
  O  O21  1  -0.33968494  0.66031506  0.66031506  1.0
  O  O22  1  1.01905481  0.66031506  -0.33968494  1.0
  O  O23  1  -0.33968494  0.66031506  1.01905481  1.0
  O  O24  1  0.66031506  1.01905481  -0.33968494  1.0
