# generated using pymatgen
data_SrLi2Ta2O7
_symmetry_space_group_name_H-M   'P 1'
_cell_length_a   9.60053976
_cell_length_b   9.60053976
_cell_length_c   5.61631788
_cell_angle_alpha   90.00000000
_cell_angle_beta   90.00000000
_cell_angle_gamma   34.06521222
_symmetry_Int_Tables_number   1
_chemical_formula_structural   SrLi2Ta2O7
_chemical_formula_sum   'Sr2 Li4 Ta4 O14'
_cell_volume   289.95898062
_cell_formula_units_Z   2
loop_
 _symmetry_equiv_pos_site_id
 _symmetry_equiv_pos_as_xyz
  1  'x, y, z'
loop_
 _atom_site_type_symbol
 _atom_site_label
 _atom_site_symmetry_multiplicity
 _atom_site_fract_x
 _atom_site_fract_y
 _atom_site_fract_z
 _atom_site_occupancy
  Sr  Sr0  1  -0.24563210  0.24563210  0.75000000  1.0
  Sr  Sr1  1  -0.75436790  0.75436790  0.25000000  1.0
  Li  Li2  1  -0.23999987  0.76000013  0.00000000  1.0
  Li  Li3  1  -0.23999987  0.76000013  0.50000000  1.0
  Li  Li4  1  0.23999987  0.23999987  0.00000000  1.0
  Li  Li5  1  0.23999987  0.23999987  0.50000000  1.0
  Ta  Ta6  1  0.13880266  0.63204361  0.75000000  1.0
  Ta  Ta7  1  -0.36795639  1.13880266  0.25000000  1.0
  Ta  Ta8  1  -0.63204361  0.86119734  0.75000000  1.0
  Ta  Ta9  1  -0.13880266  0.36795639  0.25000000  1.0
  O  O10  1  0.06574205  0.50067619  0.75000000  1.0
  O  O11  1  -0.49932381  1.06574205  0.25000000  1.0
  O  O12  1  -0.50067619  0.93425795  0.75000000  1.0
  O  O13  1  -0.06574205  0.49932381  0.25000000  1.0
  O  O14  1  -0.11476455  0.88523545  0.00000000  1.0
  O  O15  1  -0.11476455  0.88523545  0.50000000  1.0
  O  O16  1  0.11476455  0.11476455  0.00000000  1.0
  O  O17  1  0.11476455  0.11476455  0.50000000  1.0
  O  O18  1  -0.40541931  0.59458069  0.00000000  1.0
  O  O19  1  -0.40541931  0.59458069  0.50000000  1.0
  O  O20  1  0.40541931  0.40541931  0.00000000  1.0
  O  O21  1  0.40541931  0.40541931  0.50000000  1.0
  O  O22  1  -0.79358516  0.79358516  0.75000000  1.0
  O  O23  1  -0.20641484  0.20641484  0.25000000  1.0
