# generated using pymatgen
data_Ba3CaRu2O9
_symmetry_space_group_name_H-M   'P 1'
_cell_length_a   5.95130932
_cell_length_b   5.95130932
_cell_length_c   14.86833545
_cell_angle_alpha   90.00000000
_cell_angle_beta   90.00000000
_cell_angle_gamma   120.00000000
_symmetry_Int_Tables_number   1
_chemical_formula_structural   Ba3CaRu2O9
_chemical_formula_sum   'Ba6 Ca2 Ru4 O18'
_cell_volume   456.05584747
_cell_formula_units_Z   2
loop_
 _symmetry_equiv_pos_site_id
 _symmetry_equiv_pos_as_xyz
  1  'x, y, z'
loop_
 _atom_site_type_symbol
 _atom_site_label
 _atom_site_symmetry_multiplicity
 _atom_site_fract_x
 _atom_site_fract_y
 _atom_site_fract_z
 _atom_site_occupancy
  Ba  Ba0  1  0.33333333  0.66666667  0.40067066  1.0
  Ba  Ba1  1  0.33333333  0.66666667  0.09932934  1.0
  Ba  Ba2  1  0.66666667  0.33333333  0.90067066  1.0
  Ba  Ba3  1  0.66666667  0.33333333  0.59932934  1.0
  Ba  Ba4  1  0.00000000  0.00000000  0.25000000  1.0
  Ba  Ba5  1  0.00000000  0.00000000  0.75000000  1.0
  Ca  Ca6  1  0.00000000  0.00000000  0.50000000  1.0
  Ca  Ca7  1  0.00000000  0.00000000  0.00000000  1.0
  Ru  Ru8  1  0.33333333  0.66666667  0.84262542  1.0
  Ru  Ru9  1  0.33333333  0.66666667  0.65737458  1.0
  Ru  Ru10  1  0.66666667  0.33333333  0.34262542  1.0
  Ru  Ru11  1  0.66666667  0.33333333  0.15737458  1.0
  O  O12  1  0.17641318  0.82358682  0.90925761  1.0
  O  O13  1  0.17641318  0.82358682  0.59074239  1.0
  O  O14  1  0.17641318  0.35282637  0.90925761  1.0
  O  O15  1  0.17641318  0.35282637  0.59074239  1.0
  O  O16  1  0.82358682  0.17641318  0.40925761  1.0
  O  O17  1  0.82358682  0.17641318  0.09074239  1.0
  O  O18  1  0.82358682  0.64717363  0.40925761  1.0
  O  O19  1  0.82358682  0.64717363  0.09074239  1.0
  O  O20  1  0.64717363  0.82358682  0.90925761  1.0
  O  O21  1  0.64717363  0.82358682  0.59074239  1.0
  O  O22  1  0.35282637  0.17641318  0.40925761  1.0
  O  O23  1  0.35282637  0.17641318  0.09074239  1.0
  O  O24  1  0.51633927  0.48366073  0.25000000  1.0
  O  O25  1  0.51633927  0.03267855  0.25000000  1.0
  O  O26  1  0.48366073  0.51633927  0.75000000  1.0
  O  O27  1  0.48366073  0.96732145  0.75000000  1.0
  O  O28  1  0.96732145  0.48366073  0.25000000  1.0
  O  O29  1  0.03267855  0.51633927  0.75000000  1.0
