# generated using pymatgen
data_FeBi2
_symmetry_space_group_name_H-M   'P 1'
_cell_length_a   5.57365570
_cell_length_b   5.57365570
_cell_length_c   5.57365570
_cell_angle_alpha   106.59233778
_cell_angle_beta   106.59233778
_cell_angle_gamma   115.39647678
_symmetry_Int_Tables_number   1
_chemical_formula_structural   FeBi2
_chemical_formula_sum   'Fe2 Bi4'
_cell_volume   132.21017745
_cell_formula_units_Z   2
loop_
 _symmetry_equiv_pos_site_id
 _symmetry_equiv_pos_as_xyz
  1  'x, y, z'
loop_
 _atom_site_type_symbol
 _atom_site_label
 _atom_site_symmetry_multiplicity
 _atom_site_fract_x
 _atom_site_fract_y
 _atom_site_fract_z
 _atom_site_occupancy
  Fe  Fe0  1  0.75000000  0.75000000  0.00000000  1.0
  Fe  Fe1  1  0.25000000  0.25000000  -0.00000000  1.0
  Bi  Bi2  1  1.16899041  0.66899041  0.83798081  1.0
  Bi  Bi3  1  0.83100959  0.33100959  1.16201919  1.0
  Bi  Bi4  1  0.66899041  0.83100959  0.50000000  1.0
  Bi  Bi5  1  0.33100959  0.16899041  0.50000000  1.0
