# generated using pymatgen
data_Sc5Re24
_symmetry_space_group_name_H-M   'P 1'
_cell_length_a   8.42925654
_cell_length_b   8.42925654
_cell_length_c   8.42925654
_cell_angle_alpha   109.47122063
_cell_angle_beta   109.47122063
_cell_angle_gamma   109.47122063
_symmetry_Int_Tables_number   1
_chemical_formula_structural   Sc5Re24
_chemical_formula_sum   'Sc5 Re24'
_cell_volume   461.04776816
_cell_formula_units_Z   1
loop_
 _symmetry_equiv_pos_site_id
 _symmetry_equiv_pos_as_xyz
  1  'x, y, z'
loop_
 _atom_site_type_symbol
 _atom_site_label
 _atom_site_symmetry_multiplicity
 _atom_site_fract_x
 _atom_site_fract_y
 _atom_site_fract_z
 _atom_site_occupancy
  Sc  Sc0  1  0.36641236  0.36641236  0.36641236  1.0
  Sc  Sc1  1  1.00000000  1.00000000  0.63358764  1.0
  Sc  Sc2  1  1.00000000  0.63358764  1.00000000  1.0
  Sc  Sc3  1  0.63358764  1.00000000  1.00000000  1.0
  Sc  Sc4  1  -0.00000000  -0.00000000  0.00000000  1.0
  Re  Re5  1  0.81447876  0.62212744  0.62212744  1.0
  Re  Re6  1  0.62212744  0.81447876  0.62212744  1.0
  Re  Re7  1  1.00000000  1.19235132  0.37787256  1.0
  Re  Re8  1  1.19235132  1.00000000  0.37787256  1.0
  Re  Re9  1  0.62212744  0.62212744  0.81447876  1.0
  Re  Re10  1  0.80764868  0.80764868  0.18552124  1.0
  Re  Re11  1  1.00000000  0.37787256  1.19235132  1.0
  Re  Re12  1  0.80764868  0.18552124  0.80764868  1.0
  Re  Re13  1  0.18552124  0.80764868  0.80764868  1.0
  Re  Re14  1  0.37787256  1.00000000  1.19235132  1.0
  Re  Re15  1  1.19235132  0.37787256  1.00000000  1.0
  Re  Re16  1  0.37787256  1.19235132  1.00000000  1.0
  Re  Re17  1  0.27954722  0.60209801  0.60209801  1.0
  Re  Re18  1  0.60209801  0.27954722  0.60209801  1.0
  Re  Re19  1  1.00000000  0.67744922  1.39790199  1.0
  Re  Re20  1  0.67744922  1.00000000  1.39790199  1.0
  Re  Re21  1  0.60209801  0.60209801  0.27954722  1.0
  Re  Re22  1  1.32255078  1.32255078  0.72045278  1.0
  Re  Re23  1  1.00000000  1.39790199  0.67744922  1.0
  Re  Re24  1  1.32255078  0.72045278  1.32255078  1.0
  Re  Re25  1  0.72045278  1.32255078  1.32255078  1.0
  Re  Re26  1  1.39790199  1.00000000  0.67744922  1.0
  Re  Re27  1  0.67744922  1.39790199  1.00000000  1.0
  Re  Re28  1  1.39790199  0.67744922  1.00000000  1.0
