# generated using pymatgen
data_Ti3(BiO3)4
_symmetry_space_group_name_H-M   'P 1'
_cell_length_a   16.86220160
_cell_length_b   16.86220160
_cell_length_c   16.86220160
_cell_angle_alpha   166.93461591
_cell_angle_beta   166.93461591
_cell_angle_gamma   18.51772527
_symmetry_Int_Tables_number   1
_chemical_formula_structural   Ti3(BiO3)4
_chemical_formula_sum   'Ti3 Bi4 O12'
_cell_volume   244.99870963
_cell_formula_units_Z   1
loop_
 _symmetry_equiv_pos_site_id
 _symmetry_equiv_pos_as_xyz
  1  'x, y, z'
loop_
 _atom_site_type_symbol
 _atom_site_label
 _atom_site_symmetry_multiplicity
 _atom_site_fract_x
 _atom_site_fract_y
 _atom_site_fract_z
 _atom_site_occupancy
  Ti  Ti0  1  0.87254219  0.87254219  1.00000000  1.0
  Ti  Ti1  1  0.12745781  0.12745781  0.00000000  1.0
  Ti  Ti2  1  0.00000000  0.00000000  0.00000000  1.0
  Bi  Bi3  1  0.71131516  0.71131516  1.00000000  1.0
  Bi  Bi4  1  0.28868484  0.28868484  0.00000000  1.0
  Bi  Bi5  1  0.56636373  0.56636373  1.00000000  1.0
  Bi  Bi6  1  0.43363627  0.43363627  0.00000000  1.0
  O  O7  1  0.38478591  0.88478591  0.50000000  1.0
  O  O8  1  0.61521409  0.11521409  0.50000000  1.0
  O  O9  1  0.88478591  0.38478591  0.50000000  1.0
  O  O10  1  0.11521409  0.61521409  0.50000000  1.0
  O  O11  1  0.94066434  0.94066434  1.00000000  1.0
  O  O12  1  0.05933566  0.05933566  0.00000000  1.0
  O  O13  1  0.81880173  0.81880173  1.00000000  1.0
  O  O14  1  0.18119827  0.18119827  0.00000000  1.0
  O  O15  1  0.25000000  0.75000000  0.50000000  1.0
  O  O16  1  0.75000000  0.25000000  0.50000000  1.0
  O  O17  1  0.50000000  0.00000000  0.50000000  1.0
  O  O18  1  0.00000000  0.50000000  0.50000000  1.0
