# generated using pymatgen
data_Cr(RhSe2)2
_symmetry_space_group_name_H-M   'P 1'
_cell_length_a   6.49651285
_cell_length_b   6.49651285
_cell_length_c   6.53251688
_cell_angle_alpha   60.73980577
_cell_angle_beta   119.26019423
_cell_angle_gamma   147.60673866
_symmetry_Int_Tables_number   1
_chemical_formula_structural   Cr(RhSe2)2
_chemical_formula_sum   'Cr1 Rh2 Se4'
_cell_volume   127.13849858
_cell_formula_units_Z   1
loop_
 _symmetry_equiv_pos_site_id
 _symmetry_equiv_pos_as_xyz
  1  'x, y, z'
loop_
 _atom_site_type_symbol
 _atom_site_label
 _atom_site_symmetry_multiplicity
 _atom_site_fract_x
 _atom_site_fract_y
 _atom_site_fract_z
 _atom_site_occupancy
  Cr  Cr0  1  0.00000000  0.00000000  0.00000000  1.0
  Rh  Rh1  1  0.73768387  -0.73768387  0.72040289  1.0
  Rh  Rh2  1  1.26231613  -0.26231613  0.27959711  1.0
  Se  Se3  1  0.62871900  -0.62871900  0.96709351  1.0
  Se  Se4  1  1.37128100  -0.37128100  0.03290649  1.0
  Se  Se5  1  0.88067520  -0.88067520  0.56140270  1.0
  Se  Se6  1  1.11932480  -0.11932480  0.43859730  1.0
