# generated using pymatgen
data_Al4Si19
_symmetry_space_group_name_H-M   'P 1'
_cell_length_a   10.02781101
_cell_length_b   10.38359513
_cell_length_c   10.51511926
_cell_angle_alpha   91.04392001
_cell_angle_beta   93.81285698
_cell_angle_gamma   95.87557969
_symmetry_Int_Tables_number   1
_chemical_formula_structural   Al4Si19
_chemical_formula_sum   'Al8 Si38'
_cell_volume   1086.37580564
_cell_formula_units_Z   2
loop_
 _symmetry_equiv_pos_site_id
 _symmetry_equiv_pos_as_xyz
  1  'x, y, z'
loop_
 _atom_site_type_symbol
 _atom_site_label
 _atom_site_symmetry_multiplicity
 _atom_site_fract_x
 _atom_site_fract_y
 _atom_site_fract_z
 _atom_site_occupancy
  Al  Al0  1  -0.49121317  -0.73861022  -0.00073522  1.0
  Al  Al1  1  -0.77306328  -0.02199164  -0.50236894  1.0
  Al  Al2  1  0.01705616  -0.50600203  -0.24313073  1.0
  Al  Al3  1  -0.29378447  -0.08932877  0.01681116  1.0
  Al  Al4  1  -0.12117748  0.05612693  -0.69292721  1.0
  Al  Al5  1  0.06659913  -0.69658208  -0.85646293  1.0
  Al  Al6  1  -0.82580257  -0.52966225  -0.63778204  1.0
  Al  Al7  1  -0.39145013  -0.17802318  -0.50153567  1.0
  Si  Si8  1  -0.49746804  -0.25497259  0.00438344  1.0
  Si  Si9  1  -0.25036616  0.03100731  -0.49769151  1.0
  Si  Si10  1  -0.05188406  -0.51693952  -0.76506863  1.0
  Si  Si11  1  -0.19227874  -0.15742285  -0.17900644  1.0
  Si  Si12  1  -0.18347479  -0.74488764  -0.80912690  1.0
  Si  Si13  1  -0.81331862  -0.21970815  -0.83244815  1.0
  Si  Si14  1  -0.79884517  -0.82906802  -0.18205020  1.0
  Si  Si15  1  -0.33336710  -0.66457598  -0.66750316  1.0
  Si  Si16  1  -0.32821308  -0.30516938  -0.31334963  1.0
  Si  Si17  1  -0.68278573  -0.33185270  -0.68855533  1.0
  Si  Si18  1  -0.67712927  -0.69319162  -0.32454268  1.0
  Si  Si19  1  -0.80369510  -0.88391350  -0.82691126  1.0
  Si  Si20  1  -0.83119766  -0.20372642  -0.19866096  1.0
  Si  Si21  1  -0.15865263  -0.78952516  -0.17544187  1.0
  Si  Si22  1  -0.14878968  -0.17587036  -0.80829513  1.0
  Si  Si23  1  -0.70186131  -0.33663196  -0.32266866  1.0
  Si  Si24  1  -0.69231906  -0.71138601  -0.69385054  1.0
  Si  Si25  1  -0.30252726  -0.66343135  -0.30529659  1.0
  Si  Si26  1  -0.29892554  -0.29392388  -0.67751994  1.0
  Si  Si27  1  -0.28356075  -0.84998755  0.00231060  1.0
  Si  Si28  1  -0.69490356  -0.14456227  -0.00980306  1.0
  Si  Si29  1  -0.68123258  -0.91558973  -0.00384270  1.0
  Si  Si30  1  -0.11968449  0.02352012  -0.30147181  1.0
  Si  Si31  1  -0.89173234  -0.01389066  -0.30609896  1.0
  Si  Si32  1  -0.90668752  -0.05687601  -0.71352569  1.0
  Si  Si33  1  -0.03451262  -0.30470795  -0.12421605  1.0
  Si  Si34  1  -0.02340967  -0.33257726  -0.89982964  1.0
  Si  Si35  1  0.05486093  -0.68603976  -0.09617424  1.0
  Si  Si36  1  -0.19857197  -0.47325995  -0.60238884  1.0
  Si  Si37  1  -0.19320690  -0.46721478  -0.37559665  1.0
  Si  Si38  1  -0.81694665  -0.53746658  -0.40136170  1.0
  Si  Si39  1  -0.38264310  -0.79455549  -0.49019694  1.0
  Si  Si40  1  -0.62324803  -0.81593081  -0.50226697  1.0
  Si  Si41  1  -0.63861302  -0.20672699  -0.49946044  1.0
  Si  Si42  1  -0.51349659  -0.61007124  -0.80499530  1.0
  Si  Si43  1  -0.49626226  -0.37841321  -0.80475083  1.0
  Si  Si44  1  -0.48841396  -0.60590308  -0.19384713  1.0
  Si  Si45  1  -0.50780013  -0.38048380  -0.19074792  1.0
