# generated using pymatgen
data_RbGaH2
_symmetry_space_group_name_H-M   'P 1'
_cell_length_a   7.56394124
_cell_length_b   4.53277674
_cell_length_c   9.63177506
_cell_angle_alpha   90.00000000
_cell_angle_beta   90.00000000
_cell_angle_gamma   90.00000000
_symmetry_Int_Tables_number   1
_chemical_formula_structural   RbGaH2
_chemical_formula_sum   'Rb4 Ga4 H8'
_cell_volume   330.23173518
_cell_formula_units_Z   4
loop_
 _symmetry_equiv_pos_site_id
 _symmetry_equiv_pos_as_xyz
  1  'x, y, z'
loop_
 _atom_site_type_symbol
 _atom_site_label
 _atom_site_symmetry_multiplicity
 _atom_site_fract_x
 _atom_site_fract_y
 _atom_site_fract_z
 _atom_site_occupancy
  Rb  Rb0  1  0.87587509  0.75000000  0.17503428  1.0
  Rb  Rb1  1  0.37587509  0.75000000  0.32496572  1.0
  Rb  Rb2  1  0.12412491  0.25000000  0.82496572  1.0
  Rb  Rb3  1  0.62412491  0.25000000  0.67503428  1.0
  Ga  Ga4  1  0.93732800  0.75000000  0.53377031  1.0
  Ga  Ga5  1  0.43732800  0.75000000  0.96622969  1.0
  Ga  Ga6  1  0.06267200  0.25000000  0.46622969  1.0
  Ga  Ga7  1  0.56267200  0.25000000  0.03377031  1.0
  H  H8  1  0.90127168  0.75000000  0.70447718  1.0
  H  H9  1  0.40127168  0.75000000  0.79552282  1.0
  H  H10  1  0.09872832  0.25000000  0.29552282  1.0
  H  H11  1  0.59872832  0.25000000  0.20447718  1.0
  H  H12  1  0.72395941  0.75000000  0.48361739  1.0
  H  H13  1  0.22395941  0.75000000  0.01638261  1.0
  H  H14  1  0.27604059  0.25000000  0.51638261  1.0
  H  H15  1  0.77604059  0.25000000  0.98361739  1.0
