# generated using pymatgen
data_Te6RhCl3
_symmetry_space_group_name_H-M   'P 1'
_cell_length_a   9.31133429
_cell_length_b   9.31133429
_cell_length_c   9.31133429
_cell_angle_alpha   108.10234744
_cell_angle_beta   108.10234744
_cell_angle_gamma   108.10234744
_symmetry_Int_Tables_number   1
_chemical_formula_structural   Te6RhCl3
_chemical_formula_sum   'Te12 Rh2 Cl6'
_cell_volume   651.05371181
_cell_formula_units_Z   2
loop_
 _symmetry_equiv_pos_site_id
 _symmetry_equiv_pos_as_xyz
  1  'x, y, z'
loop_
 _atom_site_type_symbol
 _atom_site_label
 _atom_site_symmetry_multiplicity
 _atom_site_fract_x
 _atom_site_fract_y
 _atom_site_fract_z
 _atom_site_occupancy
  Te  Te0  1  1.31387467  -0.42483890  0.32727615  1.0
  Te  Te1  1  0.81387467  0.82727615  0.07516110  1.0
  Te  Te2  1  1.17272385  -0.07516110  0.18612533  1.0
  Te  Te3  1  0.67272385  0.68612533  0.42483890  1.0
  Te  Te4  1  1.42483890  0.67272385  -0.31387467  1.0
  Te  Te5  1  0.92483890  0.18612533  0.17272385  1.0
  Te  Te6  1  0.68612533  1.42483890  -0.32727615  1.0
  Te  Te7  1  1.18612533  0.17272385  -0.07516110  1.0
  Te  Te8  1  1.32727615  0.31387467  -0.42483890  1.0
  Te  Te9  1  0.82727615  1.07516110  -0.18612533  1.0
  Te  Te10  1  1.07516110  0.81387467  -0.17272385  1.0
  Te  Te11  1  0.57516110  0.32727615  0.31387467  1.0
  Rh  Rh12  1  0.25000000  0.25000000  0.25000000  1.0
  Rh  Rh13  1  0.75000000  0.75000000  0.75000000  1.0
  Cl  Cl14  1  0.99265461  0.25000000  0.50734539  1.0
  Cl  Cl15  1  0.49265461  1.00734539  -0.25000000  1.0
  Cl  Cl16  1  0.75000000  0.49265461  0.00734539  1.0
  Cl  Cl17  1  1.25000000  0.50734539  -0.00734539  1.0
  Cl  Cl18  1  1.00734539  0.75000000  -0.50734539  1.0
  Cl  Cl19  1  1.50734539  -0.00734539  0.25000000  1.0
