# generated using pymatgen
data_TaH6C2SeCl5
_symmetry_space_group_name_H-M   'P 1'
_cell_length_a   7.64387045
_cell_length_b   7.64387045
_cell_length_c   12.00550978
_cell_angle_alpha   90.00000000
_cell_angle_beta   90.00000000
_cell_angle_gamma   109.36760580
_symmetry_Int_Tables_number   1
_chemical_formula_structural   TaH6C2SeCl5
_chemical_formula_sum   'Ta2 H12 C4 Se2 Cl10'
_cell_volume   661.77119195
_cell_formula_units_Z   2
loop_
 _symmetry_equiv_pos_site_id
 _symmetry_equiv_pos_as_xyz
  1  'x, y, z'
loop_
 _atom_site_type_symbol
 _atom_site_label
 _atom_site_symmetry_multiplicity
 _atom_site_fract_x
 _atom_site_fract_y
 _atom_site_fract_z
 _atom_site_occupancy
  Ta  Ta0  1  -0.20532486  1.20532486  0.68886515  1.0
  Ta  Ta1  1  0.20532486  0.79467514  0.18886515  1.0
  H  H2  1  -0.52605156  1.21260517  0.45068989  1.0
  H  H3  1  -0.21260517  1.52605156  0.45068989  1.0
  H  H4  1  0.52605156  0.78739483  0.95068989  1.0
  H  H5  1  0.21260517  0.47394844  0.95068989  1.0
  H  H6  1  -0.70152499  1.15919210  0.55744727  1.0
  H  H7  1  -0.15919210  1.70152499  0.55744727  1.0
  H  H8  1  0.70152499  0.84080790  0.05744727  1.0
  H  H9  1  0.15919210  0.29847501  0.05744727  1.0
  H  H10  1  0.33145439  0.35831912  0.46988965  1.0
  H  H11  1  0.64168088  0.66854561  0.46988965  1.0
  H  H12  1  -0.33145439  1.64168088  0.96988965  1.0
  H  H13  1  -0.64168088  1.33145439  0.96988965  1.0
  C  C14  1  -0.60060534  1.26984711  0.51052901  1.0
  C  C15  1  -0.26984711  1.60060534  0.51052901  1.0
  C  C16  1  0.60060534  0.73015289  0.01052901  1.0
  C  C17  1  0.26984711  0.39939466  0.01052901  1.0
  Se  Se18  1  -0.42454364  1.42454364  0.61878975  1.0
  Se  Se19  1  0.42454364  0.57545636  0.11878975  1.0
  Cl  Cl20  1  -0.02877692  1.02877692  0.74587124  1.0
  Cl  Cl21  1  0.02877692  0.97122308  0.24587124  1.0
  Cl  Cl22  1  0.50956109  0.96435853  0.68426468  1.0
  Cl  Cl23  1  0.03564147  0.49043891  0.68426468  1.0
  Cl  Cl24  1  -0.50956109  1.03564147  0.18426468  1.0
  Cl  Cl25  1  -0.03564147  1.50956109  0.18426468  1.0
  Cl  Cl26  1  -0.16749134  1.16749134  0.49781313  1.0
  Cl  Cl27  1  0.16749134  0.83250866  0.99781313  1.0
  Cl  Cl28  1  -0.28347509  1.28347509  0.86703676  1.0
  Cl  Cl29  1  0.28347509  0.71652491  0.36703676  1.0
