# generated using pymatgen
data_TeO2
_symmetry_space_group_name_H-M   'P 1'
_cell_length_a   4.99338898
_cell_length_b   4.99338898
_cell_length_c   7.50625436
_cell_angle_alpha   90.00000000
_cell_angle_beta   90.00000000
_cell_angle_gamma   90.00000000
_symmetry_Int_Tables_number   1
_chemical_formula_structural   TeO2
_chemical_formula_sum   'Te4 O8'
_cell_volume   187.16044741
_cell_formula_units_Z   4
loop_
 _symmetry_equiv_pos_site_id
 _symmetry_equiv_pos_as_xyz
  1  'x, y, z'
loop_
 _atom_site_type_symbol
 _atom_site_label
 _atom_site_symmetry_multiplicity
 _atom_site_fract_x
 _atom_site_fract_y
 _atom_site_fract_z
 _atom_site_occupancy
  Te  Te0  1  0.47838138  0.52161862  0.25000000  1.0
  Te  Te1  1  0.97838138  0.97838138  0.50000000  1.0
  Te  Te2  1  0.52161862  0.47838138  0.75000000  1.0
  Te  Te3  1  0.02161862  0.02161862  0.00000000  1.0
  O  O4  1  0.35267881  0.74343498  0.04787602  1.0
  O  O5  1  0.85267881  0.75656502  0.70212398  1.0
  O  O6  1  0.25656502  0.64732119  0.45212398  1.0
  O  O7  1  0.75656502  0.85267881  0.29787602  1.0
  O  O8  1  0.64732119  0.25656502  0.54787602  1.0
  O  O9  1  0.14732119  0.24343498  0.20212398  1.0
  O  O10  1  0.74343498  0.35267881  0.95212398  1.0
  O  O11  1  0.24343498  0.14732119  0.79787602  1.0
