# generated using pymatgen
data_Cd(GaSe2)2
_symmetry_space_group_name_H-M   'P 1'
_cell_length_a   6.87897864
_cell_length_b   6.87897864
_cell_length_c   6.87897864
_cell_angle_alpha   129.65181278
_cell_angle_beta   129.65181278
_cell_angle_gamma   73.96401585
_symmetry_Int_Tables_number   1
_chemical_formula_structural   Cd(GaSe2)2
_chemical_formula_sum   'Cd1 Ga2 Se4'
_cell_volume   188.19895248
_cell_formula_units_Z   1
loop_
 _symmetry_equiv_pos_site_id
 _symmetry_equiv_pos_as_xyz
  1  'x, y, z'
loop_
 _atom_site_type_symbol
 _atom_site_label
 _atom_site_symmetry_multiplicity
 _atom_site_fract_x
 _atom_site_fract_y
 _atom_site_fract_z
 _atom_site_occupancy
  Cd  Cd0  1  0.50000000  0.50000000  1.00000000  1.0
  Ga  Ga1  1  0.25000000  0.75000000  0.50000000  1.0
  Ga  Ga2  1  0.00000000  0.00000000  0.00000000  1.0
  Se  Se3  1  0.37743996  0.91141631  1.01271590  1.0
  Se  Se4  1  1.08858369  1.10129959  1.46602364  1.0
  Se  Se5  1  0.89870041  0.36472406  0.98728410  1.0
  Se  Se6  1  0.63527594  0.62256004  0.53397636  1.0
