# generated using pymatgen
data_Bi
_symmetry_space_group_name_H-M   'P 1'
_cell_length_a   4.61430064
_cell_length_b   4.67022675
_cell_length_c   6.43789805
_cell_angle_alpha   90.00000000
_cell_angle_beta   90.22381372
_cell_angle_gamma   90.00000000
_symmetry_Int_Tables_number   1
_chemical_formula_structural   Bi
_chemical_formula_sum   Bi4
_cell_volume   138.73455194
_cell_formula_units_Z   4
loop_
 _symmetry_equiv_pos_site_id
 _symmetry_equiv_pos_as_xyz
  1  'x, y, z'
loop_
 _atom_site_type_symbol
 _atom_site_label
 _atom_site_symmetry_multiplicity
 _atom_site_fract_x
 _atom_site_fract_y
 _atom_site_fract_z
 _atom_site_occupancy
  Bi  Bi0  1  0.18737659  0.25000000  0.24953011  1.0
  Bi  Bi1  1  0.81262341  0.75000000  0.75046989  1.0
  Bi  Bi2  1  0.31264133  0.25000000  0.74926433  1.0
  Bi  Bi3  1  0.68735867  0.75000000  0.25073567  1.0
