# generated using pymatgen
data_V2FeS4
_symmetry_space_group_name_H-M   'P 1'
_cell_length_a   6.26549333
_cell_length_b   6.26549333
_cell_length_c   5.80910249
_cell_angle_alpha   65.15353063
_cell_angle_beta   114.84646937
_cell_angle_gamma   150.46003164
_symmetry_Int_Tables_number   1
_chemical_formula_structural   V2FeS4
_chemical_formula_sum   'V2 Fe1 S4'
_cell_volume   101.26260960
_cell_formula_units_Z   1
loop_
 _symmetry_equiv_pos_site_id
 _symmetry_equiv_pos_as_xyz
  1  'x, y, z'
loop_
 _atom_site_type_symbol
 _atom_site_label
 _atom_site_symmetry_multiplicity
 _atom_site_fract_x
 _atom_site_fract_y
 _atom_site_fract_z
 _atom_site_occupancy
  V  V0  1  0.73979846  -0.73979846  0.68582289  1.0
  V  V1  1  1.26020154  -0.26020154  0.31417711  1.0
  Fe  Fe2  1  0.00000000  0.00000000  0.00000000  1.0
  S  S3  1  0.89573844  -0.89573844  0.56299791  1.0
  S  S4  1  1.10426156  -0.10426156  0.43700209  1.0
  S  S5  1  0.63656813  -0.63656813  0.97716624  1.0
  S  S6  1  1.36343187  -0.36343187  0.02283376  1.0
