# generated using pymatgen
data_Co(NiSe2)2
_symmetry_space_group_name_H-M   'P 1'
_cell_length_a   6.18442530
_cell_length_b   6.18442530
_cell_length_c   6.16252781
_cell_angle_alpha   62.26268414
_cell_angle_beta   117.73731586
_cell_angle_gamma   145.94255575
_symmetry_Int_Tables_number   1
_chemical_formula_structural   Co(NiSe2)2
_chemical_formula_sum   'Co1 Ni2 Se4'
_cell_volume   115.30417299
_cell_formula_units_Z   1
loop_
 _symmetry_equiv_pos_site_id
 _symmetry_equiv_pos_as_xyz
  1  'x, y, z'
loop_
 _atom_site_type_symbol
 _atom_site_label
 _atom_site_symmetry_multiplicity
 _atom_site_fract_x
 _atom_site_fract_y
 _atom_site_fract_z
 _atom_site_occupancy
  Co  Co0  1  0.00000000  0.00000000  0.00000000  1.0
  Ni  Ni1  1  0.73591070  -0.73591070  0.70945460  1.0
  Ni  Ni2  1  1.26408930  -0.26408930  0.29054540  1.0
  Se  Se3  1  0.88583233  -0.88583233  0.55039264  1.0
  Se  Se4  1  1.11416767  -0.11416767  0.44960736  1.0
  Se  Se5  1  0.63215081  -0.63215081  0.97763799  1.0
  Se  Se6  1  1.36784919  -0.36784919  0.02236201  1.0
