# generated using pymatgen
data_BaCr2AsO10
_symmetry_space_group_name_H-M   'P 1'
_cell_length_a   8.11719204
_cell_length_b   8.19586975
_cell_length_c   7.97982453
_cell_angle_alpha   115.86233796
_cell_angle_beta   100.45496013
_cell_angle_gamma   92.57009517
_symmetry_Int_Tables_number   1
_chemical_formula_structural   BaCr2AsO10
_chemical_formula_sum   'Ba2 Cr4 As2 O20'
_cell_volume   465.14132486
_cell_formula_units_Z   2
loop_
 _symmetry_equiv_pos_site_id
 _symmetry_equiv_pos_as_xyz
  1  'x, y, z'
loop_
 _atom_site_type_symbol
 _atom_site_label
 _atom_site_symmetry_multiplicity
 _atom_site_fract_x
 _atom_site_fract_y
 _atom_site_fract_z
 _atom_site_occupancy
  Ba  Ba0  1  -0.75558601  -0.28920215  0.63806790  1.0
  Ba  Ba1  1  -0.24441399  -0.71079785  0.36193210  1.0
  As  As2  1  -0.83932743  -0.73810904  0.71600360  1.0
  As  As3  1  -0.16067257  -0.26189096  0.28399640  1.0
  Cr  Cr4  1  -0.81115927  -0.73938464  0.11813299  1.0
  Cr  Cr5  1  -0.18884073  -0.26061536  0.88186701  1.0
  Cr  Cr6  1  -0.44566916  -0.80394777  0.78139966  1.0
  Cr  Cr7  1  -0.55433084  -0.19605223  0.21860034  1.0
  O  O8  1  -0.99248475  -0.77871149  0.16071917  1.0
  O  O9  1  -0.00751525  -0.22128851  0.83928083  1.0
  O  O10  1  -0.93705493  -0.61831174  0.61082616  1.0
  O  O11  1  -0.06294507  -0.38168826  0.38917384  1.0
  O  O12  1  -0.83682361  -0.62982806  0.96443946  1.0
  O  O13  1  -0.16317639  -0.37017194  0.03556054  1.0
  O  O14  1  -0.67953846  -0.60385008  0.31701206  1.0
  O  O15  1  -0.32046154  -0.39614992  0.68298794  1.0
  O  O16  1  -0.62210371  -0.70583342  0.71024525  1.0
  O  O17  1  -0.37789629  -0.29416658  0.28975475  1.0
  O  O18  1  -0.90908652  -0.96949420  0.63321379  1.0
  O  O19  1  -0.09091348  -0.03050580  0.36678621  1.0
  O  O20  1  -0.73926671  -0.92998088  1.00976041  1.0
  O  O21  1  -0.26073329  -0.07001912  -0.00976041  1.0
  O  O22  1  -0.61478153  -0.28973242  0.98761912  1.0
  O  O23  1  -0.38521847  -0.71026758  0.01238088  1.0
  O  O24  1  -0.29610483  -0.76917611  0.68684347  1.0
  O  O25  1  -0.70389517  -0.23082389  0.31315653  1.0
  O  O26  1  -0.49518918  -0.97926921  0.29810235  1.0
  O  O27  1  -0.50481082  -0.02073079  0.70189765  1.0
