# generated using pymatgen
data_Ca2Ge
_symmetry_space_group_name_H-M   'P 1'
_cell_length_a   5.12650403
_cell_length_b   5.12650403
_cell_length_c   7.05399906
_cell_angle_alpha   90.00000000
_cell_angle_beta   90.00000000
_cell_angle_gamma   120.00000000
_symmetry_Int_Tables_number   1
_chemical_formula_structural   Ca2Ge
_chemical_formula_sum   'Ca4 Ge2'
_cell_volume   160.54938132
_cell_formula_units_Z   2
loop_
 _symmetry_equiv_pos_site_id
 _symmetry_equiv_pos_as_xyz
  1  'x, y, z'
loop_
 _atom_site_type_symbol
 _atom_site_label
 _atom_site_symmetry_multiplicity
 _atom_site_fract_x
 _atom_site_fract_y
 _atom_site_fract_z
 _atom_site_occupancy
  Ca  Ca0  1  0.66666667  0.33333333  0.28345322  1.0
  Ca  Ca1  1  0.33333333  0.66666667  0.78345322  1.0
  Ca  Ca2  1  0.00000000  0.00000000  0.53342582  1.0
  Ca  Ca3  1  0.00000000  0.00000000  0.03342582  1.0
  Ge  Ge4  1  0.66666667  0.33333333  0.78312096  1.0
  Ge  Ge5  1  0.33333333  0.66666667  0.28312096  1.0
