# generated using pymatgen
data_CsSr2I5
_symmetry_space_group_name_H-M   'P 1'
_cell_length_a   10.38121060
_cell_length_b   9.27784717
_cell_length_c   14.56730269
_cell_angle_alpha   90.00000000
_cell_angle_beta   90.36286140
_cell_angle_gamma   90.00000000
_symmetry_Int_Tables_number   1
_chemical_formula_structural   CsSr2I5
_chemical_formula_sum   'Cs4 Sr8 I20'
_cell_volume   1403.02577879
_cell_formula_units_Z   4
loop_
 _symmetry_equiv_pos_site_id
 _symmetry_equiv_pos_as_xyz
  1  'x, y, z'
loop_
 _atom_site_type_symbol
 _atom_site_label
 _atom_site_symmetry_multiplicity
 _atom_site_fract_x
 _atom_site_fract_y
 _atom_site_fract_z
 _atom_site_occupancy
  Cs  Cs0  1  0.49188956  0.44234884  0.16725642  1.0
  Cs  Cs1  1  0.49188956  0.05765116  0.66725642  1.0
  Cs  Cs2  1  0.50811044  0.94234884  0.33274358  1.0
  Cs  Cs3  1  0.50811044  0.55765116  0.83274358  1.0
  Sr  Sr4  1  0.99673782  0.47457258  0.18034144  1.0
  Sr  Sr5  1  0.99673782  0.02542742  0.68034144  1.0
  Sr  Sr6  1  0.00326218  0.97457258  0.31965856  1.0
  Sr  Sr7  1  0.00326218  0.52542742  0.81965856  1.0
  Sr  Sr8  1  0.75531174  0.43062559  0.49406307  1.0
  Sr  Sr9  1  0.75531174  0.06937441  0.99406307  1.0
  Sr  Sr10  1  0.24468826  0.93062559  0.00593693  1.0
  Sr  Sr11  1  0.24468826  0.56937441  0.50593693  1.0
  I  I12  1  0.95907484  0.83936192  0.09972570  1.0
  I  I13  1  0.95907484  0.66063808  0.59972570  1.0
  I  I14  1  0.04092516  0.33936192  0.40027430  1.0
  I  I15  1  0.04092516  0.16063808  0.90027430  1.0
  I  I16  1  0.79433323  0.04790770  0.49678788  1.0
  I  I17  1  0.79433323  0.45209230  0.99678788  1.0
  I  I18  1  0.20566677  0.54790770  0.00321212  1.0
  I  I19  1  0.20566677  0.95209230  0.50321212  1.0
  I  I20  1  0.78826716  0.66005847  0.31627140  1.0
  I  I21  1  0.78826716  0.83994153  0.81627140  1.0
  I  I22  1  0.21173284  0.16005847  0.18372860  1.0
  I  I23  1  0.21173284  0.33994153  0.68372860  1.0
  I  I24  1  0.77908372  0.18699111  0.21477706  1.0
  I  I25  1  0.77908372  0.31300889  0.71477706  1.0
  I  I26  1  0.22091628  0.68699111  0.28522294  1.0
  I  I27  1  0.22091628  0.81300889  0.78522294  1.0
  I  I28  1  0.46580338  0.32361359  0.42555682  1.0
  I  I29  1  0.46580338  0.17638641  0.92555682  1.0
  I  I30  1  0.53419662  0.82361359  0.07444318  1.0
  I  I31  1  0.53419662  0.67638641  0.57444318  1.0
