# generated using pymatgen
data_Rb3B12Cl
_symmetry_space_group_name_H-M   'P 1'
_cell_length_a   6.73468596
_cell_length_b   6.73468596
_cell_length_c   6.73468596
_cell_angle_alpha   90.07700970
_cell_angle_beta   90.07700970
_cell_angle_gamma   90.07700970
_symmetry_Int_Tables_number   1
_chemical_formula_structural   Rb3B12Cl
_chemical_formula_sum   'Rb3 B12 Cl1'
_cell_volume   305.45755377
_cell_formula_units_Z   1
loop_
 _symmetry_equiv_pos_site_id
 _symmetry_equiv_pos_as_xyz
  1  'x, y, z'
loop_
 _atom_site_type_symbol
 _atom_site_label
 _atom_site_symmetry_multiplicity
 _atom_site_fract_x
 _atom_site_fract_y
 _atom_site_fract_z
 _atom_site_occupancy
  Rb  Rb0  1  1.00000000  -0.50000000  -0.00000000  1.0
  Rb  Rb1  1  1.00000000  0.00000000  -0.50000000  1.0
  Rb  Rb2  1  0.50000000  0.00000000  -0.00000000  1.0
  B  B3  1  1.55088486  0.55088486  -0.26731810  1.0
  B  B4  1  1.55088486  -0.26731810  0.55088486  1.0
  B  B5  1  1.26731810  0.44911514  -0.55088486  1.0
  B  B6  1  0.44911514  1.26731810  -0.55088486  1.0
  B  B7  1  0.44911514  0.44911514  0.26731810  1.0
  B  B8  1  0.73268190  0.55088486  0.55088486  1.0
  B  B9  1  1.37506319  0.37506319  -0.32956269  1.0
  B  B10  1  1.37506319  -0.32956269  0.37506319  1.0
  B  B11  1  1.32956269  0.62493681  -0.37506319  1.0
  B  B12  1  0.62493681  1.32956269  -0.37506319  1.0
  B  B13  1  0.62493681  0.62493681  0.32956269  1.0
  B  B14  1  0.67043731  0.37506319  0.37506319  1.0
  Cl  Cl15  1  0.00000000  0.00000000  0.00000000  1.0
