# generated using pymatgen
data_MoO2
_symmetry_space_group_name_H-M   'P 1'
_cell_length_a   5.58493770
_cell_length_b   4.89706825
_cell_length_c   5.67341922
_cell_angle_alpha   90.00000000
_cell_angle_beta   120.20820610
_cell_angle_gamma   90.00000000
_symmetry_Int_Tables_number   1
_chemical_formula_structural   MoO2
_chemical_formula_sum   'Mo4 O8'
_cell_volume   134.09574850
_cell_formula_units_Z   4
loop_
 _symmetry_equiv_pos_site_id
 _symmetry_equiv_pos_as_xyz
  1  'x, y, z'
loop_
 _atom_site_type_symbol
 _atom_site_label
 _atom_site_symmetry_multiplicity
 _atom_site_fract_x
 _atom_site_fract_y
 _atom_site_fract_z
 _atom_site_occupancy
  Mo  Mo0  1  0.73067168  0.49287848  0.21506594  1.0
  Mo  Mo1  1  0.73067168  0.00712152  0.71506594  1.0
  Mo  Mo2  1  0.26932832  0.99287848  0.28493406  1.0
  Mo  Mo3  1  0.26932832  0.50712152  0.78493406  1.0
  O  O4  1  0.89155928  0.19863770  0.09223970  1.0
  O  O5  1  0.89155928  0.30136230  0.59223970  1.0
  O  O6  1  0.10844072  0.69863770  0.40776030  1.0
  O  O7  1  0.10844072  0.80136230  0.90776030  1.0
  O  O8  1  0.38927132  0.28117526  0.12138033  1.0
  O  O9  1  0.38927132  0.21882474  0.62138033  1.0
  O  O10  1  0.61072868  0.78117526  0.37861967  1.0
  O  O11  1  0.61072868  0.71882474  0.87861967  1.0
