# generated using pymatgen
data_Ba(Sn2Ru)3
_symmetry_space_group_name_H-M   'P 1'
_cell_length_a   13.85057958
_cell_length_b   13.85057958
_cell_length_c   4.49257713
_cell_angle_alpha   90.00000000
_cell_angle_beta   90.00000000
_cell_angle_gamma   145.60454142
_symmetry_Int_Tables_number   1
_chemical_formula_structural   Ba(Sn2Ru)3
_chemical_formula_sum   'Ba2 Sn12 Ru6'
_cell_volume   486.86016405
_cell_formula_units_Z   2
loop_
 _symmetry_equiv_pos_site_id
 _symmetry_equiv_pos_as_xyz
  1  'x, y, z'
loop_
 _atom_site_type_symbol
 _atom_site_label
 _atom_site_symmetry_multiplicity
 _atom_site_fract_x
 _atom_site_fract_y
 _atom_site_fract_z
 _atom_site_occupancy
  Ba  Ba0  1  -0.41019415  0.41019415  0.75000000  1.0
  Ba  Ba1  1  0.41019415  0.58980585  0.25000000  1.0
  Sn  Sn2  1  0.13212817  0.48390691  0.75000000  1.0
  Sn  Sn3  1  0.48390691  1.13212817  0.25000000  1.0
  Sn  Sn4  1  0.51609309  0.86787183  0.75000000  1.0
  Sn  Sn5  1  -0.13212817  0.51609309  0.25000000  1.0
  Sn  Sn6  1  0.14492773  0.24056256  0.75000000  1.0
  Sn  Sn7  1  0.24056256  1.14492773  0.25000000  1.0
  Sn  Sn8  1  0.75943744  0.85507227  0.75000000  1.0
  Sn  Sn9  1  -0.14492773  0.75943744  0.25000000  1.0
  Sn  Sn10  1  0.13492555  0.86507445  0.75000000  1.0
  Sn  Sn11  1  -0.13492555  0.13492555  0.25000000  1.0
  Sn  Sn12  1  -0.24894178  0.24894178  0.75000000  1.0
  Sn  Sn13  1  0.24894178  0.75105822  0.25000000  1.0
  Ru  Ru14  1  0.02858932  0.59536850  0.75000000  1.0
  Ru  Ru15  1  0.59536850  1.02858932  0.25000000  1.0
  Ru  Ru16  1  0.40463150  0.97141068  0.75000000  1.0
  Ru  Ru17  1  -0.02858932  0.40463150  0.25000000  1.0
  Ru  Ru18  1  0.03702008  0.96297992  0.75000000  1.0
  Ru  Ru19  1  -0.03702008  0.03702008  0.25000000  1.0
