# generated using pymatgen
data_RbSbBrF3
_symmetry_space_group_name_H-M   'P 1'
_cell_length_a   7.83355240
_cell_length_b   4.60826480
_cell_length_c   9.65758524
_cell_angle_alpha   70.03570032
_cell_angle_beta   64.17095151
_cell_angle_gamma   76.43452521
_symmetry_Int_Tables_number   1
_chemical_formula_structural   RbSbBrF3
_chemical_formula_sum   'Rb2 Sb2 Br2 F6'
_cell_volume   293.42277733
_cell_formula_units_Z   2
loop_
 _symmetry_equiv_pos_site_id
 _symmetry_equiv_pos_as_xyz
  1  'x, y, z'
loop_
 _atom_site_type_symbol
 _atom_site_label
 _atom_site_symmetry_multiplicity
 _atom_site_fract_x
 _atom_site_fract_y
 _atom_site_fract_z
 _atom_site_occupancy
  Rb  Rb0  1  -0.19335895  -0.33493621  0.85853769  1.0
  Rb  Rb1  1  -0.80664105  0.33493621  0.14146231  1.0
  Sb  Sb2  1  -0.66312603  0.12725817  0.70667551  1.0
  Sb  Sb3  1  -0.33687397  -0.12725817  0.29332449  1.0
  Br  Br4  1  -0.27828210  0.37136158  0.57807867  1.0
  Br  Br5  1  -0.72171790  -0.37136158  0.42192133  1.0
  F  F6  1  -0.94587584  0.09350894  0.81159616  1.0
  F  F7  1  -0.05412416  -0.09350894  0.18840384  1.0
  F  F8  1  -0.62346318  -0.10099889  0.91275236  1.0
  F  F9  1  -0.37653682  0.10099889  0.08724764  1.0
  F  F10  1  -0.74097785  -0.50594278  0.79426869  1.0
  F  F11  1  -0.25902215  0.50594278  0.20573131  1.0
