# generated using pymatgen
data_ScCl3
_symmetry_space_group_name_H-M   'P 1'
_cell_length_a   7.65156714
_cell_length_b   7.65156714
_cell_length_c   7.65156714
_cell_angle_alpha   50.19750806
_cell_angle_beta   50.19750806
_cell_angle_gamma   50.19750806
_symmetry_Int_Tables_number   1
_chemical_formula_structural   ScCl3
_chemical_formula_sum   'Sc2 Cl6'
_cell_volume   243.43088654
_cell_formula_units_Z   2
loop_
 _symmetry_equiv_pos_site_id
 _symmetry_equiv_pos_as_xyz
  1  'x, y, z'
loop_
 _atom_site_type_symbol
 _atom_site_label
 _atom_site_symmetry_multiplicity
 _atom_site_fract_x
 _atom_site_fract_y
 _atom_site_fract_z
 _atom_site_occupancy
  Sc  Sc0  1  0.16676115  0.16676115  0.16676115  1.0
  Sc  Sc1  1  0.83323885  -0.16676115  -0.16676115  1.0
  Cl  Cl2  1  0.42843313  0.06046603  -0.20321535  1.0
  Cl  Cl3  1  1.20321535  -0.42843313  -0.06046603  1.0
  Cl  Cl4  1  0.93953397  0.20321535  -0.42843313  1.0
  Cl  Cl5  1  0.57156687  -0.06046603  0.20321535  1.0
  Cl  Cl6  1  0.79678465  -0.57156687  0.06046603  1.0
  Cl  Cl7  1  1.06046603  -0.20321535  -0.57156687  1.0
