# generated using pymatgen
data_La21Mn8Sn7C12
_symmetry_space_group_name_H-M   'P 1'
_cell_length_a   11.70430339
_cell_length_b   11.70430339
_cell_length_c   11.70430339
_cell_angle_alpha   60.00000000
_cell_angle_beta   60.00000000
_cell_angle_gamma   60.00000000
_symmetry_Int_Tables_number   1
_chemical_formula_structural   La21Mn8Sn7C12
_chemical_formula_sum   'La21 Mn8 Sn7 C12'
_cell_volume   1133.76152327
_cell_formula_units_Z   1
loop_
 _symmetry_equiv_pos_site_id
 _symmetry_equiv_pos_as_xyz
  1  'x, y, z'
loop_
 _atom_site_type_symbol
 _atom_site_label
 _atom_site_symmetry_multiplicity
 _atom_site_fract_x
 _atom_site_fract_y
 _atom_site_fract_z
 _atom_site_occupancy
  La  La0  1  1.66188882  0.00000000  -0.00000000  1.0
  La  La1  1  1.00000000  0.33811118  -0.33811118  1.0
  La  La2  1  1.00000000  0.66188882  -0.66188882  1.0
  La  La3  1  1.33811118  0.00000000  -0.00000000  1.0
  La  La4  1  0.00000000  1.66188882  -0.00000000  1.0
  La  La5  1  0.33811118  1.00000000  -0.33811118  1.0
  La  La6  1  -0.00000000  -0.00000000  0.66188882  1.0
  La  La7  1  0.33811118  -0.33811118  1.00000000  1.0
  La  La8  1  0.66188882  1.00000000  -0.66188882  1.0
  La  La9  1  0.00000000  1.33811118  -0.00000000  1.0
  La  La10  1  0.66188882  -0.66188882  1.00000000  1.0
  La  La11  1  0.00000000  0.00000000  0.33811118  1.0
  La  La12  1  0.63404208  0.63404208  -0.36595792  1.0
  La  La13  1  0.36595792  1.36595792  -0.09787375  1.0
  La  La14  1  1.36595792  -0.09787375  0.36595792  1.0
  La  La15  1  1.09787375  0.63404208  0.63404208  1.0
  La  La16  1  -0.09787375  1.36595792  0.36595792  1.0
  La  La17  1  0.63404208  1.09787375  -0.36595792  1.0
  La  La18  1  0.63404208  0.63404208  1.09787375  1.0
  La  La19  1  1.36595792  0.36595792  0.36595792  1.0
  La  La20  1  -0.50000000  0.50000000  0.50000000  1.0
  Mn  Mn21  1  0.80236354  0.80236354  -0.19763646  1.0
  Mn  Mn22  1  1.19763646  0.19763646  0.40709061  1.0
  Mn  Mn23  1  1.19763646  0.40709061  0.19763646  1.0
  Mn  Mn24  1  0.59290939  0.80236354  -0.19763646  1.0
  Mn  Mn25  1  1.40709061  0.19763646  0.19763646  1.0
  Mn  Mn26  1  0.80236354  0.59290939  -0.19763646  1.0
  Mn  Mn27  1  0.80236354  0.80236354  -0.40709061  1.0
  Mn  Mn28  1  1.19763646  0.19763646  0.19763646  1.0
  Sn  Sn29  1  -0.70961639  0.70961639  0.70961639  1.0
  Sn  Sn30  1  -0.29038361  0.29038361  0.70961639  1.0
  Sn  Sn31  1  0.70961639  0.70961639  -0.70961639  1.0
  Sn  Sn32  1  0.29038361  1.29038361  -0.29038361  1.0
  Sn  Sn33  1  0.29038361  -0.29038361  1.29038361  1.0
  Sn  Sn34  1  -0.29038361  0.29038361  0.29038361  1.0
  Sn  Sn35  1  -0.00000000  -0.00000000  0.00000000  1.0
  C  C36  1  0.60863325  0.89136675  -0.10863325  1.0
  C  C37  1  1.10863325  0.39136675  0.39136675  1.0
  C  C38  1  0.89136675  0.60863325  -0.10863325  1.0
  C  C39  1  1.39136675  0.10863325  0.39136675  1.0
  C  C40  1  0.89136675  0.89136675  -0.39136675  1.0
  C  C41  1  1.10863325  0.10863325  0.39136675  1.0
  C  C42  1  1.10863325  0.39136675  0.10863325  1.0
  C  C43  1  0.60863325  0.89136675  -0.39136675  1.0
  C  C44  1  1.39136675  0.39136675  0.10863325  1.0
  C  C45  1  0.60863325  0.60863325  -0.10863325  1.0
  C  C46  1  1.39136675  0.10863325  0.10863325  1.0
  C  C47  1  0.89136675  0.60863325  -0.39136675  1.0
