# generated using pymatgen
data_Sr2Ti(SiO4)2
_symmetry_space_group_name_H-M   'P 1'
_cell_length_a   8.49241344
_cell_length_b   8.49241344
_cell_length_c   5.09755518
_cell_angle_alpha   90.00000000
_cell_angle_beta   90.00000000
_cell_angle_gamma   90.00000000
_symmetry_Int_Tables_number   1
_chemical_formula_structural   Sr2Ti(SiO4)2
_chemical_formula_sum   'Sr4 Ti2 Si4 O16'
_cell_volume   367.64121563
_cell_formula_units_Z   2
loop_
 _symmetry_equiv_pos_site_id
 _symmetry_equiv_pos_as_xyz
  1  'x, y, z'
loop_
 _atom_site_type_symbol
 _atom_site_label
 _atom_site_symmetry_multiplicity
 _atom_site_fract_x
 _atom_site_fract_y
 _atom_site_fract_z
 _atom_site_occupancy
  Sr  Sr0  1  0.82637251  0.67362749  0.44571389  1.0
  Sr  Sr1  1  0.32637251  0.82637251  0.44571389  1.0
  Sr  Sr2  1  0.17362749  0.32637251  0.44571389  1.0
  Sr  Sr3  1  0.67362749  0.17362749  0.44571389  1.0
  Ti  Ti4  1  0.50000000  0.50000000  0.00927361  1.0
  Ti  Ti5  1  0.00000000  0.00000000  0.00927361  1.0
  Si  Si6  1  0.37014630  0.12985370  0.98107216  1.0
  Si  Si7  1  0.87014630  0.37014630  0.98107216  1.0
  Si  Si8  1  0.62985370  0.87014630  0.98107216  1.0
  Si  Si9  1  0.12985370  0.62985370  0.98107216  1.0
  O  O10  1  0.29414224  0.57990461  0.12670856  1.0
  O  O11  1  0.79414224  0.92009539  0.12670856  1.0
  O  O12  1  0.42009539  0.29414224  0.12670856  1.0
  O  O13  1  0.92009539  0.20585776  0.12670856  1.0
  O  O14  1  0.70585776  0.42009539  0.12670856  1.0
  O  O15  1  0.20585776  0.07990461  0.12670856  1.0
  O  O16  1  0.57990461  0.70585776  0.12670856  1.0
  O  O17  1  0.07990461  0.79414224  0.12670856  1.0
  O  O18  1  0.37029439  0.12970561  0.66605917  1.0
  O  O19  1  0.87029439  0.37029439  0.66605917  1.0
  O  O20  1  0.62970561  0.87029439  0.66605917  1.0
  O  O21  1  0.12970561  0.62970561  0.66605917  1.0
  O  O22  1  0.00000000  0.50000000  0.10375047  1.0
  O  O23  1  0.50000000  0.00000000  0.10375047  1.0
  O  O24  1  0.50000000  0.50000000  0.67745123  1.0
  O  O25  1  0.00000000  0.00000000  0.67745123  1.0
