# generated using pymatgen
data_MoSCl7O
_symmetry_space_group_name_H-M   'P 1'
_cell_length_a   10.49916418
_cell_length_b   9.90538231
_cell_length_c   13.79219489
_cell_angle_alpha   90.00000000
_cell_angle_beta   120.03449404
_cell_angle_gamma   90.00000000
_symmetry_Int_Tables_number   1
_chemical_formula_structural   MoSCl7O
_chemical_formula_sum   'Mo4 S4 Cl28 O4'
_cell_volume   1241.76360619
_cell_formula_units_Z   4
loop_
 _symmetry_equiv_pos_site_id
 _symmetry_equiv_pos_as_xyz
  1  'x, y, z'
loop_
 _atom_site_type_symbol
 _atom_site_label
 _atom_site_symmetry_multiplicity
 _atom_site_fract_x
 _atom_site_fract_y
 _atom_site_fract_z
 _atom_site_occupancy
  Mo  Mo0  1  0.34153074  0.17832896  0.50770982  1.0
  Mo  Mo1  1  0.34153074  0.32167104  1.00770982  1.0
  Mo  Mo2  1  0.65846926  0.67832896  -0.00770982  1.0
  Mo  Mo3  1  0.65846926  0.82167104  0.49229018  1.0
  S  S4  1  0.77291981  0.22948192  0.49574298  1.0
  S  S5  1  0.77291981  0.27051808  0.99574298  1.0
  S  S6  1  0.22708019  0.72948192  0.00425702  1.0
  S  S7  1  0.22708019  0.77051808  0.50425702  1.0
  Cl  Cl8  1  0.93592755  0.16954338  0.13192718  1.0
  Cl  Cl9  1  0.93592755  0.33045662  0.63192718  1.0
  Cl  Cl10  1  0.06407245  0.66954338  0.36807282  1.0
  Cl  Cl11  1  0.06407245  0.83045662  0.86807282  1.0
  Cl  Cl12  1  0.88957488  0.15607746  0.42521486  1.0
  Cl  Cl13  1  0.88957488  0.34392254  0.92521486  1.0
  Cl  Cl14  1  0.11042512  0.65607746  0.07478514  1.0
  Cl  Cl15  1  0.11042512  0.84392254  0.57478514  1.0
  Cl  Cl16  1  0.84246770  0.52755372  0.12313048  1.0
  Cl  Cl17  1  0.84246770  -0.02755372  0.62313048  1.0
  Cl  Cl18  1  0.15753230  1.02755372  0.37686952  1.0
  Cl  Cl19  1  0.15753230  0.47244628  0.87686952  1.0
  Cl  Cl20  1  0.66069252  0.38105708  0.38574870  1.0
  Cl  Cl21  1  0.66069252  0.11894292  0.88574870  1.0
  Cl  Cl22  1  0.33930748  0.88105708  0.11425130  1.0
  Cl  Cl23  1  0.33930748  0.61894292  0.61425130  1.0
  Cl  Cl24  1  0.57998658  0.22598746  0.10109240  1.0
  Cl  Cl25  1  0.57998658  0.27401254  0.60109240  1.0
  Cl  Cl26  1  0.42001342  0.72598746  0.39890760  1.0
  Cl  Cl27  1  0.42001342  0.77401254  0.89890760  1.0
  Cl  Cl28  1  0.54437225  0.01847942  0.38219857  1.0
  Cl  Cl29  1  0.54437225  0.48152058  0.88219857  1.0
  Cl  Cl30  1  0.45562775  0.51847942  0.11780143  1.0
  Cl  Cl31  1  0.45562775  0.98152058  0.61780143  1.0
  Cl  Cl32  1  0.28972469  0.31204968  0.35436945  1.0
  Cl  Cl33  1  0.28972469  0.18795032  0.85436945  1.0
  Cl  Cl34  1  0.71027531  0.81204968  0.14563055  1.0
  Cl  Cl35  1  0.71027531  0.68795032  0.64563055  1.0
  O  O36  1  0.74128780  0.74733207  0.43059781  1.0
  O  O37  1  0.74128780  0.75266793  0.93059781  1.0
  O  O38  1  0.25871220  0.24733207  0.06940219  1.0
  O  O39  1  0.25871220  0.25266793  0.56940219  1.0
