# generated using pymatgen
data_Ba2YbCl7
_symmetry_space_group_name_H-M   'P 1'
_cell_length_a   6.97638037
_cell_length_b   15.57942766
_cell_length_c   10.64317518
_cell_angle_alpha   90.00000000
_cell_angle_beta   90.78797137
_cell_angle_gamma   90.00000000
_symmetry_Int_Tables_number   1
_chemical_formula_structural   Ba2YbCl7
_chemical_formula_sum   'Ba8 Yb4 Cl28'
_cell_volume   1156.67617169
_cell_formula_units_Z   4
loop_
 _symmetry_equiv_pos_site_id
 _symmetry_equiv_pos_as_xyz
  1  'x, y, z'
loop_
 _atom_site_type_symbol
 _atom_site_label
 _atom_site_symmetry_multiplicity
 _atom_site_fract_x
 _atom_site_fract_y
 _atom_site_fract_z
 _atom_site_occupancy
  Ba  Ba0  1  0.76999199  0.43985958  0.17392635  1.0
  Ba  Ba1  1  0.76999199  0.06014042  0.67392635  1.0
  Ba  Ba2  1  0.23000801  0.93985958  0.32607365  1.0
  Ba  Ba3  1  0.23000801  0.56014042  0.82607365  1.0
  Ba  Ba4  1  0.22836064  0.27927564  0.45176329  1.0
  Ba  Ba5  1  0.22836064  0.22072436  0.95176329  1.0
  Ba  Ba6  1  0.77163936  0.77927564  0.04823671  1.0
  Ba  Ba7  1  0.77163936  0.72072436  0.54823671  1.0
  Yb  Yb8  1  0.71409329  0.12652566  0.21736104  1.0
  Yb  Yb9  1  0.71409329  0.37347434  0.71736104  1.0
  Yb  Yb10  1  0.28590671  0.62652566  0.28263896  1.0
  Yb  Yb11  1  0.28590671  0.87347434  0.78263896  1.0
  Cl  Cl12  1  0.98740373  0.25799172  0.19899455  1.0
  Cl  Cl13  1  0.98740373  0.24200828  0.69899455  1.0
  Cl  Cl14  1  0.01259627  0.75799172  0.30100545  1.0
  Cl  Cl15  1  0.01259627  0.74200828  0.80100545  1.0
  Cl  Cl16  1  0.98563881  0.10522651  0.41507893  1.0
  Cl  Cl17  1  0.98563881  0.39477349  0.91507893  1.0
  Cl  Cl18  1  0.01436119  0.60522651  0.08492107  1.0
  Cl  Cl19  1  0.01436119  0.89477349  0.58492107  1.0
  Cl  Cl20  1  0.80283869  0.95999907  0.21167139  1.0
  Cl  Cl21  1  0.80283869  0.54000093  0.71167139  1.0
  Cl  Cl22  1  0.19716131  0.45999907  0.28832861  1.0
  Cl  Cl23  1  0.19716131  0.04000093  0.78832861  1.0
  Cl  Cl24  1  0.80181306  0.36348183  0.47512685  1.0
  Cl  Cl25  1  0.80181306  0.13651817  0.97512685  1.0
  Cl  Cl26  1  0.19818694  0.86348183  0.02487315  1.0
  Cl  Cl27  1  0.19818694  0.63651817  0.52487315  1.0
  Cl  Cl28  1  0.50194825  0.27315733  0.20786884  1.0
  Cl  Cl29  1  0.50194825  0.22684267  0.70786884  1.0
  Cl  Cl30  1  0.49805175  0.77315733  0.29213116  1.0
  Cl  Cl31  1  0.49805175  0.72684267  0.79213116  1.0
  Cl  Cl32  1  0.50091964  0.10441141  0.42802941  1.0
  Cl  Cl33  1  0.50091964  0.39558859  0.92802941  1.0
  Cl  Cl34  1  0.49908036  0.60441141  0.07197059  1.0
  Cl  Cl35  1  0.49908036  0.89558859  0.57197059  1.0
  Cl  Cl36  1  0.37508974  0.06957698  0.12276769  1.0
  Cl  Cl37  1  0.37508974  0.43042302  0.62276769  1.0
  Cl  Cl38  1  0.62491026  0.56957698  0.37723231  1.0
  Cl  Cl39  1  0.62491026  0.93042302  0.87723231  1.0
