# generated using pymatgen
data_Pm2O3
_symmetry_space_group_name_H-M   'P 1'
_cell_length_a   3.80629114
_cell_length_b   3.80629114
_cell_length_c   5.98557922
_cell_angle_alpha   90.00000000
_cell_angle_beta   90.00000000
_cell_angle_gamma   120.00000000
_symmetry_Int_Tables_number   1
_chemical_formula_structural   Pm2O3
_chemical_formula_sum   'Pm2 O3'
_cell_volume   75.10015328
_cell_formula_units_Z   1
loop_
 _symmetry_equiv_pos_site_id
 _symmetry_equiv_pos_as_xyz
  1  'x, y, z'
loop_
 _atom_site_type_symbol
 _atom_site_label
 _atom_site_symmetry_multiplicity
 _atom_site_fract_x
 _atom_site_fract_y
 _atom_site_fract_z
 _atom_site_occupancy
  Pm  Pm0  1  0.33333333  0.66666667  0.24457955  1.0
  Pm  Pm1  1  0.66666667  0.33333333  0.75542045  1.0
  O  O2  1  0.33333333  0.66666667  0.64668731  1.0
  O  O3  1  0.66666667  0.33333333  0.35331269  1.0
  O  O4  1  0.00000000  0.00000000  0.00000000  1.0
