# generated using pymatgen
data_XeN2(O2F)2
_symmetry_space_group_name_H-M   'P 1'
_cell_length_a   4.85310513
_cell_length_b   6.58391851
_cell_length_c   5.59130152
_cell_angle_alpha   102.23620252
_cell_angle_beta   95.14445010
_cell_angle_gamma   90.08435397
_symmetry_Int_Tables_number   1
_chemical_formula_structural   XeN2(O2F)2
_chemical_formula_sum   'Xe1 N2 O4 F2'
_cell_volume   173.85530816
_cell_formula_units_Z   1
loop_
 _symmetry_equiv_pos_site_id
 _symmetry_equiv_pos_as_xyz
  1  'x, y, z'
loop_
 _atom_site_type_symbol
 _atom_site_label
 _atom_site_symmetry_multiplicity
 _atom_site_fract_x
 _atom_site_fract_y
 _atom_site_fract_z
 _atom_site_occupancy
  Xe  Xe0  1  0.00000000  0.00000000  0.00000000  1.0
  N  N1  1  0.50560999  0.57331781  -0.62231812  1.0
  N  N2  1  0.49439001  0.42668219  -0.37768188  1.0
  O  O3  1  0.70928635  0.68093768  -0.59834729  1.0
  O  O4  1  0.29071365  0.31906232  -0.40165271  1.0
  O  O5  1  0.30739781  0.53958796  -0.76969174  1.0
  O  O6  1  0.69260219  0.46041204  -0.23030826  1.0
  F  F7  1  0.70351144  0.13883753  -0.78540881  1.0
  F  F8  1  0.29648856  0.86116247  -0.21459119  1.0
