# generated using pymatgen
data_K2CoO2
_symmetry_space_group_name_H-M   'P 1'
_cell_length_a   6.62977583
_cell_length_b   9.64404609
_cell_length_c   6.95925956
_cell_angle_alpha   90.00000000
_cell_angle_beta   117.72893553
_cell_angle_gamma   90.00000000
_symmetry_Int_Tables_number   1
_chemical_formula_structural   K2CoO2
_chemical_formula_sum   'K8 Co4 O8'
_cell_volume   393.86040824
_cell_formula_units_Z   4
loop_
 _symmetry_equiv_pos_site_id
 _symmetry_equiv_pos_as_xyz
  1  'x, y, z'
loop_
 _atom_site_type_symbol
 _atom_site_label
 _atom_site_symmetry_multiplicity
 _atom_site_fract_x
 _atom_site_fract_y
 _atom_site_fract_z
 _atom_site_occupancy
  K  K0  1  0.71608938  0.41265779  0.39092243  1.0
  K  K1  1  0.71608938  0.08734221  0.89092243  1.0
  K  K2  1  0.28391062  0.91265779  0.10907757  1.0
  K  K3  1  0.28391062  0.58734221  0.60907757  1.0
  K  K4  1  0.25239618  0.23751594  0.36523524  1.0
  K  K5  1  0.25239618  0.26248406  0.86523524  1.0
  K  K6  1  0.74760382  0.73751594  0.13476476  1.0
  K  K7  1  0.74760382  0.76248406  0.63476476  1.0
  Co  Co8  1  0.80712216  0.06581948  0.40546189  1.0
  Co  Co9  1  0.80712216  0.43418052  0.90546189  1.0
  Co  Co10  1  0.19287784  0.56581948  0.09453811  1.0
  Co  Co11  1  0.19287784  0.93418052  0.59453811  1.0
  O  O12  1  0.99148772  0.48637557  0.19516528  1.0
  O  O13  1  0.99148772  0.01362443  0.69516528  1.0
  O  O14  1  0.00851228  0.98637557  0.30483472  1.0
  O  O15  1  0.00851228  0.51362443  0.80483472  1.0
  O  O16  1  0.54818652  0.14809882  0.23443014  1.0
  O  O17  1  0.54818652  0.35190118  0.73443014  1.0
  O  O18  1  0.45181348  0.64809882  0.26556986  1.0
  O  O19  1  0.45181348  0.85190118  0.76556986  1.0
