# generated using pymatgen
data_Cs4Nb2Si8O23
_symmetry_space_group_name_H-M   'P 1'
_cell_length_a   7.11091205
_cell_length_b   11.24401300
_cell_length_c   8.05688425
_cell_angle_alpha   103.20912573
_cell_angle_beta   108.34433209
_cell_angle_gamma   89.71951760
_symmetry_Int_Tables_number   1
_chemical_formula_structural   Cs4Nb2Si8O23
_chemical_formula_sum   'Cs4 Nb2 Si8 O23'
_cell_volume   593.70813261
_cell_formula_units_Z   1
loop_
 _symmetry_equiv_pos_site_id
 _symmetry_equiv_pos_as_xyz
  1  'x, y, z'
loop_
 _atom_site_type_symbol
 _atom_site_label
 _atom_site_symmetry_multiplicity
 _atom_site_fract_x
 _atom_site_fract_y
 _atom_site_fract_z
 _atom_site_occupancy
  Cs  Cs0  1  0.67276968  0.86377105  -0.28622203  1.0
  Cs  Cs1  1  0.32723032  0.13622895  -0.71377797  1.0
  Cs  Cs2  1  0.29182040  0.48524758  -0.78014267  1.0
  Cs  Cs3  1  0.70817960  0.51475242  -0.21985733  1.0
  Nb  Nb4  1  0.79584443  0.31113473  -0.73865076  1.0
  Nb  Nb5  1  0.20415557  0.68886527  -0.26134924  1.0
  Si  Si6  1  0.85110545  0.99636142  -0.70269390  1.0
  Si  Si7  1  0.14889455  0.00363858  -0.29730610  1.0
  Si  Si8  1  0.84275342  0.62956671  -0.67538971  1.0
  Si  Si9  1  0.15724658  0.37043329  -0.32461029  1.0
  Si  Si10  1  0.50306867  0.79220891  -0.81748514  1.0
  Si  Si11  1  0.49693133  0.20779109  -0.18251486  1.0
  Si  Si12  1  0.06391158  0.78552329  -0.86599426  1.0
  Si  Si13  1  0.93608842  0.21447671  -0.13400574  1.0
  O  O14  1  0.97735613  0.69627307  -0.76681329  1.0
  O  O15  1  0.02264387  0.30372693  -0.23318671  1.0
  O  O16  1  0.97239626  0.27541159  -0.92603564  1.0
  O  O17  1  0.02760374  0.72458841  -0.07396436  1.0
  O  O18  1  0.95555518  0.91639722  -0.84420683  1.0
  O  O19  1  0.04444482  0.08360278  -0.15579317  1.0
  O  O20  1  0.94139963  0.65560513  -0.45797033  1.0
  O  O21  1  0.05860037  0.34439487  -0.54202967  1.0
  O  O22  1  0.81403321  0.13063483  -0.73582278  1.0
  O  O23  1  0.18596679  0.86936517  -0.26417722  1.0
  O  O24  1  0.80968654  0.48477461  -0.77353735  1.0
  O  O25  1  0.19031346  0.51522539  -0.22646265  1.0
  O  O26  1  0.64032452  0.34625304  -0.60250862  1.0
  O  O27  1  0.35967548  0.65374696  -0.39749138  1.0
  O  O28  1  0.63633623  0.92465045  -0.73378291  1.0
  O  O29  1  0.36366377  0.07534955  -0.26621709  1.0
  O  O30  1  0.62574278  0.69204735  -0.71234912  1.0
  O  O31  1  0.37425722  0.30795265  -0.28765088  1.0
  O  O32  1  0.55197228  0.25712255  -0.96784458  1.0
  O  O33  1  0.44802772  0.74287745  -0.03215542  1.0
  O  O34  1  0.30470675  0.81678395  -0.75313796  1.0
  O  O35  1  0.69529325  0.18321605  -0.24686204  1.0
  O  O36  1  -0.00000000  -0.00000000  -0.50000000  1.0
