# generated using pymatgen
data_Ca3Cu2(BrO2)2
_symmetry_space_group_name_H-M   'P 1'
_cell_length_a   12.88235232
_cell_length_b   12.88235232
_cell_length_c   12.88235232
_cell_angle_alpha   162.68860038
_cell_angle_beta   162.68860038
_cell_angle_gamma   24.57698793
_symmetry_Int_Tables_number   1
_chemical_formula_structural   Ca3Cu2(BrO2)2
_chemical_formula_sum   'Ca3 Cu2 Br2 O4'
_cell_volume   189.24833337
_cell_formula_units_Z   1
loop_
 _symmetry_equiv_pos_site_id
 _symmetry_equiv_pos_as_xyz
  1  'x, y, z'
loop_
 _atom_site_type_symbol
 _atom_site_label
 _atom_site_symmetry_multiplicity
 _atom_site_fract_x
 _atom_site_fract_y
 _atom_site_fract_z
 _atom_site_occupancy
  Ca  Ca0  1  0.87435933  0.87435933  1.00000000  1.0
  Ca  Ca1  1  0.12564067  0.12564067  -0.00000000  1.0
  Ca  Ca2  1  0.00000000  0.00000000  0.00000000  1.0
  Cu  Cu3  1  0.56219540  0.56219540  1.00000000  1.0
  Cu  Cu4  1  0.43780460  0.43780460  -0.00000000  1.0
  Br  Br5  1  0.68311682  0.68311682  1.00000000  1.0
  Br  Br6  1  0.31688318  0.31688318  0.00000000  1.0
  O  O7  1  0.43573109  0.93573109  0.50000000  1.0
  O  O8  1  0.56426891  0.06426891  0.50000000  1.0
  O  O9  1  0.93573109  0.43573109  0.50000000  1.0
  O  O10  1  0.06426891  0.56426891  0.50000000  1.0
