# generated using pymatgen
data_AgCl
_symmetry_space_group_name_H-M   'P 1'
_cell_length_a   3.95758031
_cell_length_b   3.97134721
_cell_length_c   5.59962557
_cell_angle_alpha   90.00000000
_cell_angle_beta   90.29850483
_cell_angle_gamma   90.00000000
_symmetry_Int_Tables_number   1
_chemical_formula_structural   AgCl
_chemical_formula_sum   'Ag2 Cl2'
_cell_volume   88.00770363
_cell_formula_units_Z   2
loop_
 _symmetry_equiv_pos_site_id
 _symmetry_equiv_pos_as_xyz
  1  'x, y, z'
loop_
 _atom_site_type_symbol
 _atom_site_label
 _atom_site_symmetry_multiplicity
 _atom_site_fract_x
 _atom_site_fract_y
 _atom_site_fract_z
 _atom_site_occupancy
  Ag  Ag0  1  0.75018108  0.75000000  0.74999585  1.0
  Ag  Ag1  1  0.24981892  0.25000000  0.25000415  1.0
  Cl  Cl2  1  0.74995561  0.75000000  0.25005077  1.0
  Cl  Cl3  1  0.25004439  0.25000000  0.74994923  1.0
