# generated using pymatgen
data_Lu2InNi2
_symmetry_space_group_name_H-M   'P 1'
_cell_length_a   7.33755685
_cell_length_b   7.33755685
_cell_length_c   3.54813898
_cell_angle_alpha   90.00000000
_cell_angle_beta   90.00000000
_cell_angle_gamma   90.00000000
_symmetry_Int_Tables_number   1
_chemical_formula_structural   Lu2InNi2
_chemical_formula_sum   'Lu4 In2 Ni4'
_cell_volume   191.03088192
_cell_formula_units_Z   2
loop_
 _symmetry_equiv_pos_site_id
 _symmetry_equiv_pos_as_xyz
  1  'x, y, z'
loop_
 _atom_site_type_symbol
 _atom_site_label
 _atom_site_symmetry_multiplicity
 _atom_site_fract_x
 _atom_site_fract_y
 _atom_site_fract_z
 _atom_site_occupancy
  Lu  Lu0  1  0.17365769  0.67365769  0.50000000  1.0
  Lu  Lu1  1  0.82634231  0.32634231  0.50000000  1.0
  Lu  Lu2  1  0.32634231  0.17365769  0.50000000  1.0
  Lu  Lu3  1  0.67365769  0.82634231  0.50000000  1.0
  In  In4  1  0.50000000  0.50000000  0.00000000  1.0
  In  In5  1  0.00000000  0.00000000  0.00000000  1.0
  Ni  Ni6  1  0.62025185  0.12025185  -0.00000000  1.0
  Ni  Ni7  1  0.37974815  0.87974815  -0.00000000  1.0
  Ni  Ni8  1  0.87974815  0.62025185  -0.00000000  1.0
  Ni  Ni9  1  0.12025185  0.37974815  -0.00000000  1.0
