# generated using pymatgen
data_Cs3Fe2F9
_symmetry_space_group_name_H-M   'P 1'
_cell_length_a   6.44787710
_cell_length_b   6.44787710
_cell_length_c   15.26543358
_cell_angle_alpha   90.00000000
_cell_angle_beta   90.00000000
_cell_angle_gamma   120.00000000
_symmetry_Int_Tables_number   1
_chemical_formula_structural   Cs3Fe2F9
_chemical_formula_sum   'Cs6 Fe4 F18'
_cell_volume   549.63360510
_cell_formula_units_Z   2
loop_
 _symmetry_equiv_pos_site_id
 _symmetry_equiv_pos_as_xyz
  1  'x, y, z'
loop_
 _atom_site_type_symbol
 _atom_site_label
 _atom_site_symmetry_multiplicity
 _atom_site_fract_x
 _atom_site_fract_y
 _atom_site_fract_z
 _atom_site_occupancy
  Cs  Cs0  1  0.33333333  0.66666667  0.43168380  1.0
  Cs  Cs1  1  0.33333333  0.66666667  0.06831620  1.0
  Cs  Cs2  1  0.66666667  0.33333333  0.93168380  1.0
  Cs  Cs3  1  0.66666667  0.33333333  0.56831620  1.0
  Cs  Cs4  1  0.33333333  0.66666667  0.75000000  1.0
  Cs  Cs5  1  0.66666667  0.33333333  0.25000000  1.0
  Fe  Fe6  1  0.00000000  0.00000000  0.34686172  1.0
  Fe  Fe7  1  0.00000000  0.00000000  0.15313828  1.0
  Fe  Fe8  1  0.00000000  0.00000000  0.84686172  1.0
  Fe  Fe9  1  0.00000000  0.00000000  0.65313828  1.0
  F  F10  1  0.14990850  0.85009150  0.90418342  1.0
  F  F11  1  0.14990850  0.85009150  0.59581658  1.0
  F  F12  1  0.14990850  0.29981700  0.90418342  1.0
  F  F13  1  0.14990850  0.29981700  0.59581658  1.0
  F  F14  1  0.85009150  0.14990850  0.40418342  1.0
  F  F15  1  0.85009150  0.14990850  0.09581658  1.0
  F  F16  1  0.85009150  0.70018300  0.40418342  1.0
  F  F17  1  0.85009150  0.70018300  0.09581658  1.0
  F  F18  1  0.70018300  0.85009150  0.90418342  1.0
  F  F19  1  0.70018300  0.85009150  0.59581658  1.0
  F  F20  1  0.29981700  0.14990850  0.40418342  1.0
  F  F21  1  0.29981700  0.14990850  0.09581658  1.0
  F  F22  1  0.13326192  0.86673808  0.25000000  1.0
  F  F23  1  0.13326192  0.26652383  0.25000000  1.0
  F  F24  1  0.86673808  0.13326192  0.75000000  1.0
  F  F25  1  0.86673808  0.73347617  0.75000000  1.0
  F  F26  1  0.73347617  0.86673808  0.25000000  1.0
  F  F27  1  0.26652383  0.13326192  0.75000000  1.0
