# generated using pymatgen
data_Zr6Ni23
_symmetry_space_group_name_H-M   'P 1'
_cell_length_a   8.11569219
_cell_length_b   8.11569219
_cell_length_c   8.11569219
_cell_angle_alpha   60.00000000
_cell_angle_beta   60.00000000
_cell_angle_gamma   60.00000000
_symmetry_Int_Tables_number   1
_chemical_formula_structural   Zr6Ni23
_chemical_formula_sum   'Zr6 Ni23'
_cell_volume   377.97380556
_cell_formula_units_Z   1
loop_
 _symmetry_equiv_pos_site_id
 _symmetry_equiv_pos_as_xyz
  1  'x, y, z'
loop_
 _atom_site_type_symbol
 _atom_site_label
 _atom_site_symmetry_multiplicity
 _atom_site_fract_x
 _atom_site_fract_y
 _atom_site_fract_z
 _atom_site_occupancy
  Zr  Zr0  1  -0.71374712  0.71374712  0.71374712  1.0
  Zr  Zr1  1  -0.28625288  0.28625288  0.71374712  1.0
  Zr  Zr2  1  0.71374712  0.71374712  -0.71374712  1.0
  Zr  Zr3  1  0.28625288  1.28625288  -0.28625288  1.0
  Zr  Zr4  1  0.28625288  -0.28625288  1.28625288  1.0
  Zr  Zr5  1  -0.28625288  0.28625288  0.28625288  1.0
  Ni  Ni6  1  0.87976001  0.87976001  -0.12023999  1.0
  Ni  Ni7  1  1.12023999  0.12023999  0.63928004  1.0
  Ni  Ni8  1  1.12023999  0.63928004  0.12023999  1.0
  Ni  Ni9  1  0.36071996  0.87976001  -0.12023999  1.0
  Ni  Ni10  1  1.63928004  0.12023999  0.12023999  1.0
  Ni  Ni11  1  0.87976001  0.36071996  -0.12023999  1.0
  Ni  Ni12  1  0.87976001  0.87976001  -0.63928004  1.0
  Ni  Ni13  1  1.12023999  0.12023999  0.12023999  1.0
  Ni  Ni14  1  0.67121286  0.67121286  -0.32878714  1.0
  Ni  Ni15  1  1.32878714  0.32878714  0.01363858  1.0
  Ni  Ni16  1  1.32878714  0.01363858  0.32878714  1.0
  Ni  Ni17  1  0.98636142  0.67121286  -0.32878714  1.0
  Ni  Ni18  1  1.01363858  0.32878714  0.32878714  1.0
  Ni  Ni19  1  0.67121286  0.98636142  -0.32878714  1.0
  Ni  Ni20  1  0.67121286  0.67121286  -0.01363858  1.0
  Ni  Ni21  1  1.32878714  0.32878714  0.32878714  1.0
  Ni  Ni22  1  1.50000000  -0.00000000  0.00000000  1.0
  Ni  Ni23  1  1.00000000  0.50000000  -0.50000000  1.0
  Ni  Ni24  1  -0.00000000  1.50000000  0.00000000  1.0
  Ni  Ni25  1  0.50000000  1.00000000  -0.50000000  1.0
  Ni  Ni26  1  -0.00000000  -0.00000000  0.50000000  1.0
  Ni  Ni27  1  0.50000000  -0.50000000  1.00000000  1.0
  Ni  Ni28  1  0.00000000  0.00000000  0.00000000  1.0
