# generated using pymatgen
data_Ga2HgSe4
_symmetry_space_group_name_H-M   'P 1'
_cell_length_a   6.89290665
_cell_length_b   6.89290665
_cell_length_c   6.89290665
_cell_angle_alpha   129.76922448
_cell_angle_beta   129.76922448
_cell_angle_gamma   73.77596759
_symmetry_Int_Tables_number   1
_chemical_formula_structural   Ga2HgSe4
_chemical_formula_sum   'Ga2 Hg1 Se4'
_cell_volume   188.75231096
_cell_formula_units_Z   1
loop_
 _symmetry_equiv_pos_site_id
 _symmetry_equiv_pos_as_xyz
  1  'x, y, z'
loop_
 _atom_site_type_symbol
 _atom_site_label
 _atom_site_symmetry_multiplicity
 _atom_site_fract_x
 _atom_site_fract_y
 _atom_site_fract_z
 _atom_site_occupancy
  Ga  Ga0  1  0.25000000  0.75000000  0.50000000  1.0
  Ga  Ga1  1  0.00000000  0.00000000  0.00000000  1.0
  Hg  Hg2  1  0.50000000  0.50000000  1.00000000  1.0
  Se  Se3  1  0.37799809  0.91452733  1.01434963  1.0
  Se  Se4  1  1.08547267  1.09982230  1.46347076  1.0
  Se  Se5  1  0.90017770  0.36364846  0.98565037  1.0
  Se  Se6  1  0.63635154  0.62200191  0.53652924  1.0
