# generated using pymatgen
data_Cu4Si4Pb4C4ClO28
_symmetry_space_group_name_H-M   'P 1'
_cell_length_a   10.47202501
_cell_length_b   10.47202501
_cell_length_c   10.47202501
_cell_angle_alpha   94.91623639
_cell_angle_beta   94.91623639
_cell_angle_gamma   145.95534255
_symmetry_Int_Tables_number   1
_chemical_formula_structural   Cu4Si4Pb4C4ClO28
_chemical_formula_sum   'Cu4 Si4 Pb4 C4 Cl1 O28'
_cell_volume   614.75153281
_cell_formula_units_Z   1
loop_
 _symmetry_equiv_pos_site_id
 _symmetry_equiv_pos_as_xyz
  1  'x, y, z'
loop_
 _atom_site_type_symbol
 _atom_site_label
 _atom_site_symmetry_multiplicity
 _atom_site_fract_x
 _atom_site_fract_y
 _atom_site_fract_z
 _atom_site_occupancy
  Cl  Cl0  1  0.50000000  0.50000000  1.00000000  1.0
  C  C1  1  0.06908214  0.35359752  0.42267966  1.0
  C  C2  1  1.35359752  0.93091786  1.28451538  1.0
  C  C3  1  0.93091786  0.64640248  1.57732034  1.0
  C  C4  1  0.64640248  1.06908214  0.71548462  1.0
  Pb  Pb5  1  1.46978314  1.26966115  1.73944429  1.0
  Pb  Pb6  1  0.26966115  0.53021686  0.79987801  1.0
  Pb  Pb7  1  0.53021686  0.73033885  0.26055571  1.0
  Pb  Pb8  1  0.73033885  0.46978314  1.20012199  1.0
  Cu  Cu9  1  1.50000000  1.50000000  1.50000000  1.0
  Cu  Cu10  1  1.00000000  1.00000000  1.50000000  1.0
  Cu  Cu11  1  1.50000000  1.00000000  1.00000000  1.0
  Cu  Cu12  1  1.00000000  0.50000000  1.00000000  1.0
  O  O13  1  0.38030069  0.38866216  0.31389180  1.0
  O  O14  1  0.92522964  0.93359111  0.31389180  1.0
  O  O15  1  1.38866216  1.07477036  1.00836147  1.0
  O  O16  1  0.93359111  0.61969931  1.00836147  1.0
  O  O17  1  1.07477036  1.06640889  1.68610820  1.0
  O  O18  1  1.61969931  1.61133784  1.68610820  1.0
  O  O19  1  1.06640889  1.38030069  0.99163853  1.0
  O  O20  1  0.61133784  0.92522964  0.99163853  1.0
  O  O21  1  1.13387063  1.00152197  1.13539260  1.0
  O  O22  1  0.00152197  0.86612937  0.86765134  1.0
  O  O23  1  0.86612937  0.99847803  0.86460740  1.0
  O  O24  1  0.99847803  0.13387063  1.13234866  1.0
  O  O25  1  1.30551807  1.20658334  1.51210141  1.0
  O  O26  1  0.20658334  0.69448193  0.90106528  1.0
  O  O27  1  0.69448193  0.79341666  0.48789859  1.0
  O  O28  1  0.79341666  0.30551807  1.09893472  1.0
  O  O29  1  0.20480041  0.52962291  0.37372630  1.0
  O  O30  1  0.84410339  1.16892589  0.37372630  1.0
  O  O31  1  1.52962291  1.15589661  1.32482250  1.0
  O  O32  1  1.16892589  0.79519959  1.32482250  1.0
  O  O33  1  1.15589661  0.83107411  1.62627370  1.0
  O  O34  1  1.79519959  1.47037709  1.62627370  1.0
  O  O35  1  0.83107411  1.20480041  0.67517750  1.0
  O  O36  1  0.47037709  0.84410339  0.67517750  1.0
  O  O37  1  0.15967806  0.36157078  0.52124883  1.0
  O  O38  1  1.36157078  0.84032194  1.20189272  1.0
  O  O39  1  0.84032194  0.63842922  1.47875117  1.0
  O  O40  1  0.63842922  1.15967806  0.79810728  1.0
  Si  Si41  1  0.11265127  0.11469957  0.22735085  1.0
  Si  Si42  1  1.11469957  0.88734873  1.00204830  1.0
  Si  Si43  1  0.88734873  0.88530043  1.77264915  1.0
  Si  Si44  1  0.88530043  1.11265127  0.99795170  1.0
