# generated using pymatgen
data_B5H9
_symmetry_space_group_name_H-M   'P 1'
_cell_length_a   6.11448773
_cell_length_b   6.11448773
_cell_length_c   6.11448773
_cell_angle_alpha   102.16503828
_cell_angle_beta   102.16503828
_cell_angle_gamma   125.34815251
_symmetry_Int_Tables_number   1
_chemical_formula_structural   B5H9
_chemical_formula_sum   'B5 H9'
_cell_volume   165.65258243
_cell_formula_units_Z   1
loop_
 _symmetry_equiv_pos_site_id
 _symmetry_equiv_pos_as_xyz
  1  'x, y, z'
loop_
 _atom_site_type_symbol
 _atom_site_label
 _atom_site_symmetry_multiplicity
 _atom_site_fract_x
 _atom_site_fract_y
 _atom_site_fract_z
 _atom_site_occupancy
  B  B0  1  1.42775592  0.59231241  0.83544351  1.0
  B  B1  1  0.59231241  0.42775592  0.83544351  1.0
  B  B2  1  0.59231241  0.75686890  1.16455649  1.0
  B  B3  1  0.75686890  0.59231241  0.16455649  1.0
  B  B4  1  0.79278631  0.79278631  0.00000000  1.0
  H  H5  1  1.29828005  0.61663758  0.68164246  1.0
  H  H6  1  0.61663758  0.29828005  0.68164246  1.0
  H  H7  1  0.61663758  0.93499512  1.31835754  1.0
  H  H8  1  0.93499512  0.61663758  0.31835754  1.0
  H  H9  1  0.55603653  0.55603653  0.24915662  1.0
  H  H10  1  0.55603653  1.30687991  1.00000000  1.0
  H  H11  1  1.30687991  1.55603653  1.00000000  1.0
  H  H12  1  1.30687991  1.30687991  0.75084338  1.0
  H  H13  1  0.00458081  0.00458081  0.00000000  1.0
