# generated using pymatgen
data_PbCI3N
_symmetry_space_group_name_H-M   'P 1'
_cell_length_a   8.77817562
_cell_length_b   8.77817562
_cell_length_c   8.77817562
_cell_angle_alpha   121.16882741
_cell_angle_beta   121.16882741
_cell_angle_gamma   87.98717952
_symmetry_Int_Tables_number   1
_chemical_formula_structural   PbCI3N
_chemical_formula_sum   'Pb2 C2 I6 N2'
_cell_volume   469.53254862
_cell_formula_units_Z   2
loop_
 _symmetry_equiv_pos_site_id
 _symmetry_equiv_pos_as_xyz
  1  'x, y, z'
loop_
 _atom_site_type_symbol
 _atom_site_label
 _atom_site_symmetry_multiplicity
 _atom_site_fract_x
 _atom_site_fract_y
 _atom_site_fract_z
 _atom_site_occupancy
  Pb  Pb0  1  0.44055943  0.44055943  1.00000000  1.0
  Pb  Pb1  1  -0.05944057  -0.05944057  -0.00000000  1.0
  C  C2  1  0.37430114  0.87430114  0.50000000  1.0
  C  C3  1  0.87430114  0.37430114  0.50000000  1.0
  I  I4  1  0.70327441  0.70327441  1.00000000  1.0
  I  I5  1  0.20327441  0.20327441  0.00000000  1.0
  I  I6  1  0.64553541  0.84536467  1.50000000  1.0
  I  I7  1  0.34536467  0.14553541  0.50000000  1.0
  I  I8  1  0.84536467  0.34536467  1.19982926  1.0
  I  I9  1  0.14553541  0.64553541  0.80017074  1.0
  N  N10  1  0.28096496  0.78096496  0.50000000  1.0
  N  N11  1  0.78096496  0.28096496  0.50000000  1.0
