# generated using pymatgen
data_GaI3
_symmetry_space_group_name_H-M   'P 1'
_cell_length_a   10.25243366
_cell_length_b   6.80073824
_cell_length_c   12.44034768
_cell_angle_alpha   90.00000000
_cell_angle_beta   108.45538042
_cell_angle_gamma   90.00000000
_symmetry_Int_Tables_number   1
_chemical_formula_structural   GaI3
_chemical_formula_sum   'Ga4 I12'
_cell_volume   822.78268925
_cell_formula_units_Z   4
loop_
 _symmetry_equiv_pos_site_id
 _symmetry_equiv_pos_as_xyz
  1  'x, y, z'
loop_
 _atom_site_type_symbol
 _atom_site_label
 _atom_site_symmetry_multiplicity
 _atom_site_fract_x
 _atom_site_fract_y
 _atom_site_fract_z
 _atom_site_occupancy
  Ga  Ga0  1  0.81104701  0.51010248  0.45120421  1.0
  Ga  Ga1  1  0.81104701  0.98989752  0.95120421  1.0
  Ga  Ga2  1  0.18895299  0.01010248  0.04879579  1.0
  Ga  Ga3  1  0.18895299  0.48989752  0.54879579  1.0
  I  I4  1  0.00491915  0.70996259  0.38950813  1.0
  I  I5  1  0.00491915  0.79003741  0.88950813  1.0
  I  I6  1  0.99508085  0.20996259  0.11049187  1.0
  I  I7  1  0.99508085  0.29003741  0.61049187  1.0
  I  I8  1  0.67365230  0.29543654  0.29019673  1.0
  I  I9  1  0.67365230  0.20456346  0.79019673  1.0
  I  I10  1  0.32634770  0.79543654  0.20980327  1.0
  I  I11  1  0.32634770  0.70456346  0.70980327  1.0
  I  I12  1  0.31058350  0.26125716  0.45274511  1.0
  I  I13  1  0.31058350  0.23874284  0.95274511  1.0
  I  I14  1  0.68941650  0.76125716  0.04725489  1.0
  I  I15  1  0.68941650  0.73874284  0.54725489  1.0
