# generated using pymatgen
data_KPH6C2(NO)4
_symmetry_space_group_name_H-M   'P 1'
_cell_length_a   8.58238339
_cell_length_b   7.76411163
_cell_length_c   8.25887331
_cell_angle_alpha   64.68698532
_cell_angle_beta   54.86482945
_cell_angle_gamma   60.44818523
_symmetry_Int_Tables_number   1
_chemical_formula_structural   KPH6C2(NO)4
_chemical_formula_sum   'K2 P2 H12 C4 N8 O8'
_cell_volume   383.43541763
_cell_formula_units_Z   2
loop_
 _symmetry_equiv_pos_site_id
 _symmetry_equiv_pos_as_xyz
  1  'x, y, z'
loop_
 _atom_site_type_symbol
 _atom_site_label
 _atom_site_symmetry_multiplicity
 _atom_site_fract_x
 _atom_site_fract_y
 _atom_site_fract_z
 _atom_site_occupancy
  K  K0  1  0.32016122  0.32016122  0.67983878  1.0
  K  K1  1  0.57016122  -0.42983878  0.92983878  1.0
  P  P2  1  0.89125398  -0.10874602  0.60874602  1.0
  P  P3  1  0.64125398  0.64125398  0.35874602  1.0
  H  H4  1  0.17795966  0.92052492  0.85891126  1.0
  H  H5  1  0.92052492  0.17795966  1.04260416  1.0
  H  H6  1  1.20739584  0.39108874  0.32947508  1.0
  H  H7  1  1.39108874  0.20739584  0.07204034  1.0
  H  H8  1  1.12680759  -0.21570187  0.78058781  1.0
  H  H9  1  0.78429813  0.12680759  0.30830647  1.0
  H  H10  1  0.94169353  0.46941219  0.46570187  1.0
  H  H11  1  1.46941219  -0.05830647  0.12319241  1.0
  H  H12  1  0.78080025  0.22869191  0.63230339  1.0
  H  H13  1  1.22869191  -0.21919975  0.35820445  1.0
  H  H14  1  0.89179555  0.61769661  1.02130809  1.0
  H  H15  1  0.61769661  0.89179555  0.46919975  1.0
  C  C16  1  0.97598508  0.09075096  0.74779261  1.0
  C  C17  1  1.09075096  -0.02401492  0.18547135  1.0
  C  C18  1  1.06452865  0.50220739  0.15924904  1.0
  C  C19  1  1.50220739  0.06452865  0.27401492  1.0
  N  N20  1  0.87340485  0.08714488  0.66925677  1.0
  N  N21  1  1.08714488  -0.12659515  0.37019350  1.0
  N  N22  1  0.87980650  0.58074323  0.16285512  1.0
  N  N23  1  1.58074323  -0.12019350  0.37659515  1.0
  N  N24  1  1.11653847  -0.08074301  0.78363455  1.0
  N  N25  1  0.91925699  0.11653847  0.18056999  1.0
  N  N26  1  1.06943001  0.46636545  0.33074301  1.0
  N  N27  1  1.46636545  0.06943001  0.13346153  1.0
  O  O28  1  0.93847839  0.25448300  0.78269080  1.0
  O  O29  1  0.25448300  0.93847839  1.02434781  1.0
  O  O30  1  0.22565219  0.46730920  0.99551700  1.0
  O  O31  1  0.46730920  0.22565219  1.31152161  1.0
  O  O32  1  0.69536142  -0.04243170  0.60450123  1.0
  O  O33  1  0.95756830  -0.30463858  0.74256905  1.0
  O  O34  1  0.50743095  0.64549877  1.29243170  1.0
  O  O35  1  0.64549877  0.50743095  0.55463858  1.0
