# generated using pymatgen
data_LaNi3B
_symmetry_space_group_name_H-M   'P 1'
_cell_length_a   9.65545543
_cell_length_b   9.65545543
_cell_length_c   7.14246974
_cell_angle_alpha   90.00000000
_cell_angle_beta   90.00000000
_cell_angle_gamma   118.28997436
_symmetry_Int_Tables_number   1
_chemical_formula_structural   LaNi3B
_chemical_formula_sum   'La8 Ni24 B8'
_cell_volume   586.34474252
_cell_formula_units_Z   8
loop_
 _symmetry_equiv_pos_site_id
 _symmetry_equiv_pos_as_xyz
  1  'x, y, z'
loop_
 _atom_site_type_symbol
 _atom_site_label
 _atom_site_symmetry_multiplicity
 _atom_site_fract_x
 _atom_site_fract_y
 _atom_site_fract_z
 _atom_site_occupancy
  La  La0  1  0.46405819  1.03593122  0.75000000  1.0
  La  La1  1  0.03593122  1.46405819  0.25000000  1.0
  La  La2  1  -0.46405819  0.96406878  0.25000000  1.0
  La  La3  1  -0.03593122  0.53594181  0.75000000  1.0
  La  La4  1  -0.46404523  1.46404523  0.75000000  1.0
  La  La5  1  0.46404523  0.53595477  0.25000000  1.0
  La  La6  1  0.03595066  0.96404934  0.75000000  1.0
  La  La7  1  -0.03595066  1.03595066  0.25000000  1.0
  Ni  Ni8  1  -0.24999176  0.99999119  0.92547088  1.0
  Ni  Ni9  1  -0.00000881  0.75000824  0.07452912  1.0
  Ni  Ni10  1  -0.24999176  0.99999119  0.57452912  1.0
  Ni  Ni11  1  -0.00000881  0.75000824  0.42547088  1.0
  Ni  Ni12  1  0.24999176  1.00000881  0.07452912  1.0
  Ni  Ni13  1  0.00000881  1.24999176  0.92547088  1.0
  Ni  Ni14  1  0.24999176  1.00000881  0.42547088  1.0
  Ni  Ni15  1  0.00000881  1.24999176  0.57452912  1.0
  Ni  Ni16  1  0.49998777  0.75000295  0.92546721  1.0
  Ni  Ni17  1  -0.24999705  1.49998777  0.07453279  1.0
  Ni  Ni18  1  0.49998777  0.75000295  0.57453279  1.0
  Ni  Ni19  1  -0.24999705  1.49998777  0.42546721  1.0
  Ni  Ni20  1  -0.49998777  1.24999705  0.07453279  1.0
  Ni  Ni21  1  0.24999705  0.50001223  0.92546721  1.0
  Ni  Ni22  1  -0.49998777  1.24999705  0.42546721  1.0
  Ni  Ni23  1  0.24999705  0.50001223  0.57453279  1.0
  Ni  Ni24  1  -0.25000228  1.25000228  0.99996925  1.0
  Ni  Ni25  1  0.25000228  0.74999772  0.00003075  1.0
  Ni  Ni26  1  -0.25000228  1.25000228  0.50003075  1.0
  Ni  Ni27  1  0.25000228  0.74999772  0.49996925  1.0
  Ni  Ni28  1  0.74998386  0.74998386  0.00000000  1.0
  Ni  Ni29  1  0.74998386  0.74998386  0.50000000  1.0
  Ni  Ni30  1  0.25001614  0.25001614  -0.00000000  1.0
  Ni  Ni31  1  0.25001614  0.25001614  0.50000000  1.0
  B  B32  1  0.68471501  0.81526671  0.75000000  1.0
  B  B33  1  -0.18473329  1.68471501  0.25000000  1.0
  B  B34  1  -0.68471501  1.18473329  0.25000000  1.0
  B  B35  1  0.18473329  0.31528499  0.75000000  1.0
  B  B36  1  -0.18470995  1.18470995  0.75000000  1.0
  B  B37  1  0.18470995  0.81529005  0.25000000  1.0
  B  B38  1  0.31526957  0.68473043  0.75000000  1.0
  B  B39  1  -0.31526957  1.31526957  0.25000000  1.0
