# generated using pymatgen
data_SbTePd
_symmetry_space_group_name_H-M   'P 1'
_cell_length_a   6.64299050
_cell_length_b   6.64299050
_cell_length_c   6.64299050
_cell_angle_alpha   90.00000000
_cell_angle_beta   90.00000000
_cell_angle_gamma   90.00000000
_symmetry_Int_Tables_number   1
_chemical_formula_structural   SbTePd
_chemical_formula_sum   'Sb4 Te4 Pd4'
_cell_volume   293.15067162
_cell_formula_units_Z   4
loop_
 _symmetry_equiv_pos_site_id
 _symmetry_equiv_pos_as_xyz
  1  'x, y, z'
loop_
 _atom_site_type_symbol
 _atom_site_label
 _atom_site_symmetry_multiplicity
 _atom_site_fract_x
 _atom_site_fract_y
 _atom_site_fract_z
 _atom_site_occupancy
  Sb  Sb0  1  0.12697763  0.62697763  0.87302237  1.0
  Sb  Sb1  1  0.62697763  0.87302237  0.12697763  1.0
  Sb  Sb2  1  0.87302237  0.12697763  0.62697763  1.0
  Sb  Sb3  1  0.37302237  0.37302237  0.37302237  1.0
  Te  Te4  1  0.87387848  0.37387848  0.12612152  1.0
  Te  Te5  1  0.37387848  0.12612152  0.87387848  1.0
  Te  Te6  1  0.12612152  0.87387848  0.37387848  1.0
  Te  Te7  1  0.62612152  0.62612152  0.62612152  1.0
  Pd  Pd8  1  0.50471642  1.00471642  0.49528358  1.0
  Pd  Pd9  1  1.00471642  0.49528358  0.50471642  1.0
  Pd  Pd10  1  0.49528358  0.50471642  1.00471642  1.0
  Pd  Pd11  1  -0.00471642  -0.00471642  -0.00471642  1.0
