# generated using pymatgen
data_LiAsSe2
_symmetry_space_group_name_H-M   'P 1'
_cell_length_a   5.79094987
_cell_length_b   5.64061005
_cell_length_c   5.46868835
_cell_angle_alpha   90.02404829
_cell_angle_beta   90.07039817
_cell_angle_gamma   85.83471366
_symmetry_Int_Tables_number   1
_chemical_formula_structural   LiAsSe2
_chemical_formula_sum   'Li2 As2 Se4'
_cell_volume   178.15994534
_cell_formula_units_Z   2
loop_
 _symmetry_equiv_pos_site_id
 _symmetry_equiv_pos_as_xyz
  1  'x, y, z'
loop_
 _atom_site_type_symbol
 _atom_site_label
 _atom_site_symmetry_multiplicity
 _atom_site_fract_x
 _atom_site_fract_y
 _atom_site_fract_z
 _atom_site_occupancy
  Li  Li0  1  -1.00177361  -0.74611324  -0.24994844  1.0
  Li  Li1  1  0.00177361  -0.25388676  -0.75005156  1.0
  As  As2  1  -0.58941371  -0.79600829  -0.74945599  1.0
  As  As3  1  -0.41058629  -0.20399171  -0.25054401  1.0
  Se  Se4  1  -0.50182380  -0.76544086  -0.25000610  1.0
  Se  Se5  1  -0.49817620  -0.23455914  -0.74999390  1.0
  Se  Se6  1  -0.99671766  -0.74899094  -0.75009598  1.0
  Se  Se7  1  -0.00328234  -0.25100906  -0.24990402  1.0
