# generated using pymatgen
data_K6Ge2O7
_symmetry_space_group_name_H-M   'P 1'
_cell_length_a   6.61140388
_cell_length_b   9.19408207
_cell_length_c   11.31909911
_cell_angle_alpha   90.00000000
_cell_angle_beta   124.04517526
_cell_angle_gamma   90.00000000
_symmetry_Int_Tables_number   1
_chemical_formula_structural   K6Ge2O7
_chemical_formula_sum   'K12 Ge4 O14'
_cell_volume   570.10779216
_cell_formula_units_Z   2
loop_
 _symmetry_equiv_pos_site_id
 _symmetry_equiv_pos_as_xyz
  1  'x, y, z'
loop_
 _atom_site_type_symbol
 _atom_site_label
 _atom_site_symmetry_multiplicity
 _atom_site_fract_x
 _atom_site_fract_y
 _atom_site_fract_z
 _atom_site_occupancy
  K  K0  1  0.91175655  0.45916085  0.09173156  1.0
  K  K1  1  0.91175655  0.54083915  0.59173156  1.0
  K  K2  1  0.71706670  0.95953994  0.14826971  1.0
  K  K3  1  0.71706670  0.04046006  0.64826971  1.0
  K  K4  1  0.52405107  0.72211206  0.82908369  1.0
  K  K5  1  0.52405107  0.27788794  0.32908369  1.0
  K  K6  1  0.36366062  0.89910573  0.29524288  1.0
  K  K7  1  0.36366062  0.10089427  0.79524288  1.0
  K  K8  1  0.26509089  0.60096567  0.44440512  1.0
  K  K9  1  0.26509089  0.39903433  0.94440512  1.0
  K  K10  1  0.10532554  0.77761346  0.91104440  1.0
  K  K11  1  0.10532554  0.22238654  0.41104440  1.0
  Ge  Ge12  1  0.00132080  0.89319851  0.50077518  1.0
  Ge  Ge13  1  0.00132080  0.10680149  0.00077518  1.0
  Ge  Ge14  1  0.62712650  0.60671438  0.23907887  1.0
  Ge  Ge15  1  0.62712650  0.39328562  0.73907887  1.0
  O  O16  1  0.82349910  0.45351027  0.30494772  1.0
  O  O17  1  0.82349910  0.54648973  0.80494772  1.0
  O  O18  1  0.80632202  0.95296896  0.93528907  1.0
  O  O19  1  0.80632202  0.04703104  0.43528907  1.0
  O  O20  1  0.81221757  0.75014651  0.37026702  1.0
  O  O21  1  0.81221757  0.24985349  0.87026702  1.0
  O  O22  1  0.55873292  0.66247296  0.07096107  1.0
  O  O23  1  0.55873292  0.33752704  0.57096107  1.0
  O  O24  1  0.36390983  0.58558606  0.24261376  1.0
  O  O25  1  0.36390983  0.41441394  0.74261376  1.0
  O  O26  1  0.26359672  0.91289013  0.49605062  1.0
  O  O27  1  0.26359672  0.08710987  0.99605062  1.0
  O  O28  1  0.07102316  0.83808178  0.66933934  1.0
  O  O29  1  0.07102316  0.16191822  0.16933934  1.0
