# generated using pymatgen
data_PbBrCl
_symmetry_space_group_name_H-M   'P 1'
_cell_length_a   7.91660459
_cell_length_b   4.64563806
_cell_length_c   9.51540289
_cell_angle_alpha   90.00000000
_cell_angle_beta   90.00000000
_cell_angle_gamma   90.00000000
_symmetry_Int_Tables_number   1
_chemical_formula_structural   PbBrCl
_chemical_formula_sum   'Pb4 Br4 Cl4'
_cell_volume   349.95443862
_cell_formula_units_Z   4
loop_
 _symmetry_equiv_pos_site_id
 _symmetry_equiv_pos_as_xyz
  1  'x, y, z'
loop_
 _atom_site_type_symbol
 _atom_site_label
 _atom_site_symmetry_multiplicity
 _atom_site_fract_x
 _atom_site_fract_y
 _atom_site_fract_z
 _atom_site_occupancy
  Pb  Pb0  1  0.75365767  0.75000000  0.41148192  1.0
  Pb  Pb1  1  0.25365767  0.75000000  0.08851808  1.0
  Pb  Pb2  1  0.24634233  0.25000000  0.58851808  1.0
  Pb  Pb3  1  0.74634233  0.25000000  0.91148192  1.0
  Br  Br4  1  0.97935114  0.75000000  0.66394237  1.0
  Br  Br5  1  0.47935114  0.75000000  0.83605763  1.0
  Br  Br6  1  0.02064886  0.25000000  0.33605763  1.0
  Br  Br7  1  0.52064886  0.25000000  0.16394237  1.0
  Cl  Cl8  1  0.85926401  0.75000000  0.07314586  1.0
  Cl  Cl9  1  0.35926401  0.75000000  0.42685414  1.0
  Cl  Cl10  1  0.14073599  0.25000000  0.92685414  1.0
  Cl  Cl11  1  0.64073599  0.25000000  0.57314586  1.0
