# generated using pymatgen
data_BaVF5
_symmetry_space_group_name_H-M   'P 1'
_cell_length_a   5.31812431
_cell_length_b   5.71806906
_cell_length_c   14.26935067
_cell_angle_alpha   90.00000000
_cell_angle_beta   90.00000000
_cell_angle_gamma   90.00000000
_symmetry_Int_Tables_number   1
_chemical_formula_structural   BaVF5
_chemical_formula_sum   'Ba4 V4 F20'
_cell_volume   433.92242128
_cell_formula_units_Z   4
loop_
 _symmetry_equiv_pos_site_id
 _symmetry_equiv_pos_as_xyz
  1  'x, y, z'
loop_
 _atom_site_type_symbol
 _atom_site_label
 _atom_site_symmetry_multiplicity
 _atom_site_fract_x
 _atom_site_fract_y
 _atom_site_fract_z
 _atom_site_occupancy
  Ba  Ba0  1  0.73219883  0.65644362  0.65497518  1.0
  Ba  Ba1  1  0.23219883  0.84355638  0.34502482  1.0
  Ba  Ba2  1  0.26780117  0.15644362  0.84502482  1.0
  Ba  Ba3  1  0.76780117  0.34355638  0.15497518  1.0
  V  V4  1  0.20061235  0.84901207  0.08823089  1.0
  V  V5  1  0.70061235  0.65098793  0.91176911  1.0
  V  V6  1  0.79938765  0.34901207  0.41176911  1.0
  V  V7  1  0.29938765  0.15098793  0.58823089  1.0
  F  F8  1  0.46845001  0.84054661  0.98809868  1.0
  F  F9  1  0.96845001  0.65945339  0.01190132  1.0
  F  F10  1  0.53154999  0.34054661  0.51190132  1.0
  F  F11  1  0.03154999  0.15945339  0.48809868  1.0
  F  F12  1  0.43355099  0.87713920  0.52765711  1.0
  F  F13  1  0.93355099  0.62286080  0.47234289  1.0
  F  F14  1  0.56644901  0.37713920  0.97234289  1.0
  F  F15  1  0.06644901  0.12286080  0.02765711  1.0
  F  F16  1  0.43703676  0.64130831  0.81493627  1.0
  F  F17  1  0.93703676  0.85869169  0.18506373  1.0
  F  F18  1  0.56296324  0.14130831  0.68506373  1.0
  F  F19  1  0.06296324  0.35869169  0.31493627  1.0
  F  F20  1  0.17677025  0.42673219  0.64917825  1.0
  F  F21  1  0.67677025  0.07326781  0.35082175  1.0
  F  F22  1  0.82322975  0.92673219  0.85082175  1.0
  F  F23  1  0.32322975  0.57326781  0.14917825  1.0
  F  F24  1  0.10313078  0.96170237  0.67034494  1.0
  F  F25  1  0.60313078  0.53829763  0.32965506  1.0
  F  F26  1  0.89686922  0.46170237  0.82965506  1.0
  F  F27  1  0.39686922  0.03829763  0.17034494  1.0
