# generated using pymatgen
data_H13Se2N3O8
_symmetry_space_group_name_H-M   'P 1'
_cell_length_a   6.23977153
_cell_length_b   6.23977153
_cell_length_c   16.00772975
_cell_angle_alpha   79.70285503
_cell_angle_beta   100.29714497
_cell_angle_gamma   121.41604575
_symmetry_Int_Tables_number   1
_chemical_formula_structural   H13Se2N3O8
_chemical_formula_sum   'H26 Se4 N6 O16'
_cell_volume   520.59866761
_cell_formula_units_Z   2
loop_
 _symmetry_equiv_pos_site_id
 _symmetry_equiv_pos_as_xyz
  1  'x, y, z'
loop_
 _atom_site_type_symbol
 _atom_site_label
 _atom_site_symmetry_multiplicity
 _atom_site_fract_x
 _atom_site_fract_y
 _atom_site_fract_z
 _atom_site_occupancy
  H  H0  1  1.57837214  -0.31264159  0.78120412  1.0
  H  H1  1  1.31264159  0.42162785  0.28120412  1.0
  H  H2  1  1.42162785  0.31264159  0.21879588  1.0
  H  H3  1  0.68735841  0.57837214  0.71879588  1.0
  H  H4  1  0.88258148  0.76450247  0.79527759  1.0
  H  H5  1  1.23549753  0.11741852  0.29527759  1.0
  H  H6  1  1.11741852  0.23549753  0.20472241  1.0
  H  H7  1  1.76450247  -0.11741852  0.70472241  1.0
  H  H8  1  0.76301743  -0.29525972  0.05767379  1.0
  H  H9  1  1.29525972  0.23698257  0.55767379  1.0
  H  H10  1  1.23698257  -0.70474028  0.94232621  1.0
  H  H11  1  1.70474028  -0.23698257  0.44232621  1.0
  H  H12  1  0.88432198  -0.49192210  0.07694977  1.0
  H  H13  1  1.49192210  0.11567802  0.57694977  1.0
  H  H14  1  1.11567802  -0.50807790  0.92305023  1.0
  H  H15  1  1.50807790  -0.11567802  0.42305023  1.0
  H  H16  1  0.95360099  0.71886845  0.98887709  1.0
  H  H17  1  1.28113155  0.04639901  0.48887709  1.0
  H  H18  1  1.04639901  0.28113155  0.01112291  1.0
  H  H19  1  1.71886845  -0.04639901  0.51112291  1.0
  H  H20  1  1.08100463  -0.17909670  0.08568132  1.0
  H  H21  1  1.17909670  -0.08100463  0.58568132  1.0
  H  H22  1  0.91899537  -0.82090330  0.91431868  1.0
  H  H23  1  1.82090330  0.08100463  0.41431868  1.0
  H  H24  1  0.24939869  0.24939869  0.75000000  1.0
  H  H25  1  0.75060131  -0.24939869  0.25000000  1.0
  Se  Se26  1  1.59763599  -0.03177692  0.13752409  1.0
  Se  Se27  1  1.03177692  -0.59763599  0.63752409  1.0
  Se  Se28  1  1.40236401  0.03177692  0.86247591  1.0
  Se  Se29  1  0.96822308  -0.40236401  0.36247591  1.0
  N  N30  1  0.72742850  0.72742850  0.75000000  1.0
  N  N31  1  1.27257150  0.27257150  0.25000000  1.0
  N  N32  1  0.91829316  -0.31175411  0.05198003  1.0
  N  N33  1  1.31175411  0.08170684  0.55198003  1.0
  N  N34  1  1.08170684  -0.68824589  0.94801997  1.0
  N  N35  1  1.68824589  -0.08170684  0.44801997  1.0
  O  O36  1  1.63381859  -0.13928198  0.24248364  1.0
  O  O37  1  1.13928198  -0.63381859  0.74248364  1.0
  O  O38  1  1.36618141  0.13928198  0.75751636  1.0
  O  O39  1  0.86071802  -0.36618141  0.25751636  1.0
  O  O40  1  1.38946310  0.06013459  0.12979521  1.0
  O  O41  1  0.93986541  0.61053690  0.62979521  1.0
  O  O42  1  1.61053690  -0.06013459  0.87020479  1.0
  O  O43  1  1.06013459  0.38946310  0.37020479  1.0
  O  O44  1  0.88377612  -0.78754943  0.11527536  1.0
  O  O45  1  1.78754943  0.11622388  0.61527536  1.0
  O  O46  1  1.11622388  -0.21245057  0.88472464  1.0
  O  O47  1  1.21245057  -0.11622388  0.38472464  1.0
  O  O48  1  0.50612407  -0.26330688  0.07854730  1.0
  O  O49  1  1.26330688  -0.50612407  0.57854730  1.0
  O  O50  1  0.49387593  0.26330688  0.92145270  1.0
  O  O51  1  0.73669312  -0.49387593  0.42145270  1.0
