# generated using pymatgen
data_NaTi2(SO4)3
_symmetry_space_group_name_H-M   'P 1'
_cell_length_a   9.00875716
_cell_length_b   9.00875716
_cell_length_c   9.00875716
_cell_angle_alpha   58.44715861
_cell_angle_beta   58.44715861
_cell_angle_gamma   58.44715861
_symmetry_Int_Tables_number   1
_chemical_formula_structural   NaTi2(SO4)3
_chemical_formula_sum   'Na2 Ti4 S6 O24'
_cell_volume   498.61687600
_cell_formula_units_Z   2
loop_
 _symmetry_equiv_pos_site_id
 _symmetry_equiv_pos_as_xyz
  1  'x, y, z'
loop_
 _atom_site_type_symbol
 _atom_site_label
 _atom_site_symmetry_multiplicity
 _atom_site_fract_x
 _atom_site_fract_y
 _atom_site_fract_z
 _atom_site_occupancy
  Na  Na0  1  0.00000000  0.00000000  0.00000000  1.0
  Na  Na1  1  0.50000000  0.50000000  -0.50000000  1.0
  Ti  Ti2  1  0.35285496  0.35285496  -0.64714504  1.0
  Ti  Ti3  1  0.64714504  0.64714504  -0.35285496  1.0
  Ti  Ti4  1  0.14713600  0.14713600  0.14713600  1.0
  Ti  Ti5  1  0.85286400  -0.14713600  -0.14713600  1.0
  S  S6  1  0.54496582  0.24997123  -0.04500177  1.0
  S  S7  1  1.04500177  -0.54496582  -0.24997123  1.0
  S  S8  1  0.75002877  0.04500177  -0.54496582  1.0
  S  S9  1  0.45503418  -0.24997123  0.04500177  1.0
  S  S10  1  0.95499823  -0.45503418  0.24997123  1.0
  S  S11  1  1.24997123  -0.04500177  -0.45503418  1.0
  O  O12  1  0.51280454  0.29192652  0.11068597  1.0
  O  O13  1  0.88931403  -0.51280454  -0.29192652  1.0
  O  O14  1  0.70807348  -0.11068597  -0.51280454  1.0
  O  O15  1  0.48719546  -0.29192652  -0.11068597  1.0
  O  O16  1  1.11068597  -0.48719546  0.29192652  1.0
  O  O17  1  1.29192652  0.11068597  -0.48719546  1.0
  O  O18  1  0.27819385  0.91201649  -0.93400238  1.0
  O  O19  1  0.93400238  -0.27819385  0.08798351  1.0
  O  O20  1  1.08798351  -0.06599762  -0.27819385  1.0
  O  O21  1  0.72180615  0.08798351  -0.06599762  1.0
  O  O22  1  0.06599762  0.27819385  -0.08798351  1.0
  O  O23  1  0.91201649  0.06599762  -0.72180615  1.0
  O  O24  1  0.20790224  0.98694289  -0.61056327  1.0
  O  O25  1  0.61056327  -0.20790224  0.01305711  1.0
  O  O26  1  1.01305711  -0.38943673  -0.20790224  1.0
  O  O27  1  0.79209776  0.01305711  -0.38943673  1.0
  O  O28  1  0.38943673  0.20790224  -0.01305711  1.0
  O  O29  1  0.98694289  0.38943673  -0.79209776  1.0
  O  O30  1  0.58791536  0.22172674  -0.56589032  1.0
  O  O31  1  0.56589032  0.41208464  -0.22172674  1.0
  O  O32  1  0.77827326  0.56589032  -0.58791536  1.0
  O  O33  1  0.41208464  0.77827326  -0.43410968  1.0
  O  O34  1  0.43410968  0.58791536  -0.77827326  1.0
  O  O35  1  0.22172674  0.43410968  -0.41208464  1.0
