# generated using pymatgen
data_CuAs4(H5O8)2
_symmetry_space_group_name_H-M   'P 1'
_cell_length_a   7.80729302
_cell_length_b   5.47780651
_cell_length_c   8.73595468
_cell_angle_alpha   98.05831594
_cell_angle_beta   108.51823627
_cell_angle_gamma   93.22184255
_symmetry_Int_Tables_number   1
_chemical_formula_structural   CuAs4(H5O8)2
_chemical_formula_sum   'Cu1 As4 H10 O16'
_cell_volume   348.74215736
_cell_formula_units_Z   1
loop_
 _symmetry_equiv_pos_site_id
 _symmetry_equiv_pos_as_xyz
  1  'x, y, z'
loop_
 _atom_site_type_symbol
 _atom_site_label
 _atom_site_symmetry_multiplicity
 _atom_site_fract_x
 _atom_site_fract_y
 _atom_site_fract_z
 _atom_site_occupancy
  Cu  Cu0  1  0.00000000  -0.50000000  0.00000000  1.0
  As  As1  1  -0.80844700  -0.92287396  -0.80173896  1.0
  As  As2  1  -0.19155300  -0.07712604  -0.19826104  1.0
  As  As3  1  -0.27577795  -0.53449619  -0.69819522  1.0
  As  As4  1  -0.72422205  -0.46550381  -0.30180478  1.0
  H  H5  1  -0.45952220  -0.92383969  -0.32812369  1.0
  H  H6  1  -0.54047780  -0.07616031  -0.67187631  1.0
  H  H7  1  -0.97193737  -0.90961729  -0.29348758  1.0
  H  H8  1  -0.02806263  -0.09038271  -0.70651242  1.0
  H  H9  1  -0.27790498  -0.81523396  -0.91958500  1.0
  H  H10  1  -0.72209502  -0.18476604  -0.08041500  1.0
  H  H11  1  -0.58323123  -0.48471479  -0.78490695  1.0
  H  H12  1  -0.41676877  -0.51528521  -0.21509305  1.0
  H  H13  1  -0.89138149  -0.39525434  -0.56174832  1.0
  H  H14  1  -0.10861851  -0.60474566  -0.43825168  1.0
  O  O15  1  -0.59530891  -0.92025188  -0.65133688  1.0
  O  O16  1  -0.40469109  -0.07974812  -0.34866312  1.0
  O  O17  1  -0.96903656  -0.91653325  -0.69882852  1.0
  O  O18  1  -0.03096344  -0.08346675  -0.30117148  1.0
  O  O19  1  -0.35514545  -0.80405991  -0.84630719  1.0
  O  O20  1  -0.64485455  -0.19594009  -0.15369281  1.0
  O  O21  1  -0.79013301  -0.64098268  -0.86615528  1.0
  O  O22  1  -0.20986699  -0.35901732  -0.13384472  1.0
  O  O23  1  -0.91066733  -0.62705915  -0.28984219  1.0
  O  O24  1  -0.08933267  -0.37294085  -0.71015781  1.0
  O  O25  1  -0.75812940  -0.38624936  -0.49613206  1.0
  O  O26  1  -0.24187060  -0.61375064  -0.50386794  1.0
  O  O27  1  -0.46749307  -0.36649985  -0.73532760  1.0
  O  O28  1  -0.53250693  -0.63350015  -0.26467240  1.0
  O  O29  1  -0.84758265  -0.17835921  -0.95474569  1.0
  O  O30  1  -0.15241735  -0.82164079  -0.04525431  1.0
