# generated using pymatgen
data_Tl5SbO5
_symmetry_space_group_name_H-M   'P 1'
_cell_length_a   8.26257463
_cell_length_b   8.26257463
_cell_length_c   14.27978952
_cell_angle_alpha   90.00000000
_cell_angle_beta   90.00000000
_cell_angle_gamma   95.64504090
_symmetry_Int_Tables_number   1
_chemical_formula_structural   Tl5SbO5
_chemical_formula_sum   'Tl20 Sb4 O20'
_cell_volume   970.15541016
_cell_formula_units_Z   4
loop_
 _symmetry_equiv_pos_site_id
 _symmetry_equiv_pos_as_xyz
  1  'x, y, z'
loop_
 _atom_site_type_symbol
 _atom_site_label
 _atom_site_symmetry_multiplicity
 _atom_site_fract_x
 _atom_site_fract_y
 _atom_site_fract_z
 _atom_site_occupancy
  Tl  Tl0  1  -0.12981533  1.80399605  0.10579673  1.0
  Tl  Tl1  1  0.80399605  0.87018467  0.60579673  1.0
  Tl  Tl2  1  -0.80399605  1.12981533  0.10579673  1.0
  Tl  Tl3  1  0.12981533  0.19600395  0.60579673  1.0
  Tl  Tl4  1  0.29780010  0.38447210  0.36274543  1.0
  Tl  Tl5  1  -0.61552790  1.29780010  0.86274543  1.0
  Tl  Tl6  1  0.61552790  0.70219990  0.36274543  1.0
  Tl  Tl7  1  -0.29780010  1.61552790  0.86274543  1.0
  Tl  Tl8  1  0.14881552  0.52668045  0.00724771  1.0
  Tl  Tl9  1  -0.47331955  1.14881552  0.50724771  1.0
  Tl  Tl10  1  0.47331955  0.85118448  0.00724771  1.0
  Tl  Tl11  1  -0.14881552  1.47331955  0.50724771  1.0
  Tl  Tl12  1  -0.10377746  1.42916562  0.25159898  1.0
  Tl  Tl13  1  0.42916562  0.89622254  0.75159898  1.0
  Tl  Tl14  1  -0.42916562  1.10377746  0.25159898  1.0
  Tl  Tl15  1  0.10377746  0.57083438  0.75159898  1.0
  Tl  Tl16  1  0.03392892  0.96607108  0.35248828  1.0
  Tl  Tl17  1  -0.03392892  1.03392892  0.85248828  1.0
  Tl  Tl18  1  0.24344829  0.75655171  0.51739944  1.0
  Tl  Tl19  1  -0.24344829  1.24344829  0.01739944  1.0
  Sb  Sb20  1  0.25917896  0.74082104  0.21718472  1.0
  Sb  Sb21  1  -0.25917896  1.25917896  0.71718472  1.0
  Sb  Sb22  1  -0.48990754  1.48990754  0.13851564  1.0
  Sb  Sb23  1  0.48990754  0.51009246  0.63851564  1.0
  O  O24  1  0.26153388  0.49677631  0.17635435  1.0
  O  O25  1  -0.50322369  1.26153388  0.67635435  1.0
  O  O26  1  0.50322369  0.73846612  0.17635435  1.0
  O  O27  1  -0.26153388  1.50322369  0.67635435  1.0
  O  O28  1  0.01916251  0.71990003  0.24821726  1.0
  O  O29  1  -0.28009997  1.01916251  0.74821726  1.0
  O  O30  1  0.28009997  0.98083749  0.24821726  1.0
  O  O31  1  -0.01916251  1.28009997  0.74821726  1.0
  O  O32  1  -0.24984452  1.51429434  0.10784519  1.0
  O  O33  1  0.51429434  0.75015548  0.60784519  1.0
  O  O34  1  -0.51429434  1.24984452  0.10784519  1.0
  O  O35  1  0.24984452  0.48570566  0.60784519  1.0
  O  O36  1  0.20252662  0.79747338  0.08324554  1.0
  O  O37  1  -0.20252662  1.20252662  0.58324554  1.0
  O  O38  1  0.31750642  0.68249358  0.34922884  1.0
  O  O39  1  -0.31750642  1.31750642  0.84922884  1.0
  O  O40  1  0.45201085  0.54798915  0.00662674  1.0
  O  O41  1  -0.45201085  1.45201085  0.50662674  1.0
  O  O42  1  -0.43733977  1.43733977  0.27229948  1.0
  O  O43  1  0.43733977  0.56266023  0.77229948  1.0
