# generated using pymatgen
data_LiH4(NO2)3
_symmetry_space_group_name_H-M   'P 1'
_cell_length_a   7.39025957
_cell_length_b   7.39025957
_cell_length_c   6.58445449
_cell_angle_alpha   70.41711186
_cell_angle_beta   109.58288814
_cell_angle_gamma   117.33929011
_symmetry_Int_Tables_number   1
_chemical_formula_structural   LiH4(NO2)3
_chemical_formula_sum   'Li2 H8 N6 O12'
_cell_volume   293.82831880
_cell_formula_units_Z   2
loop_
 _symmetry_equiv_pos_site_id
 _symmetry_equiv_pos_as_xyz
  1  'x, y, z'
loop_
 _atom_site_type_symbol
 _atom_site_label
 _atom_site_symmetry_multiplicity
 _atom_site_fract_x
 _atom_site_fract_y
 _atom_site_fract_z
 _atom_site_occupancy
  Li  Li0  1  0.93436459  -0.06563541  0.75000000  1.0
  Li  Li1  1  1.06563541  0.06563541  0.25000000  1.0
  H  H2  1  0.22858432  -0.13509578  0.69477819  1.0
  H  H3  1  1.13509578  0.77141568  0.19477819  1.0
  H  H4  1  0.86490422  -0.77141568  0.80522181  1.0
  H  H5  1  1.77141568  0.13509578  0.30522181  1.0
  H  H6  1  1.32693198  0.09612701  0.71303025  1.0
  H  H7  1  0.90387299  -0.32693198  0.21303025  1.0
  H  H8  1  1.09612701  0.32693198  0.78696975  1.0
  H  H9  1  0.67306802  -0.09612701  0.28696975  1.0
  N  N10  1  0.46474253  -0.34540017  0.74068571  1.0
  N  N11  1  1.34540017  0.53525747  0.24068571  1.0
  N  N12  1  0.65459983  -0.53525747  0.75931429  1.0
  N  N13  1  1.53525747  0.34540017  0.25931429  1.0
  N  N14  1  1.46695305  0.46695305  0.75000000  1.0
  N  N15  1  0.53304695  -0.46695305  0.25000000  1.0
  O  O16  1  0.61435415  -0.17582420  0.74113118  1.0
  O  O17  1  1.17582420  0.38564585  0.24113118  1.0
  O  O18  1  0.82417580  -0.38564585  0.75886882  1.0
  O  O19  1  1.38564585  0.17582420  0.25886882  1.0
  O  O20  1  1.63243226  0.28353817  0.76709761  1.0
  O  O21  1  0.71646182  -0.63243226  0.26709761  1.0
  O  O22  1  1.28353817  0.63243226  0.73290239  1.0
  O  O23  1  0.36756774  -0.28353818  0.23290239  1.0
  O  O24  1  0.19281715  -0.01532863  0.66970957  1.0
  O  O25  1  1.01532863  0.80718285  0.16970957  1.0
  O  O26  1  0.98467137  -0.80718285  0.83029043  1.0
  O  O27  1  1.80718285  0.01532863  0.33029043  1.0
