# generated using pymatgen
data_Cs2Mn3S4
_symmetry_space_group_name_H-M   'P 1'
_cell_length_a   9.68990435
_cell_length_b   9.68990435
_cell_length_c   9.68990435
_cell_angle_alpha   143.15268153
_cell_angle_beta   106.03868475
_cell_angle_gamma   85.61128192
_symmetry_Int_Tables_number   1
_chemical_formula_structural   Cs2Mn3S4
_chemical_formula_sum   'Cs4 Mn6 S8'
_cell_volume   507.60588722
_cell_formula_units_Z   2
loop_
 _symmetry_equiv_pos_site_id
 _symmetry_equiv_pos_as_xyz
  1  'x, y, z'
loop_
 _atom_site_type_symbol
 _atom_site_label
 _atom_site_symmetry_multiplicity
 _atom_site_fract_x
 _atom_site_fract_y
 _atom_site_fract_z
 _atom_site_occupancy
  Cs  Cs0  1  1.37970146  1.23792001  1.61762146  1.0
  Cs  Cs1  1  1.12029854  0.73792001  0.85821855  1.0
  Cs  Cs2  1  0.87970146  1.26207999  1.14178145  1.0
  Cs  Cs3  1  0.62029854  0.76207999  0.38237854  1.0
  Mn  Mn4  1  0.97479811  0.25000000  0.72479811  1.0
  Mn  Mn5  1  1.47479811  0.75000000  0.72479811  1.0
  Mn  Mn6  1  1.02520189  0.75000000  0.27520189  1.0
  Mn  Mn7  1  0.52520189  0.25000000  0.27520189  1.0
  Mn  Mn8  1  1.25000000  1.25000000  1.00000000  1.0
  Mn  Mn9  1  0.75000000  0.75000000  1.00000000  1.0
  S  S10  1  1.02114910  0.93997840  0.64845390  1.0
  S  S11  1  0.70847550  0.62730480  0.64845390  1.0
  S  S12  1  0.79152450  0.43997840  0.91882930  1.0
  S  S13  1  1.47885090  1.12730480  0.91882930  1.0
  S  S14  1  0.52114910  0.87269520  1.08117070  1.0
  S  S15  1  1.20847550  1.56002160  1.08117070  1.0
  S  S16  1  1.29152450  1.37269520  1.35154610  1.0
  S  S17  1  0.97885090  1.06002160  1.35154610  1.0
