# generated using pymatgen
data_CsBF4
_symmetry_space_group_name_H-M   'P 1'
_cell_length_a   9.84729207
_cell_length_b   5.97107985
_cell_length_c   7.82499163
_cell_angle_alpha   90.00000000
_cell_angle_beta   90.00000000
_cell_angle_gamma   90.00000000
_symmetry_Int_Tables_number   1
_chemical_formula_structural   CsBF4
_chemical_formula_sum   'Cs4 B4 F16'
_cell_volume   460.10142670
_cell_formula_units_Z   4
loop_
 _symmetry_equiv_pos_site_id
 _symmetry_equiv_pos_as_xyz
  1  'x, y, z'
loop_
 _atom_site_type_symbol
 _atom_site_label
 _atom_site_symmetry_multiplicity
 _atom_site_fract_x
 _atom_site_fract_y
 _atom_site_fract_z
 _atom_site_occupancy
  Cs  Cs0  1  0.30917223  0.75000000  0.16103926  1.0
  Cs  Cs1  1  0.80917223  0.75000000  0.33896074  1.0
  Cs  Cs2  1  0.69082777  0.25000000  0.83896074  1.0
  Cs  Cs3  1  0.19082777  0.25000000  0.66103926  1.0
  B  B4  1  0.44730389  0.75000000  0.69793593  1.0
  B  B5  1  0.94730389  0.75000000  0.80206407  1.0
  B  B6  1  0.55269611  0.25000000  0.30206407  1.0
  B  B7  1  0.05269611  0.25000000  0.19793593  1.0
  F  F8  1  0.42730888  0.94380333  0.80164916  1.0
  F  F9  1  0.42730888  0.55619667  0.80164916  1.0
  F  F10  1  0.92730888  0.94380333  0.69835084  1.0
  F  F11  1  0.92730888  0.55619667  0.69835084  1.0
  F  F12  1  0.57269112  0.44380333  0.19835084  1.0
  F  F13  1  0.57269112  0.05619667  0.19835084  1.0
  F  F14  1  0.07269112  0.44380333  0.30164916  1.0
  F  F15  1  0.07269112  0.05619667  0.30164916  1.0
  F  F16  1  0.35096082  0.75000000  0.56394978  1.0
  F  F17  1  0.85096082  0.75000000  0.93605022  1.0
  F  F18  1  0.64903918  0.25000000  0.43605022  1.0
  F  F19  1  0.14903918  0.25000000  0.06394978  1.0
  F  F20  1  0.08087148  0.75000000  0.86671649  1.0
  F  F21  1  0.58087148  0.75000000  0.63328351  1.0
  F  F22  1  0.91912852  0.25000000  0.13328351  1.0
  F  F23  1  0.41912852  0.25000000  0.36671649  1.0
