# generated using pymatgen
data_KPO3
_symmetry_space_group_name_H-M   'P 1'
_cell_length_a   4.50570645
_cell_length_b   5.92335314
_cell_length_c   12.76538482
_cell_angle_alpha   90.00000000
_cell_angle_beta   90.00000000
_cell_angle_gamma   90.00000000
_symmetry_Int_Tables_number   1
_chemical_formula_structural   KPO3
_chemical_formula_sum   'K4 P4 O12'
_cell_volume   340.69395675
_cell_formula_units_Z   4
loop_
 _symmetry_equiv_pos_site_id
 _symmetry_equiv_pos_as_xyz
  1  'x, y, z'
loop_
 _atom_site_type_symbol
 _atom_site_label
 _atom_site_symmetry_multiplicity
 _atom_site_fract_x
 _atom_site_fract_y
 _atom_site_fract_z
 _atom_site_occupancy
  K  K0  1  0.27330396  0.75000000  0.08964909  1.0
  K  K1  1  0.77330396  0.75000000  0.41035091  1.0
  K  K2  1  0.72669604  0.25000000  0.91035091  1.0
  K  K3  1  0.22669604  0.25000000  0.58964909  1.0
  P  P4  1  0.17897635  0.75000000  0.82682906  1.0
  P  P5  1  0.67897635  0.75000000  0.67317094  1.0
  P  P6  1  0.82102365  0.25000000  0.17317094  1.0
  P  P7  1  0.32102365  0.25000000  0.32682906  1.0
  O  O8  1  0.23621033  0.96906707  0.88315446  1.0
  O  O9  1  0.23621033  0.53093293  0.88315446  1.0
  O  O10  1  0.73621033  0.96906707  0.61684554  1.0
  O  O11  1  0.73621033  0.53093293  0.61684554  1.0
  O  O12  1  0.76378967  0.46906707  0.11684554  1.0
  O  O13  1  0.76378967  0.03093293  0.11684554  1.0
  O  O14  1  0.26378967  0.46906707  0.38315446  1.0
  O  O15  1  0.26378967  0.03093293  0.38315446  1.0
  O  O16  1  0.33120341  0.75000000  0.71059522  1.0
  O  O17  1  0.83120341  0.75000000  0.78940478  1.0
  O  O18  1  0.66879659  0.25000000  0.28940478  1.0
  O  O19  1  0.16879659  0.25000000  0.21059522  1.0
