# generated using pymatgen
data_Sr2PI
_symmetry_space_group_name_H-M   'P 1'
_cell_length_a   8.33553296
_cell_length_b   8.33553296
_cell_length_c   8.33553296
_cell_angle_alpha   31.47352025
_cell_angle_beta   31.47352025
_cell_angle_gamma   31.47352025
_symmetry_Int_Tables_number   1
_chemical_formula_structural   Sr2PI
_chemical_formula_sum   'Sr2 P1 I1'
_cell_volume   140.15614481
_cell_formula_units_Z   1
loop_
 _symmetry_equiv_pos_site_id
 _symmetry_equiv_pos_as_xyz
  1  'x, y, z'
loop_
 _atom_site_type_symbol
 _atom_site_label
 _atom_site_symmetry_multiplicity
 _atom_site_fract_x
 _atom_site_fract_y
 _atom_site_fract_z
 _atom_site_occupancy
  Sr  Sr0  1  0.76871997  0.76871997  0.76871997  1.0
  Sr  Sr1  1  1.23128003  1.23128003  0.23128003  1.0
  P  P2  1  1.50000000  0.50000000  0.50000000  1.0
  I  I3  1  0.00000000  0.00000000  0.00000000  1.0
