# generated using pymatgen
data_As3Pb5ClO12
_symmetry_space_group_name_H-M   'P 1'
_cell_length_a   10.58985156
_cell_length_b   10.58985156
_cell_length_c   7.44346975
_cell_angle_alpha   90.00000000
_cell_angle_beta   90.00000000
_cell_angle_gamma   120.00000000
_symmetry_Int_Tables_number   1
_chemical_formula_structural   As3Pb5ClO12
_chemical_formula_sum   'As6 Pb10 Cl2 O24'
_cell_volume   722.91261719
_cell_formula_units_Z   2
loop_
 _symmetry_equiv_pos_site_id
 _symmetry_equiv_pos_as_xyz
  1  'x, y, z'
loop_
 _atom_site_type_symbol
 _atom_site_label
 _atom_site_symmetry_multiplicity
 _atom_site_fract_x
 _atom_site_fract_y
 _atom_site_fract_z
 _atom_site_occupancy
  As  As0  1  0.38341618  0.97169833  0.25000000  1.0
  As  As1  1  0.97169833  0.58828215  0.75000000  1.0
  As  As2  1  0.58828215  0.61658382  0.25000000  1.0
  As  As3  1  0.02830167  0.41171785  0.25000000  1.0
  As  As4  1  0.61658382  0.02830167  0.75000000  1.0
  As  As5  1  0.41171785  0.38341618  0.75000000  1.0
  Pb  Pb6  1  0.02567301  0.76513825  0.25000000  1.0
  Pb  Pb7  1  0.76513825  0.73946524  0.75000000  1.0
  Pb  Pb8  1  0.73946524  0.97432699  0.25000000  1.0
  Pb  Pb9  1  0.23486175  0.26053476  0.25000000  1.0
  Pb  Pb10  1  0.97432699  0.23486175  0.75000000  1.0
  Pb  Pb11  1  0.26053476  0.02567301  0.75000000  1.0
  Pb  Pb12  1  0.33333333  0.66666667  0.50559207  1.0
  Pb  Pb13  1  0.33333333  0.66666667  0.99440793  1.0
  Pb  Pb14  1  0.66666667  0.33333333  0.00559207  1.0
  Pb  Pb15  1  0.66666667  0.33333333  0.49440793  1.0
  Cl  Cl16  1  0.00000000  0.00000000  0.50000000  1.0
  Cl  Cl17  1  -0.00000000  -0.00000000  0.00000000  1.0
  O  O18  1  0.26696390  0.90834707  0.43512207  1.0
  O  O19  1  0.26696390  0.90834707  0.06487793  1.0
  O  O20  1  0.90834707  0.64138317  0.93512207  1.0
  O  O21  1  0.90834707  0.64138317  0.56487793  1.0
  O  O22  1  0.64138317  0.73303610  0.43512207  1.0
  O  O23  1  0.64138317  0.73303610  0.06487793  1.0
  O  O24  1  0.09165293  0.35861683  0.43512207  1.0
  O  O25  1  0.09165293  0.35861683  0.06487793  1.0
  O  O26  1  0.73303610  0.09165293  0.93512207  1.0
  O  O27  1  0.73303610  0.09165293  0.56487793  1.0
  O  O28  1  0.35861683  0.26696390  0.93512207  1.0
  O  O29  1  0.35861683  0.26696390  0.56487793  1.0
  O  O30  1  0.47843778  0.87467494  0.25000000  1.0
  O  O31  1  0.87467494  0.39623715  0.75000000  1.0
  O  O32  1  0.39623715  0.52156222  0.25000000  1.0
  O  O33  1  0.12532506  0.60376285  0.25000000  1.0
  O  O34  1  0.52156222  0.12532506  0.75000000  1.0
  O  O35  1  0.60376285  0.47843778  0.75000000  1.0
  O  O36  1  0.65700465  0.49895867  0.25000000  1.0
  O  O37  1  0.49895867  0.84195402  0.75000000  1.0
  O  O38  1  0.84195402  0.34299535  0.25000000  1.0
  O  O39  1  0.50104133  0.15804598  0.25000000  1.0
  O  O40  1  0.34299535  0.50104133  0.75000000  1.0
  O  O41  1  0.15804598  0.65700465  0.75000000  1.0
