# generated using pymatgen
data_P4Se3I2
_symmetry_space_group_name_H-M   'P 1'
_cell_length_a   10.34346588
_cell_length_b   16.32419290
_cell_length_c   8.06432241
_cell_angle_alpha   90.00000000
_cell_angle_beta   90.00000000
_cell_angle_gamma   90.00000000
_symmetry_Int_Tables_number   1
_chemical_formula_structural   P4Se3I2
_chemical_formula_sum   'P16 Se12 I8'
_cell_volume   1361.65061644
_cell_formula_units_Z   4
loop_
 _symmetry_equiv_pos_site_id
 _symmetry_equiv_pos_as_xyz
  1  'x, y, z'
loop_
 _atom_site_type_symbol
 _atom_site_label
 _atom_site_symmetry_multiplicity
 _atom_site_fract_x
 _atom_site_fract_y
 _atom_site_fract_z
 _atom_site_occupancy
  P  P0  1  0.44975857  0.85135207  0.55241741  1.0
  P  P1  1  0.44975857  0.64864793  0.55241741  1.0
  P  P2  1  0.94975857  0.85135207  0.94758259  1.0
  P  P3  1  0.94975857  0.64864793  0.94758259  1.0
  P  P4  1  0.55024143  0.35135207  0.44758259  1.0
  P  P5  1  0.55024143  0.14864793  0.44758259  1.0
  P  P6  1  0.05024143  0.35135207  0.05241741  1.0
  P  P7  1  0.05024143  0.14864793  0.05241741  1.0
  P  P8  1  0.33485174  0.75000000  0.66530466  1.0
  P  P9  1  0.83485174  0.75000000  0.83469534  1.0
  P  P10  1  0.66514826  0.25000000  0.33469534  1.0
  P  P11  1  0.16514826  0.25000000  0.16530466  1.0
  P  P12  1  0.23173689  0.75000000  0.26901310  1.0
  P  P13  1  0.73173689  0.75000000  0.23098690  1.0
  P  P14  1  0.76826311  0.25000000  0.73098690  1.0
  P  P15  1  0.26826311  0.25000000  0.76901310  1.0
  Se  Se16  1  0.37127033  0.85876567  0.28447727  1.0
  Se  Se17  1  0.37127033  0.64123433  0.28447727  1.0
  Se  Se18  1  0.87127033  0.85876567  0.21552273  1.0
  Se  Se19  1  0.87127033  0.64123433  0.21552273  1.0
  Se  Se20  1  0.62872967  0.35876567  0.71552273  1.0
  Se  Se21  1  0.62872967  0.14123433  0.71552273  1.0
  Se  Se22  1  0.12872967  0.35876567  0.78447727  1.0
  Se  Se23  1  0.12872967  0.14123433  0.78447727  1.0
  Se  Se24  1  0.14388356  0.75000000  0.52595134  1.0
  Se  Se25  1  0.64388356  0.75000000  0.97404866  1.0
  Se  Se26  1  0.85611644  0.25000000  0.47404866  1.0
  Se  Se27  1  0.35611644  0.25000000  0.02595134  1.0
  I  I28  1  0.33305417  0.96662188  0.69305670  1.0
  I  I29  1  0.33305417  0.53337812  0.69305670  1.0
  I  I30  1  0.83305417  0.96662188  0.80694330  1.0
  I  I31  1  0.83305417  0.53337812  0.80694330  1.0
  I  I32  1  0.66694583  0.46662188  0.30694330  1.0
  I  I33  1  0.66694583  0.03337812  0.30694330  1.0
  I  I34  1  0.16694583  0.46662188  0.19305670  1.0
  I  I35  1  0.16694583  0.03337812  0.19305670  1.0
