# generated using pymatgen
data_Zr6Fe23
_symmetry_space_group_name_H-M   'P 1'
_cell_length_a   8.23413846
_cell_length_b   8.23413846
_cell_length_c   8.23413846
_cell_angle_alpha   60.00000000
_cell_angle_beta   60.00000000
_cell_angle_gamma   60.00000000
_symmetry_Int_Tables_number   1
_chemical_formula_structural   Zr6Fe23
_chemical_formula_sum   'Zr6 Fe23'
_cell_volume   394.76577976
_cell_formula_units_Z   1
loop_
 _symmetry_equiv_pos_site_id
 _symmetry_equiv_pos_as_xyz
  1  'x, y, z'
loop_
 _atom_site_type_symbol
 _atom_site_label
 _atom_site_symmetry_multiplicity
 _atom_site_fract_x
 _atom_site_fract_y
 _atom_site_fract_z
 _atom_site_occupancy
  Zr  Zr0  1  -0.70577382  0.70577382  0.70577382  1.0
  Zr  Zr1  1  -0.29422618  0.29422618  0.70577382  1.0
  Zr  Zr2  1  0.70577382  0.70577382  -0.70577382  1.0
  Zr  Zr3  1  0.29422618  1.29422618  -0.29422618  1.0
  Zr  Zr4  1  0.29422618  -0.29422618  1.29422618  1.0
  Zr  Zr5  1  -0.29422618  0.29422618  0.29422618  1.0
  Fe  Fe6  1  1.50000000  0.00000000  -0.00000000  1.0
  Fe  Fe7  1  1.00000000  0.50000000  -0.50000000  1.0
  Fe  Fe8  1  0.00000000  1.50000000  -0.00000000  1.0
  Fe  Fe9  1  0.50000000  1.00000000  -0.50000000  1.0
  Fe  Fe10  1  0.00000000  0.00000000  0.50000000  1.0
  Fe  Fe11  1  0.50000000  -0.50000000  1.00000000  1.0
  Fe  Fe12  1  0.67249112  0.67249112  -0.32750888  1.0
  Fe  Fe13  1  1.32750888  0.32750888  0.01747336  1.0
  Fe  Fe14  1  1.32750888  0.01747336  0.32750888  1.0
  Fe  Fe15  1  0.98252664  0.67249112  -0.32750888  1.0
  Fe  Fe16  1  1.01747336  0.32750888  0.32750888  1.0
  Fe  Fe17  1  0.67249112  0.98252664  -0.32750888  1.0
  Fe  Fe18  1  0.67249112  0.67249112  -0.01747336  1.0
  Fe  Fe19  1  1.32750888  0.32750888  0.32750888  1.0
  Fe  Fe20  1  0.87813810  0.87813810  -0.12186190  1.0
  Fe  Fe21  1  1.12186190  0.12186190  0.63441431  1.0
  Fe  Fe22  1  1.12186190  0.63441431  0.12186190  1.0
  Fe  Fe23  1  0.36558569  0.87813810  -0.12186190  1.0
  Fe  Fe24  1  1.63441431  0.12186190  0.12186190  1.0
  Fe  Fe25  1  0.87813810  0.36558569  -0.12186190  1.0
  Fe  Fe26  1  0.87813810  0.87813810  -0.63441431  1.0
  Fe  Fe27  1  1.12186190  0.12186190  0.12186190  1.0
  Fe  Fe28  1  0.00000000  0.00000000  0.00000000  1.0
