# generated using pymatgen
data_ZrO2
_symmetry_space_group_name_H-M   'P 1'
_cell_length_a   5.32195596
_cell_length_b   5.09602676
_cell_length_c   5.12592581
_cell_angle_alpha   90.00000000
_cell_angle_beta   90.00000000
_cell_angle_gamma   90.00000000
_symmetry_Int_Tables_number   1
_chemical_formula_structural   ZrO2
_chemical_formula_sum   'Zr4 O8'
_cell_volume   139.01936227
_cell_formula_units_Z   4
loop_
 _symmetry_equiv_pos_site_id
 _symmetry_equiv_pos_as_xyz
  1  'x, y, z'
loop_
 _atom_site_type_symbol
 _atom_site_label
 _atom_site_symmetry_multiplicity
 _atom_site_fract_x
 _atom_site_fract_y
 _atom_site_fract_z
 _atom_site_occupancy
  Zr  Zr0  1  0.46950399  0.26568367  0.85598468  1.0
  Zr  Zr1  1  0.96950399  0.73431633  0.85598468  1.0
  Zr  Zr2  1  0.53049601  0.73431633  0.35598468  1.0
  Zr  Zr3  1  0.03049601  0.26568367  0.35598468  1.0
  O  O4  1  0.36431220  0.06476884  0.50161882  1.0
  O  O5  1  0.86431220  0.93523116  0.50161882  1.0
  O  O6  1  0.63568780  0.93523116  0.00161882  1.0
  O  O7  1  0.13568780  0.06476884  0.00161882  1.0
  O  O8  1  0.22568327  0.53440819  0.60439649  1.0
  O  O9  1  0.72568327  0.46559181  0.60439649  1.0
  O  O10  1  0.77431673  0.46559181  0.10439649  1.0
  O  O11  1  0.27431673  0.53440819  0.10439649  1.0
