# generated using pymatgen
data_Te3As2O11
_symmetry_space_group_name_H-M   'P 1'
_cell_length_a   6.72728832
_cell_length_b   10.70221023
_cell_length_c   8.10542855
_cell_angle_alpha   69.44530608
_cell_angle_beta   79.80432333
_cell_angle_gamma   79.68489392
_symmetry_Int_Tables_number   1
_chemical_formula_structural   Te3As2O11
_chemical_formula_sum   'Te6 As4 O22'
_cell_volume   533.44032104
_cell_formula_units_Z   2
loop_
 _symmetry_equiv_pos_site_id
 _symmetry_equiv_pos_as_xyz
  1  'x, y, z'
loop_
 _atom_site_type_symbol
 _atom_site_label
 _atom_site_symmetry_multiplicity
 _atom_site_fract_x
 _atom_site_fract_y
 _atom_site_fract_z
 _atom_site_occupancy
  Te  Te0  1  0.80582923  -0.02150556  0.75839959  1.0
  Te  Te1  1  0.19417077  -0.97849444  1.24160041  1.0
  Te  Te2  1  0.74274224  -0.34206495  0.88942272  1.0
  Te  Te3  1  0.25725776  -0.65793505  1.11057728  1.0
  Te  Te4  1  0.30457189  -0.69786173  1.52306457  1.0
  Te  Te5  1  0.69542811  -0.30213827  0.47693543  1.0
  As  As6  1  0.81539137  -0.61106637  1.39917789  1.0
  As  As7  1  0.18460863  -0.38893363  0.60082211  1.0
  As  As8  1  0.68962015  -0.89589067  1.11435923  1.0
  As  As9  1  0.31037985  -0.10410933  0.88564077  1.0
  O  O10  1  0.98183078  -0.65375048  1.55838097  1.0
  O  O11  1  0.01816922  -0.34624952  0.44161903  1.0
  O  O12  1  0.93226277  -0.60959480  1.18829338  1.0
  O  O13  1  0.06773723  -0.39040520  0.81170662  1.0
  O  O14  1  0.86103441  -0.94692957  1.27015044  1.0
  O  O15  1  0.13896559  -0.05307043  0.72984956  1.0
  O  O16  1  0.81703727  -0.90079641  1.90745744  1.0
  O  O17  1  0.18296273  -0.09920359  0.09254256  1.0
  O  O18  1  0.80503068  -0.18482890  0.96783164  1.0
  O  O19  1  0.19496932  -0.81517110  1.03216836  1.0
  O  O20  1  0.68864039  -0.44592083  1.35876981  1.0
  O  O21  1  0.31135961  -0.55407917  0.64123019  1.0
  O  O22  1  0.64080409  -0.72659371  1.49011678  1.0
  O  O23  1  0.35919591  -0.27340629  0.50988322  1.0
  O  O24  1  0.57925770  -0.73028979  1.07683847  1.0
  O  O25  1  0.42074230  -0.26971021  0.92316153  1.0
  O  O26  1  0.48109604  -0.98393435  1.79867326  1.0
  O  O27  1  0.51890396  -0.01606565  0.20132674  1.0
  O  O28  1  0.32087782  -0.56509841  1.28353182  1.0
  O  O29  1  0.67912218  -0.43490159  0.71646818  1.0
  O  O30  1  0.24646491  -0.81097167  1.34329007  1.0
  O  O31  1  0.75353509  -0.18902833  0.65670993  1.0
