# generated using pymatgen
data_Rb2Al2B2O7
_symmetry_space_group_name_H-M   'P 1'
_cell_length_a   8.78275431
_cell_length_b   8.78275431
_cell_length_c   8.95078339
_cell_angle_alpha   90.00000000
_cell_angle_beta   90.00000000
_cell_angle_gamma   120.00000000
_symmetry_Int_Tables_number   1
_chemical_formula_structural   Rb2Al2B2O7
_chemical_formula_sum   'Rb6 Al6 B6 O21'
_cell_volume   597.93385947
_cell_formula_units_Z   3
loop_
 _symmetry_equiv_pos_site_id
 _symmetry_equiv_pos_as_xyz
  1  'x, y, z'
loop_
 _atom_site_type_symbol
 _atom_site_label
 _atom_site_symmetry_multiplicity
 _atom_site_fract_x
 _atom_site_fract_y
 _atom_site_fract_z
 _atom_site_occupancy
  Rb  Rb0  1  0.63857370  0.63857370  0.00000000  1.0
  Rb  Rb1  1  0.00000000  0.36142630  0.00000000  1.0
  Rb  Rb2  1  0.36142630  0.00000000  0.00000000  1.0
  Rb  Rb3  1  0.69639570  0.69639570  0.50000000  1.0
  Rb  Rb4  1  0.00000000  0.30360430  0.50000000  1.0
  Rb  Rb5  1  0.30360430  0.00000000  0.50000000  1.0
  Al  Al6  1  0.00000000  0.00000000  0.80658667  1.0
  Al  Al7  1  0.00000000  0.00000000  0.19341333  1.0
  Al  Al8  1  0.66666667  0.33333333  0.70935161  1.0
  Al  Al9  1  0.33333333  0.66666667  0.29064839  1.0
  Al  Al10  1  0.66666667  0.33333333  0.32019860  1.0
  Al  Al11  1  0.33333333  0.66666667  0.67980140  1.0
  B  B12  1  -0.00076560  0.66568030  0.75340508  1.0
  B  B13  1  0.66644590  1.00076560  0.75340508  1.0
  B  B14  1  0.33431970  0.33355410  0.75340508  1.0
  B  B15  1  1.00076560  0.66644590  0.24659492  1.0
  B  B16  1  0.66568030  -0.00076560  0.24659492  1.0
  B  B17  1  0.33355410  0.33431970  0.24659492  1.0
  O  O18  1  0.12217563  0.61181178  0.74723693  1.0
  O  O19  1  0.48963615  0.87782437  0.74723693  1.0
  O  O20  1  0.38818822  0.51036385  0.74723693  1.0
  O  O21  1  0.87782437  0.48963615  0.25276307  1.0
  O  O22  1  0.61181178  0.12217563  0.25276307  1.0
  O  O23  1  0.51036385  0.38818822  0.25276307  1.0
  O  O24  1  0.82456757  0.54322401  0.77938176  1.0
  O  O25  1  0.71865644  0.17543243  0.77938176  1.0
  O  O26  1  0.45677599  0.28134356  0.77938176  1.0
  O  O27  1  0.17543243  0.71865644  0.22061824  1.0
  O  O28  1  0.54322401  0.82456757  0.22061824  1.0
  O  O29  1  0.28134356  0.45677599  0.22061824  1.0
  O  O30  1  0.05002663  0.84106965  0.73551575  1.0
  O  O31  1  0.79104302  0.94997337  0.73551575  1.0
  O  O32  1  0.15893035  0.20895698  0.73551575  1.0
  O  O33  1  0.94997337  0.79104302  0.26448425  1.0
  O  O34  1  0.84106965  0.05002663  0.26448425  1.0
  O  O35  1  0.20895698  0.15893035  0.26448425  1.0
  O  O36  1  0.66666667  0.33333333  0.51485947  1.0
  O  O37  1  0.33333333  0.66666667  0.48514053  1.0
  O  O38  1  0.00000000  0.00000000  0.00000000  1.0
