# generated using pymatgen
data_Fe3P4PbO14
_symmetry_space_group_name_H-M   'P 1'
_cell_length_a   7.65275422
_cell_length_b   7.87142701
_cell_length_c   9.74016662
_cell_angle_alpha   90.00000000
_cell_angle_beta   112.27228636
_cell_angle_gamma   90.00000000
_symmetry_Int_Tables_number   1
_chemical_formula_structural   Fe3P4PbO14
_chemical_formula_sum   'Fe6 P8 Pb2 O28'
_cell_volume   542.95508545
_cell_formula_units_Z   2
loop_
 _symmetry_equiv_pos_site_id
 _symmetry_equiv_pos_as_xyz
  1  'x, y, z'
loop_
 _atom_site_type_symbol
 _atom_site_label
 _atom_site_symmetry_multiplicity
 _atom_site_fract_x
 _atom_site_fract_y
 _atom_site_fract_z
 _atom_site_occupancy
  Fe  Fe0  1  0.00000000  0.00000000  0.00000000  1.0
  Fe  Fe1  1  0.00000000  0.50000000  0.50000000  1.0
  Fe  Fe2  1  0.81501711  0.37420422  0.97501745  1.0
  Fe  Fe3  1  0.81501711  0.12579578  0.47501745  1.0
  Fe  Fe4  1  0.18498289  0.87420422  0.52498255  1.0
  Fe  Fe5  1  0.18498289  0.62579578  0.02498255  1.0
  P  P6  1  0.89012228  0.79679378  0.69246338  1.0
  P  P7  1  0.89012228  0.70320622  0.19246338  1.0
  P  P8  1  0.10987772  0.29679378  0.80753662  1.0
  P  P9  1  0.10987772  0.20320622  0.30753662  1.0
  P  P10  1  0.39738447  0.55138181  0.79877933  1.0
  P  P11  1  0.39738447  0.94861819  0.29877933  1.0
  P  P12  1  0.60261553  0.05138181  0.70122067  1.0
  P  P13  1  0.60261553  0.44861819  0.20122067  1.0
  Pb  Pb14  1  0.50000000  0.00000000  0.00000000  1.0
  Pb  Pb15  1  0.50000000  0.50000000  0.50000000  1.0
  O  O16  1  0.27728170  0.60732760  0.63603517  1.0
  O  O17  1  0.27728170  0.89267240  0.13603517  1.0
  O  O18  1  0.72271830  0.10732760  0.86396483  1.0
  O  O19  1  0.72271830  0.39267240  0.36396483  1.0
  O  O20  1  1.00210729  0.78641474  0.86152111  1.0
  O  O21  1  1.00210729  0.71358526  0.36152111  1.0
  O  O22  1  -0.00210729  0.28641474  0.63847889  1.0
  O  O23  1  -0.00210729  0.21358526  0.13847889  1.0
  O  O24  1  0.84767896  0.62550968  0.61030949  1.0
  O  O25  1  0.84767896  0.87449032  0.11030949  1.0
  O  O26  1  0.15232104  0.12550968  0.88969051  1.0
  O  O27  1  0.15232104  0.37449032  0.38969051  1.0
  O  O28  1  0.68501508  0.86762515  0.67725425  1.0
  O  O29  1  0.68501508  0.63237485  0.17725425  1.0
  O  O30  1  0.31498492  0.36762515  0.82274575  1.0
  O  O31  1  0.31498492  0.13237485  0.32274575  1.0
  O  O32  1  0.59945180  0.50809712  0.81177669  1.0
  O  O33  1  0.59945180  0.99190288  0.31177669  1.0
  O  O34  1  0.40054820  0.00809712  0.68822331  1.0
  O  O35  1  0.40054820  0.49190288  0.18822331  1.0
  O  O36  1  0.37805488  0.67617755  0.91250355  1.0
  O  O37  1  0.37805488  0.82382245  0.41250355  1.0
  O  O38  1  0.62194512  0.17617755  0.58749645  1.0
  O  O39  1  0.62194512  0.32382245  0.08749645  1.0
  O  O40  1  0.97366027  0.92342450  0.61292665  1.0
  O  O41  1  0.97366027  0.57657550  0.11292665  1.0
  O  O42  1  0.02633973  0.42342450  0.88707335  1.0
  O  O43  1  0.02633973  0.07657550  0.38707335  1.0
