# generated using pymatgen
data_NaCoH4SO6F
_symmetry_space_group_name_H-M   'P 1'
_cell_length_a   5.81484338
_cell_length_b   7.36674569
_cell_length_c   7.23129320
_cell_angle_alpha   90.00000000
_cell_angle_beta   113.18843964
_cell_angle_gamma   90.00000000
_symmetry_Int_Tables_number   1
_chemical_formula_structural   NaCoH4SO6F
_chemical_formula_sum   'Na2 Co2 H8 S2 O12 F2'
_cell_volume   284.73881972
_cell_formula_units_Z   2
loop_
 _symmetry_equiv_pos_site_id
 _symmetry_equiv_pos_as_xyz
  1  'x, y, z'
loop_
 _atom_site_type_symbol
 _atom_site_label
 _atom_site_symmetry_multiplicity
 _atom_site_fract_x
 _atom_site_fract_y
 _atom_site_fract_z
 _atom_site_occupancy
  Na  Na0  1  0.62461004  0.75000000  0.69526046  1.0
  Na  Na1  1  0.37538996  0.25000000  0.30473954  1.0
  Co  Co2  1  0.00000000  0.00000000  0.50000000  1.0
  Co  Co3  1  0.00000000  0.50000000  0.50000000  1.0
  H  H4  1  0.29751193  0.91071306  0.87569847  1.0
  H  H5  1  0.29751193  0.58928694  0.87569847  1.0
  H  H6  1  0.70248807  0.41071306  0.12430153  1.0
  H  H7  1  0.70248807  0.08928694  0.12430153  1.0
  H  H8  1  0.57496974  0.92822139  0.19529286  1.0
  H  H9  1  0.57496974  0.57177861  0.19529286  1.0
  H  H10  1  0.42503026  0.42822139  0.80470714  1.0
  H  H11  1  0.42503026  0.07177861  0.80470714  1.0
  S  S12  1  0.15345593  0.75000000  0.19596513  1.0
  S  S13  1  0.84654407  0.25000000  0.80403487  1.0
  O  O14  1  0.20787478  0.91609590  0.32808526  1.0
  O  O15  1  0.20787478  0.58390410  0.32808526  1.0
  O  O16  1  0.79212522  0.41609590  0.67191474  1.0
  O  O17  1  0.79212522  0.08390410  0.67191474  1.0
  O  O18  1  0.33071358  0.95662937  0.76056551  1.0
  O  O19  1  0.33071358  0.54337063  0.76056551  1.0
  O  O20  1  0.66928642  0.45662937  0.23943449  1.0
  O  O21  1  0.66928642  0.04337063  0.23943449  1.0
  O  O22  1  0.34171604  0.75000000  0.09628580  1.0
  O  O23  1  0.65828396  0.25000000  0.90371420  1.0
  O  O24  1  0.89672743  0.75000000  0.04243221  1.0
  O  O25  1  0.10327257  0.25000000  0.95756779  1.0
  F  F26  1  0.87842977  0.75000000  0.52161470  1.0
  F  F27  1  0.12157023  0.25000000  0.47838530  1.0
