# generated using pymatgen
data_FeCu2C
_symmetry_space_group_name_H-M   'P 1'
_cell_length_a   5.07550951
_cell_length_b   6.98371150
_cell_length_c   4.58269790
_cell_angle_alpha   90.00000000
_cell_angle_beta   90.00000000
_cell_angle_gamma   90.00000000
_symmetry_Int_Tables_number   1
_chemical_formula_structural   FeCu2C
_chemical_formula_sum   'Fe4 Cu8 C4'
_cell_volume   162.43782482
_cell_formula_units_Z   4
loop_
 _symmetry_equiv_pos_site_id
 _symmetry_equiv_pos_as_xyz
  1  'x, y, z'
loop_
 _atom_site_type_symbol
 _atom_site_label
 _atom_site_symmetry_multiplicity
 _atom_site_fract_x
 _atom_site_fract_y
 _atom_site_fract_z
 _atom_site_occupancy
  Fe  Fe0  1  0.54625821  0.25000000  0.66293157  1.0
  Fe  Fe1  1  0.04625821  0.25000000  0.83706843  1.0
  Fe  Fe2  1  0.45374179  0.75000000  0.33706843  1.0
  Fe  Fe3  1  0.95374179  0.75000000  0.16293157  1.0
  Cu  Cu4  1  0.68465061  0.07190018  0.17006652  1.0
  Cu  Cu5  1  0.18465061  0.42809982  0.32993348  1.0
  Cu  Cu6  1  0.31534939  0.57190018  0.82993348  1.0
  Cu  Cu7  1  0.81534939  0.92809982  0.67006652  1.0
  Cu  Cu8  1  0.31534939  0.92809982  0.82993348  1.0
  Cu  Cu9  1  0.81534939  0.57190018  0.67006652  1.0
  Cu  Cu10  1  0.68465061  0.42809982  0.17006652  1.0
  Cu  Cu11  1  0.18465061  0.07190018  0.32993348  1.0
  C  C12  1  0.87650597  0.25000000  0.47790384  1.0
  C  C13  1  0.37650597  0.25000000  0.02209616  1.0
  C  C14  1  0.12349403  0.75000000  0.52209616  1.0
  C  C15  1  0.62349403  0.75000000  0.97790384  1.0
