# generated using pymatgen
data_Tl(FeTe)3
_symmetry_space_group_name_H-M   'P 1'
_cell_length_a   9.47226977
_cell_length_b   9.47226977
_cell_length_c   4.23525754
_cell_angle_alpha   90.00000000
_cell_angle_beta   90.00000000
_cell_angle_gamma   120.00000000
_symmetry_Int_Tables_number   1
_chemical_formula_structural   Tl(FeTe)3
_chemical_formula_sum   'Tl2 Fe6 Te6'
_cell_volume   329.09294516
_cell_formula_units_Z   2
loop_
 _symmetry_equiv_pos_site_id
 _symmetry_equiv_pos_as_xyz
  1  'x, y, z'
loop_
 _atom_site_type_symbol
 _atom_site_label
 _atom_site_symmetry_multiplicity
 _atom_site_fract_x
 _atom_site_fract_y
 _atom_site_fract_z
 _atom_site_occupancy
  Tl  Tl0  1  0.33333333  0.66666667  0.25000000  1.0
  Tl  Tl1  1  0.66666667  0.33333333  0.75000000  1.0
  Fe  Fe2  1  0.01942238  0.85906297  0.25000000  1.0
  Fe  Fe3  1  0.85906297  0.83964058  0.75000000  1.0
  Fe  Fe4  1  0.83964058  0.98057762  0.25000000  1.0
  Fe  Fe5  1  0.14093703  0.16035942  0.25000000  1.0
  Fe  Fe6  1  0.98057762  0.14093703  0.75000000  1.0
  Fe  Fe7  1  0.16035942  0.01942238  0.75000000  1.0
  Te  Te8  1  0.69465649  0.65201562  0.25000000  1.0
  Te  Te9  1  0.65201562  0.95735913  0.75000000  1.0
  Te  Te10  1  0.95735913  0.30534351  0.25000000  1.0
  Te  Te11  1  0.34798438  0.04264087  0.25000000  1.0
  Te  Te12  1  0.30534351  0.34798438  0.75000000  1.0
  Te  Te13  1  0.04264087  0.69465649  0.75000000  1.0
