# generated using pymatgen
data_Nb5Ge2B
_symmetry_space_group_name_H-M   'P 1'
_cell_length_a   7.55758893
_cell_length_b   7.55758893
_cell_length_c   7.55758893
_cell_angle_alpha   128.76560178
_cell_angle_beta   128.76560178
_cell_angle_gamma   75.38802383
_symmetry_Int_Tables_number   1
_chemical_formula_structural   Nb5Ge2B
_chemical_formula_sum   'Nb10 Ge4 B2'
_cell_volume   255.40413913
_cell_formula_units_Z   2
loop_
 _symmetry_equiv_pos_site_id
 _symmetry_equiv_pos_as_xyz
  1  'x, y, z'
loop_
 _atom_site_type_symbol
 _atom_site_label
 _atom_site_symmetry_multiplicity
 _atom_site_fract_x
 _atom_site_fract_y
 _atom_site_fract_z
 _atom_site_occupancy
  Nb  Nb0  1  0.50000000  0.50000000  1.00000000  1.0
  Nb  Nb1  1  0.00000000  0.00000000  0.00000000  1.0
  Nb  Nb2  1  0.50737956  1.00737956  0.83152569  1.0
  Nb  Nb3  1  1.17585387  0.67585387  1.16847431  1.0
  Nb  Nb4  1  1.00737956  1.17585387  1.50000000  1.0
  Nb  Nb5  1  0.67585387  0.50737956  0.50000000  1.0
  Nb  Nb6  1  0.49262044  0.99262044  1.16847431  1.0
  Nb  Nb7  1  0.82414613  0.32414613  0.83152569  1.0
  Nb  Nb8  1  0.99262044  0.82414613  1.50000000  1.0
  Nb  Nb9  1  0.32414613  0.49262044  0.50000000  1.0
  Ge  Ge10  1  0.86601697  0.36601697  1.23203395  1.0
  Ge  Ge11  1  0.13398303  0.63398303  0.76796605  1.0
  Ge  Ge12  1  0.36601697  0.13398303  0.50000000  1.0
  Ge  Ge13  1  0.63398303  0.86601697  1.50000000  1.0
  B  B14  1  0.25000000  0.25000000  0.00000000  1.0
  B  B15  1  0.75000000  0.75000000  1.00000000  1.0
