# generated using pymatgen
data_TaS3
_symmetry_space_group_name_H-M   'P 1'
_cell_length_a   10.18372494
_cell_length_b   3.36427998
_cell_length_c   15.21354322
_cell_angle_alpha   90.00000000
_cell_angle_beta   110.66215722
_cell_angle_gamma   90.00000000
_symmetry_Int_Tables_number   1
_chemical_formula_structural   TaS3
_chemical_formula_sum   'Ta6 S18'
_cell_volume   487.70280527
_cell_formula_units_Z   6
loop_
 _symmetry_equiv_pos_site_id
 _symmetry_equiv_pos_as_xyz
  1  'x, y, z'
loop_
 _atom_site_type_symbol
 _atom_site_label
 _atom_site_symmetry_multiplicity
 _atom_site_fract_x
 _atom_site_fract_y
 _atom_site_fract_z
 _atom_site_occupancy
  Ta  Ta0  1  0.37856178  0.25000000  0.70699684  1.0
  Ta  Ta1  1  0.62143822  0.75000000  0.29300316  1.0
  Ta  Ta2  1  0.34988758  0.25000000  0.03963686  1.0
  Ta  Ta3  1  0.65011242  0.75000000  0.96036314  1.0
  Ta  Ta4  1  0.02239818  0.25000000  0.38458640  1.0
  Ta  Ta5  1  0.97760182  0.75000000  0.61541360  1.0
  S  S6  1  0.94004905  0.25000000  0.72764153  1.0
  S  S7  1  0.05995095  0.75000000  0.27235847  1.0
  S  S8  1  0.81666011  0.25000000  0.93228203  1.0
  S  S9  1  0.18333989  0.75000000  0.06771797  1.0
  S  S10  1  0.81490302  0.25000000  0.06946175  1.0
  S  S11  1  0.18509698  0.75000000  0.93053825  1.0
  S  S12  1  0.77697977  0.25000000  0.25223889  1.0
  S  S13  1  0.22302023  0.75000000  0.74776111  1.0
  S  S14  1  0.78136411  0.25000000  0.58894403  1.0
  S  S15  1  0.21863589  0.75000000  0.41105597  1.0
  S  S16  1  0.60595647  0.25000000  0.40873536  1.0
  S  S17  1  0.39404353  0.75000000  0.59126464  1.0
  S  S18  1  0.45651337  0.25000000  0.90718016  1.0
  S  S19  1  0.54348663  0.75000000  0.09281984  1.0
  S  S20  1  0.42707738  0.25000000  0.21985676  1.0
  S  S21  1  0.57292262  0.75000000  0.78014324  1.0
  S  S22  1  0.12102864  0.25000000  0.56658597  1.0
  S  S23  1  0.87897136  0.75000000  0.43341403  1.0
