# generated using pymatgen
data_La3TaO7
_symmetry_space_group_name_H-M   'P 1'
_cell_length_a   7.80191969
_cell_length_b   11.20824364
_cell_length_c   7.78252355
_cell_angle_alpha   90.00000000
_cell_angle_beta   90.00000000
_cell_angle_gamma   90.00000000
_symmetry_Int_Tables_number   1
_chemical_formula_structural   La3TaO7
_chemical_formula_sum   'La12 Ta4 O28'
_cell_volume   680.54912730
_cell_formula_units_Z   4
loop_
 _symmetry_equiv_pos_site_id
 _symmetry_equiv_pos_as_xyz
  1  'x, y, z'
loop_
 _atom_site_type_symbol
 _atom_site_label
 _atom_site_symmetry_multiplicity
 _atom_site_fract_x
 _atom_site_fract_y
 _atom_site_fract_z
 _atom_site_occupancy
  La  La0  1  0.24862435  0.97783172  0.95708837  1.0
  La  La1  1  0.24862435  0.52216828  0.95708837  1.0
  La  La2  1  0.74862435  0.97783172  0.54291163  1.0
  La  La3  1  0.74862435  0.52216828  0.54291163  1.0
  La  La4  1  0.75137565  0.47783172  0.04291163  1.0
  La  La5  1  0.75137565  0.02216828  0.04291163  1.0
  La  La6  1  0.25137565  0.47783172  0.45708837  1.0
  La  La7  1  0.25137565  0.02216828  0.45708837  1.0
  La  La8  1  0.00809885  0.75000000  0.28339755  1.0
  La  La9  1  0.50809885  0.75000000  0.21660245  1.0
  La  La10  1  0.99190115  0.25000000  0.71660245  1.0
  La  La11  1  0.49190115  0.25000000  0.78339755  1.0
  Ta  Ta12  1  0.50175961  0.75000000  0.75022917  1.0
  Ta  Ta13  1  1.00175961  0.75000000  0.74977083  1.0
  Ta  Ta14  1  0.49824039  0.25000000  0.24977083  1.0
  Ta  Ta15  1  -0.00175961  0.25000000  0.25022917  1.0
  O  O16  1  0.46363237  0.88119820  0.58762328  1.0
  O  O17  1  0.46363237  0.61880180  0.58762328  1.0
  O  O18  1  0.96363237  0.88119820  0.91237672  1.0
  O  O19  1  0.96363237  0.61880180  0.91237672  1.0
  O  O20  1  0.53636763  0.38119820  0.41237672  1.0
  O  O21  1  0.53636763  0.11880180  0.41237672  1.0
  O  O22  1  0.03636763  0.38119820  0.08762328  1.0
  O  O23  1  0.03636763  0.11880180  0.08762328  1.0
  O  O24  1  0.24629723  0.38179266  0.72849379  1.0
  O  O25  1  0.24629723  0.11820734  0.72849379  1.0
  O  O26  1  0.74629723  0.38179266  0.77150621  1.0
  O  O27  1  0.74629723  0.11820734  0.77150621  1.0
  O  O28  1  0.75370277  0.88179266  0.27150621  1.0
  O  O29  1  0.75370277  0.61820734  0.27150621  1.0
  O  O30  1  0.25370277  0.88179266  0.22849379  1.0
  O  O31  1  0.25370277  0.61820734  0.22849379  1.0
  O  O32  1  0.03022527  0.87080930  0.55267582  1.0
  O  O33  1  0.03022527  0.62919070  0.55267582  1.0
  O  O34  1  0.53022527  0.87080930  0.94732418  1.0
  O  O35  1  0.53022527  0.62919070  0.94732418  1.0
  O  O36  1  0.96977473  0.37080930  0.44732418  1.0
  O  O37  1  0.96977473  0.12919070  0.44732418  1.0
  O  O38  1  0.46977473  0.37080930  0.05267582  1.0
  O  O39  1  0.46977473  0.12919070  0.05267582  1.0
  O  O40  1  0.24662237  0.75000000  0.81315092  1.0
  O  O41  1  0.74662237  0.75000000  0.68684908  1.0
  O  O42  1  0.75337763  0.25000000  0.18684908  1.0
  O  O43  1  0.25337763  0.25000000  0.31315092  1.0
