# generated using pymatgen
data_K2P3H7O9
_symmetry_space_group_name_H-M   'P 1'
_cell_length_a   7.71502201
_cell_length_b   8.80742808
_cell_length_c   9.20250852
_cell_angle_alpha   100.98318209
_cell_angle_beta   113.59688414
_cell_angle_gamma   88.91412191
_symmetry_Int_Tables_number   1
_chemical_formula_structural   K2P3H7O9
_chemical_formula_sum   'K4 P6 H14 O18'
_cell_volume   561.38184146
_cell_formula_units_Z   2
loop_
 _symmetry_equiv_pos_site_id
 _symmetry_equiv_pos_as_xyz
  1  'x, y, z'
loop_
 _atom_site_type_symbol
 _atom_site_label
 _atom_site_symmetry_multiplicity
 _atom_site_fract_x
 _atom_site_fract_y
 _atom_site_fract_z
 _atom_site_occupancy
  K  K0  1  -0.41143254  -0.42537389  0.84747627  1.0
  K  K1  1  -0.58856746  -0.57462611  0.15252373  1.0
  K  K2  1  -0.32014524  -0.90098029  0.90245008  1.0
  K  K3  1  -0.67985476  -0.09901971  0.09754992  1.0
  P  P4  1  -0.93748722  -0.39910568  0.77710690  1.0
  P  P5  1  -0.06251278  -0.60089432  0.22289310  1.0
  P  P6  1  -0.85801009  -0.86384453  0.76096413  1.0
  P  P7  1  -0.14198991  -0.13615547  0.23903587  1.0
  P  P8  1  -0.47661035  -0.78101960  0.48028197  1.0
  P  P9  1  -0.52338965  -0.21898040  0.51971803  1.0
  H  H10  1  -0.92725324  -0.41598412  0.62508127  1.0
  H  H11  1  -0.07274676  -0.58401588  0.37491873  1.0
  H  H12  1  -0.93613766  -1.01396618  0.67551362  1.0
  H  H13  1  -0.06386234  0.01396618  0.32448638  1.0
  H  H14  1  -0.85640293  -0.78713538  0.24970819  1.0
  H  H15  1  -0.14359707  -0.21286462  0.75029181  1.0
  H  H16  1  -0.74446156  -0.41260554  0.42199206  1.0
  H  H17  1  -0.25553844  -0.58739446  0.57800794  1.0
  H  H18  1  -0.70516214  -0.76482846  0.63339894  1.0
  H  H19  1  -0.29483786  -0.23517154  0.36660106  1.0
  H  H20  1  -0.35475627  -0.90470849  0.49389477  1.0
  H  H21  1  -0.64524373  -0.09529151  0.50610523  1.0
  H  H22  1  -0.04660341  -0.67469340  0.78901276  1.0
  H  H23  1  -0.95339659  -0.32530660  0.21098724  1.0
  O  O24  1  -0.99784078  -0.77316995  0.18928002  1.0
  O  O25  1  -0.00215922  -0.22683005  0.81071998  1.0
  O  O26  1  -0.90201343  -0.48454855  0.24372517  1.0
  O  O27  1  -0.09798657  -0.51545145  0.75627483  1.0
  O  O28  1  -0.83893852  -0.77360380  0.63492667  1.0
  O  O29  1  -0.16106148  -0.22639620  0.36507333  1.0
  O  O30  1  -0.74283568  -0.40906613  0.90701522  1.0
  O  O31  1  -0.25716432  -0.59093387  0.09298478  1.0
  O  O32  1  -0.67731116  -0.87089449  0.90645693  1.0
  O  O33  1  -0.32268884  -0.12910551  0.09354307  1.0
  O  O34  1  -0.64230809  -0.36059249  0.53003928  1.0
  O  O35  1  -0.35769191  -0.63940751  0.46996072  1.0
  O  O36  1  -0.64437038  -0.82315643  0.31694917  1.0
  O  O37  1  -0.35562962  -0.17684357  0.68305083  1.0
  O  O38  1  -0.51369992  -0.74565891  0.63436175  1.0
  O  O39  1  -0.48630008  -0.25434109  0.36563825  1.0
  O  O40  1  -0.02538662  -0.78932656  0.80227863  1.0
  O  O41  1  -0.97461338  -0.21067344  0.19772137  1.0
